# CIF file generated by openbabel 3.1.0, see https://openbabel.org
data_I
_chemical_name_common 'image0'
_cell_length_a 6.5562
_cell_length_b 10.6424
_cell_length_c 18.2951
_cell_angle_alpha 90
_cell_angle_beta 98.07
_cell_angle_gamma 90
_space_group_name_H-M_alt 'P 1'
_space_group_name_Hall 'P 1'
loop_
    _symmetry_equiv_pos_as_xyz
    x,y,z
loop_
    _atom_site_label
    _atom_site_type_symbol
    _atom_site_fract_x
    _atom_site_fract_y
    _atom_site_fract_z
    _atom_site_occupancy
    Ca1      Ca       0.24775    0.59634    0.52252    1.000
    S1       S        0.11555    0.79901    0.20973    1.000
    O1       O        0.09730    0.89788    0.05628    1.000
    O2       O        0.42830    0.94056    0.06111    1.000
    O3       O        0.32020    0.68166    0.40910    1.000
    O4       O        0.99940    0.71150    0.35000    1.000
    C1       C        0.27610    0.90140    0.09060    1.000
    C2       C        0.19090    0.71680    0.35471    1.000
    C3       C        0.47290    0.81420    0.28634    1.000
    H1       H        0.58300    0.80820    0.32590    1.000
    C4       C        0.31310    0.86150    0.16868    1.000
    C5       C        0.27710    0.77410    0.29075    1.000
    C6       C        0.49390    0.86570    0.21642    1.000
    H2       H        0.61890    0.89930    0.20400    1.000
    Ca2      Ca       0.25225    0.09634    0.97748    1.000
    S2       S        0.38445    0.29901    0.29027    1.000
    O5       O        0.40270    0.39788    0.44372    1.000
    O6       O        0.07170    0.44056    0.43889    1.000
    O7       O        0.17980    0.18166    0.09090    1.000
    O8       O        0.50060    0.21150    0.15000    1.000
    C7       C        0.22390    0.40140    0.40940    1.000
    C8       C        0.30910    0.21680    0.14529    1.000
    C9       C        0.02710    0.31420    0.21366    1.000
    H3       H        0.91700    0.30820    0.17410    1.000
    C10      C        0.18690    0.36150    0.33132    1.000
    C11      C        0.22290    0.27410    0.20925    1.000
    C12      C        0.00610    0.36570    0.28358    1.000
    H4       H        0.88110    0.39930    0.29600    1.000
    Ca3      Ca       0.75225    0.40366    0.47748    1.000
    S3       S        0.88445    0.20099    0.79027    1.000
    O9       O        0.90270    0.10212    0.94372    1.000
    O10      O        0.57170    0.05944    0.93889    1.000
    O11      O        0.67980    0.31834    0.59090    1.000
    O12      O        0.00060    0.28850    0.65000    1.000
    C13      C        0.72390    0.09860    0.90940    1.000
    C14      C        0.80910    0.28320    0.64529    1.000
    C15      C        0.52710    0.18580    0.71366    1.000
    H5       H        0.41700    0.19180    0.67410    1.000
    C16      C        0.68690    0.13850    0.83132    1.000
    C17      C        0.72290    0.22590    0.70925    1.000
    C18      C        0.50610    0.13430    0.78358    1.000
    H6       H        0.38110    0.10070    0.79600    1.000
    Ca4      Ca       0.74775    0.90366    0.02252    1.000
    S4       S        0.61555    0.70099    0.70973    1.000
    O13      O        0.59730    0.60212    0.55628    1.000
    O14      O        0.92830    0.55944    0.56111    1.000
    O15      O        0.82020    0.81834    0.90910    1.000
    O16      O        0.49940    0.78850    0.85000    1.000
    C19      C        0.77610    0.59860    0.59060    1.000
    C20      C        0.69090    0.78320    0.85471    1.000
    C21      C        0.97290    0.68580    0.78634    1.000
    H7       H        0.08300    0.69180    0.82590    1.000
    C22      C        0.81310    0.63850    0.66868    1.000
    C23      C        0.77710    0.72590    0.79075    1.000
    C24      C        0.99390    0.63430    0.71642    1.000
    H8       H        0.11890    0.60070    0.70400    1.000
