# CIF file generated by openbabel 3.1.0, see https://openbabel.org
data_I
_chemical_name_common 'TASVUG_clean'
_cell_length_a 15.188
_cell_length_b 25.73
_cell_length_c 26.94
_cell_angle_alpha 90
_cell_angle_beta 90
_cell_angle_gamma 90
_space_group_name_H-M_alt 'P 1'
_space_group_name_Hall 'P 1'
loop_
    _symmetry_equiv_pos_as_xyz
    x,y,z
loop_
    _atom_site_label
    _atom_site_type_symbol
    _atom_site_fract_x
    _atom_site_fract_y
    _atom_site_fract_z
    _atom_site_occupancy
    Tb1      Tb       0.35010    0.39714    0.81634    1.000
    Tb2      Tb       0.35010    0.10286    0.18366    1.000
    Tb3      Tb       0.14990    0.10286    0.31634    1.000
    Tb4      Tb       0.14990    0.39714    0.68366    1.000
    Tb5      Tb       0.64990    0.60286    0.18366    1.000
    Tb6      Tb       0.64990    0.89714    0.81634    1.000
    Tb7      Tb       0.85010    0.89714    0.68366    1.000
    Tb8      Tb       0.85010    0.60286    0.31634    1.000
    H1       H        0.54330    0.63630    0.58980    1.000
    H2       H        0.54330    0.86370    0.41020    1.000
    H3       H        0.95670    0.86370    0.08980    1.000
    H4       H        0.95670    0.63630    0.91020    1.000
    H5       H        0.45670    0.36370    0.41020    1.000
    H6       H        0.45670    0.13630    0.58980    1.000
    H7       H        0.04330    0.13630    0.91020    1.000
    H8       H        0.04330    0.36370    0.08980    1.000
    C1       C        0.58880    0.62230    0.61180    1.000
    C2       C        0.65040    0.60900    0.57120    1.000
    C3       C        0.74350    0.61620    0.57040    1.000
    C4       C        0.79560    0.60330    0.52880    1.000
    C5       C        0.76080    0.58210    0.48600    1.000
    C6       C        0.66790    0.57520    0.48460    1.000
    C7       C        0.61020    0.58670    0.52670    1.000
    C8       C        0.81590    0.56820    0.44020    1.000
    C9       C        0.52620    0.58030    0.63670    1.000
    C10      C        0.55720    0.52860    0.64840    1.000
    C11      C        0.49690    0.49280    0.66930    1.000
    C12      C        0.40810    0.50400    0.68010    1.000
    C13      C        0.37790    0.55520    0.67070    1.000
    C14      C        0.43960    0.59190    0.64850    1.000
    C15      C        0.34460    0.46470    0.70340    1.000
    C16      C        0.59770    0.67220    0.64270    1.000
    C17      C        0.59610    0.71850    0.61450    1.000
    C18      C        0.60490    0.76690    0.63770    1.000
    C19      C        0.63110    0.77020    0.68880    1.000
    C20      C        0.62210    0.72430    0.71660    1.000
    C21      C        0.61410    0.67560    0.69420    1.000
    C22      C        0.65190    0.82110    0.71400    1.000
    C23      C        0.58880    0.87770    0.38820    1.000
    C24      C        0.65040    0.89100    0.42880    1.000
    C25      C        0.74350    0.88380    0.42960    1.000
    C26      C        0.79560    0.89670    0.47120    1.000
    C27      C        0.76080    0.91790    0.51400    1.000
    C28      C        0.66790    0.92480    0.51540    1.000
    C29      C        0.61020    0.91330    0.47330    1.000
    C30      C        0.81590    0.93180    0.55980    1.000
    C31      C        0.52620    0.91970    0.36330    1.000
    C32      C        0.55720    0.97140    0.35160    1.000
    C33      C        0.49690    0.00720    0.33070    1.000
    C34      C        0.40810    0.99600    0.31990    1.000
    C35      C        0.37790    0.94480    0.32930    1.000
    C36      C        0.43960    0.90810    0.35150    1.000
    C37      C        0.34460    0.03530    0.29660    1.000
    C38      C        0.59770    0.82780    0.35730    1.000
    C39      C        0.59610    0.78150    0.38550    1.000
    C40      C        0.60490    0.73310    0.36230    1.000
    C41      C        0.63110    0.72980    0.31120    1.000
    C42      C        0.62210    0.77570    0.28340    1.000
    C43      C        0.61410    0.82440    0.30580    1.000
    C44      C        0.65190    0.67890    0.28600    1.000
    C45      C        0.91120    0.87770    0.11180    1.000
    C46      C        0.84960    0.89100    0.07120    1.000
    C47      C        0.75650    0.88380    0.07040    1.000
    C48      C        0.70440    0.89670    0.02880    1.000
    C49      C        0.73920    0.91790    0.98600    1.000
    C50      C        0.83210    0.92480    0.98460    1.000
    C51      C        0.88980    0.91330    0.02670    1.000
    C52      C        0.68410    0.93180    0.94020    1.000
    C53      C        0.97380    0.91970    0.13670    1.000
    C54      C        0.94280    0.97140    0.14840    1.000
    C55      C        0.00310    0.00720    0.16930    1.000
    C56      C        0.09190    0.99600    0.18010    1.000
    C57      C        0.12210    0.94480    0.17070    1.000
    C58      C        0.06040    0.90810    0.14850    1.000
    C59      C        0.15540    0.03530    0.20340    1.000
    C60      C        0.90230    0.82780    0.14270    1.000
    C61      C        0.90390    0.78150    0.11450    1.000
    C62      C        0.89510    0.73310    0.13770    1.000
    C63      C        0.86890    0.72980    0.18880    1.000
    C64      C        0.87790    0.77570    0.21660    1.000
    C65      C        0.88590    0.82440    0.19420    1.000
    C66      C        0.84810    0.67890    0.21400    1.000
    C67      C        0.91120    0.62230    0.88820    1.000
    C68      C        0.84960    0.60900    0.92880    1.000
    C69      C        0.75650    0.61620    0.92960    1.000
    C70      C        0.70440    0.60330    0.97120    1.000
    C71      C        0.73920    0.58210    0.01400    1.000
    C72      C        0.83210    0.57520    0.01540    1.000
    C73      C        0.88980    0.58670    0.97330    1.000
    C74      C        0.68410    0.56820    0.05980    1.000
    C75      C        0.97380    0.58030    0.86330    1.000
    C76      C        0.94280    0.52860    0.85160    1.000
    C77      C        0.00310    0.49280    0.83070    1.000
    C78      C        0.09190    0.50400    0.81990    1.000
    C79      C        0.12210    0.55520    0.82930    1.000
    C80      C        0.06040    0.59190    0.85150    1.000
    C81      C        0.15540    0.46470    0.79660    1.000
    C82      C        0.90230    0.67220    0.85730    1.000
    C83      C        0.90390    0.71850    0.88550    1.000
    C84      C        0.89510    0.76690    0.86230    1.000
    C85      C        0.86890    0.77020    0.81120    1.000
    C86      C        0.87790    0.72430    0.78340    1.000
    C87      C        0.88590    0.67560    0.80580    1.000
    C88      C        0.84810    0.82110    0.78600    1.000
    C89      C        0.41120    0.37770    0.38820    1.000
    C90      C        0.34960    0.39100    0.42880    1.000
    C91      C        0.25650    0.38380    0.42960    1.000
    C92      C        0.20440    0.39670    0.47120    1.000
    C93      C        0.23920    0.41790    0.51400    1.000
    C94      C        0.33210    0.42480    0.51540    1.000
    C95      C        0.38980    0.41330    0.47330    1.000
    C96      C        0.18410    0.43180    0.55980    1.000
    C97      C        0.47380    0.41970    0.36330    1.000
    C98      C        0.44280    0.47140    0.35160    1.000
    C99      C        0.50310    0.50720    0.33070    1.000
    C100     C        0.59190    0.49600    0.31990    1.000
    C101     C        0.62210    0.44480    0.32930    1.000
    C102     C        0.56040    0.40810    0.35150    1.000
    C103     C        0.65540    0.53530    0.29660    1.000
    C104     C        0.40230    0.32780    0.35730    1.000
    C105     C        0.40390    0.28150    0.38550    1.000
    C106     C        0.39510    0.23310    0.36230    1.000
    C107     C        0.36890    0.22980    0.31120    1.000
    C108     C        0.37790    0.27570    0.28340    1.000
    C109     C        0.38590    0.32440    0.30580    1.000
    C110     C        0.34810    0.17890    0.28600    1.000
    C111     C        0.41120    0.12230    0.61180    1.000
    C112     C        0.34960    0.10900    0.57120    1.000
    C113     C        0.25650    0.11620    0.57040    1.000
    C114     C        0.20440    0.10330    0.52880    1.000
    C115     C        0.23920    0.08210    0.48600    1.000
    C116     C        0.33210    0.07520    0.48460    1.000
    C117     C        0.38980    0.08670    0.52670    1.000
    C118     C        0.18410    0.06820    0.44020    1.000
    C119     C        0.47380    0.08030    0.63670    1.000
    C120     C        0.44280    0.02860    0.64840    1.000
    C121     C        0.50310    0.99280    0.66930    1.000
    C122     C        0.59190    0.00400    0.68010    1.000
    C123     C        0.62210    0.05520    0.67070    1.000
    C124     C        0.56040    0.09190    0.64850    1.000
    C125     C        0.65540    0.96470    0.70340    1.000
    C126     C        0.40230    0.17220    0.64270    1.000
    C127     C        0.40390    0.21850    0.61450    1.000
    C128     C        0.39510    0.26690    0.63770    1.000
    C129     C        0.36890    0.27020    0.68880    1.000
    C130     C        0.37790    0.22430    0.71660    1.000
    C131     C        0.38590    0.17560    0.69420    1.000
    C132     C        0.34810    0.32110    0.71400    1.000
    C133     C        0.08880    0.12230    0.88820    1.000
    C134     C        0.15040    0.10900    0.92880    1.000
    C135     C        0.24350    0.11620    0.92960    1.000
    C136     C        0.29560    0.10330    0.97120    1.000
    C137     C        0.26080    0.08210    0.01400    1.000
    C138     C        0.16790    0.07520    0.01540    1.000
    C139     C        0.11020    0.08670    0.97330    1.000
    C140     C        0.31590    0.06820    0.05980    1.000
    C141     C        0.02620    0.08030    0.86330    1.000
    C142     C        0.05720    0.02860    0.85160    1.000
    C143     C        0.99690    0.99280    0.83070    1.000
    C144     C        0.90810    0.00400    0.81990    1.000
    C145     C        0.87790    0.05520    0.82930    1.000
    C146     C        0.93960    0.09190    0.85150    1.000
    C147     C        0.84460    0.96470    0.79660    1.000
    C148     C        0.09770    0.17220    0.85730    1.000
    C149     C        0.09610    0.21850    0.88550    1.000
    C150     C        0.10490    0.26690    0.86230    1.000
    C151     C        0.13110    0.27020    0.81120    1.000
    C152     C        0.12210    0.22430    0.78340    1.000
    C153     C        0.11410    0.17560    0.80580    1.000
    C154     C        0.15190    0.32110    0.78600    1.000
    C155     C        0.08880    0.37770    0.11180    1.000
    C156     C        0.15040    0.39100    0.07120    1.000
    C157     C        0.24350    0.38380    0.07040    1.000
    C158     C        0.29560    0.39670    0.02880    1.000
    C159     C        0.26080    0.41790    0.98600    1.000
    C160     C        0.16790    0.42480    0.98460    1.000
    C161     C        0.11020    0.41330    0.02670    1.000
    C162     C        0.31590    0.43180    0.94020    1.000
    C163     C        0.02620    0.41970    0.13670    1.000
    C164     C        0.05720    0.47140    0.14840    1.000
    C165     C        0.99690    0.50720    0.16930    1.000
    C166     C        0.90810    0.49600    0.18010    1.000
    C167     C        0.87790    0.44480    0.17070    1.000
    C168     C        0.93960    0.40810    0.14850    1.000
    C169     C        0.84460    0.53530    0.20340    1.000
    C170     C        0.09770    0.32780    0.14270    1.000
    C171     C        0.09610    0.28150    0.11450    1.000
    C172     C        0.10490    0.23310    0.13770    1.000
    C173     C        0.13110    0.22980    0.18880    1.000
    C174     C        0.12210    0.27570    0.21660    1.000
    C175     C        0.11410    0.32440    0.19420    1.000
    C176     C        0.15190    0.17890    0.21400    1.000
    Cl1      Cl       0.79700    0.63858    0.62418    1.000
    Cl2      Cl       0.91480    0.61430    0.52912    1.000
    Cl3      Cl       0.61550    0.54546    0.43291    1.000
    Cl4      Cl       0.49420    0.57826    0.52192    1.000
    Cl5      Cl       0.66790    0.51170    0.63600    1.000
    Cl6      Cl       0.53330    0.42992    0.67810    1.000
    Cl7      Cl       0.26640    0.57099    0.68294    1.000
    Cl8      Cl       0.39330    0.65249    0.63516    1.000
    Cl9      Cl       0.57110    0.71773    0.55161    1.000
    Cl10     Cl       0.60210    0.82276    0.60334    1.000
    Cl11     Cl       0.64520    0.72601    0.78160    1.000
    Cl12     Cl       0.62370    0.62059    0.73106    1.000
    Cl13     Cl       0.79700    0.86142    0.37582    1.000
    Cl14     Cl       0.91480    0.88570    0.47088    1.000
    Cl15     Cl       0.61550    0.95454    0.56709    1.000
    Cl16     Cl       0.49420    0.92174    0.47808    1.000
    Cl17     Cl       0.66790    0.98830    0.36400    1.000
    Cl18     Cl       0.53330    0.07008    0.32190    1.000
    Cl19     Cl       0.26640    0.92901    0.31706    1.000
    Cl20     Cl       0.39330    0.84751    0.36484    1.000
    Cl21     Cl       0.57110    0.78227    0.44839    1.000
    Cl22     Cl       0.60210    0.67724    0.39666    1.000
    Cl23     Cl       0.64520    0.77399    0.21840    1.000
    Cl24     Cl       0.62370    0.87941    0.26894    1.000
    Cl25     Cl       0.70300    0.86142    0.12418    1.000
    Cl26     Cl       0.58520    0.88570    0.02912    1.000
    Cl27     Cl       0.88450    0.95454    0.93291    1.000
    Cl28     Cl       0.00580    0.92174    0.02192    1.000
    Cl29     Cl       0.83210    0.98830    0.13600    1.000
    Cl30     Cl       0.96670    0.07008    0.17810    1.000
    Cl31     Cl       0.23360    0.92901    0.18294    1.000
    Cl32     Cl       0.10670    0.84751    0.13516    1.000
    Cl33     Cl       0.92890    0.78227    0.05161    1.000
    Cl34     Cl       0.89790    0.67724    0.10334    1.000
    Cl35     Cl       0.85480    0.77399    0.28160    1.000
    Cl36     Cl       0.87630    0.87941    0.23106    1.000
    Cl37     Cl       0.70300    0.63858    0.87582    1.000
    Cl38     Cl       0.58520    0.61430    0.97088    1.000
    Cl39     Cl       0.88450    0.54546    0.06709    1.000
    Cl40     Cl       0.00580    0.57826    0.97808    1.000
    Cl41     Cl       0.83210    0.51170    0.86400    1.000
    Cl42     Cl       0.96670    0.42992    0.82190    1.000
    Cl43     Cl       0.23360    0.57099    0.81706    1.000
    Cl44     Cl       0.10670    0.65249    0.86484    1.000
    Cl45     Cl       0.92890    0.71773    0.94839    1.000
    Cl46     Cl       0.89790    0.82276    0.89666    1.000
    Cl47     Cl       0.85480    0.72601    0.71840    1.000
    Cl48     Cl       0.87630    0.62059    0.76894    1.000
    Cl49     Cl       0.20300    0.36142    0.37582    1.000
    Cl50     Cl       0.08520    0.38570    0.47088    1.000
    Cl51     Cl       0.38450    0.45454    0.56709    1.000
    Cl52     Cl       0.50580    0.42174    0.47808    1.000
    Cl53     Cl       0.33210    0.48830    0.36400    1.000
    Cl54     Cl       0.46670    0.57008    0.32190    1.000
    Cl55     Cl       0.73360    0.42901    0.31706    1.000
    Cl56     Cl       0.60670    0.34751    0.36484    1.000
    Cl57     Cl       0.42890    0.28227    0.44839    1.000
    Cl58     Cl       0.39790    0.17724    0.39666    1.000
    Cl59     Cl       0.35480    0.27399    0.21840    1.000
    Cl60     Cl       0.37630    0.37941    0.26894    1.000
    Cl61     Cl       0.20300    0.13858    0.62418    1.000
    Cl62     Cl       0.08520    0.11430    0.52912    1.000
    Cl63     Cl       0.38450    0.04546    0.43291    1.000
    Cl64     Cl       0.50580    0.07826    0.52192    1.000
    Cl65     Cl       0.33210    0.01170    0.63600    1.000
    Cl66     Cl       0.46670    0.92992    0.67810    1.000
    Cl67     Cl       0.73360    0.07099    0.68294    1.000
    Cl68     Cl       0.60670    0.15249    0.63516    1.000
    Cl69     Cl       0.42890    0.21773    0.55161    1.000
    Cl70     Cl       0.39790    0.32276    0.60334    1.000
    Cl71     Cl       0.35480    0.22601    0.78160    1.000
    Cl72     Cl       0.37630    0.12059    0.73106    1.000
    Cl73     Cl       0.29700    0.13858    0.87582    1.000
    Cl74     Cl       0.41480    0.11430    0.97088    1.000
    Cl75     Cl       0.11550    0.04546    0.06709    1.000
    Cl76     Cl       0.99420    0.07826    0.97808    1.000
    Cl77     Cl       0.16790    0.01170    0.86400    1.000
    Cl78     Cl       0.03330    0.92992    0.82190    1.000
    Cl79     Cl       0.76640    0.07099    0.81706    1.000
    Cl80     Cl       0.89330    0.15249    0.86484    1.000
    Cl81     Cl       0.07110    0.21773    0.94839    1.000
    Cl82     Cl       0.10210    0.32276    0.89666    1.000
    Cl83     Cl       0.14520    0.22601    0.71840    1.000
    Cl84     Cl       0.12370    0.12059    0.76894    1.000
    Cl85     Cl       0.29700    0.36142    0.12418    1.000
    Cl86     Cl       0.41480    0.38570    0.02912    1.000
    Cl87     Cl       0.11550    0.45454    0.93291    1.000
    Cl88     Cl       0.99420    0.42174    0.02192    1.000
    Cl89     Cl       0.16790    0.48830    0.13600    1.000
    Cl90     Cl       0.03330    0.57008    0.17810    1.000
    Cl91     Cl       0.76640    0.42901    0.18294    1.000
    Cl92     Cl       0.89330    0.34751    0.13516    1.000
    Cl93     Cl       0.07110    0.28227    0.05161    1.000
    Cl94     Cl       0.10210    0.17724    0.10334    1.000
    Cl95     Cl       0.14520    0.27399    0.28160    1.000
    Cl96     Cl       0.12370    0.37941    0.23106    1.000
    O1       O        0.85770    0.52580    0.44230    1.000
    O2       O        0.36340    0.45040    0.74680    1.000
    O3       O        0.60550    0.83820    0.74910    1.000
    O4       O        0.81850    0.59950    0.40430    1.000
    O5       O        0.72590    0.84110    0.69410    1.000
    O6       O        0.27990    0.45050    0.67690    1.000
    O7       O        0.85770    0.97420    0.55770    1.000
    O8       O        0.36340    0.04960    0.25320    1.000
    O9       O        0.60550    0.66180    0.25090    1.000
    O10      O        0.81850    0.90050    0.59570    1.000
    O11      O        0.72590    0.65890    0.30590    1.000
    O12      O        0.27990    0.04950    0.32310    1.000
    O13      O        0.64230    0.97420    0.94230    1.000
    O14      O        0.13660    0.04960    0.24680    1.000
    O15      O        0.89450    0.66180    0.24910    1.000
    O16      O        0.68150    0.90050    0.90430    1.000
    O17      O        0.77410    0.65890    0.19410    1.000
    O18      O        0.22010    0.04950    0.17690    1.000
    O19      O        0.64230    0.52580    0.05770    1.000
    O20      O        0.13660    0.45040    0.75320    1.000
    O21      O        0.89450    0.83820    0.75090    1.000
    O22      O        0.68150    0.59950    0.09570    1.000
    O23      O        0.77410    0.84110    0.80590    1.000
    O24      O        0.22010    0.45050    0.82310    1.000
    O25      O        0.14230    0.47420    0.55770    1.000
    O26      O        0.63660    0.54960    0.25320    1.000
    O27      O        0.39450    0.16180    0.25090    1.000
    O28      O        0.18150    0.40050    0.59570    1.000
    O29      O        0.27410    0.15890    0.30590    1.000
    O30      O        0.72010    0.54950    0.32310    1.000
    O31      O        0.14230    0.02580    0.44230    1.000
    O32      O        0.63660    0.95040    0.74680    1.000
    O33      O        0.39450    0.33820    0.74910    1.000
    O34      O        0.18150    0.09950    0.40430    1.000
    O35      O        0.27410    0.34110    0.69410    1.000
    O36      O        0.72010    0.95050    0.67690    1.000
    O37      O        0.35770    0.02580    0.05770    1.000
    O38      O        0.86340    0.95040    0.75320    1.000
    O39      O        0.10550    0.33820    0.75090    1.000
    O40      O        0.31850    0.09950    0.09570    1.000
    O41      O        0.22590    0.34110    0.80590    1.000
    O42      O        0.77990    0.95050    0.82310    1.000
    O43      O        0.35770    0.47420    0.94230    1.000
    O44      O        0.86340    0.54960    0.24680    1.000
    O45      O        0.10550    0.16180    0.24910    1.000
    O46      O        0.31850    0.40050    0.90430    1.000
    O47      O        0.22590    0.15890    0.19410    1.000
    O48      O        0.77990    0.54950    0.17690    1.000
