# CIF file generated by openbabel 3.1.0, see https://openbabel.org
data_I
_chemical_name_common 'TEJGAS_clean'
_cell_length_a 10.2064
_cell_length_b 11.2487
_cell_length_c 22.1913
_cell_angle_alpha 90
_cell_angle_beta 97.201
_cell_angle_gamma 90
_space_group_name_H-M_alt 'P 1'
_space_group_name_Hall 'P 1'
loop_
    _symmetry_equiv_pos_as_xyz
    x,y,z
loop_
    _atom_site_label
    _atom_site_type_symbol
    _atom_site_fract_x
    _atom_site_fract_y
    _atom_site_fract_z
    _atom_site_occupancy
    Eu1      Eu       0.61084    0.81362    0.72508    1.000
    Eu2      Eu       0.74111    0.91030    0.43562    1.000
    Eu3      Eu       0.88916    0.31362    0.77492    1.000
    Eu4      Eu       0.75889    0.41030    0.06438    1.000
    Eu5      Eu       0.38916    0.18638    0.27492    1.000
    Eu6      Eu       0.25889    0.08970    0.56438    1.000
    Eu7      Eu       0.11084    0.68638    0.22508    1.000
    Eu8      Eu       0.24111    0.58970    0.93562    1.000
    H1       H        0.13100    0.90500    0.66400    1.000
    H2       H        0.24860    0.60790    0.57470    1.000
    H3       H        0.40230    0.62290    0.58750    1.000
    H4       H        0.31030    0.73470    0.58630    1.000
    H5       H        0.11990    0.85680    0.77190    1.000
    H6       H        0.00880    0.76940    0.78700    1.000
    H7       H        0.99000    0.90700    0.79320    1.000
    H8       H        0.36900    0.40500    0.83600    1.000
    H9       H        0.25140    0.10790    0.92530    1.000
    H10      H        0.09770    0.12290    0.91250    1.000
    H11      H        0.18970    0.23470    0.91370    1.000
    H12      H        0.38010    0.35680    0.72810    1.000
    H13      H        0.49120    0.26940    0.71300    1.000
    H14      H        0.51000    0.40700    0.70680    1.000
    H15      H        0.86900    0.09500    0.33600    1.000
    H16      H        0.75140    0.39210    0.42530    1.000
    H17      H        0.59770    0.37710    0.41250    1.000
    H18      H        0.68970    0.26530    0.41370    1.000
    H19      H        0.88010    0.14320    0.22810    1.000
    H20      H        0.99120    0.23060    0.21300    1.000
    H21      H        0.01000    0.09300    0.20680    1.000
    H22      H        0.63100    0.59500    0.16400    1.000
    H23      H        0.74860    0.89210    0.07470    1.000
    H24      H        0.90230    0.87710    0.08750    1.000
    H25      H        0.81030    0.76530    0.08630    1.000
    H26      H        0.61990    0.64320    0.27190    1.000
    H27      H        0.50880    0.73060    0.28700    1.000
    H28      H        0.49000    0.59300    0.29320    1.000
    C1       C        0.31260    0.63810    0.66380    1.000
    C2       C        0.24130    0.57360    0.74860    1.000
    C3       C        0.34810    0.64730    0.76140    1.000
    C4       C        0.31910    0.65220    0.59710    1.000
    C5       C        0.15900    0.49700    0.78370    1.000
    C6       C        0.42070    0.68760    0.82010    1.000
    C7       C        0.96420    0.85120    0.70590    1.000
    C8       C        0.95100    0.87010    0.60570    1.000
    C9       C        0.82720    0.85060    0.62300    1.000
    C10      C        0.02620    0.84560    0.77020    1.000
    C11      C        0.00770    0.88510    0.54780    1.000
    C12      C        0.69430    0.84580    0.58680    1.000
    C13      C        0.76300    0.04560    0.78510    1.000
    C14      C        0.70390    0.09170    0.72190    1.000
    C15      C        0.18740    0.13810    0.83620    1.000
    C16      C        0.25870    0.07360    0.75140    1.000
    C17      C        0.15190    0.14730    0.73860    1.000
    C18      C        0.18090    0.15220    0.90290    1.000
    C19      C        0.34100    0.99700    0.71630    1.000
    C20      C        0.07930    0.18760    0.67990    1.000
    C21      C        0.53580    0.35120    0.79410    1.000
    C22      C        0.54900    0.37010    0.89430    1.000
    C23      C        0.67280    0.35060    0.87700    1.000
    C24      C        0.47380    0.34560    0.72980    1.000
    C25      C        0.49230    0.38510    0.95220    1.000
    C26      C        0.80570    0.34580    0.91320    1.000
    C27      C        0.73700    0.54560    0.71490    1.000
    C28      C        0.79610    0.59170    0.77810    1.000
    C29      C        0.68740    0.36190    0.33620    1.000
    C30      C        0.75870    0.42640    0.25140    1.000
    C31      C        0.65190    0.35270    0.23860    1.000
    C32      C        0.68090    0.34780    0.40290    1.000
    C33      C        0.84100    0.50300    0.21630    1.000
    C34      C        0.57930    0.31240    0.17990    1.000
    C35      C        0.03580    0.14880    0.29410    1.000
    C36      C        0.04900    0.12990    0.39430    1.000
    C37      C        0.17280    0.14940    0.37700    1.000
    C38      C        0.97380    0.15440    0.22980    1.000
    C39      C        0.99230    0.11490    0.45220    1.000
    C40      C        0.30570    0.15420    0.41320    1.000
    C41      C        0.23700    0.95440    0.21490    1.000
    C42      C        0.29610    0.90830    0.27810    1.000
    C43      C        0.81260    0.86190    0.16380    1.000
    C44      C        0.74130    0.92640    0.24860    1.000
    C45      C        0.84810    0.85270    0.26140    1.000
    C46      C        0.81910    0.84780    0.09710    1.000
    C47      C        0.65900    0.00300    0.28370    1.000
    C48      C        0.92070    0.81240    0.32010    1.000
    C49      C        0.46420    0.64880    0.20590    1.000
    C50      C        0.45100    0.62990    0.10570    1.000
    C51      C        0.32720    0.64940    0.12300    1.000
    C52      C        0.52620    0.65440    0.27020    1.000
    C53      C        0.50770    0.61490    0.04780    1.000
    C54      C        0.19430    0.65420    0.08680    1.000
    C55      C        0.26300    0.45440    0.28510    1.000
    C56      C        0.20390    0.40830    0.22190    1.000
    N1       N        0.21874    0.57000    0.68554    1.000
    N2       N        0.39278    0.68640    0.70868    1.000
    N3       N        0.03565    0.87030    0.65915    1.000
    N4       N        0.83766    0.83970    0.68546    1.000
    N5       N        0.28126    0.07000    0.81446    1.000
    N6       N        0.10722    0.18640    0.79132    1.000
    N7       N        0.46435    0.37030    0.84085    1.000
    N8       N        0.66234    0.33970    0.81454    1.000
    N9       N        0.78126    0.43000    0.31446    1.000
    N10      N        0.60722    0.31360    0.29132    1.000
    N11      N        0.96435    0.12970    0.34085    1.000
    N12      N        0.16234    0.16030    0.31454    1.000
    N13      N        0.71874    0.93000    0.18554    1.000
    N14      N        0.89278    0.81360    0.20868    1.000
    N15      N        0.53565    0.62970    0.15915    1.000
    N16      N        0.33766    0.66030    0.18546    1.000
    O1       O        0.07020    0.44010    0.75140    1.000
    O2       O        0.18539    0.48900    0.83989    1.000
    O3       O        0.37807    0.66440    0.86897    1.000
    O4       O        0.52466    0.74630    0.81716    1.000
    O5       O        0.12887    0.91450    0.55427    1.000
    O6       O        0.94183    0.86380    0.49823    1.000
    O7       O        0.68023    0.86800    0.53143    1.000
    O8       O        0.59749    0.82290    0.61569    1.000
    O9       O        0.84127    0.11390    0.81647    1.000
    O10      O        0.72932    0.94380    0.80032    1.000
    O11      O        0.73028    0.19630    0.70878    1.000
    O12      O        0.63331    0.02120    0.68861    1.000
    O13      O        0.42980    0.94010    0.74860    1.000
    O14      O        0.31461    0.98900    0.66011    1.000
    O15      O        0.12193    0.16440    0.63103    1.000
    O16      O        0.97534    0.24630    0.68284    1.000
    O17      O        0.37113    0.41450    0.94573    1.000
    O18      O        0.55817    0.36380    0.00177    1.000
    O19      O        0.81977    0.36800    0.96857    1.000
    O20      O        0.90251    0.32290    0.88431    1.000
    O21      O        0.65873    0.61390    0.68353    1.000
    O22      O        0.77068    0.44380    0.69968    1.000
    O23      O        0.76972    0.69630    0.79122    1.000
    O24      O        0.86669    0.52120    0.81139    1.000
    O25      O        0.92980    0.55990    0.24860    1.000
    O26      O        0.81461    0.51100    0.16011    1.000
    O27      O        0.62193    0.33560    0.13103    1.000
    O28      O        0.47534    0.25370    0.18284    1.000
    O29      O        0.87113    0.08550    0.44573    1.000
    O30      O        0.05817    0.13620    0.50177    1.000
    O31      O        0.31977    0.13200    0.46857    1.000
    O32      O        0.40251    0.17710    0.38431    1.000
    O33      O        0.15873    0.88610    0.18353    1.000
    O34      O        0.27068    0.05620    0.19968    1.000
    O35      O        0.26972    0.80370    0.29122    1.000
    O36      O        0.36669    0.97880    0.31139    1.000
    O37      O        0.57020    0.05990    0.25140    1.000
    O38      O        0.68539    0.01100    0.33989    1.000
    O39      O        0.87807    0.83560    0.36897    1.000
    O40      O        0.02466    0.75370    0.31716    1.000
    O41      O        0.62887    0.58550    0.05427    1.000
    O42      O        0.44183    0.63620    0.99823    1.000
    O43      O        0.18023    0.63200    0.03143    1.000
    O44      O        0.09749    0.67710    0.11569    1.000
    O45      O        0.34127    0.38610    0.31647    1.000
    O46      O        0.22932    0.55620    0.30032    1.000
    O47      O        0.23028    0.30370    0.20878    1.000
    O48      O        0.13331    0.47880    0.18861    1.000
