data_functionalizedCrystal
_audit_creation_method	'EQeq! by Chris Wilmer'
_symmetry_space_group_name_H-M	'P1'
_symmetry_Int_Tables_number	1
_symmetry_cell_setting	triclinic
loop_
_symmetry_equiv_pos_as_xyz
  x,y,z
_cell_length_a	6.8423
_cell_length_b	15.2763
_cell_length_c	15.2763
_cell_angle_alpha	62.1885
_cell_angle_beta	81.4136
_cell_angle_gamma	98.5864
loop_
_atom_site_label
_atom_site_type_symbol
_atom_site_fract_x
_atom_site_fract_y
_atom_site_fract_z
_atom_site_charge
Mof_Fe	Fe	0.5219	0.4136	0.2667	0.785
Mof_Fe	Fe	0.7886	0.2667	0.3197	0.785
Mof_Fe	Fe	0.2114	0.7333	0.6803	0.785
Mof_Fe	Fe	0.4781	0.5864	0.7333	0.785
Mof_Fe	Fe	0.1083	0.3197	0.4136	0.785
Mof_Fe	Fe	0.8917	0.6803	0.5864	0.785
Mof_H 	H 	0.6433	0.4476	0.0197	0.084
Mof_H 	H 	0.1957	0.5327	0.4476	0.084
Mof_H 	H 	0.337	0.9803	0.4673	0.084
Mof_H 	H 	0.8043	0.4673	0.5524	0.084
Mof_H 	H 	0.663	0.0197	0.5327	0.084
Mof_H 	H 	0.3567	0.5524	0.9803	0.084
Mof_C 	C 	0.7938	0.0086	0.5246	-0.079
Mof_C 	C 	0.7852	0.4668	0.0086	-0.081
Mof_C 	C 	0.2553	0.6098	0.5626	0.339
Mof_C 	C 	0.1329	0.5656	0.8984	0.176
Mof_C 	C 	0.9687	0.1016	0.464	0.177
Mof_C 	C 	0.0881	0.464	0.0811	-0.12
Mof_C 	C 	0.7447	0.3902	0.4374	0.339
Mof_C 	C 	0.4327	0.464	0.4344	0.177
Mof_C 	C 	0.6455	0.8276	0.6098	0.339
Mof_C 	C 	0.6816	0.4754	0.5332	-0.079
Mof_C 	C 	0.5673	0.536	0.5656	0.177
Mof_C 	C 	0.9119	0.536	0.9189	-0.12
Mof_C 	C 	0.3184	0.5246	0.4668	-0.079
Mof_C 	C 	0.1692	0.0811	0.4549	-0.122
Mof_C 	C 	0.8179	0.5626	0.8276	0.338
Mof_C 	C 	0.6241	0.4549	0.464	-0.122
Mof_C 	C 	0.8308	0.9189	0.5451	-0.122
Mof_C 	C 	0.1821	0.4374	0.1724	0.338
Mof_C 	C 	0.2062	0.9914	0.4754	-0.079
Mof_C 	C 	0.3759	0.5451	0.536	-0.122
Mof_C 	C 	0.3545	0.1724	0.3902	0.339
Mof_C 	C 	0.2148	0.5332	0.9914	-0.081
Mof_C 	C 	0.8671	0.4344	0.1016	0.176
Mof_C 	C 	0.0313	0.8984	0.536	0.177
Mof_O 	O 	0.2706	0.6314	0.8073	-0.406
Mof_O 	O 	0.3608	0.4387	0.3686	-0.406
Mof_O 	O 	0.4798	0.8581	0.6244	-0.344
Mof_O 	O 	0.6217	0.5175	0.8581	-0.343
Mof_O 	O 	0.3313	0.2623	0.3601	-0.434
Mof_O 	O 	0.0779	0.8073	0.5613	-0.406
Mof_O 	O 	0.1042	0.6244	0.5175	-0.343
Mof_O 	O 	0.069	0.3776	0.2623	-0.434
Mof_O 	O 	0.6687	0.7377	0.6399	-0.434
Mof_O 	O 	0.3086	0.6399	0.6224	-0.434
Mof_O 	O 	0.6392	0.5613	0.6314	-0.406
Mof_O 	O 	0.8958	0.3756	0.4825	-0.343
Mof_O 	O 	0.6914	0.3601	0.3776	-0.434
Mof_O 	O 	0.7294	0.3686	0.1927	-0.406
Mof_O 	O 	0.9221	0.1927	0.4387	-0.406
Mof_O 	O 	0.3783	0.4825	0.1419	-0.343
Mof_O 	O 	0.931	0.6224	0.7377	-0.434
Mof_O 	O 	0.5202	0.1419	0.3756	-0.344
_end
