# CIF file generated by openbabel 3.1.0, see https://openbabel.org
data_I
_chemical_name_common 'image0'
_cell_length_a 6.5681
_cell_length_b 16.3928
_cell_length_c 13.1995
_cell_angle_alpha 90
_cell_angle_beta 90
_cell_angle_gamma 90
_space_group_name_H-M_alt 'P 1'
_space_group_name_Hall 'P 1'
loop_
    _symmetry_equiv_pos_as_xyz
    x,y,z
loop_
    _atom_site_label
    _atom_site_type_symbol
    _atom_site_fract_x
    _atom_site_fract_y
    _atom_site_fract_z
    _atom_site_occupancy
    O1       O        0.16710    0.16883    0.83996    1.000
    C1       C        0.80480    0.02990    0.95770    1.000
    O2       O        0.66710    0.66883    0.33996    1.000
    C2       C        0.30480    0.52990    0.45770    1.000
    O3       O        0.83290    0.33117    0.83996    1.000
    C3       C        0.19520    0.47010    0.95770    1.000
    O4       O        0.33290    0.83117    0.33996    1.000
    C4       C        0.69520    0.97010    0.45770    1.000
    O5       O        0.83290    0.66883    0.16004    1.000
    C5       C        0.19520    0.52990    0.04230    1.000
    O6       O        0.33290    0.16883    0.66004    1.000
    C6       C        0.69520    0.02990    0.54230    1.000
    O7       O        0.16710    0.83117    0.16004    1.000
    C7       C        0.80480    0.97010    0.04230    1.000
    O8       O        0.66710    0.33117    0.66004    1.000
    C8       C        0.30480    0.47010    0.54230    1.000
    O9       O        0.83290    0.83117    0.16004    1.000
    C9       C        0.19520    0.97010    0.04230    1.000
    O10      O        0.33290    0.33117    0.66004    1.000
    C10      C        0.69520    0.47010    0.54230    1.000
    O11      O        0.16710    0.66883    0.16004    1.000
    C11      C        0.80480    0.52990    0.04230    1.000
    O12      O        0.66710    0.16883    0.66004    1.000
    C12      C        0.30480    0.02990    0.54230    1.000
    O13      O        0.16710    0.33117    0.83996    1.000
    C13      C        0.80480    0.47010    0.95770    1.000
    O14      O        0.66710    0.83117    0.33996    1.000
    C14      C        0.30480    0.97010    0.45770    1.000
    O15      O        0.83290    0.16883    0.83996    1.000
    C15      C        0.19520    0.02990    0.95770    1.000
    O16      O        0.33290    0.66883    0.33996    1.000
    C16      C        0.69520    0.52990    0.45770    1.000
    Al1      Al       0.25000    0.25000    0.75000    1.000
    Al2      Al       0.75000    0.25000    0.75000    1.000
    Al3      Al       0.75000    0.75000    0.25000    1.000
    Al4      Al       0.25000    0.75000    0.25000    1.000
    F1       F        0.00000    0.25000    0.69240    1.000
    F2       F        0.50000    0.75000    0.19240    1.000
    F3       F        0.00000    0.75000    0.30760    1.000
    F4       F        0.50000    0.25000    0.80760    1.000
    C17      C        0.00000    0.06250    0.94790    1.000
    C18      C        0.00000    0.13510    0.86980    1.000
    C19      C        0.50000    0.56250    0.44790    1.000
    C20      C        0.50000    0.63510    0.36980    1.000
    C21      C        0.00000    0.43750    0.94790    1.000
    C22      C        0.00000    0.36490    0.86980    1.000
    C23      C        0.50000    0.93750    0.44790    1.000
    C24      C        0.50000    0.86490    0.36980    1.000
    C25      C        0.00000    0.56250    0.05210    1.000
    C26      C        0.00000    0.63510    0.13020    1.000
    C27      C        0.50000    0.06250    0.55210    1.000
    C28      C        0.50000    0.13510    0.63020    1.000
    C29      C        0.00000    0.93750    0.05210    1.000
    C30      C        0.00000    0.86490    0.13020    1.000
    C31      C        0.50000    0.43750    0.55210    1.000
    C32      C        0.50000    0.36490    0.63020    1.000
