data_functionalizedCrystal
_audit_creation_method	'EQeq! by Chris Wilmer'
_symmetry_space_group_name_H-M	'P1'
_symmetry_Int_Tables_number	1
_symmetry_cell_setting	triclinic
loop_
_symmetry_equiv_pos_as_xyz
  x,y,z
_cell_length_a	17.1637
_cell_length_b	17.1637
_cell_length_c	34.0665
_cell_angle_alpha	90
_cell_angle_beta	90
_cell_angle_gamma	90
loop_
_atom_site_label
_atom_site_type_symbol
_atom_site_fract_x
_atom_site_fract_y
_atom_site_fract_z
_atom_site_charge
Mof_C 	C 	0.3658	0.2693	0.16539	0.32
Mof_C 	C 	0.357	0.2183	0.20016	-0.054
Mof_C 	C 	0.3472	0.2336	0.24012	0.01
Mof_H 	H 	0.3461	0.2815	0.2528	0.036
Mof_C 	C 	0.3397	0.1608	0.25596	-0.06
Mof_C 	C 	0.3303	0.1294	0.2967	0.311
Mof_N 	N 	0.3558	0.1422	0.19335	-0.185
Mof_N 	N 	0.3455	0.1054	0.22763	-0.187
Mof_O 	O 	0.3706	0.2342	0.13261	-0.441
Mof_O 	O 	0.3647	0.3408	0.16825	-0.396
Mof_O 	O 	0.3298	0.0566	0.29896	-0.445
Mof_O 	O 	0.3208	0.1753	0.32494	-0.266
Mof_Cu	Cu	0.37019	0.11986	0.13648	0.863
Mof_C 	C 	0.8658	0.7693	0.66539	0.317
Mof_C 	C 	0.857	0.7183	0.70016	-0.049
Mof_C 	C 	0.8472	0.7336	0.74012	0.006
Mof_H 	H 	0.8461	0.7815	0.7528	0.042
Mof_C 	C 	0.8397	0.6608	0.75596	-0.053
Mof_C 	C 	0.8303	0.6294	0.7967	0.307
Mof_N 	N 	0.8558	0.6422	0.69335	-0.18
Mof_N 	N 	0.8455	0.6054	0.72763	-0.18
Mof_O 	O 	0.8706	0.7342	0.63261	-0.436
Mof_O 	O 	0.8647	0.8408	0.66825	-0.386
Mof_O 	O 	0.8298	0.5566	0.79896	-0.423
Mof_O 	O 	0.8208	0.6753	0.82494	-0.256
Mof_Cu	Cu	0.87019	0.61986	0.63648	0.873
Mof_C 	C 	0.1342	0.7307	0.66539	0.32
Mof_C 	C 	0.143	0.7817	0.70016	-0.051
Mof_C 	C 	0.1528	0.7664	0.74012	0.007
Mof_H 	H 	0.1539	0.7185	0.7528	0.037
Mof_C 	C 	0.1603	0.8392	0.75596	-0.048
Mof_C 	C 	0.1697	0.8706	0.7967	0.305
Mof_N 	N 	0.1442	0.8578	0.69335	-0.173
Mof_N 	N 	0.1545	0.8946	0.72763	-0.165
Mof_O 	O 	0.1294	0.7658	0.63261	-0.435
Mof_O 	O 	0.1353	0.6592	0.66825	-0.395
Mof_O 	O 	0.1702	0.9434	0.79896	-0.391
Mof_O 	O 	0.1792	0.8247	0.82494	-0.253
Mof_Cu	Cu	0.12981	0.88014	0.63648	0.883
Mof_C 	C 	0.6342	0.2307	0.16539	0.322
Mof_C 	C 	0.643	0.2817	0.20016	-0.056
Mof_C 	C 	0.6528	0.2664	0.24012	0.011
Mof_H 	H 	0.6539	0.2185	0.2528	0.03
Mof_C 	C 	0.6603	0.3392	0.25596	-0.058
Mof_C 	C 	0.6697	0.3706	0.2967	0.309
Mof_N 	N 	0.6442	0.3578	0.19335	-0.179
Mof_N 	N 	0.6545	0.3946	0.22763	-0.18
Mof_O 	O 	0.6294	0.2658	0.13261	-0.439
Mof_O 	O 	0.6353	0.1592	0.16825	-0.404
Mof_O 	O 	0.6702	0.4434	0.29896	-0.424
Mof_O 	O 	0.6792	0.3247	0.32494	-0.264
Mof_Cu	Cu	0.62981	0.38014	0.13648	0.873
Mof_C 	C 	0.1342	0.2693	0.83461	0.319
Mof_C 	C 	0.143	0.2183	0.79984	-0.055
Mof_C 	C 	0.1528	0.2336	0.75988	0.009
Mof_H 	H 	0.1539	0.2815	0.7472	0.035
Mof_C 	C 	0.1603	0.1608	0.74404	-0.061
Mof_C 	C 	0.1697	0.1294	0.7033	0.31
Mof_N 	N 	0.1442	0.1422	0.80665	-0.186
Mof_N 	N 	0.1545	0.1054	0.77237	-0.188
Mof_O 	O 	0.1294	0.2342	0.86739	-0.439
Mof_O 	O 	0.1353	0.3408	0.83175	-0.395
Mof_O 	O 	0.1702	0.0566	0.70104	-0.445
Mof_O 	O 	0.1792	0.1753	0.67506	-0.266
Mof_Cu	Cu	0.12981	0.11986	0.86352	0.864
Mof_C 	C 	0.6342	0.7693	0.33461	0.317
Mof_C 	C 	0.643	0.7183	0.29984	-0.049
Mof_C 	C 	0.6528	0.7336	0.25988	0.006
Mof_H 	H 	0.6539	0.7815	0.2472	0.042
Mof_C 	C 	0.6603	0.6608	0.24404	-0.053
Mof_C 	C 	0.6697	0.6294	0.2033	0.307
Mof_N 	N 	0.6442	0.6422	0.30665	-0.18
Mof_N 	N 	0.6545	0.6054	0.27237	-0.18
Mof_O 	O 	0.6294	0.7342	0.36739	-0.436
Mof_O 	O 	0.6353	0.8408	0.33175	-0.386
Mof_O 	O 	0.6702	0.5566	0.20104	-0.423
Mof_O 	O 	0.6792	0.6753	0.17506	-0.257
Mof_Cu	Cu	0.62981	0.61986	0.36352	0.873
Mof_C 	C 	0.3658	0.7307	0.33461	0.32
Mof_C 	C 	0.357	0.7817	0.29984	-0.05
Mof_C 	C 	0.3472	0.7664	0.25988	0.007
Mof_H 	H 	0.3461	0.7185	0.2472	0.037
Mof_C 	C 	0.3397	0.8392	0.24404	-0.048
Mof_C 	C 	0.3303	0.8706	0.2033	0.305
Mof_N 	N 	0.3558	0.8578	0.30665	-0.173
Mof_N 	N 	0.3455	0.8946	0.27237	-0.164
Mof_O 	O 	0.3706	0.7658	0.36739	-0.435
Mof_O 	O 	0.3647	0.6592	0.33175	-0.395
Mof_O 	O 	0.3298	0.9434	0.20104	-0.391
Mof_O 	O 	0.3208	0.8247	0.17506	-0.254
Mof_Cu	Cu	0.37019	0.88014	0.36352	0.884
Mof_C 	C 	0.8658	0.2307	0.83461	0.322
Mof_C 	C 	0.857	0.2817	0.79984	-0.056
Mof_C 	C 	0.8472	0.2664	0.75988	0.011
Mof_H 	H 	0.8461	0.2185	0.7472	0.03
Mof_C 	C 	0.8397	0.3392	0.74404	-0.058
Mof_C 	C 	0.8303	0.3706	0.7033	0.309
Mof_N 	N 	0.8558	0.3578	0.80665	-0.179
Mof_N 	N 	0.8455	0.3946	0.77237	-0.18
Mof_O 	O 	0.8706	0.2658	0.86739	-0.437
Mof_O 	O 	0.8647	0.1592	0.83175	-0.403
Mof_O 	O 	0.8298	0.4434	0.70104	-0.424
Mof_O 	O 	0.8208	0.3247	0.67506	-0.264
Mof_Cu	Cu	0.87019	0.38014	0.86352	0.874
Mof_C 	C 	0.0193	0.8842	0.58461	0.32
Mof_C 	C 	0.9683	0.893	0.54984	-0.041
Mof_C 	C 	0.9836	0.9028	0.50988	0.008
Mof_H 	H 	0.0315	0.9039	0.4972	0.049
Mof_C 	C 	0.9108	0.9103	0.49404	-0.043
Mof_C 	C 	0.8794	0.9197	0.4533	0.308
Mof_N 	N 	0.8922	0.8942	0.55665	-0.177
Mof_N 	N 	0.8554	0.9045	0.52237	-0.177
Mof_O 	O 	0.9842	0.8794	0.61739	-0.428
Mof_O 	O 	0.0908	0.8853	0.58175	-0.379
Mof_O 	O 	0.8066	0.9202	0.45104	-0.411
Mof_O 	O 	0.9253	0.9292	0.42506	-0.238
Mof_Cu	Cu	0.86986	0.87981	0.61352	0.879
Mof_C 	C 	0.5193	0.3842	0.08461	0.309
Mof_C 	C 	0.4683	0.393	0.04984	-0.029
Mof_C 	C 	0.4836	0.4028	0.00988	-0.071
Mof_H 	H 	0.5315	0.4039	0.9972	0.075
Mof_C 	C 	0.4108	0.4103	0.99404	-0.002
Mof_C 	C 	0.3794	0.4197	0.9533	0.29
Mof_N 	N 	0.3922	0.3942	0.05665	-0.185
Mof_N 	N 	0.3554	0.4045	0.02237	-0.196
Mof_O 	O 	0.4842	0.3794	0.11739	-0.435
Mof_O 	O 	0.5908	0.3853	0.08175	-0.395
Mof_O 	O 	0.3066	0.4202	0.95104	-0.415
Mof_O 	O 	0.4253	0.4292	0.92506	-0.255
Mof_Cu	Cu	0.36986	0.37981	0.11352	0.872
Mof_C 	C 	0.4807	0.1158	0.08461	0.309
Mof_C 	C 	0.5317	0.107	0.04984	-0.041
Mof_C 	C 	0.5164	0.0972	0.00988	-0.07
Mof_H 	H 	0.4685	0.0961	0.9972	0.062
Mof_C 	C 	0.5892	0.0897	0.99404	-0.014
Mof_C 	C 	0.6206	0.0803	0.9533	0.291
Mof_N 	N 	0.6078	0.1058	0.05665	-0.187
Mof_N 	N 	0.6446	0.0955	0.02237	-0.198
Mof_O 	O 	0.5158	0.1206	0.11739	-0.444
Mof_O 	O 	0.4092	0.1147	0.08175	-0.41
Mof_O 	O 	0.6934	0.0798	0.95104	-0.426
Mof_O 	O 	0.5747	0.0708	0.92506	-0.275
Mof_Cu	Cu	0.63014	0.12019	0.11352	0.867
Mof_C 	C 	0.9807	0.6158	0.58461	0.319
Mof_C 	C 	0.0317	0.607	0.54984	-0.053
Mof_C 	C 	0.0164	0.5972	0.50988	0.008
Mof_H 	H 	0.9685	0.5961	0.4972	0.036
Mof_C 	C 	0.0892	0.5897	0.49404	-0.055
Mof_C 	C 	0.1206	0.5803	0.4533	0.308
Mof_N 	N 	0.1078	0.6058	0.55665	-0.179
Mof_N 	N 	0.1446	0.5955	0.52237	-0.18
Mof_O 	O 	0.0158	0.6206	0.61739	-0.438
Mof_O 	O 	0.9092	0.6147	0.58175	-0.395
Mof_O 	O 	0.1934	0.5798	0.45104	-0.423
Mof_O 	O 	0.0747	0.5708	0.42506	-0.259
Mof_Cu	Cu	0.13014	0.62019	0.61352	0.874
Mof_C 	C 	0.4807	0.8842	0.41539	0.32
Mof_C 	C 	0.5317	0.893	0.45016	-0.041
Mof_C 	C 	0.5164	0.9028	0.49012	0.008
Mof_H 	H 	0.4685	0.9039	0.5028	0.049
Mof_C 	C 	0.5892	0.9103	0.50596	-0.043
Mof_C 	C 	0.6206	0.9197	0.5467	0.308
Mof_N 	N 	0.6078	0.8942	0.44335	-0.176
Mof_N 	N 	0.6446	0.9045	0.47763	-0.177
Mof_O 	O 	0.5158	0.8794	0.38261	-0.428
Mof_O 	O 	0.4092	0.8853	0.41825	-0.379
Mof_O 	O 	0.6934	0.9202	0.54896	-0.411
Mof_O 	O 	0.5747	0.9292	0.57494	-0.238
Mof_Cu	Cu	0.63014	0.87981	0.38648	0.879
Mof_C 	C 	0.9807	0.3842	0.91539	0.33
Mof_C 	C 	0.0317	0.393	0.95016	-0.077
Mof_C 	C 	0.0164	0.4028	0.99012	0.086
Mof_H 	H 	0.9685	0.4039	0.0028	-0.003
Mof_C 	C 	0.0892	0.4103	0.00596	-0.11
Mof_C 	C 	0.1206	0.4197	0.0467	0.324
Mof_N 	N 	0.1078	0.3942	0.94335	-0.175
Mof_N 	N 	0.1446	0.4045	0.97763	-0.164
Mof_O 	O 	0.0158	0.3794	0.88261	-0.44
Mof_O 	O 	0.9092	0.3853	0.91825	-0.396
Mof_O 	O 	0.1934	0.4202	0.04896	-0.432
Mof_O 	O 	0.0747	0.4292	0.07494	-0.267
Mof_Cu	Cu	0.13014	0.37981	0.88648	0.874
Mof_C 	C 	0.0193	0.1158	0.91539	0.329
Mof_C 	C 	0.9683	0.107	0.95016	-0.088
Mof_C 	C 	0.9836	0.0972	0.99012	0.086
Mof_H 	H 	0.0315	0.0961	0.0028	-0.016
Mof_C 	C 	0.9108	0.0897	0.00596	-0.121
Mof_C 	C 	0.8794	0.0803	0.0467	0.324
Mof_N 	N 	0.8922	0.1058	0.94335	-0.178
Mof_N 	N 	0.8554	0.0955	0.97763	-0.166
Mof_O 	O 	0.9842	0.1206	0.88261	-0.448
Mof_O 	O 	0.0908	0.1147	0.91825	-0.412
Mof_O 	O 	0.8066	0.0798	0.04896	-0.442
Mof_O 	O 	0.9253	0.0708	0.07494	-0.287
Mof_Cu	Cu	0.86986	0.12019	0.88648	0.869
Mof_C 	C 	0.5193	0.6158	0.41539	0.32
Mof_C 	C 	0.4683	0.607	0.45016	-0.053
Mof_C 	C 	0.4836	0.5972	0.49012	0.009
Mof_H 	H 	0.5315	0.5961	0.5028	0.036
Mof_C 	C 	0.4108	0.5897	0.50596	-0.055
Mof_C 	C 	0.3794	0.5803	0.5467	0.308
Mof_N 	N 	0.3922	0.6058	0.44335	-0.179
Mof_N 	N 	0.3554	0.5955	0.47763	-0.179
Mof_O 	O 	0.4842	0.6206	0.38261	-0.437
Mof_O 	O 	0.5908	0.6147	0.41825	-0.395
Mof_O 	O 	0.3066	0.5798	0.54896	-0.423
Mof_O 	O 	0.4253	0.5708	0.57494	-0.259
Mof_Cu	Cu	0.36986	0.62019	0.38648	0.874
Mof_Cu	Cu	0.34815	-5.03073e-33	0.25	0.852
Mof_Cu	Cu	0.84815	0.5	0.75	0.879
Mof_Cu	Cu	0.15185	-2.01229e-32	0.75	0.852
Mof_Cu	Cu	0.65185	0.5	0.25	0.879
Mof_Cu	Cu	0.75	0.90185	0.5	0.883
Mof_Cu	Cu	0.25	0.40185	-0	0.871
Mof_Cu	Cu	0.75	0.09815	-0	0.868
Mof_Cu	Cu	0.25	0.59815	0.5	0.88
Mof_C 	C 	0.9807	0.1158	0.41539	0.319
Mof_C 	C 	0.0317	0.107	0.45016	-0.065
Mof_C 	C 	0.0164	0.0972	0.49012	0.009
Mof_H 	H 	0.9685	0.0961	0.5028	0.022
Mof_C 	C 	0.0892	0.0897	0.50596	-0.069
Mof_C 	C 	0.1206	0.0803	0.5467	0.308
Mof_N 	N 	0.1078	0.1058	0.44335	-0.183
Mof_N 	N 	0.1446	0.0955	0.47763	-0.183
Mof_O 	O 	0.0158	0.1206	0.38261	-0.446
Mof_O 	O 	0.9092	0.1147	0.41825	-0.411
Mof_O 	O 	0.1934	0.0798	0.54896	-0.436
Mof_O 	O 	0.0747	0.0708	0.57494	-0.282
Mof_Cu	Cu	0.13014	0.12019	0.38648	0.868
Mof_C 	C 	0.4807	0.6158	0.91539	0.33
Mof_C 	C 	0.5317	0.607	0.95016	-0.076
Mof_C 	C 	0.5164	0.5972	0.99012	0.088
Mof_H 	H 	0.4685	0.5961	0.0028	-0.003
Mof_C 	C 	0.5892	0.5897	0.00596	-0.109
Mof_C 	C 	0.6206	0.5803	0.0467	0.325
Mof_N 	N 	0.6078	0.6058	0.94335	-0.175
Mof_N 	N 	0.6446	0.5955	0.97763	-0.162
Mof_O 	O 	0.5158	0.6206	0.88261	-0.44
Mof_O 	O 	0.4092	0.6147	0.91825	-0.396
Mof_O 	O 	0.6934	0.5798	0.04896	-0.43
Mof_O 	O 	0.5747	0.5708	0.07494	-0.265
Mof_Cu	Cu	0.63014	0.62019	0.88648	0.874
Mof_C 	C 	0.5193	0.8842	0.91539	0.331
Mof_C 	C 	0.4683	0.893	0.95016	-0.064
Mof_C 	C 	0.4836	0.9028	0.99012	0.087
Mof_H 	H 	0.5315	0.9039	0.0028	0.011
Mof_C 	C 	0.4108	0.9103	0.00596	-0.096
Mof_C 	C 	0.3794	0.9197	0.0467	0.325
Mof_N 	N 	0.3922	0.8942	0.94335	-0.172
Mof_N 	N 	0.3554	0.9045	0.97763	-0.16
Mof_O 	O 	0.4842	0.8794	0.88261	-0.43
Mof_O 	O 	0.5908	0.8853	0.91825	-0.38
Mof_O 	O 	0.3066	0.9202	0.04896	-0.418
Mof_O 	O 	0.4253	0.9292	0.07494	-0.244
Mof_Cu	Cu	0.36986	0.87981	0.88648	0.88
Mof_C 	C 	0.0193	0.3842	0.41539	0.32
Mof_C 	C 	0.9683	0.393	0.45016	-0.053
Mof_C 	C 	0.9836	0.4028	0.49012	0.008
Mof_H 	H 	0.0315	0.4039	0.5028	0.035
Mof_C 	C 	0.9108	0.4103	0.50596	-0.057
Mof_C 	C 	0.8794	0.4197	0.5467	0.307
Mof_N 	N 	0.8922	0.3942	0.44335	-0.18
Mof_N 	N 	0.8554	0.4045	0.47763	-0.181
Mof_O 	O 	0.9842	0.3794	0.38261	-0.437
Mof_O 	O 	0.0908	0.3853	0.41825	-0.395
Mof_O 	O 	0.8066	0.4202	0.54896	-0.425
Mof_O 	O 	0.9253	0.4292	0.57494	-0.261
Mof_Cu	Cu	0.86986	0.37981	0.38648	0.873
Mof_C 	C 	0.5193	0.1158	0.58461	0.319
Mof_C 	C 	0.4683	0.107	0.54984	-0.065
Mof_C 	C 	0.4836	0.0972	0.50988	0.009
Mof_H 	H 	0.5315	0.0961	0.4972	0.022
Mof_C 	C 	0.4108	0.0897	0.49404	-0.069
Mof_C 	C 	0.3794	0.0803	0.4533	0.308
Mof_N 	N 	0.3922	0.1058	0.55665	-0.183
Mof_N 	N 	0.3554	0.0955	0.52237	-0.183
Mof_O 	O 	0.4842	0.1206	0.61739	-0.446
Mof_O 	O 	0.5908	0.1147	0.58175	-0.411
Mof_O 	O 	0.3066	0.0798	0.45104	-0.436
Mof_O 	O 	0.4253	0.0708	0.42506	-0.282
Mof_Cu	Cu	0.36986	0.12019	0.61352	0.868
Mof_C 	C 	0.0193	0.6158	0.08461	0.309
Mof_C 	C 	0.9683	0.607	0.04984	-0.029
Mof_C 	C 	0.9836	0.5972	0.00988	-0.07
Mof_H 	H 	0.0315	0.5961	0.9972	0.075
Mof_C 	C 	0.9108	0.5897	0.99404	-0.001
Mof_C 	C 	0.8794	0.5803	0.9533	0.291
Mof_N 	N 	0.8922	0.6058	0.05665	-0.184
Mof_N 	N 	0.8554	0.5955	0.02237	-0.194
Mof_O 	O 	0.9842	0.6206	0.11739	-0.435
Mof_O 	O 	0.0908	0.6147	0.08175	-0.394
Mof_O 	O 	0.8066	0.5798	0.95104	-0.413
Mof_O 	O 	0.9253	0.5708	0.92506	-0.253
Mof_Cu	Cu	0.86986	0.62019	0.11352	0.873
Mof_C 	C 	0.9807	0.8842	0.08461	0.31
Mof_C 	C 	0.0317	0.893	0.04984	-0.018
Mof_C 	C 	0.0164	0.9028	0.00988	-0.07
Mof_H 	H 	0.9685	0.9039	0.9972	0.088
Mof_C 	C 	0.0892	0.9103	0.99404	0.011
Mof_C 	C 	0.1206	0.9197	0.9533	0.291
Mof_N 	N 	0.1078	0.8942	0.05665	-0.181
Mof_N 	N 	0.1446	0.9045	0.02237	-0.192
Mof_O 	O 	0.0158	0.8794	0.11739	-0.426
Mof_O 	O 	0.9092	0.8853	0.08175	-0.378
Mof_O 	O 	0.1934	0.9202	0.95104	-0.402
Mof_O 	O 	0.0747	0.9292	0.92506	-0.232
Mof_Cu	Cu	0.13014	0.87981	0.11352	0.878
Mof_C 	C 	0.4807	0.3842	0.58461	0.32
Mof_C 	C 	0.5317	0.393	0.54984	-0.053
Mof_C 	C 	0.5164	0.4028	0.50988	0.008
Mof_H 	H 	0.4685	0.4039	0.4972	0.035
Mof_C 	C 	0.5892	0.4103	0.49404	-0.057
Mof_C 	C 	0.6206	0.4197	0.4533	0.307
Mof_N 	N 	0.6078	0.3942	0.55665	-0.18
Mof_N 	N 	0.6446	0.4045	0.52237	-0.181
Mof_O 	O 	0.5158	0.3794	0.61739	-0.437
Mof_O 	O 	0.4092	0.3853	0.58175	-0.395
Mof_O 	O 	0.6934	0.4202	0.45104	-0.425
Mof_O 	O 	0.5747	0.4292	0.42506	-0.261
Mof_Cu	Cu	0.63014	0.37981	0.61352	0.873
Mof_C 	C 	0.6342	0.7307	0.83461	0.32
Mof_C 	C 	0.643	0.7817	0.79984	-0.05
Mof_C 	C 	0.6528	0.7664	0.75988	0.007
Mof_H 	H 	0.6539	0.7185	0.7472	0.037
Mof_C 	C 	0.6603	0.8392	0.74404	-0.048
Mof_C 	C 	0.6697	0.8706	0.7033	0.305
Mof_N 	N 	0.6442	0.8578	0.80665	-0.173
Mof_N 	N 	0.6545	0.8946	0.77237	-0.164
Mof_O 	O 	0.6294	0.7658	0.86739	-0.434
Mof_O 	O 	0.6353	0.6592	0.83175	-0.395
Mof_O 	O 	0.6702	0.9434	0.70104	-0.391
Mof_O 	O 	0.6792	0.8247	0.67506	-0.253
Mof_Cu	Cu	0.62981	0.88014	0.86352	0.884
Mof_C 	C 	0.1342	0.2307	0.33461	0.322
Mof_C 	C 	0.143	0.2817	0.29984	-0.056
Mof_C 	C 	0.1528	0.2664	0.25988	0.011
Mof_H 	H 	0.1539	0.2185	0.2472	0.03
Mof_C 	C 	0.1603	0.3392	0.24404	-0.058
Mof_C 	C 	0.1697	0.3706	0.2033	0.309
Mof_N 	N 	0.1442	0.3578	0.30665	-0.179
Mof_N 	N 	0.1545	0.3946	0.27237	-0.18
Mof_O 	O 	0.1294	0.2658	0.36739	-0.438
Mof_O 	O 	0.1353	0.1592	0.33175	-0.404
Mof_O 	O 	0.1702	0.4434	0.20104	-0.424
Mof_O 	O 	0.1792	0.3247	0.17506	-0.264
Mof_Cu	Cu	0.12981	0.38014	0.36352	0.873
Mof_C 	C 	0.8658	0.2693	0.33461	0.319
Mof_C 	C 	0.857	0.2183	0.29984	-0.055
Mof_C 	C 	0.8472	0.2336	0.25988	0.009
Mof_H 	H 	0.8461	0.2815	0.2472	0.035
Mof_C 	C 	0.8397	0.1608	0.24404	-0.061
Mof_C 	C 	0.8303	0.1294	0.2033	0.31
Mof_N 	N 	0.8558	0.1422	0.30665	-0.186
Mof_N 	N 	0.8455	0.1054	0.27237	-0.188
Mof_O 	O 	0.8706	0.2342	0.36739	-0.44
Mof_O 	O 	0.8647	0.3408	0.33175	-0.396
Mof_O 	O 	0.8298	0.0566	0.20104	-0.445
Mof_O 	O 	0.8208	0.1753	0.17506	-0.266
Mof_Cu	Cu	0.87019	0.11986	0.36352	0.864
Mof_C 	C 	0.3658	0.7693	0.83461	0.317
Mof_C 	C 	0.357	0.7183	0.79984	-0.049
Mof_C 	C 	0.3472	0.7336	0.75988	0.006
Mof_H 	H 	0.3461	0.7815	0.7472	0.042
Mof_C 	C 	0.3397	0.6608	0.74404	-0.053
Mof_C 	C 	0.3303	0.6294	0.7033	0.307
Mof_N 	N 	0.3558	0.6422	0.80665	-0.18
Mof_N 	N 	0.3455	0.6054	0.77237	-0.18
Mof_O 	O 	0.3706	0.7342	0.86739	-0.435
Mof_O 	O 	0.3647	0.8408	0.83175	-0.386
Mof_O 	O 	0.3298	0.5566	0.70104	-0.423
Mof_O 	O 	0.3208	0.6753	0.67506	-0.256
Mof_Cu	Cu	0.37019	0.61986	0.86352	0.874
Mof_C 	C 	0.8658	0.7307	0.16539	0.32
Mof_C 	C 	0.857	0.7817	0.20016	-0.051
Mof_C 	C 	0.8472	0.7664	0.24012	0.007
Mof_H 	H 	0.8461	0.7185	0.2528	0.037
Mof_C 	C 	0.8397	0.8392	0.25596	-0.048
Mof_C 	C 	0.8303	0.8706	0.2967	0.305
Mof_N 	N 	0.8558	0.8578	0.19335	-0.173
Mof_N 	N 	0.8455	0.8946	0.22763	-0.165
Mof_O 	O 	0.8706	0.7658	0.13261	-0.435
Mof_O 	O 	0.8647	0.6592	0.16825	-0.395
Mof_O 	O 	0.8298	0.9434	0.29896	-0.391
Mof_O 	O 	0.8208	0.8247	0.32494	-0.253
Mof_Cu	Cu	0.87019	0.88014	0.13648	0.883
Mof_C 	C 	0.3658	0.2307	0.66539	0.322
Mof_C 	C 	0.357	0.2817	0.70016	-0.056
Mof_C 	C 	0.3472	0.2664	0.74012	0.011
Mof_H 	H 	0.3461	0.2185	0.7528	0.03
Mof_C 	C 	0.3397	0.3392	0.75596	-0.058
Mof_C 	C 	0.3303	0.3706	0.7967	0.309
Mof_N 	N 	0.3558	0.3578	0.69335	-0.179
Mof_N 	N 	0.3455	0.3946	0.72763	-0.18
Mof_O 	O 	0.3706	0.2658	0.63261	-0.438
Mof_O 	O 	0.3647	0.1592	0.66825	-0.404
Mof_O 	O 	0.3298	0.4434	0.79896	-0.424
Mof_O 	O 	0.3208	0.3247	0.82494	-0.263
Mof_Cu	Cu	0.37019	0.38014	0.63648	0.873
Mof_C 	C 	0.6342	0.2693	0.66539	0.319
Mof_C 	C 	0.643	0.2183	0.70016	-0.055
Mof_C 	C 	0.6528	0.2336	0.74012	0.009
Mof_H 	H 	0.6539	0.2815	0.7528	0.035
Mof_C 	C 	0.6603	0.1608	0.75596	-0.061
Mof_C 	C 	0.6697	0.1294	0.7967	0.31
Mof_N 	N 	0.6442	0.1422	0.69335	-0.186
Mof_N 	N 	0.6545	0.1054	0.72763	-0.188
Mof_O 	O 	0.6294	0.2342	0.63261	-0.44
Mof_O 	O 	0.6353	0.3408	0.66825	-0.396
Mof_O 	O 	0.6702	0.0566	0.79896	-0.445
Mof_O 	O 	0.6792	0.1753	0.82494	-0.265
Mof_Cu	Cu	0.62981	0.11986	0.63648	0.864
Mof_C 	C 	0.1342	0.7693	0.16539	0.317
Mof_C 	C 	0.143	0.7183	0.20016	-0.049
Mof_C 	C 	0.1528	0.7336	0.24012	0.006
Mof_H 	H 	0.1539	0.7815	0.2528	0.042
Mof_C 	C 	0.1603	0.6608	0.25596	-0.053
Mof_C 	C 	0.1697	0.6294	0.2967	0.307
Mof_N 	N 	0.1442	0.6422	0.19335	-0.18
Mof_N 	N 	0.1545	0.6054	0.22763	-0.18
Mof_O 	O 	0.1294	0.7342	0.13261	-0.437
Mof_O 	O 	0.1353	0.8408	0.16825	-0.386
Mof_O 	O 	0.1702	0.5566	0.29896	-0.423
Mof_O 	O 	0.1792	0.6753	0.32494	-0.256
Mof_Cu	Cu	0.12981	0.61986	0.13648	0.873
Mof_Cu	Cu	0.25	0.09815	0.5	0.875
Mof_Cu	Cu	0.75	0.59815	-0	0.873
Mof_Cu	Cu	0.25	0.90185	-0	0.876
Mof_Cu	Cu	0.75	0.40185	0.5	0.878
Mof_Cu	Cu	0.65185	-2.01229e-32	0.75	0.852
Mof_Cu	Cu	0.15185	0.5	0.25	0.879
Mof_Cu	Cu	0.84815	-5.03073e-33	0.25	0.853
Mof_Cu	Cu	0.34815	0.5	0.75	0.879
_end
