# CIF file generated by openbabel 3.1.0, see https://openbabel.org
data_I
_chemical_name_common 'image0'
_cell_length_a 15.547
_cell_length_b 20.203
_cell_length_c 20.451
_cell_angle_alpha 118.19
_cell_angle_beta 95.92
_cell_angle_gamma 103.52
_space_group_name_H-M_alt 'P 1'
_space_group_name_Hall 'P 1'
loop_
    _symmetry_equiv_pos_as_xyz
    x,y,z
loop_
    _atom_site_label
    _atom_site_type_symbol
    _atom_site_fract_x
    _atom_site_fract_y
    _atom_site_fract_z
    _atom_site_occupancy
    Ca1      Ca       0.14348    0.12290    0.75551    1.000
    Ca2      Ca       0.90988    0.18249    0.80093    1.000
    Ca3      Ca       0.32898    0.17463    0.91040    1.000
    Ca4      Ca       0.52844    0.14350    0.84886    1.000
    O1       O        0.70330    0.69470    0.63460    1.000
    O2       O        0.89850    0.05340    0.72720    1.000
    O3       O        0.01910    0.01040    0.71460    1.000
    O4       O        0.58430    0.33520    0.33370    1.000
    O5       O        0.60490    0.17040    0.98360    1.000
    O6       O        0.47960    0.20300    0.97230    1.000
    O7       O        0.48150    0.38560    0.64060    1.000
    O8       O        0.28870    0.22440    0.81540    1.000
    O9       O        0.42970    0.21770    0.84270    1.000
    O10      O        0.09630    0.36480    0.51040    1.000
    O11      O        0.96770    0.22690    0.72400    1.000
    O12      O        0.08960    0.18750    0.70170    1.000
    O13      O        0.10350    0.35670    0.22610    1.000
    O14      O        0.06010    0.20190    0.86110    1.000
    O15      O        0.17200    0.16420    0.89420    1.000
    O16      O        0.18630    0.69960    0.53060    1.000
    O17      O        0.24300    0.05720    0.78440    1.000
    O18      O        0.37820    0.05110    0.82280    1.000
    O19      O        0.84770    0.14110    0.88580    1.000
    O20      O        0.65270    0.25260    0.87490    1.000
    C1       C        0.66540    0.54940    0.57150    1.000
    C2       C        0.62790    0.50630    0.49220    1.000
    C3       C        0.56870    0.42690    0.45800    1.000
    C4       C        0.55020    0.39090    0.50070    1.000
    C5       C        0.58830    0.43530    0.58170    1.000
    C6       C        0.63990    0.51500    0.61650    1.000
    C7       C        0.66800    0.56640    0.70480    1.000
    H1       H        0.70460    0.62050    0.72060    1.000
    H2       H        0.70410    0.54370    0.72560    1.000
    H3       H        0.61310    0.56770    0.72440    1.000
    C8       C        0.65290    0.54590    0.44560    1.000
    H4       H        0.62200    0.50850    0.39140    1.000
    H5       H        0.71920    0.56140    0.45180    1.000
    H6       H        0.63350    0.59300    0.46390    1.000
    C9       C        0.49450    0.30190    0.46140    1.000
    H7       H        0.48690    0.28750    0.50050    1.000
    H8       H        0.52700    0.27000    0.42710    1.000
    H9       H        0.43440    0.29170    0.43180    1.000
    C10      C        0.74130    0.62830    0.60830    1.000
    H10      H        0.78360    0.63520    0.65240    1.000
    H11      H        0.77650    0.62870    0.57070    1.000
    C11      C        0.76310    0.76600    0.65120    1.000
    C12      C        0.73230    0.83010    0.68430    1.000
    H12      H        0.67380    0.82290    0.69490    1.000
    C13      C        0.78580    0.90630    0.70290    1.000
    H13      H        0.76130    0.94890    0.72170    1.000
    C14      C        0.87780    0.91950    0.69340    1.000
    C15      C        0.90780    0.85350    0.66230    1.000
    H14      H        0.96750    0.86030    0.65420    1.000
    C16      C        0.85310    0.77780    0.64240    1.000
    H15      H        0.87660    0.73470    0.62320    1.000
    C17      C        0.93500    0.00120    0.71600    1.000
    C18      C        0.52690    0.38050    0.37170    1.000
    H16      H        0.46460    0.34440    0.35970    1.000
    H17      H        0.52240    0.41760    0.35380    1.000
    C19      C        0.56650    0.30000    0.25490    1.000
    C20      C        0.62680    0.26090    0.21950    1.000
    H18      H        0.67270    0.25590    0.24970    1.000
    C21      C        0.62160    0.22980    0.14320    1.000
    H19      H        0.66480    0.20510    0.12180    1.000
    C22      C        0.55440    0.23370    0.09600    1.000
    C23      C        0.49010    0.27040    0.13190    1.000
    H20      H        0.44180    0.27300    0.10180    1.000
    C24      C        0.49760    0.30240    0.21090    1.000
    H21      H        0.45400    0.32570    0.23340    1.000
    C25      C        0.54200    0.19830    0.01190    1.000
    C26      C        0.57500    0.39640    0.63030    1.000
    H22      H        0.58520    0.34440    0.60440    1.000
    H23      H        0.61970    0.43040    0.68080    1.000
    C27      C        0.45970    0.34750    0.68080    1.000
    C28      C        0.51910    0.32050    0.71000    1.000
    H24      H        0.57820    0.32460    0.70060    1.000
    C29      C        0.48960    0.28660    0.75450    1.000
    H25      H        0.53070    0.27180    0.77840    1.000
    C30      C        0.40090    0.27540    0.76260    1.000
    C31      C        0.34060    0.29760    0.72970    1.000
    H26      H        0.28000    0.29020    0.73590    1.000
    C32      C        0.37060    0.33150    0.68650    1.000
    H27      H        0.32820    0.34370    0.66060    1.000
    C33      C        0.37130    0.23540    0.80980    1.000
    C34      C        0.07600    0.44550    0.45740    1.000
    C35      C        0.04880    0.40980    0.37860    1.000
    C36      C        0.08110    0.45200    0.34100    1.000
    C37      C        0.14620    0.53050    0.38590    1.000
    C38      C        0.17660    0.56450    0.46480    1.000
    C39      C        0.14220    0.52230    0.50160    1.000
    C40      C        0.98190    0.32360    0.32890    1.000
    H28      H        0.97110    0.30780    0.27470    1.000
    H29      H        0.92380    0.32080    0.34380    1.000
    H30      H        0.00850    0.28770    0.33680    1.000
    C41      C        0.17600    0.57430    0.34320    1.000
    H31      H        0.21980    0.62710    0.37970    1.000
    H32      H        0.12240    0.57980    0.31900    1.000
    H33      H        0.20470    0.54400    0.30380    1.000
    C42      C        0.17620    0.56170    0.58820    1.000
    H34      H        0.22180    0.61380    0.60860    1.000
    H35      H        0.20400    0.52840    0.59980    1.000
    H36      H        0.12480    0.56810    0.61190    1.000
    C43      C        0.03410    0.40560    0.49920    1.000
    H37      H        0.02830    0.44560    0.54920    1.000
    H38      H        0.97270    0.36700    0.46840    1.000
    C44      C        0.07620    0.33190    0.55650    1.000
    C45      C        0.00600    0.33730    0.59170    1.000
    H39      H        0.96600    0.36430    0.58590    1.000
    C46      C        0.99380    0.30210    0.63690    1.000
    H40      H        0.94670    0.30810    0.66320    1.000
    C47      C        0.04700    0.25990    0.64450    1.000
    C48      C        0.11880    0.25310    0.60560    1.000
    H41      H        0.15690    0.22410    0.61000    1.000
    C49      C        0.13370    0.28850    0.56140    1.000
    H42      H        0.18110    0.28350    0.53540    1.000
    C50      C        0.03350    0.22100    0.69350    1.000
    C51      C        0.05190    0.41090    0.25490    1.000
    H43      H        0.98550    0.38160    0.23610    1.000
    H44      H        0.06550    0.45000    0.23800    1.000
    C52      C        0.10000    0.32030    0.14810    1.000
    C53      C        0.15410    0.26990    0.12380    1.000
    H45      H        0.18770    0.26260    0.15990    1.000
    C54      C        0.15870    0.23140    0.04910    1.000
    H46      H        0.19600    0.19830    0.03400    1.000
    C55      C        0.10580    0.24110    0.99130    1.000
    C56      C        0.05430    0.29100    0.01640    1.000
    H47      H        0.02160    0.29990    0.98100    1.000
    C57      C        0.04870    0.33030    0.09510    1.000
    H48      H        0.01050    0.36260    0.11070    1.000
    C58      C        0.11190    0.20120    0.91010    1.000
    C59      C        0.24330    0.64750    0.51060    1.000
    H49      H        0.28150    0.65580    0.55740    1.000
    H50      H        0.28370    0.65780    0.47980    1.000
    C60      C        0.21990    0.77680    0.59170    1.000
    C61      C        0.16040    0.82100    0.60230    1.000
    H51      H        0.10240    0.79730    0.56690    1.000
    C62      C        0.18280    0.89820    0.66250    1.000
    H52      H        0.14000    0.92620    0.67070    1.000
    C63      C        0.27220    0.93400    0.71160    1.000
    C64      C        0.33540    0.89350    0.69980    1.000
    H53      H        0.39560    0.91930    0.73220    1.000
    C65      C        0.30950    0.81320    0.63910    1.000
    H54      H        0.35180    0.78470    0.63060    1.000
    C66      C        0.29920    0.01990    0.77660    1.000
    H55      H        0.80400    0.13730    0.90730    1.000
    H56      H        0.85190    0.18470    0.88350    1.000
    H57      H        0.68480    0.30450    0.89990    1.000
    Ca5      Ca       0.85652    0.87710    0.24449    1.000
    Ca6      Ca       0.09012    0.81751    0.19907    1.000
    Ca7      Ca       0.67102    0.82537    0.08960    1.000
    Ca8      Ca       0.47156    0.85650    0.15114    1.000
    O21      O        0.29670    0.30530    0.36540    1.000
    O22      O        0.10150    0.94660    0.27280    1.000
    O23      O        0.98090    0.98960    0.28540    1.000
    O24      O        0.41570    0.66480    0.66630    1.000
    O25      O        0.39510    0.82960    0.01640    1.000
    O26      O        0.52040    0.79700    0.02770    1.000
    O27      O        0.51850    0.61440    0.35940    1.000
    O28      O        0.71130    0.77560    0.18460    1.000
    O29      O        0.57030    0.78230    0.15730    1.000
    O30      O        0.90370    0.63520    0.48960    1.000
    O31      O        0.03230    0.77310    0.27600    1.000
    O32      O        0.91040    0.81250    0.29830    1.000
    O33      O        0.89650    0.64330    0.77390    1.000
    O34      O        0.93990    0.79810    0.13890    1.000
    O35      O        0.82800    0.83580    0.10580    1.000
    O36      O        0.81370    0.30040    0.46940    1.000
    O37      O        0.75700    0.94280    0.21560    1.000
    O38      O        0.62180    0.94890    0.17720    1.000
    O39      O        0.15230    0.85890    0.11420    1.000
    O40      O        0.34730    0.74740    0.12510    1.000
    C67      C        0.33460    0.45060    0.42850    1.000
    C68      C        0.37210    0.49370    0.50780    1.000
    C69      C        0.43130    0.57310    0.54200    1.000
    C70      C        0.44980    0.60910    0.49930    1.000
    C71      C        0.41170    0.56470    0.41830    1.000
    C72      C        0.36010    0.48500    0.38350    1.000
    C73      C        0.33200    0.43360    0.29520    1.000
    H58      H        0.29540    0.37950    0.27940    1.000
    H59      H        0.29590    0.45630    0.27440    1.000
    H60      H        0.38690    0.43230    0.27560    1.000
    C74      C        0.34710    0.45410    0.55440    1.000
    H61      H        0.37800    0.49150    0.60860    1.000
    H62      H        0.28080    0.43860    0.54820    1.000
    H63      H        0.36650    0.40700    0.53610    1.000
    C75      C        0.50550    0.69810    0.53860    1.000
    H64      H        0.51310    0.71250    0.49950    1.000
    H65      H        0.47300    0.73000    0.57290    1.000
    H66      H        0.56560    0.70830    0.56820    1.000
    C76      C        0.25870    0.37170    0.39170    1.000
    H67      H        0.21640    0.36480    0.34760    1.000
    H68      H        0.22350    0.37130    0.42930    1.000
    C77      C        0.23690    0.23400    0.34880    1.000
    C78      C        0.26770    0.16990    0.31570    1.000
    H69      H        0.32620    0.17710    0.30510    1.000
    C79      C        0.21420    0.09370    0.29710    1.000
    H70      H        0.23870    0.05110    0.27830    1.000
    C80      C        0.12220    0.08050    0.30660    1.000
    C81      C        0.09220    0.14650    0.33770    1.000
    H71      H        0.03250    0.13970    0.34580    1.000
    C82      C        0.14690    0.22220    0.35760    1.000
    H72      H        0.12340    0.26530    0.37680    1.000
    C83      C        0.06500    0.99880    0.28400    1.000
    C84      C        0.47310    0.61950    0.62830    1.000
    H73      H        0.53540    0.65560    0.64030    1.000
    H74      H        0.47760    0.58240    0.64620    1.000
    C85      C        0.43350    0.70000    0.74510    1.000
    C86      C        0.37320    0.73910    0.78050    1.000
    H75      H        0.32730    0.74410    0.75030    1.000
    C87      C        0.37840    0.77020    0.85680    1.000
    H76      H        0.33520    0.79490    0.87820    1.000
    C88      C        0.44560    0.76630    0.90400    1.000
    C89      C        0.50990    0.72960    0.86810    1.000
    H77      H        0.55820    0.72700    0.89820    1.000
    C90      C        0.50240    0.69760    0.78910    1.000
    H78      H        0.54600    0.67430    0.76660    1.000
    C91      C        0.45800    0.80170    0.98810    1.000
    C92      C        0.42500    0.60360    0.36970    1.000
    H79      H        0.41480    0.65560    0.39560    1.000
    H80      H        0.38030    0.56960    0.31920    1.000
    C93      C        0.54030    0.65250    0.31920    1.000
    C94      C        0.48090    0.67950    0.29000    1.000
    H81      H        0.42180    0.67540    0.29940    1.000
    C95      C        0.51040    0.71340    0.24550    1.000
    H82      H        0.46930    0.72820    0.22160    1.000
    C96      C        0.59910    0.72460    0.23740    1.000
    C97      C        0.65940    0.70240    0.27030    1.000
    H83      H        0.72000    0.70980    0.26410    1.000
    C98      C        0.62940    0.66850    0.31350    1.000
    H84      H        0.67180    0.65630    0.33940    1.000
    C99      C        0.62870    0.76460    0.19020    1.000
    C100     C        0.92400    0.55450    0.54260    1.000
    C101     C        0.95120    0.59020    0.62140    1.000
    C102     C        0.91890    0.54800    0.65900    1.000
    C103     C        0.85380    0.46950    0.61410    1.000
    C104     C        0.82340    0.43550    0.53520    1.000
    C105     C        0.85780    0.47770    0.49840    1.000
    C106     C        0.01810    0.67640    0.67110    1.000
    H85      H        0.02890    0.69220    0.72530    1.000
    H86      H        0.07620    0.67920    0.65620    1.000
    H87      H        0.99150    0.71230    0.66320    1.000
    C107     C        0.82400    0.42570    0.65680    1.000
    H88      H        0.78020    0.37290    0.62030    1.000
    H89      H        0.87760    0.42020    0.68100    1.000
    H90      H        0.79530    0.45600    0.69620    1.000
    C108     C        0.82380    0.43830    0.41180    1.000
    H91      H        0.77820    0.38620    0.39140    1.000
    H92      H        0.79600    0.47160    0.40020    1.000
    H93      H        0.87520    0.43190    0.38810    1.000
    C109     C        0.96590    0.59440    0.50080    1.000
    H94      H        0.97170    0.55440    0.45080    1.000
    H95      H        0.02730    0.63300    0.53160    1.000
    C110     C        0.92380    0.66810    0.44350    1.000
    C111     C        0.99400    0.66270    0.40830    1.000
    H96      H        0.03400    0.63570    0.41410    1.000
    C112     C        0.00620    0.69790    0.36310    1.000
    H97      H        0.05330    0.69190    0.33680    1.000
    C113     C        0.95300    0.74010    0.35550    1.000
    C114     C        0.88120    0.74690    0.39440    1.000
    H98      H        0.84310    0.77590    0.39000    1.000
    C115     C        0.86630    0.71150    0.43860    1.000
    H99      H        0.81890    0.71650    0.46460    1.000
    C116     C        0.96650    0.77900    0.30650    1.000
    C117     C        0.94810    0.58910    0.74510    1.000
    H100     H        0.01450    0.61840    0.76390    1.000
    H101     H        0.93450    0.55000    0.76200    1.000
    C118     C        0.90000    0.67970    0.85190    1.000
    C119     C        0.84590    0.73010    0.87620    1.000
    H102     H        0.81230    0.73740    0.84010    1.000
    C120     C        0.84130    0.76860    0.95090    1.000
    H103     H        0.80400    0.80170    0.96600    1.000
    C121     C        0.89420    0.75890    0.00870    1.000
    C122     C        0.94570    0.70900    0.98360    1.000
    H104     H        0.97840    0.70010    0.01900    1.000
    C123     C        0.95130    0.66970    0.90490    1.000
    H105     H        0.98950    0.63740    0.88930    1.000
    C124     C        0.88810    0.79880    0.08990    1.000
    C125     C        0.75670    0.35250    0.48940    1.000
    H106     H        0.71850    0.34420    0.44260    1.000
    H107     H        0.71630    0.34220    0.52020    1.000
    C126     C        0.78010    0.22320    0.40830    1.000
    C127     C        0.83960    0.17900    0.39770    1.000
    H108     H        0.89760    0.20270    0.43310    1.000
    C128     C        0.81720    0.10180    0.33750    1.000
    H109     H        0.86000    0.07380    0.32930    1.000
    C129     C        0.72780    0.06600    0.28840    1.000
    C130     C        0.66460    0.10650    0.30020    1.000
    H110     H        0.60440    0.08070    0.26780    1.000
    C131     C        0.69050    0.18680    0.36090    1.000
    H111     H        0.64820    0.21530    0.36940    1.000
    C132     C        0.70080    0.98010    0.22340    1.000
    H112     H        0.19600    0.86270    0.09270    1.000
    H113     H        0.14810    0.81530    0.11650    1.000
    H114     H        0.31520    0.69550    0.10010    1.000
