data_functionalizedCrystal
_audit_creation_method	'EQeq! by Chris Wilmer'
_symmetry_space_group_name_H-M	'P1'
_symmetry_Int_Tables_number	1
_symmetry_cell_setting	triclinic
loop_
_symmetry_equiv_pos_as_xyz
  x,y,z
_cell_length_a	6.0607
_cell_length_b	12.3643
_cell_length_c	23.4943
_cell_angle_alpha	90
_cell_angle_beta	90
_cell_angle_gamma	94.2411
loop_
_atom_site_label
_atom_site_type_symbol
_atom_site_fract_x
_atom_site_fract_y
_atom_site_fract_z
_atom_site_charge
Mof_Er	Er	0.99065	0.89077	0.82982	1.853
Mof_Er	Er	0.00935	0.10923	0.17018	1.701
Mof_Er	Er	0.50935	0.60923	0.32982	1.815
Mof_Er	Er	0.49065	0.39077	0.67018	1.812
Mof_Cu	Cu	0.5	0.5	-0	0.912
Mof_Cu	Cu	1.97692e-32	7.1888e-33	0.5	0.903
Mof_H 	H 	0.02	0.993	0.103	0.146
Mof_H 	H 	0.931	0.109	0.881	0.329
Mof_H 	H 	0.069	0.891	0.119	0.281
Mof_H 	H 	0.4698	0.7252	0.8368	0.028
Mof_H 	H 	0.5511	0.8767	0.6714	0.044
Mof_H 	H 	0.8892	0.9217	0.2932	0.081
Mof_H 	H 	0.431	0.609	0.619	0.318
Mof_H 	H 	0.48	0.507	0.603	0.166
Mof_H 	H 	0.52	0.493	0.397	0.168
Mof_H 	H 	0.3892	0.4217	0.2068	0.032
Mof_H 	H 	0.569	0.391	0.381	0.322
Mof_H 	H 	0.1108	0.0783	0.7068	0.02
Mof_H 	H 	0.822	0.8554	0.6042	0.065
Mof_H 	H 	0.9489	0.6233	0.1714	0.054
Mof_H 	H 	0.4489	0.1233	0.3286	0.068
Mof_H 	H 	0.322	0.3554	0.8958	0.057
Mof_H 	H 	0.0302	0.7748	0.3368	0.007
Mof_H 	H 	0.678	0.6446	0.1042	0.057
Mof_H 	H 	0.0511	0.3767	0.8286	0.055
Mof_H 	H 	0.6108	0.5783	0.7932	0.034
Mof_H 	H 	0.178	0.1446	0.3958	0.042
Mof_H 	H 	0.9698	0.2252	0.6632	0.033
Mof_H 	H 	0.98	0.007	0.897	0.167
Mof_H 	H 	0.5302	0.2748	0.1632	0.031
Mof_C 	C 	0.4667	0.0771	0.5964	-0.045
Mof_C 	C 	0.6074	0.3092	0.1931	0.031
Mof_C 	C 	0.343	0.9264	0.2298	-0.015
Mof_C 	C 	0.5918	0.173	0.752	-0.002
Mof_C 	C 	0.0918	0.673	0.748	-0.01
Mof_C 	C 	0.7657	0.5862	0.1016	0.016
Mof_C 	C 	0.4313	0.0735	0.3582	-0.03
Mof_C 	C 	0.5687	0.9265	0.6418	0.061
Mof_C 	C 	0.6951	0.8352	0.4069	0.428
Mof_C 	C 	0.9063	0.7326	0.7214	0.34
Mof_C 	C 	0.0687	0.4265	0.8582	0.016
Mof_C 	C 	0.3168	0.8555	0.4927	0.282
Mof_C 	C 	0.9667	0.5771	0.9036	-0.039
Mof_C 	C 	0.2343	0.4138	0.8984	0.024
Mof_C 	C 	0.657	0.0736	0.7702	-0.075
Mof_C 	C 	0.157	0.5736	0.7298	-0.046
Mof_C 	C 	0.1832	0.6445	0.9927	0.331
Mof_C 	C 	0.5164	0.9889	0.8038	0.458
Mof_C 	C 	0.0937	0.2674	0.2786	0.303
Mof_C 	C 	0.6832	0.1445	0.5073	0.297
Mof_C 	C 	0.1074	0.8092	0.3069	0.058
Mof_C 	C 	0.0333	0.4229	0.0964	-0.074
Mof_C 	C 	0.8658	0.4323	0.0562	0.012
Mof_C 	C 	0.4063	0.2326	0.7786	0.333
Mof_C 	C 	0.1951	0.3352	0.0931	0.426
Mof_C 	C 	0.4082	0.827	0.248	-0.014
Mof_C 	C 	0.4836	0.0111	0.1962	0.384
Mof_C 	C 	0.1342	0.5677	0.9438	-0.025
Mof_C 	C 	0.8168	0.3555	0.0073	0.245
Mof_C 	C 	0.9836	0.5111	0.3038	0.469
Mof_C 	C 	0.5937	0.7674	0.2214	0.342
Mof_C 	C 	0.3658	0.9323	0.4438	0.015
Mof_C 	C 	0.5273	0.4009	0.2177	0.032
Mof_C 	C 	0.0164	0.4889	0.6962	0.421
Mof_C 	C 	0.843	0.4264	0.2702	-0.061
Mof_C 	C 	0.8049	0.6648	0.9069	0.426
Mof_C 	C 	0.7343	0.9138	0.6016	0.01
Mof_C 	C 	0.6342	0.0677	0.5562	-0.043
Mof_C 	C 	0.0273	0.9009	0.2823	-0.032
Mof_C 	C 	0.9313	0.5735	0.1418	0.042
Mof_C 	C 	0.3049	0.1648	0.5931	0.425
Mof_C 	C 	0.9727	0.0991	0.7177	0.041
Mof_C 	C 	0.2657	0.0862	0.3984	0.037
Mof_C 	C 	0.5333	0.9229	0.4036	-0.051
Mof_C 	C 	0.8926	0.1908	0.6931	0.024
Mof_C 	C 	0.4727	0.5991	0.7823	0.031
Mof_C 	C 	0.9082	0.327	0.252	0.03
Mof_C 	C 	0.3926	0.6908	0.8069	0.03
Mof_N 	N 	0.7663	0.9853	0.55964	-0.152
Mof_N 	N 	0.7074	0.23	0.71178	-0.184
Mof_N 	N 	0.5639	0.9936	0.3605	-0.063
Mof_N 	N 	0.857	0.0405	0.75643	-0.164
Mof_N 	N 	0.2926	0.77	0.28822	-0.19
Mof_N 	N 	0.4361	0.0064	0.6395	-0.115
Mof_N 	N 	0.9361	0.5064	0.8605	-0.091
Mof_N 	N 	0.2663	0.4853	0.94036	-0.172
Mof_N 	N 	0.2074	0.73	0.78822	-0.185
Mof_N 	N 	0.0639	0.4936	0.1395	-0.102
Mof_N 	N 	0.643	0.4595	0.25643	-0.153
Mof_N 	N 	0.7926	0.27	0.21178	-0.178
Mof_N 	N 	0.143	0.9595	0.24357	-0.139
Mof_N 	N 	0.2337	0.0147	0.44036	-0.208
Mof_N 	N 	0.7337	0.5147	0.05964	-0.187
Mof_N 	N 	0.357	0.5405	0.74357	-0.156
Mof_O 	O 	0.6196	0.9315	0.83723	-0.479
Mof_O 	O 	0.5929	0.2295	0.50452	-0.256
Mof_O 	O 	0.6866	0.0212	0.20627	-0.455
Mof_O 	O 	0.16	0.1904	0.24972	-0.438
Mof_O 	O 	0.8409	0.7049	0.67332	-0.242
Mof_O 	O 	0.022	0.0596	0.8754	-0.704
Mof_O 	O 	0.1581	0.2558	0.12609	-0.506
Mof_O 	O 	0.8566	0.8518	0.43811	-0.331
Mof_O 	O 	0.3566	0.3518	0.06189	-0.356
Mof_O 	O 	0.3419	0.2442	0.62609	-0.512
Mof_O 	O 	0.34	0.3096	0.74972	-0.447
Mof_O 	O 	0.3233	0.6136	0.02905	-0.381
Mof_O 	O 	0.6767	0.3864	0.97095	-0.31
Mof_O 	O 	0.1196	0.4315	0.66277	-0.48
Mof_O 	O 	0.66	0.6904	0.25028	-0.445
Mof_O 	O 	0.9071	0.2705	0.00452	-0.253
Mof_O 	O 	0.6591	0.7951	0.17332	-0.238
Mof_O 	O 	0.8134	0.4788	0.70627	-0.465
Mof_O 	O 	0.978	0.9404	0.1246	-0.599
Mof_O 	O 	0.1434	0.1482	0.56189	-0.359
Mof_O 	O 	0.1591	0.2951	0.32668	-0.244
Mof_O 	O 	0.8419	0.7442	0.87391	-0.512
Mof_O 	O 	0.1866	0.5212	0.29373	-0.498
Mof_O 	O 	0.6434	0.6482	0.93811	-0.337
Mof_O 	O 	0.1767	0.8864	0.52905	-0.339
Mof_O 	O 	0.0929	0.7295	0.99548	-0.252
Mof_O 	O 	0.8233	0.1136	0.47095	-0.345
Mof_O 	O 	0.522	0.5596	0.6246	-0.68
Mof_O 	O 	0.478	0.4404	0.3754	-0.686
Mof_O 	O 	0.8804	0.5685	0.33723	-0.48
Mof_O 	O 	0.6581	0.7558	0.37391	-0.507
Mof_O 	O 	0.84	0.8096	0.75028	-0.449
Mof_O 	O 	0.3409	0.2049	0.82668	-0.246
Mof_O 	O 	0.4071	0.7705	0.49548	-0.255
Mof_O 	O 	0.3804	0.0685	0.16277	-0.468
Mof_O 	O 	0.3134	0.9788	0.79373	-0.466
_end
