# CIF file generated by openbabel 3.1.0, see https://openbabel.org
data_I
_chemical_name_common 'LOTDIJ_clean'
_cell_length_a 17.8916
_cell_length_b 19.088
_cell_length_c 19.6745
_cell_angle_alpha 90
_cell_angle_beta 90
_cell_angle_gamma 90
_space_group_name_H-M_alt 'P 1'
_space_group_name_Hall 'P 1'
loop_
    _symmetry_equiv_pos_as_xyz
    x,y,z
loop_
    _atom_site_label
    _atom_site_type_symbol
    _atom_site_fract_x
    _atom_site_fract_y
    _atom_site_fract_z
    _atom_site_occupancy
    Co1      Co       0.31841    0.76535    0.00004    1.000
    Co2      Co       0.18159    0.26535    0.50004    1.000
    Co3      Co       0.68159    0.26535    0.99996    1.000
    Co4      Co       0.81841    0.76535    0.49996    1.000
    H1       H        0.96090    0.66880    0.69860    1.000
    H2       H        0.40640    0.14580    0.87320    1.000
    H3       H        0.51950    0.46180    0.10300    1.000
    H4       H        0.86270    0.98890    0.72740    1.000
    H5       H        0.61400    0.54120    0.71330    1.000
    H6       H        0.20270    0.15980    0.82230    1.000
    H7       H        0.70230    0.79410    0.39010    1.000
    H8       H        0.17000    0.23760    0.74240    1.000
    H9       H        0.22250    0.66710    0.64220    1.000
    H10      H        0.59910    0.23550    0.13230    1.000
    H11      H        0.03910    0.16880    0.30140    1.000
    H12      H        0.73360    0.55700    0.35400    1.000
    H13      H        0.18110    0.43430    0.83670    1.000
    H14      H        0.72400    0.90540    0.50170    1.000
    H15      H        0.23750    0.29770    0.27270    1.000
    H16      H        0.38600    0.04120    0.28670    1.000
    H17      H        0.90640    0.14580    0.62680    1.000
    H18      H        0.90940    0.16430    0.13350    1.000
    H19      H        0.72290    0.35680    0.77470    1.000
    H20      H        0.41650    0.78190    0.11980    1.000
    H21      H        0.80110    0.69900    0.84520    1.000
    H22      H        0.26410    0.48530    0.27140    1.000
    H23      H        0.28800    0.28300    0.13800    1.000
    H24      H        0.28850    0.13640    0.25580    1.000
    H25      H        0.78560    0.67470    0.72700    1.000
    H26      H        0.98530    0.84990    0.32150    1.000
    H27      H        0.51410    0.56870    0.24040    1.000
    H28      H        0.79040    0.80970    0.14150    1.000
    H29      H        0.13340    0.41180    0.24780    1.000
    H30      H        0.55660    0.14440    0.02710    1.000
    H31      H        0.44340    0.64440    0.97290    1.000
    H32      H        0.26360    0.92700    0.82020    1.000
    H33      H        0.40630    0.59380    0.34500    1.000
    H34      H        0.73750    0.29770    0.22730    1.000
    H35      H        0.38150    0.45430    0.44730    1.000
    H36      H        0.94510    0.39230    0.13790    1.000
    H37      H        0.30910    0.96590    0.26470    1.000
    H38      H        0.96710    0.39050    0.30780    1.000
    H39      H        0.45980    0.53360    0.18920    1.000
    H40      H        0.69030    0.31900    0.29010    1.000
    H41      H        0.17710    0.88340    0.73990    1.000
    H42      H        0.95980    0.53360    0.31080    1.000
    H43      H        0.23160    0.90730    0.68310    1.000
    H44      H        0.54020    0.03360    0.81080    1.000
    H45      H        0.22290    0.35680    0.72530    1.000
    H46      H        0.35070    0.11750    0.71260    1.000
    H47      H        0.76840    0.40730    0.31690    1.000
    H48      H        0.16870    0.75790    0.70180    1.000
    H49      H        0.76410    0.48530    0.22860    1.000
    H50      H        0.33130    0.25790    0.20180    1.000
    H51      H        0.21680    0.06400    0.18100    1.000
    H52      H        0.79730    0.65980    0.17770    1.000
    H53      H        0.22070    0.88320    0.27940    1.000
    H54      H        0.26250    0.79770    0.77270    1.000
    H55      H        0.20230    0.79410    0.10990    1.000
    H56      H        0.70960    0.30970    0.64150    1.000
    H57      H        0.61120    0.84120    0.34890    1.000
    H58      H        0.98050    0.96180    0.60300    1.000
    H59      H        0.78320    0.56400    0.81900    1.000
    H60      H        0.27930    0.38320    0.77940    1.000
    H61      H        0.03290    0.89050    0.69220    1.000
    H62      H        0.85070    0.11750    0.78740    1.000
    H63      H        0.71440    0.17470    0.22700    1.000
    H64      H        0.22400    0.90540    0.99830    1.000
    H65      H        0.88880    0.34120    0.84890    1.000
    H66      H        0.61850    0.95430    0.55270    1.000
    H67      H        0.78800    0.28300    0.36200    1.000
    H68      H        0.69890    0.19900    0.34520    1.000
    H69      H        0.83130    0.25790    0.29820    1.000
    H70      H        0.04510    0.15530    0.81850    1.000
    H71      H        0.11850    0.95430    0.94730    1.000
    H72      H        0.46090    0.66880    0.80140    1.000
    H73      H        0.88150    0.45430    0.05270    1.000
    H74      H        0.80970    0.81900    0.79010    1.000
    H75      H        0.69970    0.05190    0.24260    1.000
    H76      H        0.88570    0.77270    0.20770    1.000
    H77      H        0.26840    0.40730    0.18310    1.000
    H78      H        0.21200    0.78300    0.63800    1.000
    H79      H        0.58350    0.28190    0.88020    1.000
    H80      H        0.70270    0.15980    0.67770    1.000
    H81      H        0.28320    0.56400    0.68100    1.000
    H82      H        0.23350    0.77170    0.31180    1.000
    H83      H        0.20150    0.11760    0.55870    1.000
    H84      H        0.85260    0.58680    0.26150    1.000
    H85      H        0.27600    0.40540    0.49830    1.000
    H86      H        0.83000    0.73760    0.25760    1.000
    H87      H        0.40090    0.73550    0.86770    1.000
    H88      H        0.29730    0.65980    0.32230    1.000
    H89      H        0.59360    0.64580    0.12680    1.000
    H90      H        0.86570    0.46470    0.78930    1.000
    H91      H        0.33880    0.97020    0.69900    1.000
    H92      H        0.29770    0.29410    0.60990    1.000
    H93      H        0.73160    0.90730    0.81690    1.000
    H94      H        0.61520    0.41030    0.03210    1.000
    H95      H        0.67000    0.23760    0.75760    1.000
    H96      H        0.78850    0.13640    0.24420    1.000
    H97      H        0.13730    0.48890    0.27260    1.000
    H98      H        0.04230    0.01260    0.76530    1.000
    H99      H        0.38880    0.34120    0.65110    1.000
    H100     H        0.05660    0.14440    0.47290    1.000
    H101     H        0.05330    0.60060    0.47800    1.000
    H102     H        0.98590    0.06870    0.74040    1.000
    H103     H        0.13430    0.96470    0.21070    1.000
    H104     H        0.30030    0.55190    0.75740    1.000
    H105     H        0.09910    0.23550    0.36770    1.000
    H106     H        0.94670    0.10060    0.52200    1.000
    H107     H        0.14740    0.08680    0.73850    1.000
    H108     H        0.68110    0.43430    0.66330    1.000
    H109     H        0.40900    0.64290    0.21360    1.000
    H110     H        0.26650    0.27170    0.81180    1.000
    H111     H        0.19090    0.46590    0.76470    1.000
    H112     H        0.53290    0.89050    0.80780    1.000
    H113     H        0.70150    0.11760    0.94130    1.000
    H114     H        0.23640    0.42700    0.32020    1.000
    H115     H        0.11430    0.27270    0.79230    1.000
    H116     H        0.63340    0.41180    0.25220    1.000
    H117     H        0.11520    0.41030    0.46790    1.000
    H118     H        0.61430    0.27270    0.70770    1.000
    H119     H        0.88600    0.04120    0.21330    1.000
    H120     H        0.64930    0.61750    0.28740    1.000
    H121     H        0.59370    0.09380    0.65500    1.000
    H122     H        0.71200    0.78300    0.86200    1.000
    H123     H        0.82290    0.38340    0.26010    1.000
    H124     H        0.40940    0.16430    0.36650    1.000
    H125     H        0.54230    0.01260    0.73470    1.000
    H126     H        0.77710    0.85680    0.27470    1.000
    H127     H        0.76650    0.27170    0.68820    1.000
    H128     H        0.36270    0.98890    0.77260    1.000
    H129     H        0.72250    0.66710    0.85780    1.000
    H130     H        0.14930    0.61750    0.21260    1.000
    H131     H        0.19890    0.19900    0.15480    1.000
    H132     H        0.09360    0.64580    0.37320    1.000
    H133     H        0.20960    0.30970    0.85850    1.000
    H134     H        0.28560    0.67470    0.77300    1.000
    H135     H        0.27750    0.16710    0.14220    1.000
    H136     H        0.63730    0.48890    0.22740    1.000
    H137     H        0.19030    0.31900    0.20990    1.000
    H138     H        0.19970    0.05190    0.25740    1.000
    H139     H        0.11400    0.54120    0.78670    1.000
    H140     H        0.90630    0.59380    0.15500    1.000
    H141     H        0.30110    0.69900    0.65480    1.000
    H142     H        0.77600    0.40540    0.00170    1.000
    H143     H        0.73640    0.42700    0.17980    1.000
    H144     H        0.77930    0.38320    0.72060    1.000
    H145     H        0.79770    0.29410    0.89010    1.000
    H146     H        0.48050    0.96180    0.89700    1.000
    H147     H        0.01950    0.46180    0.39700    1.000
    H148     H        0.64740    0.08680    0.76150    1.000
    H149     H        0.94340    0.64440    0.52710    1.000
    H150     H        0.95490    0.65530    0.18150    1.000
    H151     H        0.38480    0.91030    0.96790    1.000
    H152     H        0.18250    0.72660    0.90490    1.000
    H153     H        0.01410    0.56870    0.25960    1.000
    H154     H        0.44510    0.39230    0.36210    1.000
    H155     H        0.80910    0.96590    0.23530    1.000
    H156     H        0.81750    0.22660    0.09510    1.000
    H157     H        0.54510    0.15530    0.68150    1.000
    H158     H        0.09100    0.14290    0.71360    1.000
    H159     H        0.23360    0.55700    0.14600    1.000
    H160     H        0.86660    0.91180    0.75220    1.000
    H161     H        0.44670    0.10060    0.97800    1.000
    H162     H        0.73350    0.77170    0.18820    1.000
    H163     H        0.21440    0.17470    0.27300    1.000
    H164     H        0.80030    0.55190    0.74260    1.000
    H165     H        0.09060    0.66430    0.86650    1.000
    H166     H        0.69090    0.46590    0.73530    1.000
    H167     H        0.63430    0.96470    0.28930    1.000
    H168     H        0.21150    0.63640    0.75580    1.000
    H169     H        0.23590    0.98530    0.77140    1.000
    H170     H        0.38570    0.77270    0.29230    1.000
    H171     H        0.88480    0.91030    0.53210    1.000
    H172     H        0.36660    0.91180    0.74780    1.000
    H173     H        0.34750    0.69690    0.37550    1.000
    H174     H        0.46710    0.39050    0.19220    1.000
    H175     H        0.81890    0.93430    0.16330    1.000
    H176     H        0.71680    0.06400    0.31900    1.000
    H177     H        0.27710    0.85680    0.22530    1.000
    H178     H        0.53910    0.16880    0.19860    1.000
    H179     H        0.66120    0.47020    0.30100    1.000
    H180     H        0.45490    0.65530    0.31850    1.000
    H181     H        0.66870    0.75790    0.79820    1.000
    H182     H        0.59100    0.14290    0.78640    1.000
    H183     H        0.90900    0.64290    0.28640    1.000
    H184     H        0.91650    0.78190    0.38020    1.000
    H185     H        0.55330    0.60060    0.02200    1.000
    H186     H        0.83880    0.97020    0.80100    1.000
    H187     H        0.32290    0.38340    0.23990    1.000
    H188     H        0.30970    0.81900    0.70990    1.000
    H189     H        0.84750    0.69690    0.12450    1.000
    H190     H        0.08350    0.28190    0.61980    1.000
    H191     H        0.65250    0.19690    0.62450    1.000
    H192     H        0.26640    0.05700    0.64600    1.000
    H193     H        0.76360    0.92700    0.67980    1.000
    H194     H        0.67710    0.88340    0.76010    1.000
    H195     H        0.31750    0.22660    0.40490    1.000
    H196     H        0.16120    0.47020    0.19900    1.000
    H197     H        0.48590    0.06870    0.75960    1.000
    H198     H        0.33000    0.73760    0.24240    1.000
    H199     H        0.73590    0.98530    0.72860    1.000
    H200     H        0.11120    0.84120    0.15110    1.000
    H201     H        0.76640    0.05700    0.85400    1.000
    H202     H        0.55490    0.89230    0.63790    1.000
    H203     H        0.72070    0.88320    0.22060    1.000
    H204     H        0.45770    0.51260    0.26530    1.000
    H205     H        0.29040    0.80970    0.35850    1.000
    H206     H        0.01470    0.34990    0.67850    1.000
    H207     H        0.31890    0.93430    0.33670    1.000
    H208     H        0.29850    0.61760    0.05870    1.000
    H209     H        0.71150    0.63640    0.74420    1.000
    H210     H        0.59060    0.66430    0.63350    1.000
    H211     H        0.90090    0.73550    0.63230    1.000
    H212     H        0.15250    0.19690    0.87550    1.000
    H213     H        0.35260    0.58680    0.23850    1.000
    H214     H        0.95770    0.51260    0.23470    1.000
    H215     H        0.05490    0.89230    0.86210    1.000
    H216     H        0.48530    0.84990    0.17850    1.000
    H217     H        0.77750    0.16710    0.35780    1.000
    H218     H        0.04020    0.03360    0.68920    1.000
    H219     H        0.76250    0.79770    0.72730    1.000
    H220     H        0.68250    0.72660    0.59510    1.000
    H221     H        0.79850    0.61760    0.44130    1.000
    H222     H        0.36570    0.46470    0.71070    1.000
    H223     H        0.51470    0.34990    0.82150    1.000
    H224     H        0.09370    0.09380    0.84500    1.000
    C1       C        0.08280    0.28250    0.37320    1.000
    C2       C        0.67760    0.42500    0.71060    1.000
    C3       C        0.40850    0.63160    0.31370    1.000
    C4       C        0.02850    0.30720    0.32820    1.000
    C5       C        0.11000    0.75440    0.21070    1.000
    C6       C        0.29260    0.24510    0.61660    1.000
    C7       C        0.52670    0.63740    0.04360    1.000
    C8       C        0.03950    0.16360    0.51460    1.000
    C9       C        0.51770    0.65280    0.71710    1.000
    C10      C        0.11020    0.80340    0.87620    1.000
    C11      C        0.26460    0.64280    0.08660    1.000
    C12      C        0.90870    0.32050    0.80890    1.000
    C13      C        0.66410    0.71270    0.33480    1.000
    C14      C        0.22060    0.29680    0.81300    1.000
    C15      C        0.07110    0.05220    0.21010    1.000
    C16      C        0.50520    0.37240    0.16350    1.000
    C17      C        0.92890    0.55220    0.78990    1.000
    C18      C        0.98220    0.32560    0.70870    1.000
    C19      C        0.76050    0.81540    0.77240    1.000
    C20      C        0.67680    0.64100    0.32180    1.000
    C21      C        0.97150    0.80720    0.67180    1.000
    C22      C        0.98830    0.22210    0.63210    1.000
    C23      C        0.98990    0.69180    0.73240    1.000
    C24      C        0.27030    0.86740    0.27210    1.000
    C25      C        0.45780    0.35940    0.73370    1.000
    C26      C        0.73600    0.44320    0.22550    1.000
    C27      C        0.72060    0.29680    0.68700    1.000
    C28      C        0.03470    0.41460    0.39100    1.000
    C29      C        0.99930    0.76110    0.72780    1.000
    C30      C        0.28320    0.26370    0.18230    1.000
    C31      C        0.43460    0.18890    0.33130    1.000
    C32      C        0.90110    0.60580    0.25500    1.000
    C33      C        0.36610    0.40810    0.43600    1.000
    C34      C        0.97430    0.43280    0.77780    1.000
    C35      C        0.83900    0.74950    0.21140    1.000
    C36      C        0.23540    0.14280    0.58660    1.000
    C37      C        0.40670    0.37060    0.38790    1.000
    C38      C        0.93650    0.02600    0.21540    1.000
    C39      C        0.91570    0.48120    0.78610    1.000
    C40      C        0.19650    0.08440    0.22090    1.000
    C41      C        0.74750    0.19290    0.32670    1.000
    C42      C        0.00570    0.57450    0.78550    1.000
    C43      C        0.17680    0.64100    0.17820    1.000
    C44      C        0.22820    0.88870    0.72780    1.000
    C45      C        0.96140    0.25690    0.69460    1.000
    C46      C        0.43650    0.02600    0.28460    1.000
    C47      C        0.16450    0.40530    0.58400    1.000
    C48      C        0.88980    0.30340    0.12380    1.000
    C49      C        0.32240    0.92500    0.28940    1.000
    C50      C        0.58280    0.28250    0.12680    1.000
    C51      C        0.61000    0.75440    0.28930    1.000
    C52      C        0.83550    0.90530    0.41600    1.000
    C53      C        0.22970    0.36740    0.77210    1.000
    C54      C        0.40870    0.32050    0.69110    1.000
    C55      C        0.33900    0.74950    0.28860    1.000
    C56      C        0.73950    0.31540    0.27240    1.000
    C57      C        0.71680    0.76370    0.81770    1.000
    C58      C        0.02570    0.93280    0.22220    1.000
    C59      C        0.83590    0.21270    0.83480    1.000
    C60      C        0.94920    0.16440    0.60470    1.000
    C61      C        0.17130    0.77460    0.91200    1.000
    C62      C        0.33590    0.21270    0.66520    1.000
    C63      C        0.69650    0.08440    0.27910    1.000
    C64      C        0.69480    0.87810    0.53220    1.000
    C65      C        0.06350    0.52600    0.78460    1.000
    C66      C        0.59150    0.13160    0.68630    1.000
    C67      C        0.46520    0.55020    0.23440    1.000
    C68      C        0.44400    0.74480    0.09970    1.000
    C69      C        0.52570    0.93280    0.27780    1.000
    C70      C        0.72040    0.12730    0.07490    1.000
    C71      C        0.06540    0.68890    0.83130    1.000
    C72      C        0.49480    0.87240    0.83650    1.000
    C73      C        0.99430    0.07450    0.21450    1.000
    C74      C        0.75250    0.69290    0.82670    1.000
    C75      C        0.46140    0.25690    0.80540    1.000
    C76      C        0.72820    0.88870    0.77220    1.000
    C77      C        0.47150    0.80720    0.82820    1.000
    C78      C        0.07040    0.75890    0.82590    1.000
    C79      C        0.82240    0.92500    0.21060    1.000
    C80      C        0.30350    0.58440    0.72090    1.000
    C81      C        0.16100    0.24950    0.78860    1.000
    C82      C        0.74040    0.14880    0.26080    1.000
    C83      C        0.04890    0.45730    0.78080    1.000
    C84      C        0.41720    0.78250    0.87320    1.000
    C85      C        0.40110    0.60580    0.24500    1.000
    C86      C        0.03480    0.05020    0.73440    1.000
    C87      C        0.51170    0.72210    0.13210    1.000
    C88      C        0.01770    0.65280    0.78290    1.000
    C89      C        0.23950    0.31540    0.22760    1.000
    C90      C        0.77940    0.79680    0.18700    1.000
    C91      C        0.66060    0.45450    0.25510    1.000
    C92      C        0.01010    0.19180    0.26760    1.000
    C93      C        0.21680    0.76370    0.68230    1.000
    C94      C        0.24750    0.19290    0.17330    1.000
    C95      C        0.66450    0.40530    0.91600    1.000
    C96      C        0.54890    0.45730    0.71920    1.000
    C97      C        0.27530    0.10540    0.63850    1.000
    C98      C        0.01780    0.82560    0.29130    1.000
    C99      C        0.53950    0.16360    0.98540    1.000
    C100     C        0.04220    0.85940    0.23370    1.000
    C101     C        0.61020    0.80340    0.62380    1.000
    C102     C        0.77960    0.62730    0.57490    1.000
    C103     C        0.54220    0.85940    0.26630    1.000
    C104     C        0.34310    0.68390    0.32910    1.000
    C105     C        0.48990    0.69180    0.76760    1.000
    C106     C        0.05600    0.24480    0.59970    1.000
    C107     C        0.33550    0.90530    0.08400    1.000
    C108     C        0.78320    0.26370    0.31770    1.000
    C109     C        0.55600    0.24480    0.90030    1.000
    C110     C        0.32870    0.27460    0.41200    1.000
    C111     C        0.09150    0.13160    0.81370    1.000
    C112     C        0.09130    0.82050    0.19110    1.000
    C113     C        0.53470    0.41460    0.10900    1.000
    C114     C        0.52850    0.30720    0.17180    1.000
    C115     C        0.09370    0.38360    0.43210    1.000
    C116     C        0.80520    0.37810    0.03220    1.000
    C117     C        0.09330    0.87060    0.88790    1.000
    C118     C        0.19480    0.87810    0.96780    1.000
    C119     C        0.48830    0.22210    0.86790    1.000
    C120     C        0.65690    0.18390    0.67090    1.000
    C121     C        0.42960    0.25890    0.32590    1.000
    C122     C        0.96520    0.55020    0.26560    1.000
    C123     C        0.98230    0.15280    0.21710    1.000
    C124     C        0.59330    0.87060    0.61210    1.000
    C125     C        0.79260    0.24510    0.88340    1.000
    C126     C        0.46050    0.66360    0.01460    1.000
    C127     C        0.44920    0.16440    0.89530    1.000
    C128     C        0.84310    0.68390    0.17090    1.000
    C129     C        0.57110    0.05220    0.28990    1.000
    C130     C        0.22040    0.12730    0.42510    1.000
    C131     C        0.86610    0.40810    0.06400    1.000
    C132     C        0.03860    0.75690    0.30540    1.000
    C133     C        0.27960    0.62730    0.92510    1.000
    C134     C        0.42890    0.55220    0.71010    1.000
    C135     C        0.23600    0.44320    0.27450    1.000
    C136     C        0.33940    0.95450    0.74490    1.000
    C137     C        0.25960    0.64880    0.73920    1.000
    C138     C        0.32320    0.14100    0.67820    1.000
    C139     C        0.66100    0.24950    0.71140    1.000
    C140     C        0.97330    0.13740    0.54360    1.000
    C141     C        0.83940    0.95450    0.75510    1.000
    C142     C        0.56540    0.68890    0.66870    1.000
    C143     C        0.95780    0.35940    0.76630    1.000
    C144     C        0.05080    0.66440    0.39530    1.000
    C145     C        0.24040    0.14880    0.23920    1.000
    C146     C        0.75960    0.64880    0.76080    1.000
    C147     C        0.51010    0.19180    0.23240    1.000
    C148     C        0.41570    0.48120    0.71390    1.000
    C149     C        0.08430    0.98120    0.21390    1.000
    C150     C        0.26050    0.81540    0.72760    1.000
    C151     C        0.47330    0.13740    0.95640    1.000
    C152     C        0.76400    0.94320    0.72550    1.000
    C153     C        0.94400    0.74480    0.40030    1.000
    C154     C        0.77030    0.86740    0.22790    1.000
    C155     C        0.91720    0.78250    0.62680    1.000
    C156     C        0.82870    0.27460    0.08800    1.000
    C157     C        0.02670    0.63740    0.45640    1.000
    C158     C        0.49430    0.07450    0.28550    1.000
    C159     C        0.96050    0.66360    0.48540    1.000
    C160     C        0.49930    0.76110    0.77220    1.000
    C161     C        0.16060    0.45450    0.24490    1.000
    C162     C        0.90670    0.37060    0.11210    1.000
    C163     C        0.63390    0.90810    0.56400    1.000
    C164     C        0.09890    0.10580    0.74500    1.000
    C165     C        0.50570    0.57450    0.71450    1.000
    C166     C        0.17760    0.42500    0.78940    1.000
    C167     C        0.53860    0.75690    0.19460    1.000
    C168     C        0.51780    0.82560    0.20870    1.000
    C169     C        0.59370    0.38360    0.06790    1.000
    C170     C        0.26400    0.94320    0.77450    1.000
    C171     C        0.92960    0.25890    0.17410    1.000
    C172     C        0.40630    0.88360    0.93210    1.000
    C173     C        0.95110    0.95730    0.21920    1.000
    C174     C        0.99480    0.87240    0.66350    1.000
    C175     C        0.90630    0.88360    0.56790    1.000
    C176     C        0.82320    0.14100    0.82180    1.000
    C177     C        0.57040    0.75890    0.67410    1.000
    C178     C        0.76460    0.64280    0.41340    1.000
    C179     C        0.72470    0.60540    0.36150    1.000
    C180     C        0.38980    0.30340    0.37620    1.000
    C181     C        0.01170    0.72210    0.36790    1.000
    C182     C        0.27180    0.38870    0.22780    1.000
    C183     C        0.16410    0.71270    0.16520    1.000
    C184     C        0.00070    0.26110    0.27220    1.000
    C185     C        0.96530    0.91460    0.60900    1.000
    C186     C        0.70740    0.74510    0.38340    1.000
    C187     C        0.72970    0.36740    0.72790    1.000
    C188     C        0.77180    0.38870    0.27220    1.000
    C189     C        0.47430    0.43280    0.72220    1.000
    C190     C        0.55080    0.66440    0.10470    1.000
    C191     C        0.00520    0.37240    0.33650    1.000
    C192     C        0.15690    0.18390    0.82910    1.000
    C193     C        0.45110    0.95730    0.28080    1.000
    C194     C        0.59890    0.10580    0.75500    1.000
    C195     C        0.48220    0.32560    0.79130    1.000
    C196     C        0.73540    0.14280    0.91340    1.000
    C197     C        0.67130    0.77460    0.58800    1.000
    C198     C        0.80350    0.58440    0.77910    1.000
    C199     C        0.77530    0.10540    0.86150    1.000
    C200     C        0.89000    0.25440    0.78930    1.000
    C201     C        0.59130    0.82050    0.30890    1.000
    C202     C        0.20740    0.74510    0.11660    1.000
    C203     C        0.25250    0.69290    0.67330    1.000
    C204     C        0.56350    0.52600    0.71540    1.000
    C205     C        0.50070    0.26110    0.22780    1.000
    C206     C        0.46530    0.91460    0.89100    1.000
    C207     C        0.93460    0.18890    0.16870    1.000
    C208     C        0.13390    0.90810    0.93600    1.000
    C209     C        0.30520    0.37810    0.46780    1.000
    C210     C        0.90850    0.63160    0.18630    1.000
    C211     C        0.48230    0.15280    0.28290    1.000
    C212     C        0.39000    0.25440    0.71070    1.000
    C213     C        0.22470    0.60540    0.13850    1.000
    C214     C        0.53480    0.05020    0.76560    1.000
    C215     C        0.58430    0.98120    0.28610    1.000
    C216     C        0.27940    0.79680    0.31300    1.000
    S1       S        0.27142    0.05495    0.40611    1.000
    S2       S        0.72858    0.55495    0.59389    1.000
    S3       S        0.22858    0.55495    0.90611    1.000
    S4       S        0.64759    0.48611    0.88576    1.000
    S5       S        0.35241    0.98611    0.11424    1.000
    S6       S        0.14759    0.48611    0.61424    1.000
    S7       S        0.85241    0.98611    0.38576    1.000
    S8       S        0.77142    0.05495    0.09389    1.000
    N1       N        0.38780    0.81840    0.92450    1.000
    N2       N        0.80840    0.67670    0.56070    1.000
    N3       N        0.61220    0.31840    0.07550    1.000
    N4       N        0.24420    0.20860    0.57760    1.000
    N5       N        0.91390    0.22100    0.73680    1.000
    N6       N        0.88780    0.81840    0.57550    1.000
    N7       N        0.53930    0.79790    0.72340    1.000
    N8       N        0.58610    0.72100    0.23680    1.000
    N9       N        0.32720    0.85140    0.06570    1.000
    N10      N        0.92010    0.71790    0.45660    1.000
    N11      N        0.19160    0.17670    0.43930    1.000
    N12      N        0.74420    0.20860    0.92240    1.000
    N13      N        0.17280    0.35140    0.56570    1.000
    N14      N        0.07990    0.21790    0.54340    1.000
    N15      N        0.41390    0.22100    0.76320    1.000
    N16      N        0.96070    0.29790    0.22340    1.000
    N17      N        0.28400    0.31080    0.45500    1.000
    N18      N        0.75580    0.70860    0.42240    1.000
    N19      N        0.03930    0.79790    0.77660    1.000
    N20      N        0.69160    0.17670    0.06070    1.000
    N21      N        0.21600    0.81080    0.95500    1.000
    N22      N        0.57990    0.21790    0.95660    1.000
    N23      N        0.25580    0.70860    0.07760    1.000
    N24      N        0.46070    0.29790    0.27660    1.000
    N25      N        0.42010    0.71790    0.04340    1.000
    N26      N        0.67280    0.35140    0.93430    1.000
    N27      N        0.08610    0.72100    0.26320    1.000
    N28      N        0.11220    0.31840    0.42450    1.000
    N29      N        0.71600    0.81080    0.54500    1.000
    N30      N        0.30840    0.67670    0.93930    1.000
    N31      N        0.78400    0.31080    0.04500    1.000
    N32      N        0.82720    0.85140    0.43430    1.000
    O1       O        0.62220    0.10200    0.29310    1.000
    O2       O        0.39750    0.90650    0.27320    1.000
    O3       O        0.89750    0.90650    0.22680    1.000
    O4       O        0.87780    0.60200    0.79310    1.000
    O5       O        0.60250    0.40650    0.72680    1.000
    O6       O        0.10250    0.40650    0.77320    1.000
    O7       O        0.37780    0.60200    0.70690    1.000
    O8       O        0.12220    0.10200    0.20690    1.000
