data_functionalizedCrystal
_audit_creation_method	'EQeq! by Chris Wilmer'
_symmetry_space_group_name_H-M	'P1'
_symmetry_Int_Tables_number	1
_symmetry_cell_setting	triclinic
loop_
_symmetry_equiv_pos_as_xyz
  x,y,z
_cell_length_a	18.504
_cell_length_b	19.802
_cell_length_c	8.657
_cell_angle_alpha	90
_cell_angle_beta	99.74
_cell_angle_gamma	90
loop_
_atom_site_label
_atom_site_type_symbol
_atom_site_fract_x
_atom_site_fract_y
_atom_site_fract_z
_atom_site_charge
Mof_C 	C 	0.2453	0.4509	0.6679	-0.132
Mof_H 	H 	0.1986	0.4724	0.6296	0.054
Mof_H 	H 	0.2546	0.4186	0.5894	0.061
Mof_N 	N 	0.07885	0.2562	0.7758	-0.265
Mof_C 	C 	0.3056	0.5047	0.6866	0.129
Mof_N 	N 	0.4144	0.6038	0.716	-0.246
Mof_C 	C 	0.1827	0.3598	0.7945	0.163
Mof_C 	C 	0.1296	0.2651	0.903	0.121
Mof_H 	H 	0.13	0.236	0.9874	-0.035
Mof_C 	C 	0.2399	0.4161	0.8061	-0.193
Mof_H 	H 	0.2293	0.4486	0.8829	0.08
Mof_H 	H 	0.2875	0.3966	0.8461	0.086
Mof_C 	C 	0.1285	0.3522	0.6641	-0.218
Mof_H 	H 	0.1259	0.3819	0.5802	0.094
Mof_C 	C 	0.3526	0.6137	0.7722	0.096
Mof_H 	H 	0.3466	0.654	0.824	-0.021
Mof_C 	C 	0.3698	0.4954	0.6298	-0.196
Mof_H 	H 	0.3782	0.4549	0.5814	0.101
Mof_C 	C 	0.0786	0.3001	0.6593	0.114
Mof_H 	H 	0.043	0.2954	0.5702	-0.04
Mof_C 	C 	0.4218	0.5454	0.6439	0.112
Mof_H 	H 	0.464	0.5382	0.6013	-0.019
Mof_C 	C 	0.182	0.3159	0.9151	-0.237
Mof_H 	H 	0.2167	0.32	0.0058	0.11
Mof_N 	N 	0.00017	0.1722	0.5104	-0.341
Mof_C 	C 	0.9998	0.1573	0.383	0.298
Mof_N 	N 	0.0211	0.133	0.2623	-0.198
Mof_C 	C 	0.2962	0.5658	0.7561	-0.192
Mof_H 	H 	0.2528	0.5752	0.7923	0.085
Mof_C 	C 	0.7453	0.9509	0.6679	-0.136
Mof_H 	H 	0.6986	0.9724	0.6296	0.06
Mof_H 	H 	0.7546	0.9186	0.5894	0.064
Mof_N 	N 	0.57885	0.7562	0.7758	-0.258
Mof_C 	C 	0.8056	0.0047	0.6866	0.132
Mof_N 	N 	0.9144	0.1038	0.716	-0.234
Mof_C 	C 	0.6827	0.8598	0.7945	0.163
Mof_C 	C 	0.6296	0.7651	0.903	0.125
Mof_H 	H 	0.63	0.736	0.9874	-0.031
Mof_C 	C 	0.7399	0.9161	0.8061	-0.189
Mof_H 	H 	0.7293	0.9486	0.8829	0.081
Mof_H 	H 	0.7875	0.8966	0.8461	0.086
Mof_C 	C 	0.6285	0.8522	0.6641	-0.213
Mof_H 	H 	0.6259	0.8819	0.5802	0.098
Mof_C 	C 	0.8526	0.1137	0.7722	0.098
Mof_H 	H 	0.8466	0.154	0.824	-0.019
Mof_C 	C 	0.8698	0.9954	0.6298	-0.195
Mof_H 	H 	0.8782	0.9549	0.5814	0.106
Mof_C 	C 	0.5786	0.8001	0.6593	0.117
Mof_H 	H 	0.543	0.7954	0.5702	-0.027
Mof_C 	C 	0.9218	0.0454	0.6439	0.115
Mof_H 	H 	0.964	0.0382	0.6013	-0.002
Mof_C 	C 	0.682	0.8159	0.9151	-0.233
Mof_H 	H 	0.7167	0.82	0.0058	0.11
Mof_N 	N 	0.50017	0.6722	0.5104	-0.283
Mof_C 	C 	0.4998	0.6573	0.383	0.201
Mof_N 	N 	0.5211	0.633	0.2623	-0.123
Mof_C 	C 	0.7962	0.0658	0.7561	-0.193
Mof_H 	H 	0.7528	0.0752	0.7923	0.087
Mof_C 	C 	0.7547	0.4509	0.8321	-0.145
Mof_H 	H 	0.8014	0.4724	0.8704	0.065
Mof_H 	H 	0.7454	0.4186	0.9106	0.065
Mof_N 	N 	0.92115	0.2562	0.7242	-0.244
Mof_C 	C 	0.6944	0.5047	0.8134	0.137
Mof_N 	N 	0.5856	0.6038	0.784	-0.247
Mof_C 	C 	0.8173	0.3598	0.7055	0.156
Mof_C 	C 	0.8704	0.2651	0.597	0.121
Mof_H 	H 	0.87	0.236	0.5126	-0.021
Mof_C 	C 	0.7601	0.4161	0.6939	-0.18
Mof_H 	H 	0.7707	0.4486	0.6171	0.081
Mof_H 	H 	0.7125	0.3966	0.6539	0.083
Mof_C 	C 	0.8715	0.3522	0.8359	-0.203
Mof_H 	H 	0.8741	0.3819	0.9198	0.099
Mof_C 	C 	0.6474	0.6137	0.7278	0.099
Mof_H 	H 	0.6534	0.654	0.676	-0.021
Mof_C 	C 	0.6302	0.4954	0.8702	-0.202
Mof_H 	H 	0.6218	0.4549	0.9186	0.102
Mof_C 	C 	0.9214	0.3001	0.8407	0.116
Mof_H 	H 	0.957	0.2954	0.9298	-0.014
Mof_C 	C 	0.5782	0.5454	0.8561	0.115
Mof_H 	H 	0.536	0.5382	0.8987	-0.021
Mof_C 	C 	0.818	0.3159	0.5849	-0.215
Mof_H 	H 	0.7833	0.32	0.4942	0.102
Mof_N 	N 	0.99983	0.1722	0.9896	-0.224
Mof_C 	C 	0.0002	0.1573	0.117	0.111
Mof_N 	N 	0.9789	0.133	0.2377	-0.049
Mof_C 	C 	0.7038	0.5658	0.7439	-0.198
Mof_H 	H 	0.7472	0.5752	0.7077	0.091
Mof_C 	C 	0.2547	0.9509	0.8321	-0.138
Mof_H 	H 	0.3014	0.9724	0.8704	0.059
Mof_H 	H 	0.2454	0.9186	0.9106	0.062
Mof_N 	N 	0.42115	0.7562	0.7242	-0.256
Mof_C 	C 	0.1944	0.0047	0.8134	0.132
Mof_N 	N 	0.0856	0.1038	0.784	-0.253
Mof_C 	C 	0.3173	0.8598	0.7055	0.156
Mof_C 	C 	0.3704	0.7651	0.597	0.118
Mof_H 	H 	0.37	0.736	0.5126	-0.026
Mof_C 	C 	0.2601	0.9161	0.6939	-0.185
Mof_H 	H 	0.2707	0.9486	0.6171	0.081
Mof_H 	H 	0.2125	0.8966	0.6539	0.084
Mof_C 	C 	0.3715	0.8522	0.8359	-0.209
Mof_H 	H 	0.3741	0.8819	0.9198	0.095
Mof_C 	C 	0.1474	0.1137	0.7278	0.096
Mof_H 	H 	0.1534	0.154	0.676	-0.022
Mof_C 	C 	0.1302	0.9954	0.8702	-0.201
Mof_H 	H 	0.1218	0.9549	0.9186	0.097
Mof_C 	C 	0.4214	0.8001	0.8407	0.114
Mof_H 	H 	0.457	0.7954	0.9298	-0.027
Mof_C 	C 	0.0782	0.0454	0.8561	0.11
Mof_H 	H 	0.036	0.0382	0.8987	-0.036
Mof_C 	C 	0.318	0.8159	0.5849	-0.218
Mof_H 	H 	0.2833	0.82	0.4942	0.102
Mof_N 	N 	0.49983	0.6722	0.9896	-0.287
Mof_C 	C 	0.5002	0.6573	0.117	0.207
Mof_N 	N 	0.4789	0.633	0.2377	-0.124
Mof_C 	C 	0.2038	0.0658	0.7439	-0.196
Mof_H 	H 	0.2472	0.0752	0.7077	0.088
Mof_Ni	Ni	1.53817e-33	0.17885	0.75	1.043
Mof_Ni	Ni	0.5	0.67885	0.75	1.064
Mof_C 	C 	0.7547	0.5491	0.3321	-0.152
Mof_H 	H 	0.8014	0.5276	0.3704	0.068
Mof_H 	H 	0.7454	0.5814	0.4106	0.069
Mof_N 	N 	0.92115	0.7438	0.2242	-0.242
Mof_C 	C 	0.6944	0.4953	0.3134	0.142
Mof_N 	N 	0.5856	0.3962	0.284	-0.247
Mof_C 	C 	0.8173	0.6402	0.2055	0.148
Mof_C 	C 	0.8704	0.7349	0.097	0.114
Mof_H 	H 	0.87	0.764	0.0126	-0.017
Mof_C 	C 	0.7601	0.5839	0.1939	-0.172
Mof_H 	H 	0.7707	0.5514	0.1171	0.081
Mof_H 	H 	0.7125	0.6034	0.1539	0.082
Mof_C 	C 	0.8715	0.6478	0.3359	-0.197
Mof_H 	H 	0.8741	0.6181	0.4198	0.098
Mof_C 	C 	0.6474	0.3863	0.2278	0.102
Mof_H 	H 	0.6534	0.346	0.176	-0.021
Mof_C 	C 	0.6302	0.5046	0.3702	-0.204
Mof_H 	H 	0.6218	0.5451	0.4186	0.104
Mof_C 	C 	0.9214	0.6999	0.3407	0.114
Mof_H 	H 	0.957	0.7046	0.4298	-0.012
Mof_C 	C 	0.5782	0.4546	0.3561	0.117
Mof_H 	H 	0.536	0.4618	0.3987	-0.021
Mof_C 	C 	0.818	0.6841	0.0849	-0.199
Mof_H 	H 	0.7833	0.68	0.9942	0.093
Mof_N 	N 	0.99983	0.8278	0.4896	-0.218
Mof_C 	C 	0.0002	0.8427	0.617	0.102
Mof_N 	N 	0.9789	0.867	0.7377	-0.047
Mof_C 	C 	0.7038	0.4342	0.2439	-0.2
Mof_H 	H 	0.7472	0.4248	0.2077	0.094
Mof_C 	C 	0.2547	0.0491	0.3321	-0.145
Mof_H 	H 	0.3014	0.0276	0.3704	0.063
Mof_H 	H 	0.2454	0.0814	0.4106	0.066
Mof_N 	N 	0.42115	0.2438	0.2242	-0.254
Mof_C 	C 	0.1944	0.9953	0.3134	0.136
Mof_N 	N 	0.0856	0.8962	0.284	-0.253
Mof_C 	C 	0.3173	0.1402	0.2055	0.148
Mof_C 	C 	0.3704	0.2349	0.097	0.109
Mof_H 	H 	0.37	0.264	0.0126	-0.022
Mof_C 	C 	0.2601	0.0839	0.1939	-0.178
Mof_H 	H 	0.2707	0.0514	0.1171	0.08
Mof_H 	H 	0.2125	0.1034	0.1539	0.084
Mof_C 	C 	0.3715	0.1478	0.3359	-0.203
Mof_H 	H 	0.3741	0.1181	0.4198	0.094
Mof_C 	C 	0.1474	0.8863	0.2278	0.099
Mof_H 	H 	0.1534	0.846	0.176	-0.022
Mof_C 	C 	0.1302	0.0046	0.3702	-0.202
Mof_H 	H 	0.1218	0.0451	0.4186	0.099
Mof_C 	C 	0.4214	0.1999	0.3407	0.111
Mof_H 	H 	0.457	0.2046	0.4298	-0.026
Mof_C 	C 	0.0782	0.9546	0.3561	0.112
Mof_H 	H 	0.036	0.9618	0.3987	-0.036
Mof_C 	C 	0.318	0.1841	0.0849	-0.2
Mof_H 	H 	0.2833	0.18	0.9942	0.092
Mof_N 	N 	0.49983	0.3278	0.4896	-0.282
Mof_C 	C 	0.5002	0.3427	0.617	0.199
Mof_N 	N 	0.4789	0.367	0.7377	-0.122
Mof_C 	C 	0.2038	0.9342	0.2439	-0.197
Mof_H 	H 	0.2472	0.9248	0.2077	0.09
Mof_C 	C 	0.2453	0.5491	0.1679	-0.139
Mof_H 	H 	0.1986	0.5276	0.1296	0.058
Mof_H 	H 	0.2546	0.5814	0.0894	0.065
Mof_N 	N 	0.07885	0.7438	0.2758	-0.263
Mof_C 	C 	0.3056	0.4953	0.1866	0.134
Mof_N 	N 	0.4144	0.3962	0.216	-0.246
Mof_C 	C 	0.1827	0.6402	0.2945	0.155
Mof_C 	C 	0.1296	0.7349	0.403	0.113
Mof_H 	H 	0.13	0.764	0.4874	-0.031
Mof_C 	C 	0.2399	0.5839	0.3061	-0.185
Mof_H 	H 	0.2293	0.5514	0.3829	0.079
Mof_H 	H 	0.2875	0.6034	0.3461	0.085
Mof_C 	C 	0.1285	0.6478	0.1641	-0.212
Mof_H 	H 	0.1259	0.6181	0.0802	0.093
Mof_C 	C 	0.3526	0.3863	0.2722	0.098
Mof_H 	H 	0.3466	0.346	0.324	-0.021
Mof_C 	C 	0.3698	0.5046	0.1298	-0.198
Mof_H 	H 	0.3782	0.5451	0.0814	0.104
Mof_C 	C 	0.0786	0.6999	0.1593	0.111
Mof_H 	H 	0.043	0.7046	0.0702	-0.037
Mof_C 	C 	0.4218	0.4546	0.1439	0.114
Mof_H 	H 	0.464	0.4618	0.1013	-0.018
Mof_C 	C 	0.182	0.6841	0.4151	-0.219
Mof_H 	H 	0.2167	0.68	0.5058	0.1
Mof_N 	N 	0.00017	0.8278	0.0104	-0.336
Mof_C 	C 	0.9998	0.8427	0.883	0.289
Mof_N 	N 	0.0211	0.867	0.7623	-0.196
Mof_C 	C 	0.2962	0.4342	0.2561	-0.195
Mof_H 	H 	0.2528	0.4248	0.2923	0.087
Mof_C 	C 	0.7453	0.0491	0.1679	-0.14
Mof_H 	H 	0.6986	0.0276	0.1296	0.062
Mof_H 	H 	0.7546	0.0814	0.0894	0.066
Mof_N 	N 	0.57885	0.2438	0.2758	-0.256
Mof_C 	C 	0.8056	0.9953	0.1866	0.133
Mof_N 	N 	0.9144	0.8962	0.216	-0.234
Mof_C 	C 	0.6827	0.1402	0.2945	0.157
Mof_C 	C 	0.6296	0.2349	0.403	0.118
Mof_H 	H 	0.63	0.264	0.4874	-0.027
Mof_C 	C 	0.7399	0.0839	0.3061	-0.185
Mof_H 	H 	0.7293	0.0514	0.3829	0.081
Mof_H 	H 	0.7875	0.1034	0.3461	0.086
Mof_C 	C 	0.6285	0.1478	0.1641	-0.208
Mof_H 	H 	0.6259	0.1181	0.0802	0.097
Mof_C 	C 	0.8526	0.8863	0.2722	0.099
Mof_H 	H 	0.8466	0.846	0.324	-0.018
Mof_C 	C 	0.8698	0.0046	0.1298	-0.194
Mof_H 	H 	0.8782	0.0451	0.0814	0.107
Mof_C 	C 	0.5786	0.1999	0.1593	0.115
Mof_H 	H 	0.543	0.2046	0.0702	-0.026
Mof_C 	C 	0.9218	0.9546	0.1439	0.115
Mof_H 	H 	0.964	0.9618	0.1013	-0.001
Mof_C 	C 	0.682	0.1841	0.4151	-0.218
Mof_H 	H 	0.7167	0.18	0.5058	0.101
Mof_N 	N 	0.50017	0.3278	0.0104	-0.278
Mof_C 	C 	0.4998	0.3427	0.883	0.193
Mof_N 	N 	0.5211	0.367	0.7623	-0.122
Mof_C 	C 	0.7962	0.9342	0.2561	-0.193
Mof_H 	H 	0.7528	0.9248	0.2923	0.088
Mof_Ni	Ni	5.12724e-34	0.82115	0.25	1.043
Mof_Ni	Ni	0.5	0.32115	0.25	1.064
_end
