# CIF file generated by openbabel 3.1.0, see https://openbabel.org
data_I
_chemical_name_common 'image0'
_cell_length_a 14.226
_cell_length_b 15.117
_cell_length_c 17.557
_cell_angle_alpha 90
_cell_angle_beta 90
_cell_angle_gamma 90
_space_group_name_H-M_alt 'P 1'
_space_group_name_Hall 'P 1'
loop_
    _symmetry_equiv_pos_as_xyz
    x,y,z
loop_
    _atom_site_label
    _atom_site_type_symbol
    _atom_site_fract_x
    _atom_site_fract_y
    _atom_site_fract_z
    _atom_site_occupancy
    Zn1      Zn       0.05320    0.72420    0.34100    1.000
    Al1      Al       0.94470    0.40220    0.43770    1.000
    Al2      Al       0.07660    0.10450    0.43060    1.000
    Al3      Al       0.71110    0.65970    0.46220    1.000
    P1       P        0.05010    0.90480    0.42620    1.000
    P2       P        0.91500    0.60020    0.42500    1.000
    P3       P        0.06080    0.72930    0.15880    1.000
    P4       P        0.21480    0.66080    0.45060    1.000
    O1       O        0.04320    0.00010    0.39750    1.000
    O2       O        0.94470    0.50840    0.39940    1.000
    O3       O        0.05230    0.83940    0.35700    1.000
    O4       O        0.05580    0.82850    0.13710    1.000
    O5       O        0.95060    0.67030    0.37030    1.000
    O6       O        0.97210    0.68310    0.12910    1.000
    O7       O        0.30300    0.60630    0.42700    1.000
    O8       O        0.80630    0.60530    0.43510    1.000
    O9       O        0.95730    0.61680    0.50490    1.000
    O10      O        0.96410    0.88260    0.47530    1.000
    O11      O        0.16170    0.60580    0.51020    1.000
    O12      O        0.07220    0.71580    0.24260    1.000
    O13      O        0.15140    0.67150    0.38170    1.000
    O14      O        0.24730    0.74630    0.48640    1.000
    O15      O        0.13970    0.89980    0.47700    1.000
    O16      O        0.14960    0.69360    0.11810    1.000
    Zn2      Zn       0.44680    0.27580    0.84100    1.000
    Al4      Al       0.55530    0.59780    0.93770    1.000
    Al5      Al       0.42340    0.89550    0.93060    1.000
    Al6      Al       0.78890    0.34030    0.96220    1.000
    P5       P        0.44990    0.09520    0.92620    1.000
    P6       P        0.58500    0.39980    0.92500    1.000
    P7       P        0.43920    0.27070    0.65880    1.000
    P8       P        0.28520    0.33920    0.95060    1.000
    O17      O        0.45680    0.99990    0.89750    1.000
    O18      O        0.55530    0.49160    0.89940    1.000
    O19      O        0.44770    0.16060    0.85700    1.000
    O20      O        0.44420    0.17150    0.63710    1.000
    O21      O        0.54940    0.32970    0.87030    1.000
    O22      O        0.52790    0.31690    0.62910    1.000
    O23      O        0.19700    0.39370    0.92700    1.000
    O24      O        0.69370    0.39470    0.93510    1.000
    O25      O        0.54270    0.38320    0.00490    1.000
    O26      O        0.53590    0.11740    0.97530    1.000
    O27      O        0.33830    0.39420    0.01020    1.000
    O28      O        0.42780    0.28420    0.74260    1.000
    O29      O        0.34860    0.32850    0.88170    1.000
    O30      O        0.25270    0.25370    0.98640    1.000
    O31      O        0.36030    0.10020    0.97700    1.000
    O32      O        0.35040    0.30640    0.61810    1.000
    Zn3      Zn       0.94680    0.22420    0.15900    1.000
    Al7      Al       0.05530    0.90220    0.06230    1.000
    Al8      Al       0.92340    0.60450    0.06940    1.000
    Al9      Al       0.28890    0.15970    0.03780    1.000
    P9       P        0.94990    0.40480    0.07380    1.000
    P10      P        0.08500    0.10020    0.07500    1.000
    P11      P        0.93920    0.22930    0.34120    1.000
    P12      P        0.78520    0.16080    0.04940    1.000
    O33      O        0.95680    0.50010    0.10250    1.000
    O34      O        0.05530    0.00840    0.10060    1.000
    O35      O        0.94770    0.33940    0.14300    1.000
    O36      O        0.94420    0.32850    0.36290    1.000
    O37      O        0.04940    0.17030    0.12970    1.000
    O38      O        0.02790    0.18310    0.37090    1.000
    O39      O        0.69700    0.10630    0.07300    1.000
    O40      O        0.19370    0.10530    0.06490    1.000
    O41      O        0.04270    0.11680    0.99510    1.000
    O42      O        0.03590    0.38260    0.02470    1.000
    O43      O        0.83830    0.10580    0.98980    1.000
    O44      O        0.92780    0.21580    0.25740    1.000
    O45      O        0.84860    0.17150    0.11830    1.000
    O46      O        0.75270    0.24630    0.01360    1.000
    O47      O        0.86030    0.39980    0.02300    1.000
    O48      O        0.85040    0.19360    0.38190    1.000
    Zn4      Zn       0.55320    0.77580    0.65900    1.000
    Al10     Al       0.44470    0.09780    0.56230    1.000
    Al11     Al       0.57660    0.39550    0.56940    1.000
    Al12     Al       0.21110    0.84030    0.53780    1.000
    P13      P        0.55010    0.59520    0.57380    1.000
    P14      P        0.41500    0.89980    0.57500    1.000
    P15      P        0.56080    0.77070    0.84120    1.000
    P16      P        0.71480    0.83920    0.54940    1.000
    O49      O        0.54320    0.49990    0.60250    1.000
    O50      O        0.44470    0.99160    0.60060    1.000
    O51      O        0.55230    0.66060    0.64300    1.000
    O52      O        0.55580    0.67150    0.86290    1.000
    O53      O        0.45060    0.82970    0.62970    1.000
    O54      O        0.47210    0.81690    0.87090    1.000
    O55      O        0.80300    0.89370    0.57300    1.000
    O56      O        0.30630    0.89470    0.56490    1.000
    O57      O        0.45730    0.88320    0.49510    1.000
    O58      O        0.46410    0.61740    0.52470    1.000
    O59      O        0.66170    0.89420    0.48980    1.000
    O60      O        0.57220    0.78420    0.75740    1.000
    O61      O        0.65140    0.82850    0.61830    1.000
    O62      O        0.74730    0.75370    0.51360    1.000
    O63      O        0.63970    0.60020    0.52300    1.000
    O64      O        0.64960    0.80640    0.88190    1.000
    Zn5      Zn       0.94680    0.27580    0.65900    1.000
    Al13     Al       0.05530    0.59780    0.56230    1.000
    Al14     Al       0.92340    0.89550    0.56940    1.000
    Al15     Al       0.28890    0.34030    0.53780    1.000
    P17      P        0.94990    0.09520    0.57380    1.000
    P18      P        0.08500    0.39980    0.57500    1.000
    P19      P        0.93920    0.27070    0.84120    1.000
    P20      P        0.78520    0.33920    0.54940    1.000
    O65      O        0.95680    0.99990    0.60250    1.000
    O66      O        0.05530    0.49160    0.60060    1.000
    O67      O        0.94770    0.16060    0.64300    1.000
    O68      O        0.94420    0.17150    0.86290    1.000
    O69      O        0.04940    0.32970    0.62970    1.000
    O70      O        0.02790    0.31690    0.87090    1.000
    O71      O        0.69700    0.39370    0.57300    1.000
    O72      O        0.19370    0.39470    0.56490    1.000
    O73      O        0.04270    0.38320    0.49510    1.000
    O74      O        0.03590    0.11740    0.52470    1.000
    O75      O        0.83830    0.39420    0.48980    1.000
    O76      O        0.92780    0.28420    0.75740    1.000
    O77      O        0.84860    0.32850    0.61830    1.000
    O78      O        0.75270    0.25370    0.51360    1.000
    O79      O        0.86030    0.10020    0.52300    1.000
    O80      O        0.85040    0.30640    0.88190    1.000
    Zn6      Zn       0.55320    0.72420    0.15900    1.000
    Al16     Al       0.44470    0.40220    0.06230    1.000
    Al17     Al       0.57660    0.10450    0.06940    1.000
    Al18     Al       0.21110    0.65970    0.03780    1.000
    P21      P        0.55010    0.90480    0.07380    1.000
    P22      P        0.41500    0.60020    0.07500    1.000
    P23      P        0.56080    0.72930    0.34120    1.000
    P24      P        0.71480    0.66080    0.04940    1.000
    O81      O        0.54320    0.00010    0.10250    1.000
    O82      O        0.44470    0.50840    0.10060    1.000
    O83      O        0.55230    0.83940    0.14300    1.000
    O84      O        0.55580    0.82850    0.36290    1.000
    O85      O        0.45060    0.67030    0.12970    1.000
    O86      O        0.47210    0.68310    0.37090    1.000
    O87      O        0.80300    0.60630    0.07300    1.000
    O88      O        0.30630    0.60530    0.06490    1.000
    O89      O        0.45730    0.61680    0.99510    1.000
    O90      O        0.46410    0.88260    0.02470    1.000
    O91      O        0.66170    0.60580    0.98980    1.000
    O92      O        0.57220    0.71580    0.25740    1.000
    O93      O        0.65140    0.67150    0.11830    1.000
    O94      O        0.74730    0.74630    0.01360    1.000
    O95      O        0.63970    0.89980    0.02300    1.000
    O96      O        0.64960    0.69360    0.38190    1.000
    Zn7      Zn       0.05320    0.77580    0.84100    1.000
    Al19     Al       0.94470    0.09780    0.93770    1.000
    Al20     Al       0.07660    0.39550    0.93060    1.000
    Al21     Al       0.71110    0.84030    0.96220    1.000
    P25      P        0.05010    0.59520    0.92620    1.000
    P26      P        0.91500    0.89980    0.92500    1.000
    P27      P        0.06080    0.77070    0.65880    1.000
    P28      P        0.21480    0.83920    0.95060    1.000
    O97      O        0.04320    0.49990    0.89750    1.000
    O98      O        0.94470    0.99160    0.89940    1.000
    O99      O        0.05230    0.66060    0.85700    1.000
    O100     O        0.05580    0.67150    0.63710    1.000
    O101     O        0.95060    0.82970    0.87030    1.000
    O102     O        0.97210    0.81690    0.62910    1.000
    O103     O        0.30300    0.89370    0.92700    1.000
    O104     O        0.80630    0.89470    0.93510    1.000
    O105     O        0.95730    0.88320    0.00490    1.000
    O106     O        0.96410    0.61740    0.97530    1.000
    O107     O        0.16170    0.89420    0.01020    1.000
    O108     O        0.07220    0.78420    0.74260    1.000
    O109     O        0.15140    0.82850    0.88170    1.000
    O110     O        0.24730    0.75370    0.98640    1.000
    O111     O        0.13970    0.60020    0.97700    1.000
    O112     O        0.14960    0.80640    0.61810    1.000
    Zn8      Zn       0.44680    0.22420    0.34100    1.000
    Al22     Al       0.55530    0.90220    0.43770    1.000
    Al23     Al       0.42340    0.60450    0.43060    1.000
    Al24     Al       0.78890    0.15970    0.46220    1.000
    P29      P        0.44990    0.40480    0.42620    1.000
    P30      P        0.58500    0.10020    0.42500    1.000
    P31      P        0.43920    0.22930    0.15880    1.000
    P32      P        0.28520    0.16080    0.45060    1.000
    O113     O        0.45680    0.50010    0.39750    1.000
    O114     O        0.55530    0.00840    0.39940    1.000
    O115     O        0.44770    0.33940    0.35700    1.000
    O116     O        0.44420    0.32850    0.13710    1.000
    O117     O        0.54940    0.17030    0.37030    1.000
    O118     O        0.52790    0.18310    0.12910    1.000
    O119     O        0.19700    0.10630    0.42700    1.000
    O120     O        0.69370    0.10530    0.43510    1.000
    O121     O        0.54270    0.11680    0.50490    1.000
    O122     O        0.53590    0.38260    0.47530    1.000
    O123     O        0.33830    0.10580    0.51020    1.000
    O124     O        0.42780    0.21580    0.24260    1.000
    O125     O        0.34860    0.17150    0.38170    1.000
    O126     O        0.25270    0.24630    0.48640    1.000
    O127     O        0.36030    0.39980    0.47700    1.000
    O128     O        0.35040    0.19360    0.11810    1.000
