# CIF file generated by openbabel 3.1.0, see https://openbabel.org
data_I
_chemical_name_common 'OPAPUR_clean'
_cell_length_a 9.4504
_cell_length_b 11.458
_cell_length_c 14.579
_cell_angle_alpha 69.86
_cell_angle_beta 85.46
_cell_angle_gamma 86.3
_space_group_name_H-M_alt 'P 1'
_space_group_name_Hall 'P 1'
loop_
    _symmetry_equiv_pos_as_xyz
    x,y,z
loop_
    _atom_site_label
    _atom_site_type_symbol
    _atom_site_fract_x
    _atom_site_fract_y
    _atom_site_fract_z
    _atom_site_occupancy
    Dy1      Dy       0.79722    0.95468    0.00260    1.000
    Dy2      Dy       0.20278    0.04532    0.99740    1.000
    H1       H        0.86460    0.36890    0.84110    1.000
    H2       H        0.97060    0.37150    0.75230    1.000
    H3       H        0.33400    0.38400    0.88900    1.000
    H4       H        0.27400    0.47200    0.80600    1.000
    H5       H        0.87750    0.94330    0.55630    1.000
    H6       H        0.87170    0.06540    0.46440    1.000
    H7       H        0.27590    0.34540    0.39410    1.000
    H8       H        0.26100    0.28270    0.32140    1.000
    H9       H        0.85370    0.09940    0.28090    1.000
    H10      H        0.81480    0.22480    0.19730    1.000
    H11      H        0.12050    0.53300    0.43430    1.000
    H12      H        0.11230    0.40970    0.52500    1.000
    H13      H        0.66850    0.04480    0.60770    1.000
    H14      H        0.62500    0.11900    0.67220    1.000
    H15      H        0.48280    0.83770    0.80860    1.000
    H16      H        0.63360    0.83310    0.75750    1.000
    H17      H        0.02930    0.48150    0.90880    1.000
    H18      H        0.07940    0.38750    0.00860    1.000
    H19      H        0.13540    0.63110    0.15890    1.000
    H20      H        0.02940    0.62850    0.24770    1.000
    H21      H        0.66600    0.61600    0.11100    1.000
    H22      H        0.72600    0.52800    0.19400    1.000
    H23      H        0.12250    0.05670    0.44370    1.000
    H24      H        0.12830    0.93460    0.53560    1.000
    H25      H        0.72410    0.65460    0.60590    1.000
    H26      H        0.73900    0.71730    0.67860    1.000
    H27      H        0.14630    0.90060    0.71910    1.000
    H28      H        0.18520    0.77520    0.80270    1.000
    H29      H        0.87950    0.46700    0.56570    1.000
    H30      H        0.88770    0.59030    0.47500    1.000
    H31      H        0.33150    0.95520    0.39230    1.000
    H32      H        0.37500    0.88100    0.32780    1.000
    H33      H        0.51720    0.16230    0.19140    1.000
    H34      H        0.36640    0.16690    0.24250    1.000
    H35      H        0.97070    0.51850    0.09120    1.000
    H36      H        0.92060    0.61250    0.99140    1.000
    C1       C        0.92520    0.09780    0.14320    1.000
    C2       C        0.88560    0.19720    0.68060    1.000
    C3       C        0.00140    0.21730    0.87240    1.000
    C4       C        0.90980    0.31830    0.80480    1.000
    C5       C        0.92750    0.01800    0.51920    1.000
    C6       C        0.98370    0.30360    0.31520    1.000
    C7       C        0.88810    0.16000    0.21970    1.000
    C8       C        0.94220    0.09370    0.58280    1.000
    C9       C        0.99540    0.40660    0.41450    1.000
    C10      C        0.05700    0.47000    0.47550    1.000
    C11      C        0.57830    0.80140    0.81930    1.000
    C12      C        0.64110    0.84820    0.89220    1.000
    C13      C        0.40210    0.61480    0.91180    1.000
    C14      C        0.19030    0.54550    0.96040    1.000
    C15      C        0.05940    0.47470    0.97260    1.000
    C16      C        0.07480    0.90220    0.85680    1.000
    C17      C        0.11440    0.80280    0.31940    1.000
    C18      C        0.99860    0.78270    0.12760    1.000
    C19      C        0.09020    0.68170    0.19520    1.000
    C20      C        0.07250    0.98200    0.48080    1.000
    C21      C        0.01630    0.69640    0.68480    1.000
    C22      C        0.11190    0.84000    0.78030    1.000
    C23      C        0.05780    0.90630    0.41720    1.000
    C24      C        0.00460    0.59340    0.58550    1.000
    C25      C        0.94300    0.53000    0.52450    1.000
    C26      C        0.42170    0.19860    0.18070    1.000
    C27      C        0.35890    0.15180    0.10780    1.000
    C28      C        0.59790    0.38520    0.08820    1.000
    C29      C        0.80970    0.45450    0.03960    1.000
    C30      C        0.94060    0.52530    0.02740    1.000
    S1       S        0.04883    0.22563    0.23646    1.000
    S2       S        0.56874    0.63521    0.84993    1.000
    S3       S        0.77505    0.26350    0.75191    1.000
    S4       S        0.95117    0.77437    0.76354    1.000
    S5       S        0.43126    0.36479    0.15007    1.000
    S6       S        0.22495    0.73650    0.24809    1.000
    N1       N        0.30970    0.53240    0.90542    1.000
    N2       N        0.20740    0.63190    0.99770    1.000
    N3       N        0.07600    0.34720    0.36184    1.000
    N4       N        0.02200    0.20460    0.66160    1.000
    N5       N        0.34380    0.67480    0.96750    1.000
    N6       N        0.83010    0.12810    0.63317    1.000
    N7       N        0.33810    0.45260    0.85030    1.000
    N8       N        0.22330    0.32180    0.35870    1.000
    N9       N        0.05830    0.13720    0.59820    1.000
    N10      N        0.86280    0.39940    0.40270    1.000
    N11      N        0.85430    0.33340    0.33730    1.000
    N12      N        0.68980    0.09280    0.63840    1.000
    N13      N        0.69030    0.46760    0.09458    1.000
    N14      N        0.79260    0.36810    0.00230    1.000
    N15      N        0.92400    0.65280    0.63816    1.000
    N16      N        0.97800    0.79540    0.33840    1.000
    N17      N        0.65620    0.32520    0.03250    1.000
    N18      N        0.16990    0.87190    0.36683    1.000
    N19      N        0.66190    0.54740    0.14970    1.000
    N20      N        0.77670    0.67820    0.64130    1.000
    N21      N        0.94170    0.86280    0.40180    1.000
    N22      N        0.13720    0.60060    0.59730    1.000
    N23      N        0.14570    0.66660    0.66270    1.000
    N24      N        0.31020    0.90720    0.36160    1.000
    O1       O        0.82800    0.04240    0.12470    1.000
    O2       O        0.94890    0.11549    0.92467    1.000
    O3       O        0.12760    0.23856    0.87672    1.000
    O4       O        0.05060    0.10770    0.10690    1.000
    O5       O        0.68670    0.77790    0.97049    1.000
    O6       O        0.64730    0.96567    0.86653    1.000
    O7       O        0.17200    0.95760    0.87530    1.000
    O8       O        0.05110    0.88451    0.07533    1.000
    O9       O        0.87240    0.76144    0.12328    1.000
    O10      O        0.94940    0.89230    0.89310    1.000
    O11      O        0.31330    0.22210    0.02951    1.000
    O12      O        0.35270    0.03433    0.13347    1.000
