# CIF file generated by openbabel 3.1.0, see https://openbabel.org
data_I
_chemical_name_common 'image0'
_cell_length_a 6.5675
_cell_length_b 16.4026
_cell_length_c 13.1643
_cell_angle_alpha 90
_cell_angle_beta 90
_cell_angle_gamma 90
_space_group_name_H-M_alt 'P 1'
_space_group_name_Hall 'P 1'
loop_
    _symmetry_equiv_pos_as_xyz
    x,y,z
loop_
    _atom_site_label
    _atom_site_type_symbol
    _atom_site_fract_x
    _atom_site_fract_y
    _atom_site_fract_z
    _atom_site_occupancy
    O1       O        0.16720    0.16903    0.84036    1.000
    C1       C        0.80610    0.02640    0.95370    1.000
    O2       O        0.66720    0.66903    0.34036    1.000
    C2       C        0.30610    0.52640    0.45370    1.000
    O3       O        0.83280    0.33097    0.84036    1.000
    C3       C        0.19390    0.47360    0.95370    1.000
    O4       O        0.33280    0.83097    0.34036    1.000
    C4       C        0.69390    0.97360    0.45370    1.000
    O5       O        0.83280    0.66903    0.15964    1.000
    C5       C        0.19390    0.52640    0.04630    1.000
    O6       O        0.33280    0.16903    0.65964    1.000
    C6       C        0.69390    0.02640    0.54630    1.000
    O7       O        0.16720    0.83097    0.15964    1.000
    C7       C        0.80610    0.97360    0.04630    1.000
    O8       O        0.66720    0.33097    0.65964    1.000
    C8       C        0.30610    0.47360    0.54630    1.000
    O9       O        0.83280    0.83097    0.15964    1.000
    C9       C        0.19390    0.97360    0.04630    1.000
    O10      O        0.33280    0.33097    0.65964    1.000
    C10      C        0.69390    0.47360    0.54630    1.000
    O11      O        0.16720    0.66903    0.15964    1.000
    C11      C        0.80610    0.52640    0.04630    1.000
    O12      O        0.66720    0.16903    0.65964    1.000
    C12      C        0.30610    0.02640    0.54630    1.000
    O13      O        0.16720    0.33097    0.84036    1.000
    C13      C        0.80610    0.47360    0.95370    1.000
    O14      O        0.66720    0.83097    0.34036    1.000
    C14      C        0.30610    0.97360    0.45370    1.000
    O15      O        0.83280    0.16903    0.84036    1.000
    C15      C        0.19390    0.02640    0.95370    1.000
    O16      O        0.33280    0.66903    0.34036    1.000
    C16      C        0.69390    0.52640    0.45370    1.000
    Al1      Al       0.25000    0.25000    0.75000    1.000
    Al2      Al       0.75000    0.25000    0.75000    1.000
    Al3      Al       0.75000    0.75000    0.25000    1.000
    Al4      Al       0.25000    0.75000    0.25000    1.000
    F1       F        0.00000    0.25000    0.69310    1.000
    F2       F        0.50000    0.75000    0.19310    1.000
    F3       F        0.00000    0.75000    0.30690    1.000
    F4       F        0.50000    0.25000    0.80690    1.000
    C17      C        0.00000    0.06410    0.94900    1.000
    C18      C        0.00000    0.13630    0.86830    1.000
    C19      C        0.50000    0.56410    0.44900    1.000
    C20      C        0.50000    0.63630    0.36830    1.000
    C21      C        0.00000    0.43590    0.94900    1.000
    C22      C        0.00000    0.36370    0.86830    1.000
    C23      C        0.50000    0.93590    0.44900    1.000
    C24      C        0.50000    0.86370    0.36830    1.000
    C25      C        0.00000    0.56410    0.05100    1.000
    C26      C        0.00000    0.63630    0.13170    1.000
    C27      C        0.50000    0.06410    0.55100    1.000
    C28      C        0.50000    0.13630    0.63170    1.000
    C29      C        0.00000    0.93590    0.05100    1.000
    C30      C        0.00000    0.86370    0.13170    1.000
    C31      C        0.50000    0.43590    0.55100    1.000
    C32      C        0.50000    0.36370    0.63170    1.000
