# CIF file generated by openbabel 3.1.0, see https://openbabel.org
data_I
_chemical_name_common 'VAKRIK_ion_b'
_cell_length_a 17.3188
_cell_length_b 17.3188
_cell_length_c 18.311
_cell_angle_alpha 92.5031
_cell_angle_beta 92.5031
_cell_angle_gamma 32.7565
_space_group_name_H-M_alt 'P 1'
_space_group_name_Hall 'P 1'
loop_
    _symmetry_equiv_pos_as_xyz
    x,y,z
loop_
    _atom_site_label
    _atom_site_type_symbol
    _atom_site_fract_x
    _atom_site_fract_y
    _atom_site_fract_z
    _atom_site_occupancy
    Co1      Co       0.64911    0.04569    0.01300    1.000
    O2       O        0.53896    0.15356    0.92090    1.000
    O3       O        0.40425    0.16505    0.94209    1.000
    O4       O        0.15626    0.52506    0.59920    1.000
    O5       O        0.08822    0.45882    0.59962    1.000
    O6       O        0.83745    0.80625    0.09150    1.000
    O7       O        0.70573    0.88713    0.99360    1.000
    C8       C        0.36760    0.25840    0.83160    1.000
    C9       C        0.27642    0.27782    0.80460    1.000
    H10      H        0.26130    0.24670    0.83100    1.000
    C11      C        0.20725    0.34405    0.73760    1.000
    H12      H        0.14730    0.35530    0.71900    1.000
    C13      C        0.22679    0.39299    0.69870    1.000
    C14      C        0.31609    0.37469    0.72590    1.000
    H15      H        0.33030    0.40690    0.69970    1.000
    C16      C        0.38590    0.30810    0.79260    1.000
    H17      H        0.44580    0.29700    0.81090    1.000
    C18      C        0.44313    0.18693    0.90380    1.000
    C19      C        0.14993    0.46533    0.62660    1.000
    C20      C        0.01900    0.52520    0.06550    1.000
    H21      H        0.03170    0.54290    0.10950    1.000
    C22      C        0.90769    0.63749    0.01790    1.000
    C23      C        0.89000    0.61120    0.95250    1.000
    H24      H        0.81660    0.68560    0.92050    1.000
    C25      C        0.81201    0.78501    0.03760    1.000
    C26      C        0.04780    0.88780    0.97800    1.000
    H27      H        0.08210    0.81050    0.96290    1.000
    C28      C        0.91100    0.01120    0.00130    1.000
    C29      C        0.13580    0.87880    0.97710    1.000
    H30      H        0.22910    0.79450    0.96110    1.000
    C31      C        0.83470    0.99670    0.99220    1.000
    O32      O        0.74260    0.06540    0.03290    1.000
    O33      O        0.86590    0.91690    0.94470    1.000
    N46      N        0.53610    0.53410    0.75100    1.000
    H47      H        0.46450    0.55950    0.74760    1.000
    H48      H        0.50050    0.61030    0.73970    1.000
    C49      C        0.65200    0.41400    0.69800    1.000
    H50      H        0.61440    0.44400    0.64900    1.000
    H51      H        0.68660    0.33360    0.70880    1.000
    H52      H        0.72910    0.38470    0.70270    1.000
    Co69     Co       0.95431    0.35089    0.48700    1.000
    O70      O        0.84644    0.46104    0.57910    1.000
    O71      O        0.83495    0.59575    0.55791    1.000
    O72      O        0.47494    0.84374    0.90080    1.000
    O73      O        0.54118    0.91178    0.90038    1.000
    O74      O        0.19375    0.16255    0.40850    1.000
    O75      O        0.11287    0.29427    0.50640    1.000
    C76      C        0.74160    0.63240    0.66840    1.000
    C77      C        0.72218    0.72358    0.69540    1.000
    H78      H        0.75330    0.73870    0.66900    1.000
    C79      C        0.65595    0.79275    0.76240    1.000
    H80      H        0.64470    0.85270    0.78100    1.000
    C81      C        0.60701    0.77321    0.80130    1.000
    C82      C        0.62531    0.68391    0.77410    1.000
    H83      H        0.59310    0.66970    0.80030    1.000
    C84      C        0.69190    0.61410    0.70740    1.000
    H85      H        0.70300    0.55420    0.68910    1.000
    C86      C        0.81307    0.55687    0.59620    1.000
    C87      C        0.53467    0.85007    0.87340    1.000
    C88      C        0.47480    0.98100    0.43450    1.000
    H89      H        0.45710    0.96830    0.39050    1.000
    C90      C        0.36251    0.09231    0.48210    1.000
    C91      C        0.38880    0.11000    0.54750    1.000
    H92      H        0.31440    0.18340    0.57950    1.000
    C93      C        0.21499    0.18799    0.46240    1.000
    C94      C        0.11220    0.95220    0.52200    1.000
    H95      H        0.18950    0.91790    0.53710    1.000
    C96      C        0.98880    0.08900    0.49870    1.000
    C97      C        0.12120    0.86420    0.52290    1.000
    H98      H        0.20550    0.77090    0.53890    1.000
    C99      C        0.00330    0.16530    0.50780    1.000
    O100     O        0.93460    0.25740    0.46710    1.000
    O101     O        0.08310    0.13410    0.55530    1.000
    N114     N        0.46590    0.46390    0.74900    1.000
    H115     H        0.44050    0.53550    0.75240    1.000
    H116     H        0.38970    0.49950    0.76030    1.000
    C121     C        0.51200    0.40400    0.67100    1.000
    H122     H        0.43670    0.47930    0.63710    1.000
    H123     H        0.53220    0.33240    0.66620    1.000
    H124     H        0.59610    0.36170    0.65960    1.000
    Co137    Co       0.35089    0.95431    0.98700    1.000
    O138     O        0.46104    0.84644    0.07910    1.000
    O139     O        0.59575    0.83495    0.05791    1.000
    O140     O        0.84374    0.47494    0.40080    1.000
    O141     O        0.91178    0.54118    0.40038    1.000
    O142     O        0.16255    0.19375    0.90850    1.000
    O143     O        0.29427    0.11287    0.00640    1.000
    C144     C        0.63240    0.74160    0.16840    1.000
    C145     C        0.72358    0.72218    0.19540    1.000
    H146     H        0.73870    0.75330    0.16900    1.000
    C147     C        0.79275    0.65595    0.26240    1.000
    H148     H        0.85270    0.64470    0.28100    1.000
    C149     C        0.77321    0.60701    0.30130    1.000
    C150     C        0.68391    0.62531    0.27410    1.000
    H151     H        0.66970    0.59310    0.30030    1.000
    C152     C        0.61410    0.69190    0.20740    1.000
    H153     H        0.55420    0.70300    0.18910    1.000
    C154     C        0.55687    0.81307    0.09620    1.000
    C155     C        0.85007    0.53467    0.37340    1.000
    C156     C        0.98100    0.47480    0.93450    1.000
    H157     H        0.96830    0.45710    0.89050    1.000
    C158     C        0.09231    0.36251    0.98210    1.000
    C159     C        0.11000    0.38880    0.04750    1.000
    H160     H        0.18340    0.31440    0.07950    1.000
    C161     C        0.18799    0.21499    0.96240    1.000
    C162     C        0.95220    0.11220    0.02200    1.000
    H163     H        0.91790    0.18950    0.03710    1.000
    C164     C        0.08900    0.98880    0.99870    1.000
    C165     C        0.86420    0.12120    0.02290    1.000
    H166     H        0.77090    0.20550    0.03890    1.000
    C167     C        0.16530    0.00330    0.00780    1.000
    O168     O        0.25740    0.93460    0.96710    1.000
    O169     O        0.13410    0.08310    0.05530    1.000
    N182     N        0.46390    0.46590    0.24900    1.000
    H183     H        0.53550    0.44050    0.25240    1.000
    H184     H        0.49950    0.38970    0.26030    1.000
    C189     C        0.40400    0.51200    0.17100    1.000
    H190     H        0.47930    0.43670    0.13710    1.000
    H191     H        0.33240    0.53220    0.16620    1.000
    H192     H        0.36170    0.59610    0.15960    1.000
    Co205    Co       0.04569    0.64911    0.51300    1.000
    O206     O        0.15356    0.53896    0.42090    1.000
    O207     O        0.16505    0.40425    0.44209    1.000
    O208     O        0.52506    0.15626    0.09920    1.000
    O209     O        0.45882    0.08822    0.09962    1.000
    O210     O        0.80625    0.83745    0.59150    1.000
    O211     O        0.88713    0.70573    0.49360    1.000
    C212     C        0.25840    0.36760    0.33160    1.000
    C213     C        0.27782    0.27642    0.30460    1.000
    H214     H        0.24670    0.26130    0.33100    1.000
    C215     C        0.34405    0.20725    0.23760    1.000
    H216     H        0.35530    0.14730    0.21900    1.000
    C217     C        0.39299    0.22679    0.19870    1.000
    C218     C        0.37469    0.31609    0.22590    1.000
    H219     H        0.40690    0.33030    0.19970    1.000
    C220     C        0.30810    0.38590    0.29260    1.000
    H221     H        0.29700    0.44580    0.31090    1.000
    C222     C        0.18693    0.44313    0.40380    1.000
    C223     C        0.46533    0.14993    0.12660    1.000
    C224     C        0.52520    0.01900    0.56550    1.000
    H225     H        0.54290    0.03170    0.60950    1.000
    C226     C        0.63749    0.90769    0.51790    1.000
    C227     C        0.61120    0.89000    0.45250    1.000
    H228     H        0.68560    0.81660    0.42050    1.000
    C229     C        0.78501    0.81201    0.53760    1.000
    C230     C        0.88780    0.04780    0.47800    1.000
    H231     H        0.81050    0.08210    0.46290    1.000
    C232     C        0.01120    0.91100    0.50130    1.000
    C233     C        0.87880    0.13580    0.47710    1.000
    H234     H        0.79450    0.22910    0.46110    1.000
    C235     C        0.99670    0.83470    0.49220    1.000
    O236     O        0.06540    0.74260    0.53290    1.000
    O237     O        0.91690    0.86590    0.44470    1.000
    N250     N        0.53410    0.53610    0.25100    1.000
    H251     H        0.55950    0.46450    0.24760    1.000
    H252     H        0.61030    0.50050    0.23970    1.000
    C253     C        0.41400    0.65200    0.19800    1.000
    H254     H        0.44400    0.61440    0.14900    1.000
    H255     H        0.33360    0.68660    0.20880    1.000
    H256     H        0.38470    0.72910    0.20270    1.000
    Co273    Co       0.50000    0.00000    0.00000    1.000
    Co274    Co       0.00000    0.50000    0.50000    1.000
