data_functionalizedCrystal
_audit_creation_method	'EQeq! by Chris Wilmer'
_symmetry_space_group_name_H-M	'P1'
_symmetry_Int_Tables_number	1
_symmetry_cell_setting	triclinic
loop_
_symmetry_equiv_pos_as_xyz
  x,y,z
_cell_length_a	14.5662
_cell_length_b	14.5662
_cell_length_c	14.5662
_cell_angle_alpha	90
_cell_angle_beta	90
_cell_angle_gamma	90
loop_
_atom_site_label
_atom_site_type_symbol
_atom_site_fract_x
_atom_site_fract_y
_atom_site_fract_z
_atom_site_charge
Mof_Na	Na	-4.08396e-33	0.5	-0	1.648
Mof_Na	Na	0.5	-4.08396e-33	0.5	2.864
Mof_Na	Na	-2.20926e-33	-4.08396e-33	0.5	1.648
Mof_Na	Na	0.5	0.5	-0	2.864
Mof_Na	Na	0.5	0	-0	1.648
Mof_Na	Na	-6.29322e-33	0.5	0.5	2.864
Mof_Mn	Mn	-7.23057e-33	0.5	0.25	0.628
Mof_Mn	Mn	-5.35587e-33	0.5	0.75	0.663
Mof_Mn	Mn	0.5	-2.04198e-33	0.25	0.628
Mof_Mn	Mn	0.25	-4.08396e-33	0.5	0.627
Mof_Mn	Mn	0.75	-4.08396e-33	0.5	0.662
Mof_Mn	Mn	0.25	0.5	-0	0.627
Mof_Mn	Mn	0.5	0.25	-0	0.627
Mof_Mn	Mn	0.5	0.75	-0	0.662
Mof_Mn	Mn	0.5	0	0.75	0.662
Mof_Mn	Mn	-6.29322e-33	0.25	0.5	0.627
Mof_Mn	Mn	-6.29322e-33	0.75	0.5	0.662
Mof_Mn	Mn	0.75	0.5	-0	0.662
Mof_O 	O 	0.8506	0.5	0.2582	-0.293
Mof_O 	O 	0.3506	8.16792e-33	0.7582	-0.455
Mof_O 	O 	0.1494	0.5	0.2582	-0.421
Mof_O 	O 	0.6494	8.16792e-33	0.7582	-0.421
Mof_O 	O 	0.1494	0.5	0.7418	-0.396
Mof_O 	O 	0.6494	-2.04198e-33	0.2418	-0.477
Mof_O 	O 	0.8506	0.5	0.7418	-0.27
Mof_O 	O 	0.3506	-2.04198e-33	0.2418	-0.511
Mof_O 	O 	0.2582	0.8506	0.5	-0.293
Mof_O 	O 	0.7582	0.3506	-0	-0.455
Mof_O 	O 	0.2582	0.1494	0.5	-0.421
Mof_O 	O 	0.7582	0.6494	-0	-0.421
Mof_O 	O 	0.7418	0.1494	0.5	-0.396
Mof_O 	O 	0.2418	0.6494	-0	-0.477
Mof_O 	O 	0.7418	0.8506	0.5	-0.27
Mof_O 	O 	0.2418	0.3506	-0	-0.511
Mof_O 	O 	0.5	0.2582	0.8506	-0.293
Mof_O 	O 	1.35664e-32	0.7582	0.3506	-0.455
Mof_O 	O 	0.5	0.2582	0.1494	-0.421
Mof_O 	O 	2.43486e-33	0.7582	0.6494	-0.421
Mof_O 	O 	0.5	0.7418	0.1494	-0.396
Mof_O 	O 	-5.73306e-33	0.2418	0.6494	-0.477
Mof_O 	O 	0.5	0.7418	0.8506	-0.27
Mof_O 	O 	-2.76942e-33	0.2418	0.3506	-0.511
Mof_O 	O 	0.5	0.8506	0.7418	-0.27
Mof_O 	O 	-1.13538e-33	0.3506	0.2418	-0.511
Mof_O 	O 	0.5	0.1494	0.7418	-0.396
Mof_O 	O 	-5.21934e-33	0.6494	0.2418	-0.477
Mof_O 	O 	0.5	0.1494	0.2582	-0.421
Mof_O 	O 	2.84279e-33	0.6494	0.7582	-0.421
Mof_O 	O 	0.5	0.8506	0.2582	-0.293
Mof_O 	O 	1.10107e-32	0.3506	0.7582	-0.455
Mof_O 	O 	0.8506	0.2582	0.5	-0.293
Mof_O 	O 	0.3506	0.7582	-0	-0.455
Mof_O 	O 	0.1494	0.2582	0.5	-0.421
Mof_O 	O 	0.6494	0.7582	-0	-0.421
Mof_O 	O 	0.1494	0.7418	0.5	-0.396
Mof_O 	O 	0.6494	0.2418	-0	-0.477
Mof_O 	O 	0.8506	0.7418	0.5	-0.27
Mof_O 	O 	0.3506	0.2418	-0	-0.511
Mof_O 	O 	0.2582	0.5	0.1494	-0.421
Mof_O 	O 	0.7582	0	0.6494	-0.421
Mof_O 	O 	0.2582	0.5	0.8506	-0.293
Mof_O 	O 	0.7582	0	0.3506	-0.455
Mof_O 	O 	0.7418	0.5	0.8506	-0.27
Mof_O 	O 	0.2418	0	0.3506	-0.511
Mof_O 	O 	0.7418	0.5	0.1494	-0.396
Mof_O 	O 	0.2418	0	0.6494	-0.477
Mof_C 	C 	0.827	0.5	0.173	0.583
Mof_O 	O 	0.8892	0.5	0.1108	-0.525
Mof_C 	C 	0.327	-8.16792e-33	0.673	0.656
Mof_O 	O 	0.3892	0	0.6108	-0.864
Mof_C 	C 	0.173	0.5	0.173	0.603
Mof_O 	O 	0.1108	0.5	0.1108	-0.681
Mof_C 	C 	0.673	-8.16792e-33	0.673	0.65
Mof_O 	O 	0.6108	0	0.6108	-0.86
Mof_C 	C 	0.173	0.5	0.827	0.583
Mof_O 	O 	0.1108	0.5	0.8892	-0.525
Mof_C 	C 	0.673	0	0.327	0.656
Mof_O 	O 	0.6108	0	0.3892	-0.864
Mof_C 	C 	0.827	0.5	0.827	0.564
Mof_O 	O 	0.8892	0.5	0.8892	-0.374
Mof_C 	C 	0.327	0	0.327	0.663
Mof_O 	O 	0.3892	0	0.3892	-0.868
Mof_C 	C 	0.173	0.827	0.5	0.583
Mof_O 	O 	0.1108	0.8892	0.5	-0.525
Mof_C 	C 	0.673	0.327	-0	0.656
Mof_O 	O 	0.6108	0.3892	-0	-0.864
Mof_C 	C 	0.173	0.173	0.5	0.603
Mof_O 	O 	0.1108	0.1108	0.5	-0.681
Mof_C 	C 	0.673	0.673	-0	0.65
Mof_O 	O 	0.6108	0.6108	-0	-0.86
Mof_C 	C 	0.827	0.173	0.5	0.583
Mof_O 	O 	0.8892	0.1108	0.5	-0.525
Mof_C 	C 	0.327	0.673	-0	0.656
Mof_O 	O 	0.3892	0.6108	-0	-0.864
Mof_C 	C 	0.827	0.827	0.5	0.564
Mof_O 	O 	0.8892	0.8892	0.5	-0.374
Mof_C 	C 	0.327	0.327	-0	0.663
Mof_O 	O 	0.3892	0.3892	-0	-0.868
Mof_C 	C 	0.5	0.173	0.827	0.583
Mof_O 	O 	0.5	0.1108	0.8892	-0.525
Mof_C 	C 	-1.10258e-32	0.673	0.327	0.656
Mof_O 	O 	-2.62469e-33	0.6108	0.3892	-0.864
Mof_C 	C 	0.5	0.173	0.173	0.603
Mof_O 	O 	0.5	0.1108	0.1108	-0.681
Mof_C 	C 	-1.38125e-32	0.673	0.673	0.65
Mof_O 	O 	2.29013e-33	0.6108	0.6108	-0.86
Mof_C 	C 	0.5	0.827	0.173	0.583
Mof_O 	O 	0.5	0.8892	0.1108	-0.525
Mof_C 	C 	-1.38125e-32	0.327	0.673	0.656
Mof_O 	O 	-5.87779e-33	0.3892	0.6108	-0.864
Mof_C 	C 	0.5	0.827	0.827	0.564
Mof_O 	O 	0.5	0.8892	0.8892	-0.374
Mof_C 	C 	1.22605e-33	0.327	0.327	0.663
Mof_O 	O 	1.45927e-33	0.3892	0.3892	-0.868
_end
