data_functionalizedCrystal
_audit_creation_method	'EQeq! by Chris Wilmer'
_symmetry_space_group_name_H-M	'P1'
_symmetry_Int_Tables_number	1
_symmetry_cell_setting	triclinic
loop_
_symmetry_equiv_pos_as_xyz
  x,y,z
_cell_length_a	11.2867
_cell_length_b	13.8357
_cell_length_c	14.8608
_cell_angle_alpha	85.209
_cell_angle_beta	69.742
_cell_angle_gamma	73.909
loop_
_atom_site_label
_atom_site_type_symbol
_atom_site_fract_x
_atom_site_fract_y
_atom_site_fract_z
_atom_site_charge
Mof_C 	C 	0.479	0.3353	0.15015	0.362
Mof_C 	C 	0.5351	0.2737	0.22208	-0.161
Mof_C 	C 	0.4743	0.2044	0.2794	0.095
Mof_H 	H 	0.3966	0.1976	0.2755	0.002
Mof_C 	C 	0.5299	0.1454	0.3424	-0.204
Mof_H 	H 	0.4886	0.0998	0.3812	0.095
Mof_C 	C 	0.6464	0.1543	0.3474	0.165
Mof_C 	C 	0.7063	0.2241	0.2919	-0.202
Mof_H 	H 	0.784	0.2308	0.2961	0.1
Mof_C 	C 	0.65	0.2843	0.2298	0.096
Mof_H 	H 	0.6895	0.332	0.1932	-0.003
Mof_C 	C 	0.4968	0.105	0.81511	0.342
Mof_C 	C 	0.5482	0.1013	0.70819	-0.143
Mof_C 	C 	0.4925	0.1737	0.6534	0.089
Mof_H 	H 	0.4195	0.2254	0.6839	0.012
Mof_C 	C 	0.5438	0.1701	0.5542	-0.201
Mof_H 	H 	0.505	0.2191	0.5187	0.105
Mof_C 	C 	0.6542	0.0926	0.5068	0.183
Mof_C 	C 	0.7094	0.0191	0.5621	-0.253
Mof_H 	H 	0.7817	0.9667	0.532	0.149
Mof_C 	C 	0.6571	0.0241	0.6607	0.046
Mof_H 	H 	0.6953	0.975	0.6964	0.05
Mof_C 	C 	0.2317	0.5917	0.1564	0.094
Mof_H 	H 	0.2223	0.5271	0.1553	-0.025
Mof_C 	C 	0.1254	0.6649	0.2119	-0.187
Mof_H 	H 	0.0469	0.6496	0.2463	0.093
Mof_C 	C 	0.1382	0.7616	0.2155	0.132
Mof_C 	C 	0.2596	0.7779	0.1656	-0.194
Mof_H 	H 	0.274	0.8404	0.1688	0.104
Mof_C 	C 	0.3589	0.7011	0.111	0.103
Mof_H 	H 	0.4389	0.7143	0.0768	-0.04
Mof_C 	C 	0.0261	0.845	0.2689	-0.091
Mof_C 	C 	0.8997	0.8503	0.2733	0.032
Mof_H 	H 	0.8843	0.7993	0.2456	0.021
Mof_C 	C 	0.7958	0.9313	0.3188	-0.11
Mof_H 	H 	0.7113	0.9342	0.3216	0.087
Mof_C 	C 	0.8182	0.0072	0.3599	0.108
Mof_C 	C 	0.9434	0.0027	0.3573	-0.217
Mof_H 	H 	0.9583	0.0536	0.3857	0.099
Mof_C 	C 	0.0466	0.9217	0.312	0.096
Mof_H 	H 	0.1307	0.9185	0.3104	0.007
Mof_C 	C 	0.209	0.023	0.0778	-0.042
Mof_H 	H 	0.219	0.0448	0.1316	0.016
Mof_C 	C 	0.0851	0.0285	0.0797	-0.058
Mof_H 	H 	0.0134	0.0538	0.1339	0.032
Mof_C 	C 	0.0664	0.9964	0.001	-0.153
Mof_C 	C 	0.1782	0.9583	0.9234	0.057
Mof_H 	H 	0.1714	0.9353	0.8689	0.026
Mof_C 	C 	0.2991	0.9548	0.9274	0.104
Mof_H 	H 	0.3728	0.9281	0.8749	0.008
Mof_N 	N 	0.7101	0.08977	0.40751	-0.189
Mof_N 	N 	0.3471	0.6089	0.10415	-0.26
Mof_N 	N 	0.3161	0.98766	0.00245	-0.243
Mof_O 	O 	0.3874	0.3117	0.13453	-0.325
Mof_O 	O 	0.5288	0.40474	0.11071	-0.464
Mof_O 	O 	0.4047	0.17878	0.85768	-0.267
Mof_O 	O 	0.5505	0.03242	0.85725	-0.429
Mof_C 	C 	0.521	0.6647	0.84985	0.355
Mof_C 	C 	0.4649	0.7263	0.77792	-0.142
Mof_C 	C 	0.5257	0.7956	0.7206	0.094
Mof_H 	H 	0.6034	0.8024	0.7245	0.014
Mof_C 	C 	0.4701	0.8546	0.6576	-0.2
Mof_H 	H 	0.5114	0.9002	0.6188	0.115
Mof_C 	C 	0.3536	0.8457	0.6526	0.173
Mof_C 	C 	0.2937	0.7759	0.7081	-0.194
Mof_H 	H 	0.216	0.7692	0.7039	0.105
Mof_C 	C 	0.35	0.7157	0.7702	0.092
Mof_H 	H 	0.3105	0.668	0.8068	0.019
Mof_C 	C 	0.5032	0.895	0.18489	0.37
Mof_C 	C 	0.4518	0.8987	0.29181	-0.18
Mof_C 	C 	0.5075	0.8263	0.3466	0.11
Mof_H 	H 	0.5805	0.7746	0.3161	0.002
Mof_C 	C 	0.4562	0.8299	0.4458	-0.202
Mof_H 	H 	0.495	0.7809	0.4813	0.106
Mof_C 	C 	0.3458	0.9074	0.4932	0.167
Mof_C 	C 	0.2906	0.9809	0.4379	-0.158
Mof_H 	H 	0.2183	0.0333	0.468	0.059
Mof_C 	C 	0.3429	0.9759	0.3393	0.162
Mof_H 	H 	0.3047	0.025	0.3036	-0.047
Mof_C 	C 	0.7683	0.4083	0.8436	0.099
Mof_H 	H 	0.7777	0.4729	0.8447	-0.002
Mof_C 	C 	0.8746	0.3351	0.7881	-0.16
Mof_H 	H 	0.9531	0.3504	0.7537	0.094
Mof_C 	C 	0.8618	0.2384	0.7845	0.111
Mof_C 	C 	0.7404	0.2221	0.8344	-0.159
Mof_H 	H 	0.726	0.1596	0.8312	0.091
Mof_C 	C 	0.6411	0.2989	0.889	0.104
Mof_H 	H 	0.5611	0.2857	0.9232	0.004
Mof_C 	C 	0.9739	0.155	0.7311	-0.05
Mof_C 	C 	0.1003	0.1497	0.7267	0.029
Mof_H 	H 	0.1157	0.2007	0.7544	0.028
Mof_C 	C 	0.2042	0.0687	0.6812	-0.204
Mof_H 	H 	0.2887	0.0658	0.6784	0.098
Mof_C 	C 	0.1818	0.9928	0.6401	0.171
Mof_C 	C 	0.0566	0.9973	0.6427	-0.108
Mof_H 	H 	0.0417	0.9464	0.6143	0.077
Mof_C 	C 	0.9534	0.0783	0.688	-0.032
Mof_H 	H 	0.8693	0.0815	0.6896	0.036
Mof_C 	C 	0.791	0.977	0.9222	0.194
Mof_H 	H 	0.781	0.9552	0.8684	-0.028
Mof_C 	C 	0.9149	0.9715	0.9203	-0.233
Mof_H 	H 	0.9866	0.9462	0.8661	0.129
Mof_C 	C 	0.9336	0.0036	0.999	0.298
Mof_C 	C 	0.8218	0.0417	0.0766	-0.35
Mof_H 	H 	0.8286	0.0647	0.1311	0.143
Mof_C 	C 	0.7009	0.0452	0.0726	0.067
Mof_H 	H 	0.6272	0.0719	0.1251	-0.019
Mof_N 	N 	0.2899	0.91023	0.59249	-0.186
Mof_N 	N 	0.6529	0.3911	0.89585	-0.224
Mof_N 	N 	0.6839	0.01234	0.99755	-0.222
Mof_O 	O 	0.6126	0.6883	0.86547	-0.27
Mof_O 	O 	0.4712	0.59526	0.88929	-0.403
Mof_O 	O 	0.5953	0.82122	0.14232	-0.309
Mof_O 	O 	0.4495	0.96758	0.14275	-0.43
Mof_Co	Co	0.5	0	-0	1.069
Mof_Co	Co	0.5	0.5	-0	1.078
_end
