data_functionalizedCrystal
_audit_creation_method	'EQeq! by Chris Wilmer'
_symmetry_space_group_name_H-M	'P1'
_symmetry_Int_Tables_number	1
_symmetry_cell_setting	triclinic
loop_
_symmetry_equiv_pos_as_xyz
  x,y,z
_cell_length_a	14.8112
_cell_length_b	14.8112
_cell_length_c	16.5589
_cell_angle_alpha	102.826
_cell_angle_beta	102.826
_cell_angle_gamma	115.994
loop_
_atom_site_label
_atom_site_type_symbol
_atom_site_fract_x
_atom_site_fract_y
_atom_site_fract_z
_atom_site_charge
Mof_Zn	Zn	0.04722	0.43438	0.93619	1.213
Mof_Zn	Zn	0.56562	0.95278	0.56381	1.216
Mof_Zn	Zn	0.95278	0.56562	0.06381	1.213
Mof_Zn	Zn	0.43438	0.04722	0.43619	1.216
Mof_Zn	Zn	0.8293	0.1707	0.75	1.236
Mof_Zn	Zn	0.1707	0.8293	0.25	1.236
Mof_H 	H 	0.9952	0.045	0.8359	0.018
Mof_H 	H 	0.0919	0.9597	0.849	0.103
Mof_H 	H 	0.3655	0.2429	0.9204	0.105
Mof_H 	H 	0.2666	0.3264	0.9046	0.001
Mof_H 	H 	0.6277	0.1053	0.913	0.015
Mof_H 	H 	0.4925	0.0773	0.9711	0.107
Mof_H 	H 	0.3051	0.0609	0.7456	0.107
Mof_H 	H 	0.438	0.0858	0.6873	-0.011
Mof_H 	H 	0.1229	0.8363	0.0339	0.016
Mof_H 	H 	0.2063	0.9973	0.0119	0.123
Mof_H 	H 	0.2993	0.8619	0.8343	0.112
Mof_H 	H 	0.2222	0.7044	0.8617	-0.001
Mof_H 	H 	0.955	0.0048	0.6641	0.009
Mof_H 	H 	0.0403	0.9081	0.651	0.107
Mof_H 	H 	0.7571	0.6345	0.5796	0.107
Mof_H 	H 	0.6736	0.7334	0.5954	-0.001
Mof_H 	H 	0.8947	0.3723	0.587	0.013
Mof_H 	H 	0.9227	0.5075	0.5289	0.106
Mof_H 	H 	0.9391	0.6949	0.7544	0.108
Mof_H 	H 	0.9142	0.562	0.8127	-0.01
Mof_H 	H 	0.1637	0.8771	0.4661	0.004
Mof_H 	H 	0.0027	0.7937	0.4881	0.114
Mof_H 	H 	0.1381	0.7007	0.6657	0.113
Mof_H 	H 	0.2956	0.7778	0.6383	-0.003
Mof_H 	H 	0.0048	0.955	0.1641	0.018
Mof_H 	H 	0.9081	0.0403	0.151	0.103
Mof_H 	H 	0.6345	0.7571	0.0796	0.105
Mof_H 	H 	0.7334	0.6736	0.0954	0.001
Mof_H 	H 	0.3723	0.8947	0.087	0.015
Mof_H 	H 	0.5075	0.9227	0.0289	0.107
Mof_H 	H 	0.6949	0.9391	0.2544	0.107
Mof_H 	H 	0.562	0.9142	0.3127	-0.011
Mof_H 	H 	0.8771	0.1637	0.9661	0.016
Mof_H 	H 	0.7937	0.0027	0.9881	0.123
Mof_H 	H 	0.7007	0.1381	0.1657	0.112
Mof_H 	H 	0.7778	0.2956	0.1383	-0.001
Mof_H 	H 	0.045	0.9952	0.3359	0.009
Mof_H 	H 	0.9597	0.0919	0.349	0.107
Mof_H 	H 	0.2429	0.3655	0.4204	0.107
Mof_H 	H 	0.3264	0.2666	0.4046	-0.001
Mof_H 	H 	0.1053	0.6277	0.413	0.013
Mof_H 	H 	0.0773	0.4925	0.4711	0.106
Mof_H 	H 	0.0609	0.3051	0.2456	0.108
Mof_H 	H 	0.0858	0.438	0.1873	-0.01
Mof_H 	H 	0.8363	0.1229	0.5339	0.004
Mof_H 	H 	0.9973	0.2063	0.5119	0.114
Mof_H 	H 	0.8619	0.2993	0.3343	0.113
Mof_H 	H 	0.7044	0.2222	0.3617	-0.003
Mof_C 	C 	0.05438	0.24702	0.8619	0.391
Mof_C 	C 	0.12064	0.19496	0.8696	-0.174
Mof_C 	C 	0.06978	0.08482	0.8529	0.09
Mof_C 	C 	0.1277	0.0335	0.8611	-0.201
Mof_C 	C 	0.2399	0.0919	0.8876	0.171
Mof_C 	C 	0.29099	0.20281	0.9035	-0.204
Mof_C 	C 	0.23163	0.25297	0.8942	0.108
Mof_C 	C 	0.63157	0.11023	0.7544	0.393
Mof_C 	C 	0.54609	0.09691	0.7938	-0.176
Mof_C 	C 	0.56264	0.09536	0.8791	0.108
Mof_C 	C 	0.48146	0.07874	0.914	-0.206
Mof_C 	C 	0.38471	0.06449	0.8639	0.176
Mof_C 	C 	0.36927	0.06853	0.7789	-0.212
Mof_C 	C 	0.44903	0.08397	0.7443	0.118
Mof_C 	C 	0.1068	0.6496	0.9625	0.439
Mof_C 	C 	0.162	0.7528	0.9489	-0.194
Mof_C 	C 	0.1585	0.8415	0.9939	0.114
Mof_C 	C 	0.20726	0.93774	0.9801	-0.227
Mof_C 	C 	0.25821	0.94479	0.9177	0.184
Mof_C 	C 	0.26385	0.85715	0.8744	-0.224
Mof_C 	C 	0.2169	0.7623	0.8904	0.128
Mof_C 	C 	0.75298	0.94562	0.6381	0.401
Mof_C 	C 	0.80504	0.87936	0.6304	-0.183
Mof_C 	C 	0.91518	0.93022	0.6471	0.108
Mof_C 	C 	0.9665	0.8723	0.6389	-0.211
Mof_C 	C 	0.9081	0.7601	0.6124	0.177
Mof_C 	C 	0.79719	0.70901	0.5965	-0.21
Mof_C 	C 	0.74703	0.76837	0.6058	0.116
Mof_C 	C 	0.88977	0.36843	0.7456	0.393
Mof_C 	C 	0.90309	0.45391	0.7062	-0.176
Mof_C 	C 	0.90464	0.43736	0.6209	0.108
Mof_C 	C 	0.92126	0.51854	0.586	-0.207
Mof_C 	C 	0.93551	0.61529	0.6361	0.176
Mof_C 	C 	0.93147	0.63073	0.7211	-0.212
Mof_C 	C 	0.91603	0.55097	0.7557	0.119
Mof_C 	C 	0.3504	0.8932	0.5375	0.454
Mof_C 	C 	0.2472	0.838	0.5511	-0.204
Mof_C 	C 	0.1585	0.8415	0.5061	0.132
Mof_C 	C 	0.06226	0.79274	0.5199	-0.219
Mof_C 	C 	0.05521	0.74179	0.5823	0.184
Mof_C 	C 	0.14285	0.73615	0.6256	-0.227
Mof_C 	C 	0.2377	0.7831	0.6096	0.134
Mof_C 	C 	0.94562	0.75298	0.1381	0.391
Mof_C 	C 	0.87936	0.80504	0.1304	-0.174
Mof_C 	C 	0.93022	0.91518	0.1471	0.09
Mof_C 	C 	0.8723	0.9665	0.1389	-0.201
Mof_C 	C 	0.7601	0.9081	0.1124	0.171
Mof_C 	C 	0.70901	0.79719	0.0965	-0.204
Mof_C 	C 	0.76837	0.74703	0.1058	0.108
Mof_C 	C 	0.36843	0.88977	0.2456	0.393
Mof_C 	C 	0.45391	0.90309	0.2062	-0.176
Mof_C 	C 	0.43736	0.90464	0.1209	0.108
Mof_C 	C 	0.51854	0.92126	0.086	-0.206
Mof_C 	C 	0.61529	0.93551	0.1361	0.176
Mof_C 	C 	0.63073	0.93147	0.2211	-0.212
Mof_C 	C 	0.55097	0.91603	0.2557	0.118
Mof_C 	C 	0.8932	0.3504	0.0375	0.439
Mof_C 	C 	0.838	0.2472	0.0511	-0.194
Mof_C 	C 	0.8415	0.1585	0.0061	0.114
Mof_C 	C 	0.79274	0.06226	0.0199	-0.227
Mof_C 	C 	0.74179	0.05521	0.0823	0.184
Mof_C 	C 	0.73615	0.14285	0.1256	-0.224
Mof_C 	C 	0.7831	0.2377	0.1096	0.128
Mof_C 	C 	0.24702	0.05438	0.3619	0.401
Mof_C 	C 	0.19496	0.12064	0.3696	-0.183
Mof_C 	C 	0.08482	0.06978	0.3529	0.108
Mof_C 	C 	0.0335	0.1277	0.3611	-0.211
Mof_C 	C 	0.0919	0.2399	0.3876	0.177
Mof_C 	C 	0.20281	0.29099	0.4035	-0.21
Mof_C 	C 	0.25297	0.23163	0.3942	0.116
Mof_C 	C 	0.11023	0.63157	0.2544	0.393
Mof_C 	C 	0.09691	0.54609	0.2938	-0.176
Mof_C 	C 	0.09536	0.56264	0.3791	0.108
Mof_C 	C 	0.07874	0.48146	0.414	-0.207
Mof_C 	C 	0.06449	0.38471	0.3639	0.176
Mof_C 	C 	0.06853	0.36927	0.2789	-0.212
Mof_C 	C 	0.08397	0.44903	0.2443	0.119
Mof_C 	C 	0.6496	0.1068	0.4625	0.454
Mof_C 	C 	0.7528	0.162	0.4489	-0.204
Mof_C 	C 	0.8415	0.1585	0.4939	0.132
Mof_C 	C 	0.93774	0.20726	0.4801	-0.219
Mof_C 	C 	0.94479	0.25821	0.4177	0.184
Mof_C 	C 	0.85715	0.26385	0.3744	-0.227
Mof_C 	C 	0.7623	0.2169	0.3904	0.134
Mof_N 	N 	0.3003	0.0411	0.8986	-0.194
Mof_N 	N 	0.9589	0.6997	0.6014	-0.195
Mof_N 	N 	0.6997	0.9589	0.1014	-0.194
Mof_N 	N 	0.0411	0.3003	0.3986	-0.195
Mof_O 	O 	0.95446	0.18774	0.8394	-0.474
Mof_O 	O 	0.10258	0.34822	0.88	-0.481
Mof_O 	O 	0.72235	0.13805	0.8065	-0.47
Mof_O 	O 	0.60994	0.09446	0.6729	-0.48
Mof_O 	O 	0.0472	0.6422	0.0071	-0.531
Mof_O 	O 	0.1202	0.575	0.9262	-0.502
Mof_O 	O 	0.81226	0.04554	0.6606	-0.48
Mof_O 	O 	0.65178	0.89742	0.62	-0.481
Mof_O 	O 	0.86195	0.27765	0.6935	-0.47
Mof_O 	O 	0.90554	0.39006	0.8271	-0.478
Mof_O 	O 	0.3578	0.9528	0.4929	-0.543
Mof_O 	O 	0.425	0.8798	0.5738	-0.503
Mof_O 	O 	0.04554	0.81226	0.1606	-0.474
Mof_O 	O 	0.89742	0.65178	0.12	-0.481
Mof_O 	O 	0.27765	0.86195	0.1935	-0.47
Mof_O 	O 	0.39006	0.90554	0.3271	-0.48
Mof_O 	O 	0.9528	0.3578	0.9929	-0.531
Mof_O 	O 	0.8798	0.425	0.0738	-0.502
Mof_O 	O 	0.18774	0.95446	0.3394	-0.48
Mof_O 	O 	0.34822	0.10258	0.38	-0.481
Mof_O 	O 	0.13805	0.72235	0.3065	-0.47
Mof_O 	O 	0.09446	0.60994	0.1729	-0.478
Mof_O 	O 	0.6422	0.0472	0.5071	-0.543
Mof_O 	O 	0.575	0.1202	0.4262	-0.503
_end
