data_functionalizedCrystal
_audit_creation_method	'EQeq! by Chris Wilmer'
_symmetry_space_group_name_H-M	'P1'
_symmetry_Int_Tables_number	1
_symmetry_cell_setting	triclinic
loop_
_symmetry_equiv_pos_as_xyz
  x,y,z
_cell_length_a	17.116
_cell_length_b	22.8
_cell_length_c	22.641
_cell_angle_alpha	90
_cell_angle_beta	90
_cell_angle_gamma	90
loop_
_atom_site_label
_atom_site_type_symbol
_atom_site_fract_x
_atom_site_fract_y
_atom_site_fract_z
_atom_site_charge
Mof_Ni	Ni	0.47401	0.2579	0.00925	1.079
Mof_Ni	Ni	0.49687	0.5079	0.25911	1.079
Mof_N 	N 	0.4612	0.17021	0.0343	-0.26
Mof_N 	N 	0.49155	0.23124	0.92239	-0.262
Mof_N 	N 	0.48589	0.345	0.98136	-0.26
Mof_N 	N 	0.4585	0.28468	0.09599	-0.263
Mof_N 	N 	0.35422	0.2624	0.9931	-0.248
Mof_N 	N 	0.59402	0.25377	0.02351	-0.251
Mof_N 	N 	0.48904	0.42048	0.23318	-0.261
Mof_N 	N 	0.49784	0.59467	0.28561	-0.265
Mof_N 	N 	0.4847	0.48161	0.34689	-0.261
Mof_N 	N 	0.50864	0.53252	0.17053	-0.26
Mof_N 	N 	0.37718	0.51345	0.24793	-0.267
Mof_N 	N 	0.61909	0.50218	0.26463	-0.259
Mof_N 	N 	0.229	0.2563	0.9407	0.357
Mof_C 	C 	0.2933	0.2603	0.9718	0.088
Mof_C 	C 	0.6594	0.2549	0.0367	0.087
Mof_N 	N 	0.2281	0.2285	0.949	-0.346
Mof_C 	C 	0.2924	0.2461	0.9752	0.153
Mof_C 	C 	0.6578	0.2424	0.0321	-0.024
Mof_N 	N 	0.2282	0.2851	0.9468	-0.334
Mof_C 	C 	0.2932	0.2738	0.976	-0.046
Mof_C 	C 	0.6586	0.2691	0.034	0.133
Mof_N 	N 	0.7488	0.4548	0.2484	-0.142
Mof_C 	C 	0.6816	0.481	0.2575	0.109
Mof_C 	C 	0.6826	0.5215	0.2584	0.103
Mof_N 	N 	0.52162	0.1949	0.82259	-0.177
Mof_N 	N 	0.45124	0.3225	0.19749	-0.177
Mof_N 	N 	0.45139	0.06499	0.05816	-0.175
Mof_N 	N 	0.47993	0.44196	0.93463	-0.176
Mof_C 	C 	0.45843	0.12154	0.04842	0.178
Mof_C 	C 	0.50465	0.21137	0.87654	0.179
Mof_C 	C 	0.48447	0.38886	0.95658	0.184
Mof_C 	C 	0.45681	0.30498	0.14258	0.181
Mof_C 	C 	0.47214	0.37553	0.21347	0.177
Mof_C 	C 	0.51022	0.14055	0.80575	0.181
Mof_C 	C 	0.47024	0.04261	0.10977	0.177
Mof_C 	C 	0.48744	0.45213	0.87802	0.18
Mof_C 	C 	0.31582	0.50702	0.22915	0.183
Mof_Ni	Ni	0.02599	0.7421	0.00925	1.078
Mof_Ni	Ni	0.00313	0.4921	0.25911	1.079
Mof_N 	N 	0.0388	0.82979	0.0343	-0.26
Mof_N 	N 	0.00845	0.76876	0.92239	-0.255
Mof_N 	N 	0.01411	0.655	0.98136	-0.258
Mof_N 	N 	0.0415	0.71532	0.09599	-0.264
Mof_N 	N 	0.14578	0.7376	0.9931	-0.247
Mof_N 	N 	0.90598	0.74623	0.02351	-0.25
Mof_N 	N 	0.01096	0.57952	0.23318	-0.262
Mof_N 	N 	0.00216	0.40533	0.28561	-0.265
Mof_N 	N 	0.0153	0.51839	0.34689	-0.261
Mof_N 	N 	0.99136	0.46748	0.17053	-0.259
Mof_N 	N 	0.12282	0.48655	0.24793	-0.267
Mof_N 	N 	0.88091	0.49782	0.26463	-0.259
Mof_N 	N 	0.271	0.7437	0.9407	0.358
Mof_C 	C 	0.2067	0.7397	0.9718	0.088
Mof_C 	C 	0.8406	0.7451	0.0367	0.087
Mof_N 	N 	0.2719	0.7715	0.949	-0.347
Mof_C 	C 	0.2076	0.7539	0.9752	0.152
Mof_C 	C 	0.8422	0.7576	0.0321	-0.024
Mof_N 	N 	0.2718	0.7149	0.9468	-0.335
Mof_C 	C 	0.2068	0.7262	0.976	-0.045
Mof_C 	C 	0.8414	0.7309	0.034	0.133
Mof_N 	N 	0.7512	0.5452	0.2484	-0.142
Mof_C 	C 	0.8184	0.519	0.2575	0.109
Mof_C 	C 	0.8174	0.4785	0.2584	0.103
Mof_N 	N 	0.97838	0.8051	0.82259	-0.176
Mof_N 	N 	0.04876	0.6775	0.19749	-0.177
Mof_N 	N 	0.04861	0.93501	0.05816	-0.176
Mof_N 	N 	0.02007	0.55804	0.93463	-0.176
Mof_C 	C 	0.04157	0.87846	0.04842	0.176
Mof_C 	C 	0.99535	0.78863	0.87654	0.172
Mof_C 	C 	0.01553	0.61114	0.95658	0.186
Mof_C 	C 	0.04319	0.69502	0.14258	0.181
Mof_C 	C 	0.02786	0.62447	0.21347	0.176
Mof_C 	C 	0.98978	0.85945	0.80575	0.179
Mof_C 	C 	0.02976	0.95739	0.10977	0.175
Mof_C 	C 	0.01256	0.54787	0.87802	0.182
Mof_C 	C 	0.18418	0.49298	0.22915	0.183
Mof_Ni	Ni	0.02599	0.7579	0.49075	1.081
Mof_Ni	Ni	0.00313	0.0079	0.24089	1.079
Mof_N 	N 	0.0388	0.67021	0.4657	-0.259
Mof_N 	N 	0.00845	0.73124	0.57761	-0.259
Mof_N 	N 	0.01411	0.845	0.51864	-0.26
Mof_N 	N 	0.0415	0.78468	0.40401	-0.263
Mof_N 	N 	0.14578	0.7624	0.5069	-0.249
Mof_N 	N 	0.90598	0.75377	0.47649	-0.251
Mof_N 	N 	0.01096	0.92048	0.26682	-0.262
Mof_N 	N 	0.00216	0.09467	0.21439	-0.265
Mof_N 	N 	0.0153	0.98161	0.15311	-0.262
Mof_N 	N 	0.99136	0.03252	0.32947	-0.258
Mof_N 	N 	0.12282	0.01345	0.25207	-0.267
Mof_N 	N 	0.88091	0.00218	0.23537	-0.255
Mof_N 	N 	0.271	0.7563	0.5593	0.36
Mof_C 	C 	0.2067	0.7603	0.5282	0.088
Mof_C 	C 	0.8406	0.7549	0.4633	0.087
Mof_N 	N 	0.2719	0.7285	0.551	-0.349
Mof_C 	C 	0.2076	0.7461	0.5248	0.153
Mof_C 	C 	0.8422	0.7424	0.4679	-0.025
Mof_N 	N 	0.2718	0.7851	0.5532	-0.336
Mof_C 	C 	0.2068	0.7738	0.524	-0.047
Mof_C 	C 	0.8414	0.7691	0.466	0.134
Mof_N 	N 	0.7512	0.9548	0.2516	-0.133
Mof_C 	C 	0.8184	0.981	0.2425	0.078
Mof_C 	C 	0.8174	0.0215	0.2416	0.131
Mof_N 	N 	0.97838	0.6949	0.67741	-0.177
Mof_N 	N 	0.04876	0.8225	0.30251	-0.177
Mof_N 	N 	0.04861	0.56499	0.44184	-0.176
Mof_N 	N 	0.02007	0.94196	0.56537	-0.177
Mof_C 	C 	0.04157	0.62154	0.45158	0.177
Mof_C 	C 	0.99535	0.71137	0.62346	0.176
Mof_C 	C 	0.01553	0.88886	0.54342	0.184
Mof_C 	C 	0.04319	0.80498	0.35742	0.181
Mof_C 	C 	0.02786	0.87553	0.28653	0.176
Mof_C 	C 	0.98978	0.64055	0.69425	0.18
Mof_C 	C 	0.02976	0.54261	0.39023	0.176
Mof_C 	C 	0.01256	0.95213	0.62198	0.181
Mof_C 	C 	0.18418	0.00702	0.27085	0.184
Mof_Ni	Ni	0.47401	0.2421	0.49075	1.08
Mof_Ni	Ni	0.49687	0.9921	0.24089	1.078
Mof_N 	N 	0.4612	0.32979	0.4657	-0.259
Mof_N 	N 	0.49155	0.26876	0.57761	-0.261
Mof_N 	N 	0.48589	0.155	0.51864	-0.26
Mof_N 	N 	0.4585	0.21532	0.40401	-0.263
Mof_N 	N 	0.35422	0.2376	0.5069	-0.249
Mof_N 	N 	0.59402	0.24623	0.47649	-0.251
Mof_N 	N 	0.48904	0.07952	0.26682	-0.26
Mof_N 	N 	0.49784	0.90533	0.21439	-0.265
Mof_N 	N 	0.4847	0.01839	0.15311	-0.26
Mof_N 	N 	0.50864	0.96748	0.32947	-0.26
Mof_N 	N 	0.37718	0.98655	0.25207	-0.267
Mof_N 	N 	0.61909	0.99782	0.23537	-0.262
Mof_N 	N 	0.229	0.2437	0.5593	0.359
Mof_C 	C 	0.2933	0.2397	0.5282	0.088
Mof_C 	C 	0.6594	0.2451	0.4633	0.087
Mof_N 	N 	0.2281	0.2715	0.551	-0.349
Mof_C 	C 	0.2924	0.2539	0.5248	0.154
Mof_C 	C 	0.6578	0.2576	0.4679	-0.023
Mof_N 	N 	0.2282	0.2149	0.5532	-0.335
Mof_C 	C 	0.2932	0.2262	0.524	-0.048
Mof_C 	C 	0.6586	0.2309	0.466	0.132
Mof_N 	N 	0.7488	0.0452	0.2516	-0.151
Mof_C 	C 	0.6816	0.019	0.2425	0.137
Mof_C 	C 	0.6826	0.9785	0.2416	0.078
Mof_N 	N 	0.52162	0.3051	0.67741	-0.177
Mof_N 	N 	0.45124	0.1775	0.30251	-0.177
Mof_N 	N 	0.45139	0.43501	0.44184	-0.176
Mof_N 	N 	0.47993	0.05804	0.56537	-0.176
Mof_C 	C 	0.45843	0.37846	0.45158	0.177
Mof_C 	C 	0.50465	0.28863	0.62346	0.179
Mof_C 	C 	0.48447	0.11114	0.54342	0.185
Mof_C 	C 	0.45681	0.19502	0.35742	0.182
Mof_C 	C 	0.47214	0.12447	0.28653	0.177
Mof_C 	C 	0.51022	0.35945	0.69425	0.18
Mof_C 	C 	0.47024	0.45739	0.39023	0.176
Mof_C 	C 	0.48744	0.04787	0.62198	0.181
Mof_C 	C 	0.31582	0.99298	0.27085	0.18
Mof_Ni	Ni	0.52599	0.7421	0.99075	1.08
Mof_Ni	Ni	0.50313	0.4921	0.74089	1.08
Mof_N 	N 	0.5388	0.82979	0.9657	-0.259
Mof_N 	N 	0.50845	0.76876	0.07761	-0.261
Mof_N 	N 	0.51411	0.655	0.01864	-0.26
Mof_N 	N 	0.5415	0.71532	0.90401	-0.263
Mof_N 	N 	0.64578	0.7376	0.0069	-0.248
Mof_N 	N 	0.40598	0.74623	0.97649	-0.251
Mof_N 	N 	0.51096	0.57952	0.76682	-0.261
Mof_N 	N 	0.50216	0.40533	0.71439	-0.265
Mof_N 	N 	0.5153	0.51839	0.65311	-0.261
Mof_N 	N 	0.49136	0.46748	0.82947	-0.26
Mof_N 	N 	0.62282	0.48655	0.75207	-0.267
Mof_N 	N 	0.38091	0.49782	0.73537	-0.259
Mof_N 	N 	0.771	0.7437	0.0593	0.358
Mof_C 	C 	0.7067	0.7397	0.0282	0.088
Mof_C 	C 	0.3406	0.7451	0.9633	0.087
Mof_N 	N 	0.7719	0.7715	0.051	-0.348
Mof_C 	C 	0.7076	0.7539	0.0248	0.154
Mof_C 	C 	0.3422	0.7576	0.9679	-0.023
Mof_N 	N 	0.7718	0.7149	0.0532	-0.335
Mof_C 	C 	0.7068	0.7262	0.024	-0.048
Mof_C 	C 	0.3414	0.7309	0.966	0.132
Mof_N 	N 	0.2512	0.5452	0.7516	-0.142
Mof_C 	C 	0.3184	0.519	0.7425	0.11
Mof_C 	C 	0.3174	0.4785	0.7416	0.103
Mof_N 	N 	0.47838	0.8051	0.17741	-0.177
Mof_N 	N 	0.54876	0.6775	0.80251	-0.177
Mof_N 	N 	0.54861	0.93501	0.94184	-0.176
Mof_N 	N 	0.52007	0.55804	0.06537	-0.176
Mof_C 	C 	0.54157	0.87846	0.95158	0.176
Mof_C 	C 	0.49535	0.78863	0.12346	0.178
Mof_C 	C 	0.51553	0.61114	0.04342	0.184
Mof_C 	C 	0.54319	0.69502	0.85742	0.181
Mof_C 	C 	0.52786	0.62447	0.78653	0.177
Mof_C 	C 	0.48978	0.85945	0.19425	0.18
Mof_C 	C 	0.52976	0.95739	0.89023	0.175
Mof_C 	C 	0.51256	0.54787	0.12198	0.18
Mof_C 	C 	0.68418	0.49298	0.77085	0.183
Mof_Ni	Ni	0.97401	0.2579	0.99075	1.078
Mof_Ni	Ni	0.99687	0.5079	0.74089	1.079
Mof_N 	N 	0.9612	0.17021	0.9657	-0.26
Mof_N 	N 	0.99155	0.23124	0.07761	-0.256
Mof_N 	N 	0.98589	0.345	0.01864	-0.258
Mof_N 	N 	0.9585	0.28468	0.90401	-0.263
Mof_N 	N 	0.85422	0.2624	0.0069	-0.247
Mof_N 	N 	0.09402	0.25377	0.97649	-0.25
Mof_N 	N 	0.98904	0.42048	0.76682	-0.262
Mof_N 	N 	0.99784	0.59467	0.71439	-0.265
Mof_N 	N 	0.9847	0.48161	0.65311	-0.261
Mof_N 	N 	0.00864	0.53252	0.82947	-0.258
Mof_N 	N 	0.87718	0.51345	0.75207	-0.267
Mof_N 	N 	0.11909	0.50218	0.73537	-0.259
Mof_N 	N 	0.729	0.2563	0.0593	0.357
Mof_C 	C 	0.7933	0.2603	0.0282	0.088
Mof_C 	C 	0.1594	0.2549	0.9633	0.087
Mof_N 	N 	0.7281	0.2285	0.051	-0.346
Mof_C 	C 	0.7924	0.2461	0.0248	0.151
Mof_C 	C 	0.1578	0.2424	0.9679	-0.024
Mof_N 	N 	0.7282	0.2851	0.0532	-0.334
Mof_C 	C 	0.7932	0.2738	0.024	-0.044
Mof_C 	C 	0.1586	0.2691	0.966	0.134
Mof_N 	N 	0.2488	0.4548	0.7516	-0.142
Mof_C 	C 	0.1816	0.481	0.7425	0.11
Mof_C 	C 	0.1826	0.5215	0.7416	0.103
Mof_N 	N 	0.02162	0.1949	0.17741	-0.176
Mof_N 	N 	0.95124	0.3225	0.80251	-0.177
Mof_N 	N 	0.95139	0.06499	0.94184	-0.175
Mof_N 	N 	0.97993	0.44196	0.06537	-0.176
Mof_C 	C 	0.95843	0.12154	0.95158	0.177
Mof_C 	C 	0.00465	0.21137	0.12346	0.173
Mof_C 	C 	0.98447	0.38886	0.04342	0.186
Mof_C 	C 	0.95681	0.30498	0.85742	0.181
Mof_C 	C 	0.97214	0.37553	0.78653	0.176
Mof_C 	C 	0.01022	0.14055	0.19425	0.179
Mof_C 	C 	0.97024	0.04261	0.89023	0.177
Mof_C 	C 	0.98744	0.45213	0.12198	0.181
Mof_C 	C 	0.81582	0.50702	0.77085	0.183
Mof_Ni	Ni	0.97401	0.2421	0.50924	1.081
Mof_Ni	Ni	0.99687	0.9921	0.75911	1.077
Mof_N 	N 	0.9612	0.32979	0.5343	-0.259
Mof_N 	N 	0.99155	0.26876	0.42239	-0.259
Mof_N 	N 	0.98589	0.155	0.48136	-0.259
Mof_N 	N 	0.9585	0.21532	0.59599	-0.263
Mof_N 	N 	0.85422	0.2376	0.4931	-0.248
Mof_N 	N 	0.09402	0.24623	0.52351	-0.251
Mof_N 	N 	0.98904	0.07952	0.73318	-0.26
Mof_N 	N 	0.99784	0.90533	0.78561	-0.266
Mof_N 	N 	0.9847	0.01839	0.84689	-0.259
Mof_N 	N 	0.00864	0.96748	0.67053	-0.258
Mof_N 	N 	0.87718	0.98655	0.74793	-0.267
Mof_N 	N 	0.11909	0.99782	0.76463	-0.26
Mof_N 	N 	0.729	0.2437	0.4407	0.358
Mof_C 	C 	0.7933	0.2397	0.4718	0.088
Mof_C 	C 	0.1594	0.2451	0.5367	0.087
Mof_N 	N 	0.7281	0.2715	0.449	-0.348
Mof_C 	C 	0.7924	0.2539	0.4752	0.154
Mof_C 	C 	0.1578	0.2576	0.5321	-0.024
Mof_N 	N 	0.7282	0.2149	0.4468	-0.335
Mof_C 	C 	0.7932	0.2262	0.476	-0.048
Mof_C 	C 	0.1586	0.2309	0.534	0.133
Mof_N 	N 	0.2488	0.0452	0.7484	-0.147
Mof_C 	C 	0.1816	0.019	0.7575	0.124
Mof_C 	C 	0.1826	0.9785	0.7584	0.09
Mof_N 	N 	0.02162	0.3051	0.32259	-0.177
Mof_N 	N 	0.95124	0.1775	0.69749	-0.177
Mof_N 	N 	0.95139	0.43501	0.55816	-0.176
Mof_N 	N 	0.97993	0.05804	0.43463	-0.175
Mof_C 	C 	0.95843	0.37846	0.54842	0.177
Mof_C 	C 	0.00465	0.28863	0.37654	0.177
Mof_C 	C 	0.98447	0.11114	0.45658	0.186
Mof_C 	C 	0.95681	0.19502	0.64258	0.182
Mof_C 	C 	0.97214	0.12447	0.71347	0.177
Mof_C 	C 	0.01022	0.35945	0.30575	0.18
Mof_C 	C 	0.97024	0.45739	0.60977	0.176
Mof_C 	C 	0.98744	0.04787	0.37802	0.182
Mof_C 	C 	0.81582	0.99298	0.72915	0.176
Mof_Ni	Ni	0.52599	0.7579	0.50924	1.08
Mof_Ni	Ni	0.50313	0.0079	0.75911	1.081
Mof_N 	N 	0.5388	0.67021	0.5343	-0.259
Mof_N 	N 	0.50845	0.73124	0.42239	-0.261
Mof_N 	N 	0.51411	0.845	0.48136	-0.26
Mof_N 	N 	0.5415	0.78468	0.59599	-0.263
Mof_N 	N 	0.64578	0.7624	0.4931	-0.249
Mof_N 	N 	0.40598	0.75377	0.52351	-0.251
Mof_N 	N 	0.51096	0.92048	0.73318	-0.263
Mof_N 	N 	0.50216	0.09467	0.78561	-0.264
Mof_N 	N 	0.5153	0.98161	0.84689	-0.263
Mof_N 	N 	0.49136	0.03252	0.67053	-0.259
Mof_N 	N 	0.62282	0.01345	0.74793	-0.266
Mof_N 	N 	0.38091	0.00218	0.76463	-0.257
Mof_N 	N 	0.771	0.7563	0.4407	0.36
Mof_C 	C 	0.7067	0.7603	0.4718	0.088
Mof_C 	C 	0.3406	0.7549	0.5367	0.087
Mof_N 	N 	0.7719	0.7285	0.449	-0.349
Mof_C 	C 	0.7076	0.7461	0.4752	0.153
Mof_C 	C 	0.3422	0.7424	0.5321	-0.024
Mof_N 	N 	0.7718	0.7851	0.4468	-0.337
Mof_C 	C 	0.7068	0.7738	0.476	-0.047
Mof_C 	C 	0.3414	0.7691	0.534	0.133
Mof_N 	N 	0.2512	0.9548	0.7484	-0.137
Mof_C 	C 	0.3184	0.981	0.7575	0.092
Mof_C 	C 	0.3174	0.0215	0.7584	0.119
Mof_N 	N 	0.47838	0.6949	0.32259	-0.177
Mof_N 	N 	0.54876	0.8225	0.69749	-0.177
Mof_N 	N 	0.54861	0.56499	0.55816	-0.176
Mof_N 	N 	0.52007	0.94196	0.43463	-0.177
Mof_C 	C 	0.54157	0.62154	0.54842	0.177
Mof_C 	C 	0.49535	0.71137	0.37654	0.179
Mof_C 	C 	0.51553	0.88886	0.45658	0.183
Mof_C 	C 	0.54319	0.80498	0.64258	0.181
Mof_C 	C 	0.52786	0.87553	0.71347	0.176
Mof_C 	C 	0.48978	0.64055	0.30575	0.18
Mof_C 	C 	0.52976	0.54261	0.60977	0.176
Mof_C 	C 	0.51256	0.95213	0.37802	0.179
Mof_C 	C 	0.68418	0.00702	0.72915	0.185
Mof_N 	N 	0.25	0.5	0.2019	-0.186
Mof_N 	N 	0.25	2.85705e-33	0.2981	-0.183
Mof_N 	N 	0.75	0.5	0.7981	-0.186
Mof_N 	N 	0.75	5.7141e-33	0.7019	-0.182
_end
