data_functionalizedCrystal
_audit_creation_method	'EQeq! by Chris Wilmer'
_symmetry_space_group_name_H-M	'P1'
_symmetry_Int_Tables_number	1
_symmetry_cell_setting	triclinic
loop_
_symmetry_equiv_pos_as_xyz
  x,y,z
_cell_length_a	16.498
_cell_length_b	13.109
_cell_length_c	29.381
_cell_angle_alpha	90
_cell_angle_beta	90
_cell_angle_gamma	90
loop_
_atom_site_label
_atom_site_type_symbol
_atom_site_fract_x
_atom_site_fract_y
_atom_site_fract_z
_atom_site_charge
Mof_Fe	Fe	0.84951	0.45793	0.55912	0.901
Mof_C 	C 	0.9431	0.6489	0.5289	0.015
Mof_C 	C 	0.9512	0.7649	0.5424	-0.166
Mof_H 	H 	0.9081	0.7828	0.5634	0.074
Mof_H 	H 	0.0025	0.7756	0.5578	0.08
Mof_C 	C 	0.947	0.8307	0.5029	-0.013
Mof_H 	H 	0.9133	0.8884	0.5113	0.015
Mof_H 	H 	0.0011	0.8572	0.4979	0.022
Mof_C 	C 	0.9186	0.795	0.4605	-0.087
Mof_H 	H 	0.9614	0.8079	0.4386	0.047
Mof_H 	H 	0.8736	0.8386	0.452	0.049
Mof_C 	C 	0.892	0.6906	0.4533	-0.134
Mof_H 	H 	0.9147	0.6654	0.425	0.07
Mof_H 	H 	0.8334	0.6891	0.4506	0.074
Mof_C 	C 	0.9195	0.6173	0.4942	0.043
Mof_C 	C 	0.9714	0.5977	0.60665	0.048
Mof_H 	H 	0.9968	0.6608	0.6092	0.014
Mof_C 	C 	0.856	0.4741	0.45577	0.056
Mof_H 	H 	0.8591	0.5132	0.4294	0.012
Mof_C 	C 	0.9869	0.5243	0.64151	-0.068
Mof_C 	C 	0.0429	0.5503	0.67554	-0.016
Mof_H 	H 	0.064	0.6161	0.6763	0.032
Mof_C 	C 	0.067	0.4811	0.70749	-0.084
Mof_C 	C 	0.0345	0.3838	0.7059	-0.115
Mof_H 	H 	0.0507	0.3369	0.7278	0.071
Mof_C 	C 	0.9796	0.3533	0.6737	0.128
Mof_C 	C 	0.9541	0.4246	0.64084	0.105
Mof_C 	C 	0.8366	0.3683	0.45047	-0.073
Mof_C 	C 	0.8269	0.3304	0.40584	-0.013
Mof_H 	H 	0.8283	0.3753	0.3814	0.042
Mof_C 	C 	0.8153	0.2282	0.398	-0.078
Mof_C 	C 	0.8118	0.1615	0.43447	-0.11
Mof_H 	H 	0.8026	0.0927	0.4288	0.071
Mof_C 	C 	0.8215	0.1936	0.47919	0.115
Mof_C 	C 	0.8334	0.2986	0.48728	0.112
Mof_C 	C 	0.9461	0.2472	0.6712	-0.609
Mof_H 	H 	0.9695	0.2122	0.6457	0.206
Mof_H 	H 	0.8883	0.2501	0.6676	0.209
Mof_H 	H 	0.959	0.2112	0.6987	0.199
Mof_C 	C 	0.8194	0.1213	0.5185	-0.575
Mof_H 	H 	0.8266	0.1585	0.5464	0.204
Mof_H 	H 	0.8621	0.0721	0.5153	0.182
Mof_H 	H 	0.768	0.0867	0.5191	0.178
Mof_C 	C 	0.1313	0.5062	0.7413	0.377
Mof_C 	C 	0.8095	0.1873	0.35011	0.409
Mof_N 	N 	0.9248	0.5832	0.57166	-0.189
Mof_N 	N 	0.8692	0.5195	0.49341	-0.19
Mof_O 	O 	0.9015	0.3949	0.61007	-0.333
Mof_O 	O 	0.8429	0.3275	0.52968	-0.336
Mof_O 	O 	0.1641	0.5903	0.74195	-0.524
Mof_O 	O 	0.1544	0.4379	0.76882	-0.464
Mof_O 	O 	0.8404	0.2392	0.3196	-0.491
Mof_O 	O 	0.779	0.1001	0.34662	-0.493
Mof_C 	C 	0.9016	0.6681	0.5393	0.025
Mof_C 	C 	0.8713	0.6352	0.497	-0.01
Mof_Fe	Fe	0.65049	0.54207	0.55912	0.899
Mof_C 	C 	0.5569	0.3511	0.5289	0.014
Mof_C 	C 	0.5488	0.2351	0.5424	-0.165
Mof_H 	H 	0.5919	0.2172	0.5634	0.069
Mof_H 	H 	0.4975	0.2244	0.5578	0.078
Mof_C 	C 	0.553	0.1693	0.5029	-0.022
Mof_H 	H 	0.5867	0.1116	0.5113	0.01
Mof_H 	H 	0.4989	0.1428	0.4979	0.022
Mof_C 	C 	0.5814	0.205	0.4605	-0.076
Mof_H 	H 	0.5386	0.1921	0.4386	0.04
Mof_H 	H 	0.6264	0.1614	0.452	0.041
Mof_C 	C 	0.608	0.3094	0.4533	-0.14
Mof_H 	H 	0.5853	0.3346	0.425	0.071
Mof_H 	H 	0.6666	0.3109	0.4506	0.076
Mof_C 	C 	0.5805	0.3827	0.4942	0.043
Mof_C 	C 	0.5286	0.4023	0.60665	0.048
Mof_H 	H 	0.5032	0.3392	0.6092	0.013
Mof_C 	C 	0.644	0.5259	0.45577	0.053
Mof_H 	H 	0.6409	0.4868	0.4294	0.013
Mof_C 	C 	0.5131	0.4757	0.64151	-0.069
Mof_C 	C 	0.4571	0.4497	0.67554	-0.015
Mof_H 	H 	0.436	0.3839	0.6763	0.031
Mof_C 	C 	0.433	0.5189	0.70749	-0.083
Mof_C 	C 	0.4655	0.6162	0.7059	-0.117
Mof_H 	H 	0.4493	0.6631	0.7278	0.072
Mof_C 	C 	0.5204	0.6467	0.6737	0.133
Mof_C 	C 	0.5459	0.5754	0.64084	0.103
Mof_C 	C 	0.6634	0.6317	0.45047	-0.066
Mof_C 	C 	0.6731	0.6696	0.40584	-0.021
Mof_H 	H 	0.6717	0.6247	0.3814	0.045
Mof_C 	C 	0.6847	0.7718	0.398	-0.067
Mof_C 	C 	0.6882	0.8385	0.43447	-0.126
Mof_H 	H 	0.6974	0.9073	0.4288	0.084
Mof_C 	C 	0.6785	0.8064	0.47919	0.137
Mof_C 	C 	0.6666	0.7014	0.48728	0.102
Mof_C 	C 	0.5539	0.7528	0.6712	-0.623
Mof_H 	H 	0.5305	0.7878	0.6457	0.213
Mof_H 	H 	0.6117	0.7499	0.6676	0.215
Mof_H 	H 	0.541	0.7888	0.6987	0.207
Mof_C 	C 	0.6806	0.8787	0.5185	-0.619
Mof_H 	H 	0.6734	0.8415	0.5464	0.22
Mof_H 	H 	0.6379	0.9279	0.5153	0.204
Mof_H 	H 	0.732	0.9133	0.5191	0.201
Mof_C 	C 	0.3687	0.4938	0.7413	0.377
Mof_C 	C 	0.6905	0.8127	0.35011	0.404
Mof_N 	N 	0.5752	0.4168	0.57166	-0.19
Mof_N 	N 	0.6308	0.4805	0.49341	-0.189
Mof_O 	O 	0.5985	0.6051	0.61007	-0.332
Mof_O 	O 	0.6571	0.6725	0.52968	-0.333
Mof_O 	O 	0.3359	0.4097	0.74195	-0.524
Mof_O 	O 	0.3456	0.5621	0.76882	-0.464
Mof_O 	O 	0.6596	0.7608	0.3196	-0.487
Mof_O 	O 	0.721	0.8999	0.34662	-0.48
Mof_C 	C 	0.5984	0.3319	0.5393	0.024
Mof_C 	C 	0.6287	0.3648	0.497	-0.008
Mof_Fe	Fe	0.65049	0.95793	0.94088	0.925
Mof_C 	C 	0.5569	0.1489	0.9711	0.01
Mof_C 	C 	0.5488	0.2649	0.9576	-0.158
Mof_H 	H 	0.5919	0.2828	0.9366	0.068
Mof_H 	H 	0.4975	0.2756	0.9422	0.076
Mof_C 	C 	0.553	0.3307	0.9971	-0.034
Mof_H 	H 	0.5867	0.3884	0.9887	0.017
Mof_H 	H 	0.4989	0.3572	0.0021	0.027
Mof_C 	C 	0.5814	0.295	0.0395	-0.067
Mof_H 	H 	0.5386	0.3079	0.0614	0.039
Mof_H 	H 	0.6264	0.3386	0.048	0.041
Mof_C 	C 	0.608	0.1906	0.0467	-0.146
Mof_H 	H 	0.5853	0.1654	0.075	0.072
Mof_H 	H 	0.6666	0.1891	0.0494	0.077
Mof_C 	C 	0.5805	0.1173	0.0058	0.043
Mof_C 	C 	0.5286	0.0977	0.89335	0.044
Mof_H 	H 	0.5032	0.1608	0.8908	0.014
Mof_C 	C 	0.644	0.9741	0.04423	0.109
Mof_H 	H 	0.6409	0.0132	0.0706	-0.017
Mof_C 	C 	0.5131	0.0243	0.85849	-0.071
Mof_C 	C 	0.4571	0.0503	0.82446	-0.053
Mof_H 	H 	0.436	0.1161	0.8237	0.043
Mof_C 	C 	0.433	0.9811	0.79251	-0.033
Mof_C 	C 	0.4655	0.8838	0.7941	-0.141
Mof_H 	H 	0.4493	0.8369	0.7722	0.081
Mof_C 	C 	0.5204	0.8533	0.8263	0.143
Mof_C 	C 	0.5459	0.9246	0.85916	0.111
Mof_C 	C 	0.6634	0.8683	0.04953	-0.091
Mof_C 	C 	0.6731	0.8304	0.09416	-0.002
Mof_H 	H 	0.6717	0.8753	0.1186	0.041
Mof_C 	C 	0.6847	0.7282	0.102	-0.08
Mof_C 	C 	0.6882	0.6615	0.06553	-0.11
Mof_H 	H 	0.6974	0.5927	0.0712	0.075
Mof_C 	C 	0.6785	0.6936	0.02081	0.118
Mof_C 	C 	0.6666	0.7986	0.01272	0.119
Mof_C 	C 	0.5539	0.7472	0.8288	-0.63
Mof_H 	H 	0.5305	0.7122	0.8543	0.214
Mof_H 	H 	0.6117	0.7501	0.8324	0.217
Mof_H 	H 	0.541	0.7112	0.8013	0.208
Mof_C 	C 	0.6806	0.6213	0.9815	-0.587
Mof_H 	H 	0.6734	0.6585	0.9536	0.209
Mof_H 	H 	0.6379	0.5721	0.9847	0.19
Mof_H 	H 	0.732	0.5867	0.9809	0.186
Mof_C 	C 	0.3687	0.0062	0.7587	0.333
Mof_C 	C 	0.6905	0.6873	0.14989	0.41
Mof_N 	N 	0.5752	0.0832	0.92834	-0.194
Mof_N 	N 	0.6308	0.0195	0.00659	-0.211
Mof_O 	O 	0.5985	0.8949	0.88993	-0.333
Mof_O 	O 	0.6571	0.8275	0.97032	-0.339
Mof_O 	O 	0.3359	0.0903	0.75805	-0.516
Mof_O 	O 	0.3456	0.9379	0.73118	-0.443
Mof_O 	O 	0.6596	0.7392	0.1804	-0.488
Mof_O 	O 	0.721	0.6001	0.15338	-0.488
Mof_C 	C 	0.5984	0.1681	0.9607	0.024
Mof_C 	C 	0.6287	0.1352	0.003	-0.006
Mof_Fe	Fe	0.84951	0.04207	0.94088	0.883
Mof_C 	C 	0.9431	0.8511	0.9711	0.019
Mof_C 	C 	0.9512	0.7351	0.9576	-0.164
Mof_H 	H 	0.9081	0.7172	0.9366	0.071
Mof_H 	H 	0.0025	0.7244	0.9422	0.077
Mof_C 	C 	0.947	0.6693	0.9971	-0.02
Mof_H 	H 	0.9133	0.6116	0.9887	0.013
Mof_H 	H 	0.0011	0.6428	0.0021	0.022
Mof_C 	C 	0.9186	0.705	0.0395	-0.079
Mof_H 	H 	0.9614	0.6921	0.0614	0.043
Mof_H 	H 	0.8736	0.6614	0.048	0.044
Mof_C 	C 	0.892	0.8094	0.0467	-0.138
Mof_H 	H 	0.9147	0.8346	0.075	0.072
Mof_H 	H 	0.8334	0.8109	0.0494	0.076
Mof_C 	C 	0.9195	0.8827	0.0058	0.041
Mof_C 	C 	0.9714	0.9023	0.89335	0.048
Mof_H 	H 	0.9968	0.8392	0.8908	0.014
Mof_C 	C 	0.856	0.0259	0.04423	-0.003
Mof_H 	H 	0.8591	0.9868	0.0706	0.043
Mof_C 	C 	0.9869	0.9757	0.85849	-0.055
Mof_C 	C 	0.0429	0.9497	0.82446	0.009
Mof_H 	H 	0.064	0.8839	0.8237	0.024
Mof_C 	C 	0.067	0.0189	0.79251	-0.123
Mof_C 	C 	0.0345	0.1162	0.7941	-0.097
Mof_H 	H 	0.0507	0.1631	0.7722	0.064
Mof_C 	C 	0.9796	0.1467	0.8263	0.122
Mof_C 	C 	0.9541	0.0754	0.85916	0.091
Mof_C 	C 	0.8366	0.1317	0.04953	-0.046
Mof_C 	C 	0.8269	0.1696	0.09416	-0.032
Mof_H 	H 	0.8283	0.1247	0.1186	0.046
Mof_C 	C 	0.8153	0.2718	0.102	-0.065
Mof_C 	C 	0.8118	0.3385	0.06553	-0.126
Mof_H 	H 	0.8026	0.4073	0.0712	0.08
Mof_C 	C 	0.8215	0.3064	0.02081	0.135
Mof_C 	C 	0.8334	0.2014	0.01272	0.094
Mof_C 	C 	0.9461	0.2528	0.8288	-0.607
Mof_H 	H 	0.9695	0.2878	0.8543	0.207
Mof_H 	H 	0.8883	0.2499	0.8324	0.209
Mof_H 	H 	0.959	0.2888	0.8013	0.2
Mof_C 	C 	0.8194	0.3787	0.9815	-0.607
Mof_H 	H 	0.8266	0.3415	0.9536	0.215
Mof_H 	H 	0.8621	0.4279	0.9847	0.196
Mof_H 	H 	0.768	0.4133	0.9809	0.192
Mof_C 	C 	0.1313	0.9938	0.7587	0.415
Mof_C 	C 	0.8095	0.3127	0.14989	0.404
Mof_N 	N 	0.9248	0.9168	0.92834	-0.184
Mof_N 	N 	0.8692	0.9805	0.00659	-0.167
Mof_O 	O 	0.9015	0.1051	0.88993	-0.331
Mof_O 	O 	0.8429	0.1725	0.97032	-0.331
Mof_O 	O 	0.1641	0.9097	0.75805	-0.531
Mof_O 	O 	0.1544	0.0621	0.73118	-0.482
Mof_O 	O 	0.8404	0.2608	0.1804	-0.491
Mof_O 	O 	0.779	0.3999	0.15338	-0.487
Mof_C 	C 	0.9016	0.8319	0.9607	0.021
Mof_C 	C 	0.8713	0.8648	0.003	-0.007
Mof_Fe	Fe	0.15049	0.54207	0.44088	0.899
Mof_C 	C 	0.0569	0.3511	0.4711	0.014
Mof_C 	C 	0.0488	0.2351	0.4576	-0.17
Mof_H 	H 	0.0919	0.2172	0.4366	0.07
Mof_H 	H 	0.9975	0.2244	0.4422	0.079
Mof_C 	C 	0.053	0.1693	0.4971	-0.012
Mof_H 	H 	0.0867	0.1116	0.4887	0.007
Mof_H 	H 	0.9989	0.1428	0.5021	0.018
Mof_C 	C 	0.0814	0.205	0.5395	-0.085
Mof_H 	H 	0.0386	0.1921	0.5614	0.043
Mof_H 	H 	0.1264	0.1614	0.548	0.044
Mof_C 	C 	0.108	0.3094	0.5467	-0.134
Mof_H 	H 	0.0853	0.3346	0.575	0.069
Mof_H 	H 	0.1666	0.3109	0.5494	0.074
Mof_C 	C 	0.0805	0.3827	0.5058	0.043
Mof_C 	C 	0.0286	0.4023	0.39335	0.049
Mof_H 	H 	0.0032	0.3392	0.3908	0.012
Mof_C 	C 	0.144	0.5259	0.54423	0.053
Mof_H 	H 	0.1409	0.4868	0.5706	0.013
Mof_C 	C 	0.0131	0.4757	0.35849	-0.072
Mof_C 	C 	0.9571	0.4497	0.32446	-0.012
Mof_H 	H 	0.936	0.3839	0.3237	0.03
Mof_C 	C 	0.933	0.5189	0.29251	-0.086
Mof_C 	C 	0.9655	0.6162	0.2941	-0.112
Mof_H 	H 	0.9493	0.6631	0.2722	0.07
Mof_C 	C 	0.0204	0.6467	0.3263	0.127
Mof_C 	C 	0.0459	0.5754	0.35916	0.106
Mof_C 	C 	0.1634	0.6317	0.54953	-0.066
Mof_C 	C 	0.1731	0.6696	0.59416	-0.021
Mof_H 	H 	0.1717	0.6247	0.6186	0.045
Mof_C 	C 	0.1847	0.7718	0.602	-0.068
Mof_C 	C 	0.1882	0.8385	0.56553	-0.125
Mof_H 	H 	0.1974	0.9073	0.5712	0.083
Mof_C 	C 	0.1785	0.8064	0.52081	0.136
Mof_C 	C 	0.1666	0.7014	0.51272	0.102
Mof_C 	C 	0.0539	0.7528	0.3288	-0.614
Mof_H 	H 	0.0305	0.7878	0.3543	0.21
Mof_H 	H 	0.1117	0.7499	0.3324	0.213
Mof_H 	H 	0.041	0.7888	0.3013	0.203
Mof_C 	C 	0.1806	0.8787	0.4815	-0.616
Mof_H 	H 	0.1734	0.8415	0.4536	0.219
Mof_H 	H 	0.1379	0.9279	0.4847	0.203
Mof_H 	H 	0.232	0.9133	0.4809	0.199
Mof_C 	C 	0.8687	0.4938	0.2587	0.378
Mof_C 	C 	0.1905	0.8127	0.64989	0.405
Mof_N 	N 	0.0752	0.4168	0.42834	-0.19
Mof_N 	N 	0.1308	0.4805	0.50659	-0.189
Mof_O 	O 	0.0985	0.6051	0.38993	-0.333
Mof_O 	O 	0.1571	0.6725	0.47032	-0.333
Mof_O 	O 	0.8359	0.4097	0.25805	-0.525
Mof_O 	O 	0.8456	0.5621	0.23118	-0.464
Mof_O 	O 	0.1596	0.7608	0.6804	-0.488
Mof_O 	O 	0.221	0.8999	0.65338	-0.481
Mof_C 	C 	0.0984	0.3319	0.4607	0.026
Mof_C 	C 	0.1287	0.3648	0.503	-0.01
Mof_Fe	Fe	0.34951	0.45793	0.44088	0.9
Mof_C 	C 	0.4431	0.6489	0.4711	0.015
Mof_C 	C 	0.4512	0.7649	0.4576	-0.16
Mof_H 	H 	0.4081	0.7828	0.4366	0.07
Mof_H 	H 	0.5025	0.7756	0.4422	0.078
Mof_C 	C 	0.447	0.8307	0.4971	-0.033
Mof_H 	H 	0.4133	0.8884	0.4887	0.02
Mof_H 	H 	0.5011	0.8572	0.5021	0.029
Mof_C 	C 	0.4186	0.795	0.5395	-0.069
Mof_H 	H 	0.4614	0.8079	0.5614	0.04
Mof_H 	H 	0.3736	0.8386	0.548	0.043
Mof_C 	C 	0.392	0.6906	0.5467	-0.145
Mof_H 	H 	0.4147	0.6654	0.575	0.073
Mof_H 	H 	0.3334	0.6891	0.5494	0.077
Mof_C 	C 	0.4195	0.6173	0.5058	0.042
Mof_C 	C 	0.4714	0.5977	0.39335	0.049
Mof_H 	H 	0.4968	0.6608	0.3908	0.013
Mof_C 	C 	0.356	0.4741	0.54423	0.056
Mof_H 	H 	0.3591	0.5132	0.5706	0.012
Mof_C 	C 	0.4869	0.5243	0.35849	-0.07
Mof_C 	C 	0.5429	0.5503	0.32446	-0.014
Mof_H 	H 	0.564	0.6161	0.3237	0.032
Mof_C 	C 	0.567	0.4811	0.29251	-0.084
Mof_C 	C 	0.5345	0.3838	0.2941	-0.114
Mof_H 	H 	0.5507	0.3369	0.2722	0.071
Mof_C 	C 	0.4796	0.3533	0.3263	0.128
Mof_C 	C 	0.4541	0.4246	0.35916	0.105
Mof_C 	C 	0.3366	0.3683	0.54953	-0.072
Mof_C 	C 	0.3269	0.3304	0.59416	-0.013
Mof_H 	H 	0.3283	0.3753	0.6186	0.042
Mof_C 	C 	0.3153	0.2282	0.602	-0.078
Mof_C 	C 	0.3118	0.1615	0.56553	-0.111
Mof_H 	H 	0.3026	0.0927	0.5712	0.071
Mof_C 	C 	0.3215	0.1936	0.52081	0.117
Mof_C 	C 	0.3334	0.2986	0.51272	0.111
Mof_C 	C 	0.4461	0.2472	0.3288	-0.61
Mof_H 	H 	0.4695	0.2122	0.3543	0.207
Mof_H 	H 	0.3883	0.2501	0.3324	0.209
Mof_H 	H 	0.459	0.2112	0.3013	0.2
Mof_C 	C 	0.3194	0.1213	0.4815	-0.577
Mof_H 	H 	0.3266	0.1585	0.4536	0.205
Mof_H 	H 	0.3621	0.0721	0.4847	0.183
Mof_H 	H 	0.268	0.0867	0.4809	0.18
Mof_C 	C 	0.6313	0.5062	0.2587	0.378
Mof_C 	C 	0.3095	0.1873	0.64989	0.409
Mof_N 	N 	0.4248	0.5832	0.42834	-0.189
Mof_N 	N 	0.3692	0.5195	0.50659	-0.19
Mof_O 	O 	0.4015	0.3949	0.38993	-0.333
Mof_O 	O 	0.3429	0.3275	0.47032	-0.336
Mof_O 	O 	0.6641	0.5903	0.25805	-0.524
Mof_O 	O 	0.6544	0.4379	0.23118	-0.464
Mof_O 	O 	0.3404	0.2392	0.6804	-0.491
Mof_O 	O 	0.279	0.1001	0.65338	-0.492
Mof_C 	C 	0.4016	0.6681	0.4607	0.022
Mof_C 	C 	0.3713	0.6352	0.503	-0.006
Mof_Fe	Fe	0.34951	0.04207	0.05912	0.886
Mof_C 	C 	0.4431	0.8511	0.0289	0.019
Mof_C 	C 	0.4512	0.7351	0.0424	-0.167
Mof_H 	H 	0.4081	0.7172	0.0634	0.071
Mof_H 	H 	0.5025	0.7244	0.0578	0.079
Mof_C 	C 	0.447	0.6693	0.0029	-0.022
Mof_H 	H 	0.4133	0.6116	0.0113	0.013
Mof_H 	H 	0.5011	0.6428	0.9979	0.024
Mof_C 	C 	0.4186	0.705	0.9605	-0.077
Mof_H 	H 	0.4614	0.6921	0.9386	0.042
Mof_H 	H 	0.3736	0.6614	0.952	0.044
Mof_C 	C 	0.392	0.8094	0.9533	-0.139
Mof_H 	H 	0.4147	0.8346	0.925	0.072
Mof_H 	H 	0.3334	0.8109	0.9506	0.076
Mof_C 	C 	0.4195	0.8827	0.9942	0.04
Mof_C 	C 	0.4714	0.9023	0.10665	0.054
Mof_H 	H 	0.4968	0.8392	0.1092	0.011
Mof_C 	C 	0.356	0.0259	0.95577	0.006
Mof_H 	H 	0.3591	0.9868	0.9294	0.038
Mof_C 	C 	0.4869	0.9757	0.14151	-0.069
Mof_C 	C 	0.5429	0.9497	0.17554	0.028
Mof_H 	H 	0.564	0.8839	0.1763	0.019
Mof_C 	C 	0.567	0.0189	0.20749	-0.138
Mof_C 	C 	0.5345	0.1162	0.2059	-0.088
Mof_H 	H 	0.5507	0.1631	0.2278	0.061
Mof_C 	C 	0.4796	0.1467	0.1737	0.116
Mof_C 	C 	0.4541	0.0754	0.14084	0.1
Mof_C 	C 	0.3366	0.1317	0.95047	-0.05
Mof_C 	C 	0.3269	0.1696	0.90584	-0.03
Mof_H 	H 	0.3283	0.1247	0.8814	0.046
Mof_C 	C 	0.3153	0.2718	0.898	-0.066
Mof_C 	C 	0.3118	0.3385	0.93447	-0.124
Mof_H 	H 	0.3026	0.4073	0.9288	0.08
Mof_C 	C 	0.3215	0.3064	0.97919	0.133
Mof_C 	C 	0.3334	0.2014	0.98728	0.096
Mof_C 	C 	0.4461	0.2528	0.1712	-0.599
Mof_H 	H 	0.4695	0.2878	0.1457	0.205
Mof_H 	H 	0.3883	0.2499	0.1676	0.207
Mof_H 	H 	0.459	0.2888	0.1987	0.198
Mof_C 	C 	0.3194	0.3787	0.0185	-0.605
Mof_H 	H 	0.3266	0.3415	0.0464	0.215
Mof_H 	H 	0.3621	0.4279	0.0153	0.195
Mof_H 	H 	0.268	0.4133	0.0191	0.192
Mof_C 	C 	0.6313	0.9938	0.2413	0.426
Mof_C 	C 	0.3095	0.3127	0.85011	0.405
Mof_N 	N 	0.4248	0.9168	0.07166	-0.186
Mof_N 	N 	0.3692	0.9805	0.99341	-0.171
Mof_O 	O 	0.4015	0.1051	0.11007	-0.332
Mof_O 	O 	0.3429	0.1725	0.02968	-0.331
Mof_O 	O 	0.6641	0.9097	0.24195	-0.533
Mof_O 	O 	0.6544	0.0621	0.26882	-0.486
Mof_O 	O 	0.3404	0.2608	0.8196	-0.49
Mof_O 	O 	0.279	0.3999	0.84662	-0.487
Mof_C 	C 	0.4016	0.8319	0.0393	0.022
Mof_C 	C 	0.3713	0.8648	0.997	-0.006
Mof_Fe	Fe	0.15049	0.95793	0.05912	0.92
Mof_C 	C 	0.0569	0.1489	0.0289	0.01
Mof_C 	C 	0.0488	0.2649	0.0424	-0.157
Mof_H 	H 	0.0919	0.2828	0.0634	0.067
Mof_H 	H 	0.9975	0.2756	0.0578	0.075
Mof_C 	C 	0.053	0.3307	0.0029	-0.034
Mof_H 	H 	0.0867	0.3884	0.0113	0.017
Mof_H 	H 	0.9989	0.3572	0.9979	0.027
Mof_C 	C 	0.0814	0.295	0.9605	-0.067
Mof_H 	H 	0.0386	0.3079	0.9386	0.039
Mof_H 	H 	0.1264	0.3386	0.952	0.04
Mof_C 	C 	0.108	0.1906	0.9533	-0.146
Mof_H 	H 	0.0853	0.1654	0.925	0.073
Mof_H 	H 	0.1666	0.1891	0.9506	0.077
Mof_C 	C 	0.0805	0.1173	0.9942	0.044
Mof_C 	C 	0.0286	0.0977	0.10665	0.041
Mof_H 	H 	0.0032	0.1608	0.1092	0.016
Mof_C 	C 	0.144	0.9741	0.95577	0.099
Mof_H 	H 	0.1409	0.0132	0.9294	-0.012
Mof_C 	C 	0.0131	0.0243	0.14151	-0.061
Mof_C 	C 	0.9571	0.0503	0.17554	-0.066
Mof_H 	H 	0.936	0.1161	0.1763	0.047
Mof_C 	C 	0.933	0.9811	0.20749	-0.023
Mof_C 	C 	0.9655	0.8838	0.2059	-0.143
Mof_H 	H 	0.9493	0.8369	0.2278	0.082
Mof_C 	C 	0.0204	0.8533	0.1737	0.144
Mof_C 	C 	0.0459	0.9246	0.14084	0.105
Mof_C 	C 	0.1634	0.8683	0.95047	-0.087
Mof_C 	C 	0.1731	0.8304	0.90584	-0.005
Mof_H 	H 	0.1717	0.8753	0.8814	0.042
Mof_C 	C 	0.1847	0.7282	0.898	-0.079
Mof_C 	C 	0.1882	0.6615	0.93447	-0.111
Mof_H 	H 	0.1974	0.5927	0.9288	0.075
Mof_C 	C 	0.1785	0.6936	0.97919	0.119
Mof_C 	C 	0.1666	0.7986	0.98728	0.117
Mof_C 	C 	0.0539	0.7472	0.1712	-0.631
Mof_H 	H 	0.0305	0.7122	0.1457	0.214
Mof_H 	H 	0.1117	0.7501	0.1676	0.217
Mof_H 	H 	0.041	0.7112	0.1987	0.207
Mof_C 	C 	0.1806	0.6213	0.0185	-0.588
Mof_H 	H 	0.1734	0.6585	0.0464	0.21
Mof_H 	H 	0.1379	0.5721	0.0153	0.19
Mof_H 	H 	0.232	0.5867	0.0191	0.186
Mof_C 	C 	0.8687	0.0062	0.2413	0.325
Mof_C 	C 	0.1905	0.6873	0.85011	0.409
Mof_N 	N 	0.0752	0.0832	0.07166	-0.192
Mof_N 	N 	0.1308	0.0195	0.99341	-0.207
Mof_O 	O 	0.0985	0.8949	0.11007	-0.332
Mof_O 	O 	0.1571	0.8275	0.02968	-0.338
Mof_O 	O 	0.8359	0.0903	0.24195	-0.514
Mof_O 	O 	0.8456	0.9379	0.26882	-0.439
Mof_O 	O 	0.1596	0.7392	0.8196	-0.489
Mof_O 	O 	0.221	0.6001	0.84662	-0.488
Mof_C 	C 	0.0984	0.1681	0.0393	0.024
Mof_C 	C 	0.1287	0.1352	0.997	-0.007
Mof_Zn	Zn	0.25	0.5	0.80043	1.238
Mof_Zn	Zn	0.25	-1.58907e-32	0.69957	1.234
Mof_Zn	Zn	0.75	0.5	0.19957	1.238
Mof_Zn	Zn	0.75	0	0.30043	1.233
Mof_Zn	Zn	0.16108	0.75	0.75	1.205
Mof_Zn	Zn	0.33892	0.25	0.75	1.204
Mof_Zn	Zn	0.83892	0.25	0.25	1.203
Mof_Zn	Zn	0.66108	0.75	0.25	1.205
Mof_O 	O 	0.75	0.5	0.57327	-0.494
Mof_O 	O 	0.75	-1.58907e-32	0.92673	-0.505
Mof_O 	O 	0.25	0.5	0.42673	-0.494
Mof_O 	O 	0.25	0	0.07327	-0.503
_end
