data_functionalizedCrystal
_audit_creation_method	'EQeq! by Chris Wilmer'
_symmetry_space_group_name_H-M	'P1'
_symmetry_Int_Tables_number	1
_symmetry_cell_setting	triclinic
loop_
_symmetry_equiv_pos_as_xyz
  x,y,z
_cell_length_a	10.8212
_cell_length_b	10.8212
_cell_length_c	10.8212
_cell_angle_alpha	90
_cell_angle_beta	90
_cell_angle_gamma	90
loop_
_atom_site_label
_atom_site_type_symbol
_atom_site_fract_x
_atom_site_fract_y
_atom_site_fract_z
_atom_site_charge
Mof_O 	O 	0.246	0.107	0.022	-0.118
Mof_O 	O 	0.254	0.393	0.022	-0.118
Mof_O 	O 	0.254	0.107	0.478	-0.118
Mof_O 	O 	0.246	0.393	0.478	-0.118
Mof_O 	O 	0.022	0.246	0.107	-0.118
Mof_O 	O 	0.022	0.254	0.393	-0.118
Mof_O 	O 	0.478	0.254	0.107	-0.118
Mof_O 	O 	0.478	0.246	0.393	-0.118
Mof_O 	O 	0.107	0.022	0.246	-0.118
Mof_O 	O 	0.393	0.022	0.254	-0.118
Mof_O 	O 	0.107	0.478	0.254	-0.118
Mof_O 	O 	0.393	0.478	0.246	-0.118
Mof_O 	O 	0.607	0.746	0.978	-0.118
Mof_O 	O 	0.893	0.754	0.978	-0.118
Mof_O 	O 	0.607	0.754	0.522	-0.118
Mof_O 	O 	0.893	0.746	0.522	-0.118
Mof_O 	O 	0.746	0.522	0.893	-0.118
Mof_O 	O 	0.754	0.522	0.607	-0.118
Mof_O 	O 	0.754	0.978	0.893	-0.119
Mof_O 	O 	0.746	0.978	0.607	-0.119
Mof_O 	O 	0.522	0.607	0.754	-0.119
Mof_O 	O 	0.522	0.893	0.746	-0.119
Mof_O 	O 	0.978	0.607	0.746	-0.119
Mof_O 	O 	0.978	0.893	0.754	-0.119
Mof_O 	O 	0.754	0.893	0.978	-0.119
Mof_O 	O 	0.746	0.607	0.978	-0.119
Mof_O 	O 	0.746	0.893	0.522	-0.119
Mof_O 	O 	0.754	0.607	0.522	-0.119
Mof_O 	O 	0.978	0.754	0.893	-0.119
Mof_O 	O 	0.978	0.746	0.607	-0.119
Mof_O 	O 	0.522	0.746	0.893	-0.119
Mof_O 	O 	0.522	0.754	0.607	-0.119
Mof_O 	O 	0.893	0.978	0.754	-0.119
Mof_O 	O 	0.607	0.978	0.746	-0.119
Mof_O 	O 	0.893	0.522	0.746	-0.119
Mof_O 	O 	0.607	0.522	0.754	-0.119
Mof_O 	O 	0.393	0.254	0.022	-0.119
Mof_O 	O 	0.107	0.246	0.022	-0.119
Mof_O 	O 	0.393	0.246	0.478	-0.119
Mof_O 	O 	0.107	0.254	0.478	-0.119
Mof_O 	O 	0.254	0.478	0.107	-0.119
Mof_O 	O 	0.246	0.478	0.393	-0.119
Mof_O 	O 	0.246	0.022	0.107	-0.119
Mof_O 	O 	0.254	0.022	0.393	-0.119
Mof_O 	O 	0.478	0.393	0.246	-0.119
Mof_O 	O 	0.478	0.107	0.254	-0.119
Mof_O 	O 	0.022	0.393	0.254	-0.119
Mof_O 	O 	0.022	0.107	0.246	-0.119
Mof_Zn	Zn	0.25	0.25	0.25	1.307
Mof_Zn	Zn	0.75	0.75	0.75	1.307
Mof_O 	O 	0.1476	0.1476	0.1476	-0.45
Mof_C 	C 	0.0286	0.0286	0.0286	-0.104
Mof_O 	O 	0.3524	0.3524	0.1476	-0.45
Mof_C 	C 	0.4714	0.4714	0.0286	-0.104
Mof_O 	O 	0.3524	0.1476	0.3524	-0.45
Mof_C 	C 	0.4714	0.0286	0.4714	-0.104
Mof_O 	O 	0.1476	0.3524	0.3524	-0.45
Mof_C 	C 	0.0286	0.4714	0.4714	-0.104
Mof_O 	O 	0.6476	0.6476	0.8524	-0.45
Mof_C 	C 	0.5286	0.5286	0.9714	-0.104
Mof_O 	O 	0.8524	0.8524	0.8524	-0.45
Mof_C 	C 	0.9714	0.9714	0.9714	-0.104
Mof_O 	O 	0.6476	0.8524	0.6476	-0.45
Mof_C 	C 	0.5286	0.9714	0.5286	-0.104
Mof_O 	O 	0.8524	0.6476	0.6476	-0.45
Mof_C 	C 	0.9714	0.5286	0.5286	-0.104
Mof_C 	C 	0.166	0.08885	0.08885	-0.082
Mof_C 	C 	0.334	0.41115	0.08885	-0.082
Mof_C 	C 	0.334	0.08885	0.41115	-0.082
Mof_C 	C 	0.166	0.41115	0.41115	-0.082
Mof_C 	C 	0.08885	0.166	0.08885	-0.082
Mof_C 	C 	0.08885	0.334	0.41115	-0.082
Mof_C 	C 	0.41115	0.334	0.08885	-0.082
Mof_C 	C 	0.41115	0.166	0.41115	-0.082
Mof_C 	C 	0.08885	0.08885	0.166	-0.082
Mof_C 	C 	0.41115	0.08885	0.334	-0.082
Mof_C 	C 	0.08885	0.41115	0.334	-0.082
Mof_C 	C 	0.41115	0.41115	0.166	-0.082
Mof_C 	C 	0.58885	0.666	0.91115	-0.082
Mof_C 	C 	0.91115	0.834	0.91115	-0.082
Mof_C 	C 	0.58885	0.834	0.58885	-0.082
Mof_C 	C 	0.91115	0.666	0.58885	-0.082
Mof_C 	C 	0.666	0.58885	0.91115	-0.082
Mof_C 	C 	0.834	0.58885	0.58885	-0.082
Mof_C 	C 	0.834	0.91115	0.91115	-0.082
Mof_C 	C 	0.666	0.91115	0.58885	-0.082
Mof_C 	C 	0.58885	0.58885	0.834	-0.082
Mof_C 	C 	0.58885	0.91115	0.666	-0.082
Mof_C 	C 	0.91115	0.58885	0.666	-0.082
Mof_C 	C 	0.91115	0.91115	0.834	-0.082
Mof_C 	C 	0.1321	0.1321	0.0361	0.395
Mof_C 	C 	0.3679	0.3679	0.0361	0.395
Mof_C 	C 	0.3679	0.1321	0.4639	0.395
Mof_C 	C 	0.1321	0.3679	0.4639	0.395
Mof_C 	C 	0.0361	0.1321	0.1321	0.395
Mof_C 	C 	0.0361	0.3679	0.3679	0.395
Mof_C 	C 	0.4639	0.3679	0.1321	0.395
Mof_C 	C 	0.4639	0.1321	0.3679	0.395
Mof_C 	C 	0.1321	0.0361	0.1321	0.395
Mof_C 	C 	0.3679	0.0361	0.3679	0.395
Mof_C 	C 	0.1321	0.4639	0.3679	0.395
Mof_C 	C 	0.3679	0.4639	0.1321	0.395
Mof_C 	C 	0.6321	0.6321	0.9639	0.395
Mof_C 	C 	0.8679	0.8679	0.9639	0.395
Mof_C 	C 	0.6321	0.8679	0.5361	0.395
Mof_C 	C 	0.8679	0.6321	0.5361	0.395
Mof_C 	C 	0.6321	0.5361	0.8679	0.395
Mof_C 	C 	0.8679	0.5361	0.6321	0.395
Mof_C 	C 	0.8679	0.9639	0.8679	0.395
Mof_C 	C 	0.6321	0.9639	0.6321	0.395
Mof_C 	C 	0.5361	0.6321	0.8679	0.395
Mof_C 	C 	0.5361	0.8679	0.6321	0.395
Mof_C 	C 	0.9639	0.6321	0.6321	0.395
Mof_C 	C 	0.9639	0.8679	0.8679	0.395
_end
