data_functionalizedCrystal
_audit_creation_method	'EQeq! by Chris Wilmer'
_symmetry_space_group_name_H-M	'P1'
_symmetry_Int_Tables_number	1
_symmetry_cell_setting	triclinic
loop_
_symmetry_equiv_pos_as_xyz
  x,y,z
_cell_length_a	18.625
_cell_length_b	18.625
_cell_length_c	18.625
_cell_angle_alpha	60
_cell_angle_beta	60
_cell_angle_gamma	60
loop_
_atom_site_label
_atom_site_type_symbol
_atom_site_fract_x
_atom_site_fract_y
_atom_site_fract_z
_atom_site_charge
Mof_Ca	Ca	0.5	0.5	0.5	1.641
Mof_Ca	Ca	-1.24425e-17	2.48849e-17	0.5	1.002
Mof_Ca	Ca	-0	0.5	-0	1.002
Mof_Ca	Ca	-1.24425e-17	0.5	0.5	1.32
Mof_Ca	Ca	0.5	0.5	-0	1.328
Mof_Ca	Ca	-0	0	-0	0.685
Mof_Ca	Ca	0.5	2.48849e-17	0.5	1.328
Mof_Ca	Ca	0.5	0	-0	1.011
Mof_Lu	Lu	0.75	0.25	0.25	3.592
Mof_Lu	Lu	0.75	0.25	0.75	3.61
Mof_Lu	Lu	0.75	0.75	0.25	3.609
Mof_Lu	Lu	0.25	0.25	0.25	3.573
Mof_Lu	Lu	0.25	0.75	0.75	3.608
Mof_Lu	Lu	0.25	0.75	0.25	3.59
Mof_Lu	Lu	0.25	0.25	0.75	3.59
Mof_Lu	Lu	0.75	0.75	0.75	3.625
Mof_H 	H 	0.5163	0.4161	0.3447	0.079
Mof_H 	H 	0.5774	0.4736	0.2946	0.076
Mof_H 	H 	0.9161	0.0163	0.7229	0.071
Mof_H 	H 	0.9736	0.0774	0.6544	0.111
Mof_H 	H 	0.8447	0.7229	0.0163	0.044
Mof_H 	H 	0.7946	0.6544	0.0774	0.047
Mof_H 	H 	0.2229	0.3447	0.4161	0.079
Mof_H 	H 	0.1544	0.2946	0.4736	0.059
Mof_H 	H 	0.5163	0.3447	0.7229	0.086
Mof_H 	H 	0.5774	0.2946	0.6544	0.078
Mof_H 	H 	0.9161	0.7229	0.3447	0.135
Mof_H 	H 	0.9736	0.6544	0.2946	0.148
Mof_H 	H 	0.8447	0.0163	0.4161	0.037
Mof_H 	H 	0.7946	0.0774	0.4736	0.045
Mof_H 	H 	0.2229	0.4161	0.0163	0.012
Mof_H 	H 	0.1544	0.4736	0.0774	0.021
Mof_H 	H 	0.5163	0.7229	0.4161	0.087
Mof_H 	H 	0.5774	0.6544	0.4736	0.083
Mof_H 	H 	0.9161	0.3447	0.0163	0.063
Mof_H 	H 	0.9736	0.2946	0.0774	0.105
Mof_H 	H 	0.8447	0.4161	0.7229	0.109
Mof_H 	H 	0.7946	0.4736	0.6544	0.088
Mof_H 	H 	0.2229	0.0163	0.3447	0.01
Mof_H 	H 	0.1544	0.0774	0.2946	0.014
Mof_H 	H 	0.5839	0.4837	0.1553	0.063
Mof_H 	H 	0.5264	0.4226	0.2054	0.08
Mof_H 	H 	0.9837	0.0839	0.7771	0.113
Mof_H 	H 	0.9226	0.0264	0.8456	0.093
Mof_H 	H 	0.2771	0.1553	0.4837	0.056
Mof_H 	H 	0.3456	0.2054	0.4226	0.079
Mof_H 	H 	0.6553	0.7771	0.0839	0.043
Mof_H 	H 	0.7054	0.8456	0.0264	0.048
Mof_H 	H 	0.6553	0.4837	0.7771	0.086
Mof_H 	H 	0.7054	0.4226	0.8456	0.108
Mof_H 	H 	0.2771	0.0839	0.1553	0.01
Mof_H 	H 	0.3456	0.0264	0.2054	0.015
Mof_H 	H 	0.9837	0.1553	0.0839	0.092
Mof_H 	H 	0.9226	0.2054	0.0264	0.071
Mof_H 	H 	0.5839	0.7771	0.4837	0.085
Mof_H 	H 	0.5264	0.8456	0.4226	0.103
Mof_H 	H 	0.2771	0.4837	0.0839	0.03
Mof_H 	H 	0.3456	0.4226	0.0264	0.015
Mof_H 	H 	0.6553	0.0839	0.4837	0.039
Mof_H 	H 	0.7054	0.0264	0.4226	0.024
Mof_H 	H 	0.5839	0.1553	0.7771	0.067
Mof_H 	H 	0.5264	0.2054	0.8456	0.104
Mof_H 	H 	0.9837	0.7771	0.1553	0.138
Mof_H 	H 	0.9226	0.8456	0.2054	0.154
Mof_H 	H 	0.4837	0.5839	0.6553	0.083
Mof_H 	H 	0.4226	0.5264	0.7054	0.085
Mof_H 	H 	0.0839	0.9837	0.2771	0.102
Mof_H 	H 	0.0264	0.9226	0.3456	0.066
Mof_H 	H 	0.1553	0.2771	0.9837	0.129
Mof_H 	H 	0.2054	0.3456	0.9226	0.131
Mof_H 	H 	0.7771	0.6553	0.5839	0.086
Mof_H 	H 	0.8456	0.7054	0.5264	0.108
Mof_H 	H 	0.4837	0.6553	0.2771	0.077
Mof_H 	H 	0.4226	0.7054	0.3456	0.084
Mof_H 	H 	0.0839	0.2771	0.6553	0.031
Mof_H 	H 	0.0264	0.3456	0.7054	0.021
Mof_H 	H 	0.1553	0.9837	0.5839	0.134
Mof_H 	H 	0.2054	0.9226	0.5264	0.132
Mof_H 	H 	0.7771	0.5839	0.9837	0.153
Mof_H 	H 	0.8456	0.5264	0.9226	0.152
Mof_H 	H 	0.4837	0.2771	0.5839	0.076
Mof_H 	H 	0.4226	0.3456	0.5264	0.078
Mof_H 	H 	0.0839	0.6553	0.9837	0.108
Mof_H 	H 	0.0264	0.7054	0.9226	0.073
Mof_H 	H 	0.1553	0.5839	0.2771	0.056
Mof_H 	H 	0.2054	0.5264	0.3456	0.079
Mof_H 	H 	0.7771	0.9837	0.6553	0.153
Mof_H 	H 	0.8456	0.9226	0.7054	0.155
Mof_H 	H 	0.4161	0.5163	0.8447	0.103
Mof_H 	H 	0.4736	0.5774	0.7946	0.088
Mof_H 	H 	0.0163	0.9161	0.2229	0.061
Mof_H 	H 	0.0774	0.9736	0.1544	0.092
Mof_H 	H 	0.7229	0.8447	0.5163	0.108
Mof_H 	H 	0.6544	0.7946	0.5774	0.089
Mof_H 	H 	0.3447	0.2229	0.9161	0.128
Mof_H 	H 	0.2946	0.1544	0.9736	0.131
Mof_H 	H 	0.3447	0.5163	0.2229	0.079
Mof_H 	H 	0.2946	0.5774	0.1544	0.06
Mof_H 	H 	0.7229	0.9161	0.8447	0.152
Mof_H 	H 	0.6544	0.9736	0.7946	0.154
Mof_H 	H 	0.0163	0.8447	0.9161	0.082
Mof_H 	H 	0.0774	0.7946	0.9736	0.112
Mof_H 	H 	0.4161	0.2229	0.5163	0.08
Mof_H 	H 	0.4736	0.1544	0.5774	0.066
Mof_H 	H 	0.7229	0.5163	0.9161	0.134
Mof_H 	H 	0.6544	0.5774	0.9736	0.151
Mof_H 	H 	0.3447	0.9161	0.5163	0.128
Mof_H 	H 	0.2946	0.9736	0.5774	0.146
Mof_H 	H 	0.4161	0.8447	0.2229	0.103
Mof_H 	H 	0.4736	0.7946	0.1544	0.072
Mof_H 	H 	0.0163	0.2229	0.8447	0.034
Mof_H 	H 	0.0774	0.1544	0.7946	0.027
Mof_C 	C 	0.57704	0.41416	0.31792	-0.187
Mof_C 	C 	0.62192	0.35828	0.38552	0.514
Mof_C 	C 	0.91416	0.07704	0.69088	-0.182
Mof_C 	C 	0.85828	0.12192	0.63428	0.491
Mof_C 	C 	0.81792	0.69088	0.07704	-0.126
Mof_C 	C 	0.88552	0.63428	0.12192	0.462
Mof_C 	C 	0.19088	0.31792	0.41416	-0.178
Mof_C 	C 	0.13428	0.38552	0.35828	0.498
Mof_C 	C 	0.57704	0.31792	0.69088	-0.191
Mof_C 	C 	0.62192	0.38552	0.63428	0.518
Mof_C 	C 	0.91416	0.69088	0.31792	-0.24
Mof_C 	C 	0.85828	0.63428	0.38552	0.532
Mof_C 	C 	0.81792	0.07704	0.41416	-0.122
Mof_C 	C 	0.88552	0.12192	0.35828	0.459
Mof_C 	C 	0.19088	0.41416	0.07704	-0.118
Mof_C 	C 	0.13428	0.35828	0.12192	0.456
Mof_C 	C 	0.57704	0.69088	0.41416	-0.195
Mof_C 	C 	0.62192	0.63428	0.35828	0.52
Mof_C 	C 	0.91416	0.31792	0.07704	-0.174
Mof_C 	C 	0.85828	0.38552	0.12192	0.485
Mof_C 	C 	0.81792	0.41416	0.69088	-0.188
Mof_C 	C 	0.88552	0.35828	0.63428	0.505
Mof_C 	C 	0.19088	0.07704	0.31792	-0.113
Mof_C 	C 	0.13428	0.12192	0.38552	0.453
Mof_C 	C 	0.58584	0.42296	0.18208	-0.184
Mof_C 	C 	0.64172	0.37808	0.11448	0.501
Mof_C 	C 	0.92296	0.08584	0.80912	-0.17
Mof_C 	C 	0.87808	0.14172	0.86572	0.476
Mof_C 	C 	0.30912	0.18208	0.42296	-0.179
Mof_C 	C 	0.36572	0.11448	0.37808	0.497
Mof_C 	C 	0.68208	0.80912	0.08584	-0.126
Mof_C 	C 	0.61448	0.86572	0.14172	0.463
Mof_C 	C 	0.68208	0.42296	0.80912	-0.189
Mof_C 	C 	0.61448	0.37808	0.86572	0.504
Mof_C 	C 	0.30912	0.08584	0.18208	-0.113
Mof_C 	C 	0.36572	0.14172	0.11448	0.454
Mof_C 	C 	0.92296	0.18208	0.08584	-0.169
Mof_C 	C 	0.87808	0.11448	0.14172	0.474
Mof_C 	C 	0.58584	0.80912	0.42296	-0.186
Mof_C 	C 	0.64172	0.86572	0.37808	0.503
Mof_C 	C 	0.30912	0.42296	0.08584	-0.122
Mof_C 	C 	0.36572	0.37808	0.14172	0.47
Mof_C 	C 	0.68208	0.08584	0.42296	-0.133
Mof_C 	C 	0.61448	0.14172	0.37808	0.476
Mof_C 	C 	0.58584	0.18208	0.80912	-0.177
Mof_C 	C 	0.64172	0.11448	0.86572	0.488
Mof_C 	C 	0.92296	0.80912	0.18208	-0.224
Mof_C 	C 	0.87808	0.86572	0.11448	0.502
Mof_C 	C 	0.42296	0.58584	0.68208	-0.195
Mof_C 	C 	0.37808	0.64172	0.61448	0.519
Mof_C 	C 	0.08584	0.92296	0.30912	-0.169
Mof_C 	C 	0.14172	0.87808	0.36572	0.486
Mof_C 	C 	0.18208	0.30912	0.92296	-0.226
Mof_C 	C 	0.11448	0.36572	0.87808	0.513
Mof_C 	C 	0.80912	0.68208	0.58584	-0.188
Mof_C 	C 	0.86572	0.61448	0.64172	0.505
Mof_C 	C 	0.42296	0.68208	0.30912	-0.191
Mof_C 	C 	0.37808	0.61448	0.36572	0.516
Mof_C 	C 	0.08584	0.30912	0.68208	-0.125
Mof_C 	C 	0.14172	0.36572	0.61448	0.472
Mof_C 	C 	0.18208	0.92296	0.58584	-0.231
Mof_C 	C 	0.11448	0.87808	0.64172	0.516
Mof_C 	C 	0.80912	0.58584	0.92296	-0.23
Mof_C 	C 	0.86572	0.64172	0.87808	0.517
Mof_C 	C 	0.42296	0.30912	0.58584	-0.187
Mof_C 	C 	0.37808	0.36572	0.64172	0.514
Mof_C 	C 	0.08584	0.68208	0.92296	-0.177
Mof_C 	C 	0.14172	0.61448	0.87808	0.49
Mof_C 	C 	0.18208	0.58584	0.30912	-0.178
Mof_C 	C 	0.11448	0.64172	0.36572	0.498
Mof_C 	C 	0.80912	0.92296	0.68208	-0.231
Mof_C 	C 	0.86572	0.87808	0.61448	0.518
Mof_C 	C 	0.41416	0.57704	0.81792	-0.184
Mof_C 	C 	0.35828	0.62192	0.88552	0.504
Mof_C 	C 	0.07704	0.91416	0.19088	-0.166
Mof_C 	C 	0.12192	0.85828	0.13428	0.471
Mof_C 	C 	0.69088	0.81792	0.57704	-0.188
Mof_C 	C 	0.63428	0.88552	0.62192	0.506
Mof_C 	C 	0.31792	0.19088	0.91416	-0.227
Mof_C 	C 	0.38552	0.13428	0.85828	0.513
Mof_C 	C 	0.31792	0.57704	0.19088	-0.177
Mof_C 	C 	0.38552	0.62192	0.13428	0.499
Mof_C 	C 	0.69088	0.91416	0.81792	-0.232
Mof_C 	C 	0.63428	0.85828	0.88552	0.518
Mof_C 	C 	0.07704	0.81792	0.91416	-0.168
Mof_C 	C 	0.12192	0.88552	0.85828	0.472
Mof_C 	C 	0.41416	0.19088	0.57704	-0.182
Mof_C 	C 	0.35828	0.13428	0.62192	0.502
Mof_C 	C 	0.69088	0.57704	0.91416	-0.241
Mof_C 	C 	0.63428	0.62192	0.85828	0.534
Mof_C 	C 	0.31792	0.91416	0.57704	-0.235
Mof_C 	C 	0.38552	0.85828	0.62192	0.53
Mof_C 	C 	0.41416	0.81792	0.19088	-0.176
Mof_C 	C 	0.35828	0.88552	0.13428	0.488
Mof_C 	C 	0.07704	0.19088	0.81792	-0.111
Mof_C 	C 	0.12192	0.13428	0.88552	0.442
Mof_O 	O 	0.68872	0.29362	0.37114	-0.662
Mof_O 	O 	0.59087	0.37923	0.45171	-0.485
Mof_O 	O 	0.79362	0.18872	0.64652	-0.659
Mof_O 	O 	0.87923	0.09087	0.57819	-0.406
Mof_O 	O 	0.87114	0.64652	0.18872	-0.631
Mof_O 	O 	0.95171	0.57819	0.09087	-0.357
Mof_O 	O 	0.14652	0.37114	0.29362	-0.683
Mof_O 	O 	0.07819	0.45171	0.37923	-0.501
Mof_O 	O 	0.68872	0.37114	0.64652	-0.664
Mof_O 	O 	0.59087	0.45171	0.57819	-0.484
Mof_O 	O 	0.79362	0.64652	0.37114	-0.664
Mof_O 	O 	0.87923	0.57819	0.45171	-0.412
Mof_O 	O 	0.87114	0.18872	0.29362	-0.629
Mof_O 	O 	0.95171	0.09087	0.37923	-0.357
Mof_O 	O 	0.14652	0.29362	0.18872	-0.679
Mof_O 	O 	0.07819	0.37923	0.09087	-0.498
Mof_O 	O 	0.68872	0.64652	0.29362	-0.665
Mof_O 	O 	0.59087	0.57819	0.37923	-0.486
Mof_O 	O 	0.79362	0.37114	0.18872	-0.657
Mof_O 	O 	0.87923	0.45171	0.09087	-0.406
Mof_O 	O 	0.87114	0.29362	0.64652	-0.636
Mof_O 	O 	0.95171	0.37923	0.57819	-0.364
Mof_O 	O 	0.14652	0.18872	0.37114	-0.678
Mof_O 	O 	0.07819	0.09087	0.45171	-0.496
Mof_O 	O 	0.70638	0.31128	0.12886	-0.685
Mof_O 	O 	0.62077	0.40913	0.04829	-0.514
Mof_O 	O 	0.81128	0.20638	0.85348	-0.623
Mof_O 	O 	0.90913	0.12077	0.92181	-0.271
Mof_O 	O 	0.35348	0.12886	0.31128	-0.685
Mof_O 	O 	0.42181	0.04829	0.40913	-0.516
Mof_O 	O 	0.62886	0.85348	0.20638	-0.63
Mof_O 	O 	0.54829	0.92181	0.12077	-0.359
Mof_O 	O 	0.62886	0.31128	0.85348	-0.64
Mof_O 	O 	0.54829	0.40913	0.92181	-0.383
Mof_O 	O 	0.35348	0.20638	0.12886	-0.675
Mof_O 	O 	0.42181	0.12077	0.04829	-0.495
Mof_O 	O 	0.81128	0.12886	0.20638	-0.67
Mof_O 	O 	0.90913	0.04829	0.12077	-0.402
Mof_O 	O 	0.70638	0.85348	0.31128	-0.638
Mof_O 	O 	0.62077	0.92181	0.40913	-0.381
Mof_O 	O 	0.35348	0.31128	0.20638	-0.659
Mof_O 	O 	0.42181	0.40913	0.12077	-0.468
Mof_O 	O 	0.62886	0.20638	0.31128	-0.662
Mof_O 	O 	0.54829	0.12077	0.40913	-0.469
Mof_O 	O 	0.70638	0.12886	0.85348	-0.653
Mof_O 	O 	0.62077	0.04829	0.92181	-0.404
Mof_O 	O 	0.81128	0.85348	0.12886	-0.648
Mof_O 	O 	0.90913	0.92181	0.04829	-0.318
Mof_O 	O 	0.31128	0.70638	0.62886	-0.668
Mof_O 	O 	0.40913	0.62077	0.54829	-0.487
Mof_O 	O 	0.20638	0.81128	0.35348	-0.65
Mof_O 	O 	0.12077	0.90913	0.42181	-0.375
Mof_O 	O 	0.12886	0.35348	0.81128	-0.676
Mof_O 	O 	0.04829	0.42181	0.90913	-0.424
Mof_O 	O 	0.85348	0.62886	0.70638	-0.637
Mof_O 	O 	0.92181	0.54829	0.62077	-0.378
Mof_O 	O 	0.31128	0.62886	0.35348	-0.668
Mof_O 	O 	0.40913	0.54829	0.42181	-0.488
Mof_O 	O 	0.20638	0.35348	0.62886	-0.658
Mof_O 	O 	0.12077	0.42181	0.54829	-0.466
Mof_O 	O 	0.12886	0.81128	0.70638	-0.677
Mof_O 	O 	0.04829	0.90913	0.62077	-0.422
Mof_O 	O 	0.85348	0.70638	0.81128	-0.63
Mof_O 	O 	0.92181	0.62077	0.90913	-0.294
Mof_O 	O 	0.31128	0.35348	0.70638	-0.665
Mof_O 	O 	0.40913	0.42181	0.62077	-0.486
Mof_O 	O 	0.20638	0.62886	0.81128	-0.653
Mof_O 	O 	0.12077	0.54829	0.90913	-0.376
Mof_O 	O 	0.12886	0.70638	0.35348	-0.682
Mof_O 	O 	0.04829	0.62077	0.42181	-0.512
Mof_O 	O 	0.85348	0.81128	0.62886	-0.632
Mof_O 	O 	0.92181	0.90913	0.54829	-0.294
Mof_O 	O 	0.29362	0.68872	0.87114	-0.632
Mof_O 	O 	0.37923	0.59087	0.95171	-0.364
Mof_O 	O 	0.18872	0.79362	0.14652	-0.674
Mof_O 	O 	0.09087	0.87923	0.07819	-0.42
Mof_O 	O 	0.64652	0.87114	0.68872	-0.635
Mof_O 	O 	0.57819	0.95171	0.59087	-0.364
Mof_O 	O 	0.37114	0.14652	0.79362	-0.678
Mof_O 	O 	0.45171	0.07819	0.87923	-0.424
Mof_O 	O 	0.37114	0.68872	0.14652	-0.678
Mof_O 	O 	0.45171	0.59087	0.07819	-0.496
Mof_O 	O 	0.64652	0.79362	0.87114	-0.634
Mof_O 	O 	0.57819	0.87923	0.95171	-0.298
Mof_O 	O 	0.18872	0.87114	0.79362	-0.627
Mof_O 	O 	0.09087	0.95171	0.87923	-0.289
Mof_O 	O 	0.29362	0.14652	0.68872	-0.68
Mof_O 	O 	0.37923	0.07819	0.59087	-0.498
Mof_O 	O 	0.64652	0.68872	0.79362	-0.661
Mof_O 	O 	0.57819	0.59087	0.87923	-0.412
Mof_O 	O 	0.37114	0.79362	0.68872	-0.659
Mof_O 	O 	0.45171	0.87923	0.59087	-0.411
Mof_O 	O 	0.29362	0.87114	0.14652	-0.652
Mof_O 	O 	0.37923	0.95171	0.07819	-0.376
Mof_O 	O 	0.18872	0.14652	0.87114	-0.647
Mof_O 	O 	0.09087	0.07819	0.95171	-0.371
Mof_O 	O 	0.62074	0.37926	0.25	-0.415
Mof_O 	O 	0.87926	0.12074	0.75	-0.41
Mof_O 	O 	0.75	0.75	0.12074	-0.438
Mof_O 	O 	0.25	0.25	0.37926	-0.419
Mof_O 	O 	0.62074	0.25	0.75	-0.413
Mof_O 	O 	0.87926	0.75	0.25	-0.382
Mof_O 	O 	0.75	0.12074	0.37926	-0.44
Mof_O 	O 	0.25	0.37926	0.12074	-0.448
Mof_O 	O 	0.62074	0.75	0.37926	-0.407
Mof_O 	O 	0.87926	0.25	0.12074	-0.417
Mof_O 	O 	0.75	0.37926	0.75	-0.404
Mof_O 	O 	0.25	0.12074	0.25	-0.454
Mof_O 	O 	0.37926	0.62074	0.75	-0.407
Mof_O 	O 	0.12074	0.87926	0.25	-0.418
Mof_O 	O 	0.25	0.25	0.87926	-0.388
Mof_O 	O 	0.75	0.75	0.62074	-0.405
Mof_O 	O 	0.37926	0.75	0.25	-0.41
Mof_O 	O 	0.12074	0.25	0.75	-0.446
Mof_O 	O 	0.25	0.87926	0.62074	-0.385
Mof_O 	O 	0.75	0.62074	0.87926	-0.379
Mof_O 	O 	0.37926	0.25	0.62074	-0.414
Mof_O 	O 	0.12074	0.75	0.87926	-0.411
Mof_O 	O 	0.25	0.62074	0.25	-0.42
Mof_O 	O 	0.75	0.87926	0.75	-0.377
_end
