data_functionalizedCrystal
_audit_creation_method	'EQeq! by Chris Wilmer'
_symmetry_space_group_name_H-M	'P1'
_symmetry_Int_Tables_number	1
_symmetry_cell_setting	triclinic
loop_
_symmetry_equiv_pos_as_xyz
  x,y,z
_cell_length_a	31.1622
_cell_length_b	31.1622
_cell_length_c	11.1615
_cell_angle_alpha	90
_cell_angle_beta	90
_cell_angle_gamma	90
loop_
_atom_site_label
_atom_site_type_symbol
_atom_site_fract_x
_atom_site_fract_y
_atom_site_fract_z
_atom_site_charge
Mof_O 	O 	0.4554	0.215	0.442	-0.527
Mof_O 	O 	0.2736	0.0443	0.4182	-0.461
Mof_O 	O 	0.455	0.1912	0.26	-0.505
Mof_O 	O 	0.2978	0.0442	0.6102	-0.472
Mof_C 	C 	0.443	0.1921	0.3655	0.633
Mof_C 	C 	0.4076	0.1596	0.3974	-0.717
Mof_C 	C 	0.298	0.0565	0.5041	0.518
Mof_C 	C 	0.3319	0.0889	0.4717	-0.634
Mof_B 	B 	0.3588	0.1652	0.371	0.451
Mof_B 	B 	0.382	0.1574	0.513	0.215
Mof_B 	B 	0.3291	0.1387	0.49	0.337
Mof_B 	B 	0.4157	0.1155	0.46	0.424
Mof_B 	B 	0.3361	0.1124	0.341	0.213
Mof_B 	B 	0.3915	0.122	0.312	0.285
Mof_B 	B 	0.3754	0.0783	0.408	0.29
Mof_B 	B 	0.369	0.104	0.551	0.32
Mof_H 	H 	0.3471	0.19151	0.33148	-0.213
Mof_H 	H 	0.38739	0.17876	0.57846	-0.12
Mof_H 	H 	0.30348	0.15249	0.52715	-0.173
Mof_H 	H 	0.445	0.10571	0.48392	-0.206
Mof_H 	H 	0.31579	0.10732	0.2732	-0.126
Mof_H 	H 	0.40348	0.117	0.23019	-0.15
Mof_H 	H 	0.38329	0.04804	0.38722	-0.163
Mof_H 	H 	0.37253	0.09276	0.63405	-0.16
Mof_O 	O 	0.9554	0.715	0.942	-0.51
Mof_O 	O 	0.7736	0.5443	0.9182	-0.446
Mof_O 	O 	0.955	0.6912	0.76	-0.49
Mof_O 	O 	0.7978	0.5442	0.1102	-0.465
Mof_C 	C 	0.943	0.6921	0.8655	0.623
Mof_C 	C 	0.9076	0.6596	0.8974	-0.699
Mof_C 	C 	0.798	0.5565	0.0041	0.504
Mof_C 	C 	0.8319	0.5889	0.9717	-0.63
Mof_B 	B 	0.8588	0.6652	0.871	0.498
Mof_B 	B 	0.882	0.6574	0.013	0.096
Mof_B 	B 	0.8291	0.6387	0.99	0.477
Mof_B 	B 	0.9157	0.6155	0.96	0.522
Mof_B 	B 	0.8361	0.6124	0.841	0.139
Mof_B 	B 	0.8915	0.622	0.812	0.225
Mof_B 	B 	0.8754	0.5783	0.908	0.359
Mof_B 	B 	0.869	0.604	0.051	0.221
Mof_H 	H 	0.8471	0.69151	0.83148	-0.227
Mof_H 	H 	0.88739	0.67876	0.07846	-0.08
Mof_H 	H 	0.80348	0.65249	0.02715	-0.226
Mof_H 	H 	0.945	0.60571	0.98392	-0.229
Mof_H 	H 	0.81579	0.60732	0.7732	-0.095
Mof_H 	H 	0.90348	0.617	0.73019	-0.123
Mof_H 	H 	0.88329	0.54804	0.88722	-0.176
Mof_H 	H 	0.87253	0.59276	0.13405	-0.123
Mof_O 	O 	0.0446	0.285	0.942	-0.532
Mof_O 	O 	0.2264	0.4557	0.9182	-0.446
Mof_O 	O 	0.045	0.3088	0.76	-0.511
Mof_O 	O 	0.2022	0.4558	0.1102	-0.466
Mof_C 	C 	0.057	0.3079	0.8655	0.629
Mof_C 	C 	0.0924	0.3404	0.8974	-0.709
Mof_C 	C 	0.202	0.4435	0.0041	0.503
Mof_C 	C 	0.1681	0.4111	0.9717	-0.626
Mof_B 	B 	0.1412	0.3348	0.871	0.498
Mof_B 	B 	0.118	0.3426	0.013	0.111
Mof_B 	B 	0.1709	0.3613	0.99	0.463
Mof_B 	B 	0.0843	0.3845	0.96	0.514
Mof_B 	B 	0.1639	0.3876	0.841	0.142
Mof_B 	B 	0.1085	0.378	0.812	0.231
Mof_B 	B 	0.1246	0.4217	0.908	0.35
Mof_B 	B 	0.131	0.396	0.051	0.222
Mof_H 	H 	0.1529	0.30849	0.83148	-0.228
Mof_H 	H 	0.11261	0.32124	0.07846	-0.089
Mof_H 	H 	0.19652	0.34751	0.02715	-0.222
Mof_H 	H 	0.055	0.39429	0.98392	-0.239
Mof_H 	H 	0.18421	0.39268	0.7732	-0.098
Mof_H 	H 	0.09652	0.383	0.73019	-0.132
Mof_H 	H 	0.11671	0.45196	0.88722	-0.178
Mof_H 	H 	0.12747	0.40724	0.13405	-0.128
Mof_O 	O 	0.5446	0.785	0.442	-0.527
Mof_O 	O 	0.7264	0.9557	0.4182	-0.442
Mof_O 	O 	0.545	0.8088	0.26	-0.505
Mof_O 	O 	0.7022	0.9558	0.6102	-0.453
Mof_C 	C 	0.557	0.8079	0.3655	0.634
Mof_C 	C 	0.5924	0.8404	0.3974	-0.721
Mof_C 	C 	0.702	0.9435	0.5041	0.516
Mof_C 	C 	0.6681	0.9111	0.4717	-0.627
Mof_B 	B 	0.6412	0.8348	0.371	0.453
Mof_B 	B 	0.618	0.8426	0.513	0.217
Mof_B 	B 	0.6709	0.8613	0.49	0.331
Mof_B 	B 	0.5843	0.8845	0.46	0.43
Mof_B 	B 	0.6639	0.8876	0.341	0.214
Mof_B 	B 	0.6085	0.878	0.312	0.288
Mof_B 	B 	0.6246	0.9217	0.408	0.288
Mof_B 	B 	0.631	0.896	0.551	0.32
Mof_H 	H 	0.6529	0.80849	0.33148	-0.213
Mof_H 	H 	0.61261	0.82124	0.57846	-0.12
Mof_H 	H 	0.69652	0.84751	0.52715	-0.17
Mof_H 	H 	0.555	0.89429	0.48392	-0.202
Mof_H 	H 	0.68421	0.89268	0.2732	-0.121
Mof_H 	H 	0.59652	0.883	0.23019	-0.146
Mof_H 	H 	0.61671	0.95196	0.38722	-0.148
Mof_H 	H 	0.62747	0.90724	0.63405	-0.154
Mof_O 	O 	0.785	0.9554	0.692	-0.513
Mof_O 	O 	0.9557	0.7736	0.6682	-0.442
Mof_O 	O 	0.8088	0.955	0.51	-0.491
Mof_O 	O 	0.9558	0.7978	0.8602	-0.452
Mof_C 	C 	0.8079	0.943	0.6155	0.629
Mof_C 	C 	0.8404	0.9076	0.6474	-0.716
Mof_C 	C 	0.9435	0.798	0.7541	0.517
Mof_C 	C 	0.9111	0.8319	0.7217	-0.629
Mof_B 	B 	0.8348	0.8588	0.621	0.451
Mof_B 	B 	0.8426	0.882	0.763	0.214
Mof_B 	B 	0.8613	0.8291	0.74	0.334
Mof_B 	B 	0.8845	0.9157	0.71	0.43
Mof_B 	B 	0.8876	0.8361	0.591	0.216
Mof_B 	B 	0.878	0.8915	0.562	0.287
Mof_B 	B 	0.9217	0.8754	0.658	0.291
Mof_B 	B 	0.896	0.869	0.801	0.323
Mof_H 	H 	0.80849	0.8471	0.58148	-0.211
Mof_H 	H 	0.82124	0.88739	0.82846	-0.116
Mof_H 	H 	0.84751	0.80348	0.77715	-0.17
Mof_H 	H 	0.89429	0.945	0.73392	-0.195
Mof_H 	H 	0.89268	0.81579	0.5232	-0.121
Mof_H 	H 	0.883	0.90348	0.48019	-0.142
Mof_H 	H 	0.95196	0.88329	0.63722	-0.147
Mof_H 	H 	0.90724	0.87253	0.88405	-0.152
Mof_O 	O 	0.285	0.4554	0.192	-0.528
Mof_O 	O 	0.4557	0.2736	0.1682	-0.457
Mof_O 	O 	0.3088	0.455	0.01	-0.508
Mof_O 	O 	0.4558	0.2978	0.3602	-0.468
Mof_C 	C 	0.3079	0.443	0.1155	0.629
Mof_C 	C 	0.3404	0.4076	0.1474	-0.708
Mof_C 	C 	0.4435	0.298	0.2541	0.521
Mof_C 	C 	0.4111	0.3319	0.2217	-0.641
Mof_B 	B 	0.3348	0.3588	0.121	0.48
Mof_B 	B 	0.3426	0.382	0.263	0.18
Mof_B 	B 	0.3613	0.3291	0.24	0.337
Mof_B 	B 	0.3845	0.4157	0.21	0.453
Mof_B 	B 	0.3876	0.3361	0.091	0.227
Mof_B 	B 	0.378	0.3915	0.062	0.226
Mof_B 	B 	0.4217	0.3754	0.158	0.301
Mof_B 	B 	0.396	0.369	0.301	0.325
Mof_H 	H 	0.30849	0.3471	0.08148	-0.224
Mof_H 	H 	0.32124	0.38739	0.32846	-0.109
Mof_H 	H 	0.34751	0.30348	0.27715	-0.173
Mof_H 	H 	0.39429	0.445	0.23392	-0.214
Mof_H 	H 	0.39268	0.31579	0.0232	-0.129
Mof_H 	H 	0.383	0.40348	0.98019	-0.12
Mof_H 	H 	0.45196	0.38329	0.13722	-0.161
Mof_H 	H 	0.40724	0.37253	0.38405	-0.159
Mof_O 	O 	0.715	0.5446	0.192	-0.527
Mof_O 	O 	0.5443	0.7264	0.1682	-0.456
Mof_O 	O 	0.6912	0.545	0.01	-0.508
Mof_O 	O 	0.5442	0.7022	0.3602	-0.467
Mof_C 	C 	0.6921	0.557	0.1155	0.629
Mof_C 	C 	0.6596	0.5924	0.1474	-0.708
Mof_C 	C 	0.5565	0.702	0.2541	0.521
Mof_C 	C 	0.5889	0.6681	0.2217	-0.641
Mof_B 	B 	0.6652	0.6412	0.121	0.481
Mof_B 	B 	0.6574	0.618	0.263	0.179
Mof_B 	B 	0.6387	0.6709	0.24	0.337
Mof_B 	B 	0.6155	0.5843	0.21	0.454
Mof_B 	B 	0.6124	0.6639	0.091	0.228
Mof_B 	B 	0.622	0.6085	0.062	0.224
Mof_B 	B 	0.5783	0.6246	0.158	0.302
Mof_B 	B 	0.604	0.631	0.301	0.325
Mof_H 	H 	0.69151	0.6529	0.08148	-0.223
Mof_H 	H 	0.67876	0.61261	0.32846	-0.108
Mof_H 	H 	0.65249	0.69652	0.27715	-0.172
Mof_H 	H 	0.60571	0.555	0.23392	-0.214
Mof_H 	H 	0.60732	0.68421	0.0232	-0.129
Mof_H 	H 	0.617	0.59652	0.98019	-0.12
Mof_H 	H 	0.54804	0.61671	0.13722	-0.161
Mof_H 	H 	0.59276	0.62747	0.38405	-0.159
Mof_O 	O 	0.215	0.0446	0.692	-0.535
Mof_O 	O 	0.0443	0.2264	0.6682	-0.462
Mof_O 	O 	0.1912	0.045	0.51	-0.513
Mof_O 	O 	0.0442	0.2022	0.8602	-0.474
Mof_C 	C 	0.1921	0.057	0.6155	0.633
Mof_C 	C 	0.1596	0.0924	0.6474	-0.721
Mof_C 	C 	0.0565	0.202	0.7541	0.517
Mof_C 	C 	0.0889	0.1681	0.7217	-0.633
Mof_B 	B 	0.1652	0.1412	0.621	0.453
Mof_B 	B 	0.1574	0.118	0.763	0.217
Mof_B 	B 	0.1387	0.1709	0.74	0.336
Mof_B 	B 	0.1155	0.0843	0.71	0.423
Mof_B 	B 	0.1124	0.1639	0.591	0.212
Mof_B 	B 	0.122	0.1085	0.562	0.285
Mof_B 	B 	0.0783	0.1246	0.658	0.287
Mof_B 	B 	0.104	0.131	0.801	0.318
Mof_H 	H 	0.19151	0.1529	0.58148	-0.213
Mof_H 	H 	0.17876	0.11261	0.82846	-0.123
Mof_H 	H 	0.15249	0.19652	0.77715	-0.172
Mof_H 	H 	0.10571	0.055	0.73392	-0.212
Mof_H 	H 	0.10732	0.18421	0.5232	-0.126
Mof_H 	H 	0.117	0.09652	0.48019	-0.153
Mof_H 	H 	0.04804	0.11671	0.63722	-0.165
Mof_H 	H 	0.09276	0.12747	0.88405	-0.162
Mof_O 	O 	0.4554	0.785	0.442	-0.527
Mof_O 	O 	0.2736	0.9557	0.4182	-0.442
Mof_O 	O 	0.455	0.8088	0.26	-0.505
Mof_O 	O 	0.2978	0.9558	0.6102	-0.453
Mof_C 	C 	0.443	0.8079	0.3655	0.633
Mof_C 	C 	0.4076	0.8404	0.3974	-0.721
Mof_C 	C 	0.298	0.9435	0.5041	0.516
Mof_C 	C 	0.3319	0.9111	0.4717	-0.627
Mof_B 	B 	0.3588	0.8348	0.371	0.453
Mof_B 	B 	0.382	0.8426	0.513	0.217
Mof_B 	B 	0.3291	0.8613	0.49	0.331
Mof_B 	B 	0.4157	0.8845	0.46	0.43
Mof_B 	B 	0.3361	0.8876	0.341	0.214
Mof_B 	B 	0.3915	0.878	0.312	0.288
Mof_B 	B 	0.3754	0.9217	0.408	0.288
Mof_B 	B 	0.369	0.896	0.551	0.321
Mof_H 	H 	0.3471	0.80849	0.33148	-0.213
Mof_H 	H 	0.38739	0.82124	0.57846	-0.12
Mof_H 	H 	0.30348	0.84751	0.52715	-0.17
Mof_H 	H 	0.445	0.89429	0.48392	-0.202
Mof_H 	H 	0.31579	0.89268	0.2732	-0.122
Mof_H 	H 	0.40348	0.883	0.23019	-0.146
Mof_H 	H 	0.38329	0.95196	0.38722	-0.148
Mof_H 	H 	0.37253	0.90724	0.63405	-0.154
Mof_O 	O 	0.9554	0.285	0.942	-0.511
Mof_O 	O 	0.7736	0.4557	0.9182	-0.446
Mof_O 	O 	0.955	0.3088	0.76	-0.491
Mof_O 	O 	0.7978	0.4558	0.1102	-0.464
Mof_C 	C 	0.943	0.3079	0.8655	0.624
Mof_C 	C 	0.9076	0.3404	0.8974	-0.699
Mof_C 	C 	0.798	0.4435	0.0041	0.504
Mof_C 	C 	0.8319	0.4111	0.9717	-0.63
Mof_B 	B 	0.8588	0.3348	0.871	0.498
Mof_B 	B 	0.882	0.3426	0.013	0.097
Mof_B 	B 	0.8291	0.3613	0.99	0.477
Mof_B 	B 	0.9157	0.3845	0.96	0.522
Mof_B 	B 	0.8361	0.3876	0.841	0.139
Mof_B 	B 	0.8915	0.378	0.812	0.225
Mof_B 	B 	0.8754	0.4217	0.908	0.358
Mof_B 	B 	0.869	0.396	0.051	0.221
Mof_H 	H 	0.8471	0.30849	0.83148	-0.227
Mof_H 	H 	0.88739	0.32124	0.07846	-0.081
Mof_H 	H 	0.80348	0.34751	0.02715	-0.226
Mof_H 	H 	0.945	0.39429	0.98392	-0.229
Mof_H 	H 	0.81579	0.39268	0.7732	-0.096
Mof_H 	H 	0.90348	0.383	0.73019	-0.123
Mof_H 	H 	0.88329	0.45196	0.88722	-0.176
Mof_H 	H 	0.87253	0.40724	0.13405	-0.123
Mof_O 	O 	0.0446	0.715	0.942	-0.532
Mof_O 	O 	0.2264	0.5443	0.9182	-0.446
Mof_O 	O 	0.045	0.6912	0.76	-0.511
Mof_O 	O 	0.2022	0.5442	0.1102	-0.466
Mof_C 	C 	0.057	0.6921	0.8655	0.629
Mof_C 	C 	0.0924	0.6596	0.8974	-0.709
Mof_C 	C 	0.202	0.5565	0.0041	0.503
Mof_C 	C 	0.1681	0.5889	0.9717	-0.626
Mof_B 	B 	0.1412	0.6652	0.871	0.498
Mof_B 	B 	0.118	0.6574	0.013	0.11
Mof_B 	B 	0.1709	0.6387	0.99	0.464
Mof_B 	B 	0.0843	0.6155	0.96	0.514
Mof_B 	B 	0.1639	0.6124	0.841	0.142
Mof_B 	B 	0.1085	0.622	0.812	0.23
Mof_B 	B 	0.1246	0.5783	0.908	0.35
Mof_B 	B 	0.131	0.604	0.051	0.222
Mof_H 	H 	0.1529	0.69151	0.83148	-0.228
Mof_H 	H 	0.11261	0.67876	0.07846	-0.089
Mof_H 	H 	0.19652	0.65249	0.02715	-0.222
Mof_H 	H 	0.055	0.60571	0.98392	-0.239
Mof_H 	H 	0.18421	0.60732	0.7732	-0.098
Mof_H 	H 	0.09652	0.617	0.73019	-0.131
Mof_H 	H 	0.11671	0.54804	0.88722	-0.178
Mof_H 	H 	0.12747	0.59276	0.13405	-0.128
Mof_O 	O 	0.5446	0.215	0.442	-0.528
Mof_O 	O 	0.7264	0.0443	0.4182	-0.462
Mof_O 	O 	0.545	0.1912	0.26	-0.506
Mof_O 	O 	0.7022	0.0442	0.6102	-0.473
Mof_C 	C 	0.557	0.1921	0.3655	0.632
Mof_C 	C 	0.5924	0.1596	0.3974	-0.718
Mof_C 	C 	0.702	0.0565	0.5041	0.518
Mof_C 	C 	0.6681	0.0889	0.4717	-0.634
Mof_B 	B 	0.6412	0.1652	0.371	0.451
Mof_B 	B 	0.618	0.1574	0.513	0.215
Mof_B 	B 	0.6709	0.1387	0.49	0.337
Mof_B 	B 	0.5843	0.1155	0.46	0.424
Mof_B 	B 	0.6639	0.1124	0.341	0.213
Mof_B 	B 	0.6085	0.122	0.312	0.285
Mof_B 	B 	0.6246	0.0783	0.408	0.29
Mof_B 	B 	0.631	0.104	0.551	0.319
Mof_H 	H 	0.6529	0.19151	0.33148	-0.212
Mof_H 	H 	0.61261	0.17876	0.57846	-0.12
Mof_H 	H 	0.69652	0.15249	0.52715	-0.172
Mof_H 	H 	0.555	0.10571	0.48392	-0.206
Mof_H 	H 	0.68421	0.10732	0.2732	-0.125
Mof_H 	H 	0.59652	0.117	0.23019	-0.15
Mof_H 	H 	0.61671	0.04804	0.38722	-0.163
Mof_H 	H 	0.62747	0.09276	0.63405	-0.16
Mof_O 	O 	0.785	0.0446	0.692	-0.534
Mof_O 	O 	0.9557	0.2264	0.6682	-0.442
Mof_O 	O 	0.8088	0.045	0.51	-0.512
Mof_O 	O 	0.9558	0.2022	0.8602	-0.453
Mof_C 	C 	0.8079	0.057	0.6155	0.634
Mof_C 	C 	0.8404	0.0924	0.6474	-0.724
Mof_C 	C 	0.9435	0.202	0.7541	0.515
Mof_C 	C 	0.9111	0.1681	0.7217	-0.626
Mof_B 	B 	0.8348	0.1412	0.621	0.455
Mof_B 	B 	0.8426	0.118	0.763	0.219
Mof_B 	B 	0.8613	0.1709	0.74	0.33
Mof_B 	B 	0.8845	0.0843	0.71	0.429
Mof_B 	B 	0.8876	0.1639	0.591	0.214
Mof_B 	B 	0.878	0.1085	0.562	0.288
Mof_B 	B 	0.9217	0.1246	0.658	0.286
Mof_B 	B 	0.896	0.131	0.801	0.319
Mof_H 	H 	0.80849	0.1529	0.58148	-0.213
Mof_H 	H 	0.82124	0.11261	0.82846	-0.122
Mof_H 	H 	0.84751	0.19652	0.77715	-0.169
Mof_H 	H 	0.89429	0.055	0.73392	-0.208
Mof_H 	H 	0.89268	0.18421	0.5232	-0.121
Mof_H 	H 	0.883	0.09652	0.48019	-0.149
Mof_H 	H 	0.95196	0.11671	0.63722	-0.15
Mof_H 	H 	0.90724	0.12747	0.88405	-0.156
Mof_O 	O 	0.285	0.5446	0.192	-0.528
Mof_O 	O 	0.4557	0.7264	0.1682	-0.456
Mof_O 	O 	0.3088	0.545	0.01	-0.508
Mof_O 	O 	0.4558	0.7022	0.3602	-0.467
Mof_C 	C 	0.3079	0.557	0.1155	0.629
Mof_C 	C 	0.3404	0.5924	0.1474	-0.708
Mof_C 	C 	0.4435	0.702	0.2541	0.521
Mof_C 	C 	0.4111	0.6681	0.2217	-0.641
Mof_B 	B 	0.3348	0.6412	0.121	0.48
Mof_B 	B 	0.3426	0.618	0.263	0.18
Mof_B 	B 	0.3613	0.6709	0.24	0.337
Mof_B 	B 	0.3845	0.5843	0.21	0.454
Mof_B 	B 	0.3876	0.6639	0.091	0.227
Mof_B 	B 	0.378	0.6085	0.062	0.226
Mof_B 	B 	0.4217	0.6246	0.158	0.301
Mof_B 	B 	0.396	0.631	0.301	0.324
Mof_H 	H 	0.30849	0.6529	0.08148	-0.223
Mof_H 	H 	0.32124	0.61261	0.32846	-0.109
Mof_H 	H 	0.34751	0.69652	0.27715	-0.172
Mof_H 	H 	0.39429	0.555	0.23392	-0.214
Mof_H 	H 	0.39268	0.68421	0.0232	-0.129
Mof_H 	H 	0.383	0.59652	0.98019	-0.12
Mof_H 	H 	0.45196	0.61671	0.13722	-0.161
Mof_H 	H 	0.40724	0.62747	0.38405	-0.159
Mof_O 	O 	0.715	0.4554	0.192	-0.527
Mof_O 	O 	0.5443	0.2736	0.1682	-0.457
Mof_O 	O 	0.6912	0.455	0.01	-0.508
Mof_O 	O 	0.5442	0.2978	0.3602	-0.468
Mof_C 	C 	0.6921	0.443	0.1155	0.629
Mof_C 	C 	0.6596	0.4076	0.1474	-0.708
Mof_C 	C 	0.5565	0.298	0.2541	0.521
Mof_C 	C 	0.5889	0.3319	0.2217	-0.641
Mof_B 	B 	0.6652	0.3588	0.121	0.481
Mof_B 	B 	0.6574	0.382	0.263	0.179
Mof_B 	B 	0.6387	0.3291	0.24	0.337
Mof_B 	B 	0.6155	0.4157	0.21	0.454
Mof_B 	B 	0.6124	0.3361	0.091	0.228
Mof_B 	B 	0.622	0.3915	0.062	0.224
Mof_B 	B 	0.5783	0.3754	0.158	0.302
Mof_B 	B 	0.604	0.369	0.301	0.325
Mof_H 	H 	0.69151	0.3471	0.08148	-0.224
Mof_H 	H 	0.67876	0.38739	0.32846	-0.108
Mof_H 	H 	0.65249	0.30348	0.27715	-0.173
Mof_H 	H 	0.60571	0.445	0.23392	-0.214
Mof_H 	H 	0.60732	0.31579	0.0232	-0.129
Mof_H 	H 	0.617	0.40348	0.98019	-0.12
Mof_H 	H 	0.54804	0.38329	0.13722	-0.161
Mof_H 	H 	0.59276	0.37253	0.38405	-0.159
Mof_O 	O 	0.215	0.9554	0.692	-0.514
Mof_O 	O 	0.0443	0.7736	0.6682	-0.462
Mof_O 	O 	0.1912	0.955	0.51	-0.493
Mof_O 	O 	0.0442	0.7978	0.8602	-0.472
Mof_C 	C 	0.1921	0.943	0.6155	0.628
Mof_C 	C 	0.1596	0.9076	0.6474	-0.713
Mof_C 	C 	0.0565	0.798	0.7541	0.519
Mof_C 	C 	0.0889	0.8319	0.7217	-0.636
Mof_B 	B 	0.1652	0.8588	0.621	0.449
Mof_B 	B 	0.1574	0.882	0.763	0.212
Mof_B 	B 	0.1387	0.8291	0.74	0.34
Mof_B 	B 	0.1155	0.9157	0.71	0.425
Mof_B 	B 	0.1124	0.8361	0.591	0.214
Mof_B 	B 	0.122	0.8915	0.562	0.284
Mof_B 	B 	0.0783	0.8754	0.658	0.292
Mof_B 	B 	0.104	0.869	0.801	0.322
Mof_H 	H 	0.19151	0.8471	0.58148	-0.211
Mof_H 	H 	0.17876	0.88739	0.82846	-0.117
Mof_H 	H 	0.15249	0.80348	0.77715	-0.173
Mof_H 	H 	0.10571	0.945	0.73392	-0.199
Mof_H 	H 	0.10732	0.81579	0.5232	-0.125
Mof_H 	H 	0.117	0.90348	0.48019	-0.147
Mof_H 	H 	0.04804	0.88329	0.63722	-0.161
Mof_H 	H 	0.09276	0.87253	0.88405	-0.159
Mof_Cu	Cu	0.5	0.22939	0.1955	0.904
Mof_Cu	Cu	0.5	0.25836	0.4219	0.912
Mof_Cu	Cu	3.26303e-33	0.27061	0.6955	0.892
Mof_Cu	Cu	-1.09096e-33	0.24164	0.9219	0.899
Mof_Cu	Cu	0.77061	0	0.4455	0.892
Mof_Cu	Cu	0.74164	-2.32901e-33	0.6719	0.9
Mof_Cu	Cu	0.27061	0.5	0.9455	0.908
Mof_Cu	Cu	0.24164	0.5	0.1719	0.911
Mof_Cu	Cu	0.72939	0.5	0.9455	0.908
Mof_Cu	Cu	0.75836	0.5	0.1719	0.911
Mof_Cu	Cu	0.22939	0	0.4455	0.892
Mof_Cu	Cu	0.25836	-2.32901e-33	0.6719	0.9
Mof_Cu	Cu	0.5	0.77061	0.1955	0.905
Mof_Cu	Cu	0.5	0.74164	0.4219	0.912
Mof_Cu	Cu	9.34014e-34	0.72939	0.6955	0.892
Mof_Cu	Cu	1.23806e-33	0.75836	0.9219	0.9
_end
