data_functionalizedCrystal
_audit_creation_method	'EQeq! by Chris Wilmer'
_symmetry_space_group_name_H-M	'P1'
_symmetry_Int_Tables_number	1
_symmetry_cell_setting	triclinic
loop_
_symmetry_equiv_pos_as_xyz
  x,y,z
_cell_length_a	18.707
_cell_length_b	10.182
_cell_length_c	20.353
_cell_angle_alpha	90
_cell_angle_beta	90
_cell_angle_gamma	90
loop_
_atom_site_label
_atom_site_type_symbol
_atom_site_fract_x
_atom_site_fract_y
_atom_site_fract_z
_atom_site_charge
Mof_C 	C 	0.57841	0.6224	0.43932	0.386
Mof_C 	C 	0.61453	0.7404	0.41151	-0.066
Mof_C 	C 	0.58594	0.8645	0.42217	-0.015
Mof_H 	H 	0.5461	0.8743	0.449	0.06
Mof_C 	C 	0.6163	0.9727	0.39322	-0.031
Mof_C 	C 	0.67682	0.9599	0.35374	-0.105
Mof_H 	H 	0.6975	0.0337	0.3346	0.091
Mof_C 	C 	0.7061	0.8358	0.34317	0.141
Mof_C 	C 	0.67462	0.7263	0.37109	-0.095
Mof_H 	H 	0.6934	0.6432	0.363	0.082
Mof_C 	C 	0.58766	0.1081	0.40525	0.287
Mof_C 	C 	0.77333	0.8885	0.24599	0.221
Mof_C 	C 	0.91571	0.9627	0.12178	0.053
Mof_H 	H 	0.9241	0.0272	0.0904	-0.008
Mof_C 	C 	0.85544	0.9703	0.16169	-0.091
Mof_H 	H 	0.8234	0.0393	0.1565	0.079
Mof_C 	C 	0.84305	0.8756	0.20905	0.005
Mof_C 	C 	0.89126	0.772	0.2163	-0.088
Mof_H 	H 	0.8836	0.7078	0.248	0.075
Mof_C 	C 	0.95082	0.7657	0.17576	0.052
Mof_H 	H 	0.983	0.6967	0.1805	0.02
Mof_N 	N 	0.76784	0.8227	0.30326	-0.249
Mof_H 	H 	0.8021	0.7723	0.3157	0.157
Mof_N 	N 	0.96302	0.86	0.12865	-0.197
Mof_Ni	Ni	0.45082	0.66328	0.55143	1.073
Mof_O 	O 	0.60166	0.51163	0.42456	-0.428
Mof_O 	O 	0.52552	0.63889	0.47548	-0.455
Mof_O 	O 	0.53322	0.11926	0.44064	-0.356
Mof_O 	O 	0.6175	0.20601	0.38105	-0.368
Mof_O 	O 	0.72645	0.9547	0.22332	-0.234
Mof_C 	C 	0.42159	0.3776	0.56068	0.387
Mof_C 	C 	0.38547	0.2596	0.58849	-0.065
Mof_C 	C 	0.41406	0.1355	0.57783	-0.014
Mof_H 	H 	0.4539	0.1257	0.551	0.061
Mof_C 	C 	0.3837	0.0273	0.60678	-0.03
Mof_C 	C 	0.32318	0.0401	0.64626	-0.104
Mof_H 	H 	0.3025	0.9663	0.6654	0.091
Mof_C 	C 	0.2939	0.1642	0.65683	0.141
Mof_C 	C 	0.32538	0.2737	0.62891	-0.095
Mof_H 	H 	0.3066	0.3568	0.637	0.082
Mof_C 	C 	0.41234	0.8919	0.59475	0.287
Mof_C 	C 	0.22667	0.1115	0.75401	0.221
Mof_C 	C 	0.08429	0.0373	0.87822	0.053
Mof_H 	H 	0.0759	0.9728	0.9096	-0.008
Mof_C 	C 	0.14456	0.0297	0.83831	-0.091
Mof_H 	H 	0.1766	0.9607	0.8435	0.079
Mof_C 	C 	0.15695	0.1244	0.79095	0.005
Mof_C 	C 	0.10874	0.228	0.7837	-0.088
Mof_H 	H 	0.1164	0.2922	0.752	0.075
Mof_C 	C 	0.04918	0.2343	0.82424	0.052
Mof_H 	H 	0.017	0.3033	0.8195	0.02
Mof_N 	N 	0.23216	0.1773	0.69674	-0.249
Mof_H 	H 	0.1979	0.2277	0.6843	0.157
Mof_N 	N 	0.03698	0.14	0.87135	-0.197
Mof_Ni	Ni	0.54918	0.33672	0.44857	1.073
Mof_O 	O 	0.39834	0.48837	0.57544	-0.428
Mof_O 	O 	0.47448	0.36111	0.52452	-0.455
Mof_O 	O 	0.46678	0.88074	0.55936	-0.356
Mof_O 	O 	0.3825	0.79399	0.61895	-0.368
Mof_O 	O 	0.27355	0.0453	0.77668	-0.234
Mof_C 	C 	0.92159	0.8776	0.93932	0.387
Mof_C 	C 	0.88547	0.7596	0.91151	-0.065
Mof_C 	C 	0.91406	0.6355	0.92217	-0.014
Mof_H 	H 	0.9539	0.6257	0.949	0.061
Mof_C 	C 	0.8837	0.5273	0.89322	-0.03
Mof_C 	C 	0.82318	0.5401	0.85374	-0.104
Mof_H 	H 	0.8025	0.4663	0.8346	0.091
Mof_C 	C 	0.7939	0.6642	0.84317	0.141
Mof_C 	C 	0.82538	0.7737	0.87109	-0.095
Mof_H 	H 	0.8066	0.8568	0.863	0.082
Mof_C 	C 	0.91234	0.3919	0.90525	0.287
Mof_C 	C 	0.72667	0.6115	0.74599	0.221
Mof_C 	C 	0.58429	0.5373	0.62178	0.054
Mof_H 	H 	0.5759	0.4728	0.5904	-0.009
Mof_C 	C 	0.64456	0.5297	0.66169	-0.091
Mof_H 	H 	0.6766	0.4607	0.6565	0.078
Mof_C 	C 	0.65695	0.6244	0.70905	0.005
Mof_C 	C 	0.60874	0.728	0.7163	-0.088
Mof_H 	H 	0.6164	0.7922	0.748	0.075
Mof_C 	C 	0.54918	0.7343	0.67576	0.052
Mof_H 	H 	0.517	0.8033	0.6805	0.02
Mof_N 	N 	0.73216	0.6773	0.80326	-0.249
Mof_H 	H 	0.6979	0.7277	0.8157	0.157
Mof_N 	N 	0.53698	0.64	0.62865	-0.197
Mof_Ni	Ni	0.04918	0.83672	0.05143	1.073
Mof_O 	O 	0.89834	0.98837	0.92456	-0.428
Mof_O 	O 	0.97448	0.86111	0.97548	-0.455
Mof_O 	O 	0.96678	0.38074	0.94064	-0.357
Mof_O 	O 	0.8825	0.29399	0.88105	-0.368
Mof_O 	O 	0.77355	0.5453	0.72332	-0.233
Mof_C 	C 	0.07841	0.1224	0.06068	0.387
Mof_C 	C 	0.11453	0.2404	0.08849	-0.065
Mof_C 	C 	0.08594	0.3645	0.07783	-0.014
Mof_H 	H 	0.0461	0.3743	0.051	0.061
Mof_C 	C 	0.1163	0.4727	0.10678	-0.03
Mof_C 	C 	0.17682	0.4599	0.14626	-0.104
Mof_H 	H 	0.1975	0.5337	0.1654	0.091
Mof_C 	C 	0.2061	0.3358	0.15683	0.141
Mof_C 	C 	0.17462	0.2263	0.12891	-0.095
Mof_H 	H 	0.1934	0.1432	0.137	0.082
Mof_C 	C 	0.08766	0.6081	0.09475	0.287
Mof_C 	C 	0.27333	0.3885	0.25401	0.221
Mof_C 	C 	0.41571	0.4627	0.37822	0.054
Mof_H 	H 	0.4241	0.5272	0.4096	-0.009
Mof_C 	C 	0.35544	0.4703	0.33831	-0.091
Mof_H 	H 	0.3234	0.5393	0.3435	0.078
Mof_C 	C 	0.34305	0.3756	0.29095	0.005
Mof_C 	C 	0.39126	0.272	0.2837	-0.088
Mof_H 	H 	0.3836	0.2078	0.252	0.075
Mof_C 	C 	0.45082	0.2657	0.32424	0.052
Mof_H 	H 	0.483	0.1967	0.3195	0.02
Mof_N 	N 	0.26784	0.3227	0.19674	-0.249
Mof_H 	H 	0.3021	0.2723	0.1843	0.157
Mof_N 	N 	0.46302	0.36	0.37135	-0.197
Mof_Ni	Ni	0.95082	0.16328	0.94857	1.073
Mof_O 	O 	0.10166	0.01163	0.07544	-0.428
Mof_O 	O 	0.02552	0.13889	0.02452	-0.455
Mof_O 	O 	0.03322	0.61926	0.05936	-0.357
Mof_O 	O 	0.1175	0.70601	0.11895	-0.368
Mof_O 	O 	0.22645	0.4547	0.27668	-0.233
Mof_C 	C 	0.42159	0.6224	0.06068	0.387
Mof_C 	C 	0.38547	0.7404	0.08849	-0.065
Mof_C 	C 	0.41406	0.8645	0.07783	-0.014
Mof_H 	H 	0.4539	0.8743	0.051	0.06
Mof_C 	C 	0.3837	0.9727	0.10678	-0.031
Mof_C 	C 	0.32318	0.9599	0.14626	-0.105
Mof_H 	H 	0.3025	0.0337	0.1654	0.091
Mof_C 	C 	0.2939	0.8358	0.15683	0.141
Mof_C 	C 	0.32538	0.7263	0.12891	-0.095
Mof_H 	H 	0.3066	0.6432	0.137	0.082
Mof_C 	C 	0.41234	0.1081	0.09475	0.288
Mof_C 	C 	0.22667	0.8885	0.25401	0.221
Mof_C 	C 	0.08429	0.9627	0.37822	0.054
Mof_H 	H 	0.0759	0.0272	0.4096	-0.009
Mof_C 	C 	0.14456	0.9703	0.33831	-0.091
Mof_H 	H 	0.1766	0.0393	0.3435	0.078
Mof_C 	C 	0.15695	0.8756	0.29095	0.005
Mof_C 	C 	0.10874	0.772	0.2837	-0.088
Mof_H 	H 	0.1164	0.7078	0.252	0.075
Mof_C 	C 	0.04918	0.7657	0.32424	0.052
Mof_H 	H 	0.017	0.6967	0.3195	0.019
Mof_N 	N 	0.23216	0.8227	0.19674	-0.249
Mof_H 	H 	0.1979	0.7723	0.1843	0.157
Mof_N 	N 	0.03698	0.86	0.37135	-0.197
Mof_Ni	Ni	0.54918	0.66328	0.94857	1.073
Mof_O 	O 	0.39834	0.51163	0.07544	-0.428
Mof_O 	O 	0.47448	0.63889	0.02452	-0.455
Mof_O 	O 	0.46678	0.11926	0.05936	-0.356
Mof_O 	O 	0.3825	0.20601	0.11895	-0.368
Mof_O 	O 	0.27355	0.9547	0.27668	-0.234
Mof_C 	C 	0.57841	0.3776	0.93932	0.387
Mof_C 	C 	0.61453	0.2596	0.91151	-0.065
Mof_C 	C 	0.58594	0.1355	0.92217	-0.014
Mof_H 	H 	0.5461	0.1257	0.949	0.06
Mof_C 	C 	0.6163	0.0273	0.89322	-0.031
Mof_C 	C 	0.67682	0.0401	0.85374	-0.105
Mof_H 	H 	0.6975	0.9663	0.8346	0.091
Mof_C 	C 	0.7061	0.1642	0.84317	0.141
Mof_C 	C 	0.67462	0.2737	0.87109	-0.095
Mof_H 	H 	0.6934	0.3568	0.863	0.082
Mof_C 	C 	0.58766	0.8919	0.90525	0.288
Mof_C 	C 	0.77333	0.1115	0.74599	0.221
Mof_C 	C 	0.91571	0.0373	0.62178	0.054
Mof_H 	H 	0.9241	0.9728	0.5904	-0.009
Mof_C 	C 	0.85544	0.0297	0.66169	-0.091
Mof_H 	H 	0.8234	0.9607	0.6565	0.078
Mof_C 	C 	0.84305	0.1244	0.70905	0.005
Mof_C 	C 	0.89126	0.228	0.7163	-0.088
Mof_H 	H 	0.8836	0.2922	0.748	0.075
Mof_C 	C 	0.95082	0.2343	0.67576	0.052
Mof_H 	H 	0.983	0.3033	0.6805	0.019
Mof_N 	N 	0.76784	0.1773	0.80326	-0.249
Mof_H 	H 	0.8021	0.2277	0.8157	0.157
Mof_N 	N 	0.96302	0.14	0.62865	-0.197
Mof_Ni	Ni	0.45082	0.33672	0.05143	1.073
Mof_O 	O 	0.60166	0.48837	0.92456	-0.428
Mof_O 	O 	0.52552	0.36111	0.97548	-0.455
Mof_O 	O 	0.53322	0.88074	0.94064	-0.356
Mof_O 	O 	0.6175	0.79399	0.88105	-0.368
Mof_O 	O 	0.72645	0.0453	0.72332	-0.234
Mof_C 	C 	0.07841	0.8776	0.56068	0.387
Mof_C 	C 	0.11453	0.7596	0.58849	-0.065
Mof_C 	C 	0.08594	0.6355	0.57783	-0.014
Mof_H 	H 	0.0461	0.6257	0.551	0.061
Mof_C 	C 	0.1163	0.5273	0.60678	-0.03
Mof_C 	C 	0.17682	0.5401	0.64626	-0.104
Mof_H 	H 	0.1975	0.4663	0.6654	0.091
Mof_C 	C 	0.2061	0.6642	0.65683	0.141
Mof_C 	C 	0.17462	0.7737	0.62891	-0.095
Mof_H 	H 	0.1934	0.8568	0.637	0.082
Mof_C 	C 	0.08766	0.3919	0.59475	0.287
Mof_C 	C 	0.27333	0.6115	0.75401	0.221
Mof_C 	C 	0.41571	0.5373	0.87822	0.054
Mof_H 	H 	0.4241	0.4728	0.9096	-0.009
Mof_C 	C 	0.35544	0.5297	0.83831	-0.091
Mof_H 	H 	0.3234	0.4607	0.8435	0.078
Mof_C 	C 	0.34305	0.6244	0.79095	0.005
Mof_C 	C 	0.39126	0.728	0.7837	-0.088
Mof_H 	H 	0.3836	0.7922	0.752	0.075
Mof_C 	C 	0.45082	0.7343	0.82424	0.052
Mof_H 	H 	0.483	0.8033	0.8195	0.02
Mof_N 	N 	0.26784	0.6773	0.69674	-0.249
Mof_H 	H 	0.3021	0.7277	0.6843	0.157
Mof_N 	N 	0.46302	0.64	0.87135	-0.197
Mof_Ni	Ni	0.95082	0.83672	0.44857	1.073
Mof_O 	O 	0.10166	0.98837	0.57544	-0.428
Mof_O 	O 	0.02552	0.86111	0.52452	-0.455
Mof_O 	O 	0.03322	0.38074	0.55936	-0.356
Mof_O 	O 	0.1175	0.29399	0.61895	-0.368
Mof_O 	O 	0.22645	0.5453	0.77668	-0.233
Mof_C 	C 	0.92159	0.1224	0.43932	0.387
Mof_C 	C 	0.88547	0.2404	0.41151	-0.065
Mof_C 	C 	0.91406	0.3645	0.42217	-0.014
Mof_H 	H 	0.9539	0.3743	0.449	0.061
Mof_C 	C 	0.8837	0.4727	0.39322	-0.03
Mof_C 	C 	0.82318	0.4599	0.35374	-0.104
Mof_H 	H 	0.8025	0.5337	0.3346	0.091
Mof_C 	C 	0.7939	0.3358	0.34317	0.141
Mof_C 	C 	0.82538	0.2263	0.37109	-0.095
Mof_H 	H 	0.8066	0.1432	0.363	0.082
Mof_C 	C 	0.91234	0.6081	0.40525	0.287
Mof_C 	C 	0.72667	0.3885	0.24599	0.221
Mof_C 	C 	0.58429	0.4627	0.12178	0.054
Mof_H 	H 	0.5759	0.5272	0.0904	-0.009
Mof_C 	C 	0.64456	0.4703	0.16169	-0.091
Mof_H 	H 	0.6766	0.5393	0.1565	0.078
Mof_C 	C 	0.65695	0.3756	0.20905	0.005
Mof_C 	C 	0.60874	0.272	0.2163	-0.088
Mof_H 	H 	0.6164	0.2078	0.248	0.075
Mof_C 	C 	0.54918	0.2657	0.17576	0.052
Mof_H 	H 	0.517	0.1967	0.1805	0.02
Mof_N 	N 	0.73216	0.3227	0.30326	-0.249
Mof_H 	H 	0.6979	0.2723	0.3157	0.157
Mof_N 	N 	0.53698	0.36	0.12865	-0.197
Mof_Ni	Ni	0.04918	0.16328	0.55143	1.073
Mof_O 	O 	0.89834	0.01163	0.42456	-0.428
Mof_O 	O 	0.97448	0.13889	0.47548	-0.455
Mof_O 	O 	0.96678	0.61926	0.44064	-0.356
Mof_O 	O 	0.8825	0.70601	0.38105	-0.368
Mof_O 	O 	0.77355	0.4547	0.22332	-0.233
_end
