# CIF file generated by openbabel 3.1.0, see https://openbabel.org
data_I
_chemical_name_common 'image0'
_cell_length_a 20.1405
_cell_length_b 20.1405
_cell_length_c 20.1405
_cell_angle_alpha 90
_cell_angle_beta 90
_cell_angle_gamma 90
_space_group_name_H-M_alt 'P 1'
_space_group_name_Hall 'P 1'
loop_
    _symmetry_equiv_pos_as_xyz
    x,y,z
loop_
    _atom_site_label
    _atom_site_type_symbol
    _atom_site_fract_x
    _atom_site_fract_y
    _atom_site_fract_z
    _atom_site_occupancy
    Zn1      Zn       0.30330    0.80890    0.19697    1.000
    Zn2      Zn       0.30332    0.80404    0.80794    1.000
    C1       C        0.20990    0.70800    0.96380    1.000
    H1       H        0.18300    0.67210    0.97840    1.000
    C2       C        0.24150    0.75260    0.00540    1.000
    C3       C        0.23880    0.75570    0.07480    1.000
    C4       C        0.29020    0.77980    0.96130    1.000
    H2       H        0.33070    0.79970    0.97480    1.000
    C5       C        0.23730    0.95261    0.71060    1.000
    H3       H        0.23530    0.95640    0.66360    1.000
    C6       C        0.29330    0.96976    0.78410    1.000
    H4       H        0.32520    0.98920    0.81290    1.000
    C7       C        0.25090    0.00330    0.73660    1.000
    N1       N        0.27040    0.77300    0.89810    1.000
    N2       N        0.22230    0.72220    0.90090    1.000
    N3       N        0.22530    0.89640    0.72980    1.000
    N4       N        0.27540    0.89690    0.77780    1.000
    O1       O        0.27770    0.79220    0.10580    1.000
    O2       O        0.20470    0.72680    0.10650    1.000
    Zn3      Zn       0.19670    0.19110    0.69697    1.000
    Zn4      Zn       0.19668    0.19596    0.30794    1.000
    C8       C        0.29010    0.29200    0.46380    1.000
    H5       H        0.31700    0.32790    0.47840    1.000
    C9       C        0.25850    0.24740    0.50540    1.000
    C10      C        0.26120    0.24430    0.57480    1.000
    C11      C        0.20980    0.22020    0.46130    1.000
    H6       H        0.16930    0.20030    0.47480    1.000
    C12      C        0.26270    0.04739    0.21060    1.000
    H7       H        0.26470    0.04360    0.16360    1.000
    C13      C        0.20670    0.03024    0.28410    1.000
    H8       H        0.17480    0.01080    0.31290    1.000
    C14      C        0.24910    0.99670    0.23660    1.000
    N5       N        0.22960    0.22700    0.39810    1.000
    N6       N        0.27770    0.27780    0.40090    1.000
    N7       N        0.27470    0.10360    0.22980    1.000
    N8       N        0.22460    0.10310    0.27780    1.000
    O3       O        0.22230    0.20780    0.60580    1.000
    O4       O        0.29530    0.27320    0.60650    1.000
    Zn5      Zn       0.69670    0.30890    0.30303    1.000
    Zn6      Zn       0.69668    0.30404    0.69206    1.000
    C15      C        0.79010    0.20800    0.53620    1.000
    H9       H        0.81700    0.17210    0.52160    1.000
    C16      C        0.75850    0.25260    0.49460    1.000
    C17      C        0.76120    0.25570    0.42520    1.000
    C18      C        0.70980    0.27980    0.53870    1.000
    H10      H        0.66930    0.29970    0.52520    1.000
    C19      C        0.76270    0.45261    0.78940    1.000
    H11      H        0.76470    0.45640    0.83640    1.000
    C20      C        0.70670    0.46976    0.71590    1.000
    H12      H        0.67480    0.48920    0.68710    1.000
    C21      C        0.74910    0.50330    0.76340    1.000
    N9       N        0.72960    0.27300    0.60190    1.000
    N10      N        0.77770    0.22220    0.59910    1.000
    N11      N        0.77470    0.39640    0.77020    1.000
    N12      N        0.72460    0.39690    0.72220    1.000
    O5       O        0.72230    0.29220    0.39420    1.000
    O6       O        0.79530    0.22680    0.39350    1.000
    Zn7      Zn       0.80330    0.69110    0.80303    1.000
    Zn8      Zn       0.80332    0.69596    0.19206    1.000
    C22      C        0.70990    0.79200    0.03620    1.000
    H13      H        0.68300    0.82790    0.02160    1.000
    C23      C        0.74150    0.74740    0.99460    1.000
    C24      C        0.73880    0.74430    0.92520    1.000
    C25      C        0.79020    0.72020    0.03870    1.000
    H14      H        0.83070    0.70030    0.02520    1.000
    C26      C        0.73730    0.54739    0.28940    1.000
    H15      H        0.73530    0.54360    0.33640    1.000
    C27      C        0.79330    0.53024    0.21590    1.000
    H16      H        0.82520    0.51080    0.18710    1.000
    C28      C        0.75090    0.49670    0.26340    1.000
    N13      N        0.77040    0.72700    0.10190    1.000
    N14      N        0.72230    0.77780    0.09910    1.000
    N15      N        0.72530    0.60360    0.27020    1.000
    N16      N        0.77540    0.60310    0.22220    1.000
    O7       O        0.77770    0.70780    0.89420    1.000
    O8       O        0.70470    0.77320    0.89350    1.000
    Zn9      Zn       0.19697    0.30330    0.80890    1.000
    Zn10     Zn       0.80794    0.30332    0.80404    1.000
    C29      C        0.96380    0.20990    0.70800    1.000
    H17      H        0.97840    0.18300    0.67210    1.000
    C30      C        0.00540    0.24150    0.75260    1.000
    C31      C        0.07480    0.23880    0.75570    1.000
    C32      C        0.96130    0.29020    0.77980    1.000
    H18      H        0.97480    0.33070    0.79970    1.000
    C33      C        0.71060    0.23730    0.95261    1.000
    H19      H        0.66360    0.23530    0.95640    1.000
    C34      C        0.78410    0.29330    0.96976    1.000
    H20      H        0.81290    0.32520    0.98920    1.000
    C35      C        0.73660    0.25090    0.00330    1.000
    N17      N        0.89810    0.27040    0.77300    1.000
    N18      N        0.90090    0.22230    0.72220    1.000
    N19      N        0.72980    0.22530    0.89640    1.000
    N20      N        0.77780    0.27540    0.89690    1.000
    O9       O        0.10580    0.27770    0.79220    1.000
    O10      O        0.10650    0.20470    0.72680    1.000
    Zn11     Zn       0.69697    0.19670    0.19110    1.000
    Zn12     Zn       0.30794    0.19668    0.19596    1.000
    C36      C        0.46380    0.29010    0.29200    1.000
    H21      H        0.47840    0.31700    0.32790    1.000
    C37      C        0.50540    0.25850    0.24740    1.000
    C38      C        0.57480    0.26120    0.24430    1.000
    C39      C        0.46130    0.20980    0.22020    1.000
    H22      H        0.47480    0.16930    0.20030    1.000
    C40      C        0.21060    0.26270    0.04739    1.000
    H23      H        0.16360    0.26470    0.04360    1.000
    C41      C        0.28410    0.20670    0.03024    1.000
    H24      H        0.31290    0.17480    0.01080    1.000
    C42      C        0.23660    0.24910    0.99670    1.000
    N21      N        0.39810    0.22960    0.22700    1.000
    N22      N        0.40090    0.27770    0.27780    1.000
    N23      N        0.22980    0.27470    0.10360    1.000
    N24      N        0.27780    0.22460    0.10310    1.000
    O11      O        0.60580    0.22230    0.20780    1.000
    O12      O        0.60650    0.29530    0.27320    1.000
    Zn13     Zn       0.30303    0.69670    0.30890    1.000
    Zn14     Zn       0.69206    0.69668    0.30404    1.000
    C43      C        0.53620    0.79010    0.20800    1.000
    H25      H        0.52160    0.81700    0.17210    1.000
    C44      C        0.49460    0.75850    0.25260    1.000
    C45      C        0.42520    0.76120    0.25570    1.000
    C46      C        0.53870    0.70980    0.27980    1.000
    H26      H        0.52520    0.66930    0.29970    1.000
    C47      C        0.78940    0.76270    0.45261    1.000
    H27      H        0.83640    0.76470    0.45640    1.000
    C48      C        0.71590    0.70670    0.46976    1.000
    H28      H        0.68710    0.67480    0.48920    1.000
    C49      C        0.76340    0.74910    0.50330    1.000
    N25      N        0.60190    0.72960    0.27300    1.000
    N26      N        0.59910    0.77770    0.22220    1.000
    N27      N        0.77020    0.77470    0.39640    1.000
    N28      N        0.72220    0.72460    0.39690    1.000
    O13      O        0.39420    0.72230    0.29220    1.000
    O14      O        0.39350    0.79530    0.22680    1.000
    Zn15     Zn       0.80303    0.80330    0.69110    1.000
    Zn16     Zn       0.19206    0.80332    0.69596    1.000
    C50      C        0.03620    0.70990    0.79200    1.000
    H29      H        0.02160    0.68300    0.82790    1.000
    C51      C        0.99460    0.74150    0.74740    1.000
    C52      C        0.92520    0.73880    0.74430    1.000
    C53      C        0.03870    0.79020    0.72020    1.000
    H30      H        0.02520    0.83070    0.70030    1.000
    C54      C        0.28940    0.73730    0.54739    1.000
    H31      H        0.33640    0.73530    0.54360    1.000
    C55      C        0.21590    0.79330    0.53024    1.000
    H32      H        0.18710    0.82520    0.51080    1.000
    C56      C        0.26340    0.75090    0.49670    1.000
    N29      N        0.10190    0.77040    0.72700    1.000
    N30      N        0.09910    0.72230    0.77780    1.000
    N31      N        0.27020    0.72530    0.60360    1.000
    N32      N        0.22220    0.77540    0.60310    1.000
    O15      O        0.89420    0.77770    0.70780    1.000
    O16      O        0.89350    0.70470    0.77320    1.000
    Zn17     Zn       0.80890    0.19697    0.30330    1.000
    Zn18     Zn       0.80404    0.80794    0.30332    1.000
    C57      C        0.70800    0.96380    0.20990    1.000
    H33      H        0.67210    0.97840    0.18300    1.000
    C58      C        0.75260    0.00540    0.24150    1.000
    C59      C        0.75570    0.07480    0.23880    1.000
    C60      C        0.77980    0.96130    0.29020    1.000
    H34      H        0.79970    0.97480    0.33070    1.000
    C61      C        0.95261    0.71060    0.23730    1.000
    H35      H        0.95640    0.66360    0.23530    1.000
    C62      C        0.96976    0.78410    0.29330    1.000
    H36      H        0.98920    0.81290    0.32520    1.000
    C63      C        0.00330    0.73660    0.25090    1.000
    N33      N        0.77300    0.89810    0.27040    1.000
    N34      N        0.72220    0.90090    0.22230    1.000
    N35      N        0.89640    0.72980    0.22530    1.000
    N36      N        0.89690    0.77780    0.27540    1.000
    O17      O        0.79220    0.10580    0.27770    1.000
    O18      O        0.72680    0.10650    0.20470    1.000
    Zn19     Zn       0.19110    0.69697    0.19670    1.000
    Zn20     Zn       0.19596    0.30794    0.19668    1.000
    C64      C        0.29200    0.46380    0.29010    1.000
    H37      H        0.32790    0.47840    0.31700    1.000
    C65      C        0.24740    0.50540    0.25850    1.000
    C66      C        0.24430    0.57480    0.26120    1.000
    C67      C        0.22020    0.46130    0.20980    1.000
    H38      H        0.20030    0.47480    0.16930    1.000
    C68      C        0.04739    0.21060    0.26270    1.000
    H39      H        0.04360    0.16360    0.26470    1.000
    C69      C        0.03024    0.28410    0.20670    1.000
    H40      H        0.01080    0.31290    0.17480    1.000
    C70      C        0.99670    0.23660    0.24910    1.000
    N37      N        0.22700    0.39810    0.22960    1.000
    N38      N        0.27780    0.40090    0.27770    1.000
    N39      N        0.10360    0.22980    0.27470    1.000
    N40      N        0.10310    0.27780    0.22460    1.000
    O19      O        0.20780    0.60580    0.22230    1.000
    O20      O        0.27320    0.60650    0.29530    1.000
    Zn21     Zn       0.30890    0.30303    0.69670    1.000
    Zn22     Zn       0.30404    0.69206    0.69668    1.000
    C71      C        0.20800    0.53620    0.79010    1.000
    H41      H        0.17210    0.52160    0.81700    1.000
    C72      C        0.25260    0.49460    0.75850    1.000
    C73      C        0.25570    0.42520    0.76120    1.000
    C74      C        0.27980    0.53870    0.70980    1.000
    H42      H        0.29970    0.52520    0.66930    1.000
    C75      C        0.45261    0.78940    0.76270    1.000
    H43      H        0.45640    0.83640    0.76470    1.000
    C76      C        0.46976    0.71590    0.70670    1.000
    H44      H        0.48920    0.68710    0.67480    1.000
    C77      C        0.50330    0.76340    0.74910    1.000
    N41      N        0.27300    0.60190    0.72960    1.000
    N42      N        0.22220    0.59910    0.77770    1.000
    N43      N        0.39640    0.77020    0.77470    1.000
    N44      N        0.39690    0.72220    0.72460    1.000
    O21      O        0.29220    0.39420    0.72230    1.000
    O22      O        0.22680    0.39350    0.79530    1.000
    Zn23     Zn       0.69110    0.80303    0.80330    1.000
    Zn24     Zn       0.69596    0.19206    0.80332    1.000
    C78      C        0.79200    0.03620    0.70990    1.000
    H45      H        0.82790    0.02160    0.68300    1.000
    C79      C        0.74740    0.99460    0.74150    1.000
    C80      C        0.74430    0.92520    0.73880    1.000
    C81      C        0.72020    0.03870    0.79020    1.000
    H46      H        0.70030    0.02520    0.83070    1.000
    C82      C        0.54739    0.28940    0.73730    1.000
    H47      H        0.54360    0.33640    0.73530    1.000
    C83      C        0.53024    0.21590    0.79330    1.000
    H48      H        0.51080    0.18710    0.82520    1.000
    C84      C        0.49670    0.26340    0.75090    1.000
    N45      N        0.72700    0.10190    0.77040    1.000
    N46      N        0.77780    0.09910    0.72230    1.000
    N47      N        0.60360    0.27020    0.72530    1.000
    N48      N        0.60310    0.22220    0.77540    1.000
    O23      O        0.70780    0.89420    0.77770    1.000
    O24      O        0.77320    0.89350    0.70470    1.000
    Zn25     Zn       0.19033    0.69033    0.80967    1.000
    O25      O        0.24830    0.74830    0.75170    1.000
    Zn26     Zn       0.30967    0.30967    0.30967    1.000
    O26      O        0.25170    0.25170    0.25170    1.000
    Zn27     Zn       0.80967    0.19033    0.69033    1.000
    O27      O        0.75170    0.24830    0.74830    1.000
    Zn28     Zn       0.69033    0.80967    0.19033    1.000
    O28      O        0.74830    0.75170    0.24830    1.000
    O29      O        0.24570    0.75430    0.25430    1.000
    O30      O        0.25430    0.24570    0.75430    1.000
    O31      O        0.75430    0.25430    0.24570    1.000
    O32      O        0.74570    0.74570    0.74570    1.000
