data_functionalizedCrystal
_audit_creation_method	'EQeq! by Chris Wilmer'
_symmetry_space_group_name_H-M	'P1'
_symmetry_Int_Tables_number	1
_symmetry_cell_setting	triclinic
loop_
_symmetry_equiv_pos_as_xyz
  x,y,z
_cell_length_a	20.586
_cell_length_b	20.586
_cell_length_c	7.522
_cell_angle_alpha	90
_cell_angle_beta	90
_cell_angle_gamma	90
loop_
_atom_site_label
_atom_site_type_symbol
_atom_site_fract_x
_atom_site_fract_y
_atom_site_fract_z
_atom_site_charge
Mof_N 	N 	0.0059	0.4237	0.1732	-0.261
Mof_C 	C 	0.0178	0.3249	0.4305	-0.098
Mof_C 	C 	0.9608	0.3553	0.393	-0.035
Mof_H 	H 	0.9236	0.3441	0.4564	0.033
Mof_C 	C 	0.9574	0.4012	0.267	0.078
Mof_H 	H 	0.9166	0.4187	0.2444	-0.031
Mof_C 	C 	0.0621	0.3978	0.2149	0.034
Mof_H 	H 	0.0987	0.4131	0.1559	-0.013
Mof_C 	C 	0.0257	0.2742	0.571	0.253
Mof_N 	N 	0.9884	0.2788	0.694	-0.138
Mof_N 	N 	0.9909	0.0798	0.3425	-0.221
Mof_C 	C 	0.9723	0.1781	0.0851	-0.001
Mof_C 	C 	0.0218	0.1349	0.0692	-0.174
Mof_H 	H 	0.0504	0.1376	0.9736	0.085
Mof_C 	C 	0.0297	0.086	0.198	0.016
Mof_H 	H 	0.0633	0.0563	0.1831	-0.02
Mof_C 	C 	0.9329	0.1704	0.2288	-0.104
Mof_H 	H 	0.898	0.1985	0.2454	0.043
Mof_C 	C 	0.9584	0.2266	0.9495	0.265
Mof_N 	N 	0.9976	0.231	0.828	-0.138
Mof_C 	C 	0.0742	0.2242	0.547	-0.775
Mof_H 	H 	0.0939	0.2141	0.6593	0.252
Mof_H 	H 	0.1069	0.2393	0.4659	0.243
Mof_H 	H 	0.0541	0.1859	0.4994	0.247
Mof_C 	C 	0.9057	0.2725	0.95	-0.703
Mof_H 	H 	0.869	0.2542	0.8897	0.226
Mof_H 	H 	0.919	0.3116	0.8912	0.247
Mof_H 	H 	0.8939	0.2823	0.0709	0.208
Mof_C 	C 	0.944	0.121	0.3511	0.066
Mof_H 	H 	0.9154	0.1175	0.4464	-0.026
Mof_C 	C 	0.0708	0.3504	0.337	-0.065
Mof_H 	H 	0.1124	0.3346	0.3597	0.029
Mof_N 	N 	0.9941	0.5763	0.1732	-0.212
Mof_C 	C 	0.9822	0.6751	0.4305	-0.029
Mof_C 	C 	0.0392	0.6447	0.393	-0.117
Mof_H 	H 	0.0764	0.6559	0.4564	0.051
Mof_C 	C 	0.0426	0.5988	0.267	0.024
Mof_H 	H 	0.0834	0.5813	0.2444	-0.021
Mof_C 	C 	0.9379	0.6022	0.2149	0.06
Mof_H 	H 	0.9013	0.5869	0.1559	-0.016
Mof_C 	C 	0.9743	0.7258	0.571	0.356
Mof_N 	N 	0.0116	0.7212	0.694	-0.201
Mof_N 	N 	0.0091	0.9202	0.3425	-0.242
Mof_C 	C 	0.0277	0.8219	0.0851	-0.154
Mof_C 	C 	0.9782	0.8651	0.0692	-0.018
Mof_H 	H 	0.9496	0.8624	0.9736	0.051
Mof_C 	C 	0.9703	0.914	0.198	0.038
Mof_H 	H 	0.9367	0.9437	0.1831	0.003
Mof_C 	C 	0.0671	0.8296	0.2288	-0.034
Mof_H 	H 	0.102	0.8015	0.2454	0.013
Mof_C 	C 	0.0416	0.7734	0.9495	0.32
Mof_N 	N 	0.0024	0.769	0.828	-0.176
Mof_C 	C 	0.9258	0.7758	0.547	-0.905
Mof_H 	H 	0.9061	0.7859	0.6593	0.302
Mof_H 	H 	0.8931	0.7607	0.4659	0.283
Mof_H 	H 	0.9459	0.8141	0.4994	0.306
Mof_C 	C 	0.0943	0.7275	0.95	-0.775
Mof_H 	H 	0.131	0.7458	0.8897	0.247
Mof_H 	H 	0.081	0.6884	0.8912	0.261
Mof_H 	H 	0.1061	0.7177	0.0709	0.227
Mof_C 	C 	0.056	0.879	0.3511	0.01
Mof_H 	H 	0.0846	0.8825	0.4464	-0.009
Mof_C 	C 	0.9292	0.6496	0.337	-0.078
Mof_H 	H 	0.8876	0.6654	0.3597	0.034
Mof_N 	N 	0.4237	0.9941	0.8268	-0.203
Mof_C 	C 	0.3249	0.9822	0.5695	-0.028
Mof_C 	C 	0.3553	0.0392	0.607	-0.116
Mof_H 	H 	0.3441	0.0764	0.5436	0.05
Mof_C 	C 	0.4012	0.0426	0.733	0.024
Mof_H 	H 	0.4187	0.0834	0.7556	-0.014
Mof_C 	C 	0.3978	0.9379	0.7851	0.061
Mof_H 	H 	0.4131	0.9013	0.8441	-0.007
Mof_C 	C 	0.2742	0.9743	0.429	0.356
Mof_N 	N 	0.2788	0.0116	0.306	-0.203
Mof_N 	N 	0.0798	0.0091	0.6575	-0.246
Mof_C 	C 	0.1781	0.0277	0.9149	-0.177
Mof_C 	C 	0.1349	0.9782	0.9308	0.082
Mof_H 	H 	0.1376	0.9496	0.0264	-0.011
Mof_C 	C 	0.086	0.9703	0.802	-0.005
Mof_H 	H 	0.0563	0.9367	0.8169	0.009
Mof_C 	C 	0.1704	0.0671	0.7712	-0.014
Mof_H 	H 	0.1985	0.102	0.7546	0.009
Mof_C 	C 	0.2266	0.0416	0.0505	0.35
Mof_N 	N 	0.231	0.0024	0.172	-0.19
Mof_C 	C 	0.2242	0.9258	0.453	-0.904
Mof_H 	H 	0.2141	0.9061	0.3407	0.299
Mof_H 	H 	0.2393	0.8931	0.5341	0.283
Mof_H 	H 	0.1859	0.9459	0.5006	0.305
Mof_C 	C 	0.2725	0.0943	0.05	-0.973
Mof_H 	H 	0.2542	0.131	0.1103	0.297
Mof_H 	H 	0.3116	0.081	0.1088	0.313
Mof_H 	H 	0.2823	0.1061	0.9291	0.312
Mof_C 	C 	0.121	0.056	0.6489	-0.005
Mof_H 	H 	0.1175	0.0846	0.5536	-0.01
Mof_C 	C 	0.3504	0.9292	0.663	-0.074
Mof_H 	H 	0.3346	0.8876	0.6403	0.035
Mof_N 	N 	0.5763	0.0059	0.8268	-0.251
Mof_C 	C 	0.6751	0.0178	0.5695	-0.099
Mof_C 	C 	0.6447	0.9608	0.607	-0.032
Mof_H 	H 	0.6559	0.9236	0.5436	0.031
Mof_C 	C 	0.5988	0.9574	0.733	0.076
Mof_H 	H 	0.5813	0.9166	0.7556	-0.024
Mof_C 	C 	0.6022	0.0621	0.7851	0.035
Mof_H 	H 	0.5869	0.0987	0.8441	-0.002
Mof_C 	C 	0.7258	0.0257	0.429	0.255
Mof_N 	N 	0.7212	0.9884	0.306	-0.14
Mof_N 	N 	0.9202	0.9909	0.6575	-0.196
Mof_C 	C 	0.8219	0.9723	0.9149	-0.04
Mof_C 	C 	0.8651	0.0218	0.9308	-0.048
Mof_H 	H 	0.8624	0.0504	0.0264	0.019
Mof_C 	C 	0.914	0.0297	0.802	-0.031
Mof_H 	H 	0.9437	0.0633	0.8169	0.027
Mof_C 	C 	0.8296	0.9329	0.7712	-0.071
Mof_H 	H 	0.8015	0.898	0.7546	0.034
Mof_C 	C 	0.7734	0.9584	0.0505	0.305
Mof_N 	N 	0.769	0.9976	0.172	-0.153
Mof_C 	C 	0.7758	0.0742	0.453	-0.78
Mof_H 	H 	0.7859	0.0939	0.3407	0.252
Mof_H 	H 	0.7607	0.1069	0.5341	0.247
Mof_H 	H 	0.8141	0.0541	0.5006	0.251
Mof_C 	C 	0.7275	0.9057	0.05	-0.909
Mof_H 	H 	0.7458	0.869	0.1103	0.279
Mof_H 	H 	0.6884	0.919	0.1088	0.301
Mof_H 	H 	0.7177	0.8939	0.9291	0.295
Mof_C 	C 	0.879	0.944	0.6489	0.051
Mof_H 	H 	0.8825	0.9154	0.5536	-0.016
Mof_C 	C 	0.6496	0.0708	0.663	-0.06
Mof_H 	H 	0.6654	0.1124	0.6403	0.031
Mof_N 	N 	0.5059	0.0763	0.1732	-0.244
Mof_C 	C 	0.5178	0.1751	0.4305	-0.062
Mof_C 	C 	0.4608	0.1447	0.393	-0.08
Mof_H 	H 	0.4236	0.1559	0.4564	0.042
Mof_C 	C 	0.4574	0.0988	0.267	0.05
Mof_H 	H 	0.4166	0.0813	0.2444	-0.032
Mof_C 	C 	0.5621	0.1022	0.2149	0.046
Mof_H 	H 	0.5987	0.0869	0.1559	-0.02
Mof_C 	C 	0.5257	0.2258	0.571	0.304
Mof_N 	N 	0.4884	0.2212	0.694	-0.17
Mof_N 	N 	0.4909	0.4202	0.3425	-0.237
Mof_C 	C 	0.4723	0.3219	0.0851	-0.078
Mof_C 	C 	0.5218	0.3651	0.0692	-0.097
Mof_H 	H 	0.5504	0.3624	0.9736	0.069
Mof_C 	C 	0.5297	0.414	0.198	0.028
Mof_H 	H 	0.5633	0.4437	0.1831	-0.01
Mof_C 	C 	0.4329	0.3296	0.2288	-0.07
Mof_H 	H 	0.398	0.3015	0.2454	0.028
Mof_C 	C 	0.4584	0.2734	0.9495	0.291
Mof_N 	N 	0.4976	0.269	0.828	-0.157
Mof_C 	C 	0.5742	0.2758	0.547	-0.84
Mof_H 	H 	0.5939	0.2859	0.6593	0.277
Mof_H 	H 	0.6069	0.2607	0.4659	0.263
Mof_H 	H 	0.5541	0.3141	0.4994	0.276
Mof_C 	C 	0.4057	0.2275	0.95	-0.733
Mof_H 	H 	0.369	0.2458	0.8897	0.234
Mof_H 	H 	0.419	0.1884	0.8912	0.251
Mof_H 	H 	0.3939	0.2177	0.0709	0.215
Mof_C 	C 	0.444	0.379	0.3511	0.039
Mof_H 	H 	0.4154	0.3825	0.4464	-0.018
Mof_C 	C 	0.5708	0.1496	0.337	-0.075
Mof_H 	H 	0.6124	0.1654	0.3597	0.032
Mof_N 	N 	0.4941	0.9237	0.1732	-0.229
Mof_C 	C 	0.4822	0.8249	0.4305	-0.064
Mof_C 	C 	0.5392	0.8553	0.393	-0.074
Mof_H 	H 	0.5764	0.8441	0.4564	0.042
Mof_C 	C 	0.5426	0.9012	0.267	0.052
Mof_H 	H 	0.5834	0.9187	0.2444	-0.02
Mof_C 	C 	0.4379	0.8978	0.2149	0.048
Mof_H 	H 	0.4013	0.9131	0.1559	-0.009
Mof_C 	C 	0.4743	0.7742	0.571	0.306
Mof_N 	N 	0.5116	0.7788	0.694	-0.169
Mof_N 	N 	0.5091	0.5798	0.3425	-0.237
Mof_C 	C 	0.5277	0.6781	0.0851	-0.08
Mof_C 	C 	0.4782	0.6349	0.0692	-0.095
Mof_H 	H 	0.4496	0.6376	0.9736	0.068
Mof_C 	C 	0.4703	0.586	0.198	0.027
Mof_H 	H 	0.4367	0.5563	0.1831	-0.01
Mof_C 	C 	0.5671	0.6704	0.2288	-0.069
Mof_H 	H 	0.602	0.6985	0.2454	0.028
Mof_C 	C 	0.5416	0.7266	0.9495	0.295
Mof_N 	N 	0.5024	0.731	0.828	-0.158
Mof_C 	C 	0.4258	0.7242	0.547	-0.841
Mof_H 	H 	0.4061	0.7141	0.6593	0.277
Mof_H 	H 	0.3931	0.7393	0.4659	0.263
Mof_H 	H 	0.4459	0.6859	0.4994	0.277
Mof_C 	C 	0.5943	0.7725	0.95	-0.745
Mof_H 	H 	0.631	0.7542	0.8897	0.238
Mof_H 	H 	0.581	0.8116	0.8912	0.257
Mof_H 	H 	0.6061	0.7823	0.0709	0.22
Mof_C 	C 	0.556	0.621	0.3511	0.038
Mof_H 	H 	0.5846	0.6175	0.4464	-0.018
Mof_C 	C 	0.4292	0.8504	0.337	-0.069
Mof_H 	H 	0.3876	0.8346	0.3597	0.031
Mof_N 	N 	0.9237	0.5059	0.8268	-0.22
Mof_C 	C 	0.8249	0.5178	0.5695	-0.065
Mof_C 	C 	0.8553	0.4608	0.607	-0.071
Mof_H 	H 	0.8441	0.4236	0.5436	0.041
Mof_C 	C 	0.9012	0.4574	0.733	0.051
Mof_H 	H 	0.9187	0.4166	0.7556	-0.013
Mof_C 	C 	0.8978	0.5621	0.7851	0.049
Mof_H 	H 	0.9131	0.5987	0.8441	0.001
Mof_C 	C 	0.7742	0.5257	0.429	0.305
Mof_N 	N 	0.7788	0.4884	0.306	-0.171
Mof_N 	N 	0.5798	0.4909	0.6575	-0.225
Mof_C 	C 	0.6781	0.4723	0.9149	-0.107
Mof_C 	C 	0.6349	0.5218	0.9308	0.016
Mof_H 	H 	0.6376	0.5504	0.0264	0.004
Mof_C 	C 	0.586	0.5297	0.802	-0.019
Mof_H 	H 	0.5563	0.5633	0.8169	0.016
Mof_C 	C 	0.6704	0.4329	0.7712	-0.043
Mof_H 	H 	0.6985	0.398	0.7546	0.022
Mof_C 	C 	0.7266	0.4584	0.0505	0.328
Mof_N 	N 	0.731	0.4976	0.172	-0.172
Mof_C 	C 	0.7242	0.5742	0.453	-0.841
Mof_H 	H 	0.7141	0.5939	0.3407	0.275
Mof_H 	H 	0.7393	0.6069	0.5341	0.265
Mof_H 	H 	0.6859	0.5541	0.5006	0.277
Mof_C 	C 	0.7725	0.4057	0.05	-0.944
Mof_H 	H 	0.7542	0.369	0.1103	0.289
Mof_H 	H 	0.8116	0.419	0.1088	0.309
Mof_H 	H 	0.7823	0.3939	0.9291	0.305
Mof_C 	C 	0.621	0.444	0.6489	0.024
Mof_H 	H 	0.6175	0.4154	0.5536	-0.014
Mof_C 	C 	0.8504	0.5708	0.663	-0.065
Mof_H 	H 	0.8346	0.6124	0.6403	0.033
Mof_N 	N 	0.0763	0.4941	0.8268	-0.234
Mof_C 	C 	0.1751	0.4822	0.5695	-0.063
Mof_C 	C 	0.1447	0.5392	0.607	-0.077
Mof_H 	H 	0.1559	0.5764	0.5436	0.041
Mof_C 	C 	0.0988	0.5426	0.733	0.049
Mof_H 	H 	0.0813	0.5834	0.7556	-0.025
Mof_C 	C 	0.1022	0.4379	0.7851	0.048
Mof_H 	H 	0.0869	0.4013	0.8441	-0.01
Mof_C 	C 	0.2258	0.4743	0.429	0.303
Mof_N 	N 	0.2212	0.5116	0.306	-0.171
Mof_N 	N 	0.4202	0.5091	0.6575	-0.225
Mof_C 	C 	0.3219	0.5277	0.9149	-0.106
Mof_C 	C 	0.3651	0.4782	0.9308	0.016
Mof_H 	H 	0.3624	0.4496	0.0264	0.004
Mof_C 	C 	0.414	0.4703	0.802	-0.019
Mof_H 	H 	0.4437	0.4367	0.8169	0.016
Mof_C 	C 	0.3296	0.5671	0.7712	-0.044
Mof_H 	H 	0.3015	0.602	0.7546	0.022
Mof_C 	C 	0.2734	0.5416	0.0505	0.325
Mof_N 	N 	0.269	0.5024	0.172	-0.171
Mof_C 	C 	0.2758	0.4258	0.453	-0.838
Mof_H 	H 	0.2859	0.4061	0.3407	0.274
Mof_H 	H 	0.2607	0.3931	0.5341	0.264
Mof_H 	H 	0.3141	0.4459	0.5006	0.277
Mof_C 	C 	0.2275	0.5943	0.05	-0.937
Mof_H 	H 	0.2458	0.631	0.1103	0.286
Mof_H 	H 	0.1884	0.581	0.1088	0.305
Mof_H 	H 	0.2177	0.6061	0.9291	0.302
Mof_C 	C 	0.379	0.556	0.6489	0.024
Mof_H 	H 	0.3825	0.5846	0.5536	-0.015
Mof_C 	C 	0.1496	0.4292	0.663	-0.07
Mof_H 	H 	0.1654	0.3876	0.6403	0.034
Mof_Cu	Cu	2.66477e-33	1.97976e-33	0.5	0.815
Mof_Cu	Cu	0.5	0.5	0.5	0.848
Mof_Cu	Cu	-3.95953e-33	0.5	-0	0.824
Mof_Cu	Cu	0.5	0	-0	0.823
_end
