# CIF file generated by openbabel 3.1.0, see https://openbabel.org
data_I
_chemical_name_common 'image0'
_cell_length_a 12.4591
_cell_length_b 19.3631
_cell_length_c 25.259
_cell_angle_alpha 90
_cell_angle_beta 100.66
_cell_angle_gamma 90
_space_group_name_H-M_alt 'P 1'
_space_group_name_Hall 'P 1'
loop_
    _symmetry_equiv_pos_as_xyz
    x,y,z
loop_
    _atom_site_label
    _atom_site_type_symbol
    _atom_site_fract_x
    _atom_site_fract_y
    _atom_site_fract_z
    _atom_site_occupancy
    U1       U        0.80382    0.11577    0.36220    1.000
    U2       U        0.90338    0.08740    0.22769    1.000
    U3       U        0.60535    0.14415    0.22740    1.000
    U4       U        0.14969    0.09145    0.34846    1.000
    U5       U        0.24768    0.11497    0.21356    1.000
    U6       U        0.44584    0.14368    0.34700    1.000
    O1       O        0.93370    0.08750    0.43980    1.000
    O2       O        0.10630    0.08530    0.43410    1.000
    O3       O        0.85610    0.19220    0.74360    1.000
    O4       O        0.85990    0.07920    0.75620    1.000
    O5       O        0.73600    0.12140    0.16690    1.000
    O6       O        0.72000    0.16550    0.08300    1.000
    O7       O        0.50150    0.84920    0.85890    1.000
    O8       O        0.67880    0.85410    0.86300    1.000
    O9       O        0.95400    0.08320    0.14310    1.000
    O10      O        0.12590    0.06580    0.13900    1.000
    O11      O        0.23680    0.33820    0.93770    1.000
    O12      O        0.06040    0.35720    0.93170    1.000
    O13      O        0.76890    0.11230    0.27180    1.000
    O14      O        0.27660    0.12420    0.30240    1.000
    O15      O        0.95720    0.06250    0.32650    1.000
    H1       H        0.96260    0.01830    0.33050    1.000
    O16      O        0.09590    0.06100    0.25110    1.000
    H2       H        0.08280    0.01450    0.25610    1.000
    O17      O        0.62460    0.16590    0.32590    1.000
    H3       H        0.62130    0.21130    0.31460    1.000
    O18      O        0.42860    0.17070    0.24980    1.000
    H4       H        0.42440    0.21820    0.23640    1.000
    C1       C        0.03250    0.09020    0.46030    1.000
    C2       C        0.06800    0.09810    0.51930    1.000
    H5       H        0.13040    0.13060    0.52570    1.000
    H6       H        0.09540    0.05280    0.53420    1.000
    C3       C        0.98220    0.12380    0.55140    1.000
    H7       H        0.95880    0.17100    0.53940    1.000
    H8       H        0.91730    0.09330    0.54400    1.000
    C4       C        0.02670    0.12460    0.61170    1.000
    H9       H        0.05540    0.07810    0.62280    1.000
    H10      H        0.08860    0.15740    0.61900    1.000
    C5       C        0.94330    0.14450    0.64540    1.000
    H11      H        0.87400    0.11980    0.63200    1.000
    H12      H        0.92870    0.19470    0.64170    1.000
    C6       C        0.98310    0.12700    0.70490    1.000
    H13      H        0.01180    0.07920    0.70780    1.000
    H14      H        0.04380    0.15840    0.72000    1.000
    C7       C        0.89380    0.13320    0.73780    1.000
    C8       C        0.71730    0.11660    0.11360    1.000
    C9       C        0.69180    0.04390    0.09280    1.000
    H15      H        0.62600    0.02750    0.10580    1.000
    H16      H        0.75320    0.01340    0.10870    1.000
    C10      C        0.67190    0.03590    0.03030    1.000
    H17      H        0.60590    0.06210    0.01380    1.000
    H18      H        0.73500    0.05480    0.01620    1.000
    C11      C        0.65710    0.95970    0.01580    1.000
    H19      H        0.72340    0.93440    0.03310    1.000
    H20      H        0.59500    0.94150    0.03110    1.000
    C12      C        0.63660    0.94480    0.95680    1.000
    H21      H        0.70150    0.95870    0.94190    1.000
    H22      H        0.57390    0.97290    0.93880    1.000
    C13      C        0.61280    0.86950    0.94430    1.000
    H23      H        0.67440    0.84100    0.96270    1.000
    H24      H        0.54630    0.85560    0.95780    1.000
    C14      C        0.59620    0.85730    0.88480    1.000
    C15      C        0.02810    0.07090    0.11710    1.000
    C16      C        0.99270    0.05640    0.05850    1.000
    H25      H        0.92400    0.02940    0.05270    1.000
    H26      H        0.04920    0.02860    0.04550    1.000
    C17      C        0.97500    0.12270    0.02730    1.000
    H27      H        0.91380    0.14770    0.03870    1.000
    H28      H        0.95190    0.11110    0.98860    1.000
    C18      C        0.07330    0.17190    0.03280    1.000
    H29      H        0.08420    0.19270    0.06920    1.000
    H30      H        0.13900    0.14390    0.03090    1.000
    C19      C        0.06780    0.22740    0.99390    1.000
    H31      H        0.99620    0.25030    0.99230    1.000
    H32      H        0.06610    0.20560    0.95830    1.000
    C20      C        0.15230    0.28390    0.99930    1.000
    H33      H        0.14540    0.31210    0.03120    1.000
    H34      H        0.22540    0.26200    0.00680    1.000
    C21      C        0.14850    0.33130    0.95270    1.000
    O19      O        0.32310    0.11520    0.41360    1.000
    O20      O        0.30510    0.18630    0.47870    1.000
    O21      O        0.67690    0.87900    0.58970    1.000
    O22      O        0.65760    0.83210    0.50930    1.000
    C22      C        0.32800    0.12760    0.46170    1.000
    C23      C        0.38200    0.07670    0.50460    1.000
    H35      H        0.46140    0.08570    0.51430    1.000
    H36      H        0.34980    0.08290    0.53730    1.000
    C24      C        0.36210    0.00420    0.48420    1.000
    H37      H        0.33670    0.97510    0.51170    1.000
    H38      H        0.30530    0.00380    0.45110    1.000
    C25      C        0.46880    0.97530    0.47190    1.000
    H39      H        0.48610    0.99750    0.43920    1.000
    H40      H        0.46310    0.92480    0.46580    1.000
    C26      C        0.55760    0.99130    0.52050    1.000
    H41      H        0.53550    0.97420    0.55390    1.000
    H42      H        0.56920    0.04180    0.52390    1.000
    C27      C        0.66090    0.95490    0.51330    1.000
    H43      H        0.66320    0.95160    0.47440    1.000
    H44      H        0.72540    0.98140    0.53120    1.000
    C28      C        0.66100    0.88340    0.53930    1.000
    U7       U        0.69618    0.61577    0.13780    1.000
    U8       U        0.59662    0.58740    0.27231    1.000
    U9       U        0.89465    0.64415    0.27260    1.000
    U10      U        0.35031    0.59145    0.15154    1.000
    U11      U        0.25232    0.61497    0.28644    1.000
    U12      U        0.05416    0.64368    0.15300    1.000
    O23      O        0.56630    0.58750    0.06020    1.000
    O24      O        0.39370    0.58530    0.06590    1.000
    O25      O        0.64390    0.69220    0.75640    1.000
    O26      O        0.64010    0.57920    0.74380    1.000
    O27      O        0.76400    0.62140    0.33310    1.000
    O28      O        0.78000    0.66550    0.41700    1.000
    O29      O        0.99850    0.34920    0.64110    1.000
    O30      O        0.82120    0.35410    0.63700    1.000
    O31      O        0.54600    0.58320    0.35690    1.000
    O32      O        0.37410    0.56580    0.36100    1.000
    O33      O        0.26320    0.83820    0.56230    1.000
    O34      O        0.43960    0.85720    0.56830    1.000
    O35      O        0.73110    0.61230    0.22820    1.000
    O36      O        0.22340    0.62420    0.19760    1.000
    O37      O        0.54280    0.56250    0.17350    1.000
    H45      H        0.53740    0.51830    0.16950    1.000
    O38      O        0.40410    0.56100    0.24890    1.000
    H46      H        0.41720    0.51450    0.24390    1.000
    O39      O        0.87540    0.66590    0.17410    1.000
    H47      H        0.87870    0.71130    0.18540    1.000
    O40      O        0.07140    0.67070    0.25020    1.000
    H48      H        0.07560    0.71820    0.26360    1.000
    C29      C        0.46750    0.59020    0.03970    1.000
    C30      C        0.43200    0.59810    0.98070    1.000
    H49      H        0.36960    0.63060    0.97430    1.000
    H50      H        0.40460    0.55280    0.96580    1.000
    C31      C        0.51780    0.62380    0.94860    1.000
    H51      H        0.54120    0.67100    0.96060    1.000
    H52      H        0.58270    0.59330    0.95600    1.000
    C32      C        0.47330    0.62460    0.88830    1.000
    H53      H        0.44460    0.57810    0.87720    1.000
    H54      H        0.41140    0.65740    0.88100    1.000
    C33      C        0.55670    0.64450    0.85460    1.000
    H55      H        0.62600    0.61980    0.86800    1.000
    H56      H        0.57130    0.69470    0.85830    1.000
    C34      C        0.51690    0.62700    0.79510    1.000
    H57      H        0.48820    0.57920    0.79220    1.000
    H58      H        0.45620    0.65840    0.78000    1.000
    C35      C        0.60620    0.63320    0.76220    1.000
    C36      C        0.78270    0.61660    0.38640    1.000
    C37      C        0.80820    0.54390    0.40720    1.000
    H59      H        0.87400    0.52750    0.39420    1.000
    H60      H        0.74680    0.51340    0.39130    1.000
    C38      C        0.82810    0.53590    0.46970    1.000
    H61      H        0.89410    0.56210    0.48620    1.000
    H62      H        0.76500    0.55480    0.48380    1.000
    C39      C        0.84290    0.45970    0.48420    1.000
    H63      H        0.77660    0.43440    0.46690    1.000
    H64      H        0.90500    0.44150    0.46890    1.000
    C40      C        0.86340    0.44480    0.54320    1.000
    H65      H        0.79850    0.45870    0.55810    1.000
    H66      H        0.92610    0.47290    0.56120    1.000
    C41      C        0.88720    0.36950    0.55570    1.000
    H67      H        0.82560    0.34100    0.53730    1.000
    H68      H        0.95370    0.35560    0.54220    1.000
    C42      C        0.90380    0.35730    0.61520    1.000
    C43      C        0.47190    0.57090    0.38290    1.000
    C44      C        0.50730    0.55640    0.44150    1.000
    H69      H        0.57600    0.52940    0.44730    1.000
    H70      H        0.45080    0.52860    0.45450    1.000
    C45      C        0.52500    0.62270    0.47270    1.000
    H71      H        0.58620    0.64770    0.46130    1.000
    H72      H        0.54810    0.61110    0.51140    1.000
    C46      C        0.42670    0.67190    0.46720    1.000
    H73      H        0.41580    0.69270    0.43080    1.000
    H74      H        0.36100    0.64390    0.46910    1.000
    C47      C        0.43220    0.72740    0.50610    1.000
    H75      H        0.50380    0.75030    0.50770    1.000
    H76      H        0.43390    0.70560    0.54170    1.000
    C48      C        0.34770    0.78390    0.50070    1.000
    H77      H        0.35460    0.81210    0.46880    1.000
    H78      H        0.27460    0.76200    0.49320    1.000
    C49      C        0.35150    0.83130    0.54730    1.000
    O41      O        0.17690    0.61520    0.08640    1.000
    O42      O        0.19490    0.68630    0.02130    1.000
    O43      O        0.82310    0.37900    0.91030    1.000
    O44      O        0.84240    0.33210    0.99070    1.000
    C50      C        0.17200    0.62760    0.03830    1.000
    C51      C        0.11800    0.57670    0.99540    1.000
    H79      H        0.03860    0.58570    0.98570    1.000
    H80      H        0.15020    0.58290    0.96270    1.000
    C52      C        0.13790    0.50420    0.01580    1.000
    H81      H        0.16330    0.47510    0.98830    1.000
    H82      H        0.19470    0.50380    0.04890    1.000
    C53      C        0.03120    0.47530    0.02810    1.000
    H83      H        0.01390    0.49750    0.06080    1.000
    H84      H        0.03690    0.42480    0.03420    1.000
    C54      C        0.94240    0.49130    0.97950    1.000
    H85      H        0.96450    0.47420    0.94610    1.000
    H86      H        0.93080    0.54180    0.97610    1.000
    C55      C        0.83910    0.45490    0.98670    1.000
    H87      H        0.83680    0.45160    0.02560    1.000
    H88      H        0.77460    0.48140    0.96880    1.000
    C56      C        0.83900    0.38340    0.96070    1.000
    U13      U        0.19618    0.88423    0.63780    1.000
    U14      U        0.09662    0.91260    0.77231    1.000
    U15      U        0.39465    0.85585    0.77260    1.000
    U16      U        0.85031    0.90855    0.65154    1.000
    U17      U        0.75232    0.88503    0.78644    1.000
    U18      U        0.55416    0.85632    0.65300    1.000
    O45      O        0.06630    0.91250    0.56020    1.000
    O46      O        0.89370    0.91470    0.56590    1.000
    O47      O        0.14390    0.80780    0.25640    1.000
    O48      O        0.14010    0.92080    0.24380    1.000
    O49      O        0.26400    0.87860    0.83310    1.000
    O50      O        0.28000    0.83450    0.91700    1.000
    O51      O        0.49850    0.15080    0.14110    1.000
    O52      O        0.32120    0.14590    0.13700    1.000
    O53      O        0.04600    0.91680    0.85690    1.000
    O54      O        0.87410    0.93420    0.86100    1.000
    O55      O        0.76320    0.66180    0.06230    1.000
    O56      O        0.93960    0.64280    0.06830    1.000
    O57      O        0.23110    0.88770    0.72820    1.000
    O58      O        0.72340    0.87580    0.69760    1.000
    O59      O        0.04280    0.93750    0.67350    1.000
    H89      H        0.03740    0.98170    0.66950    1.000
    O60      O        0.90410    0.93900    0.74890    1.000
    H90      H        0.91720    0.98550    0.74390    1.000
    O61      O        0.37540    0.83410    0.67410    1.000
    H91      H        0.37870    0.78870    0.68540    1.000
    O62      O        0.57140    0.82930    0.75020    1.000
    H92      H        0.57560    0.78180    0.76360    1.000
    C57      C        0.96750    0.90980    0.53970    1.000
    C58      C        0.93200    0.90190    0.48070    1.000
    H93      H        0.86960    0.86940    0.47430    1.000
    H94      H        0.90460    0.94720    0.46580    1.000
    C59      C        0.01780    0.87620    0.44860    1.000
    H95      H        0.04120    0.82900    0.46060    1.000
    H96      H        0.08270    0.90670    0.45600    1.000
    C60      C        0.97330    0.87540    0.38830    1.000
    H97      H        0.94460    0.92190    0.37720    1.000
    H98      H        0.91140    0.84260    0.38100    1.000
    C61      C        0.05670    0.85550    0.35460    1.000
    H99      H        0.12600    0.88020    0.36800    1.000
    H100     H        0.07130    0.80530    0.35830    1.000
    C62      C        0.01690    0.87300    0.29510    1.000
    H101     H        0.98820    0.92080    0.29220    1.000
    H102     H        0.95620    0.84160    0.28000    1.000
    C63      C        0.10620    0.86680    0.26220    1.000
    C64      C        0.28270    0.88340    0.88640    1.000
    C65      C        0.30820    0.95610    0.90720    1.000
    H103     H        0.37400    0.97250    0.89420    1.000
    H104     H        0.24680    0.98660    0.89130    1.000
    C66      C        0.32810    0.96410    0.96970    1.000
    H105     H        0.39410    0.93790    0.98620    1.000
    H106     H        0.26500    0.94520    0.98380    1.000
    C67      C        0.34290    0.04030    0.98420    1.000
    H107     H        0.27660    0.06560    0.96690    1.000
    H108     H        0.40500    0.05850    0.96890    1.000
    C68      C        0.36340    0.05520    0.04320    1.000
    H109     H        0.29850    0.04130    0.05810    1.000
    H110     H        0.42610    0.02710    0.06120    1.000
    C69      C        0.38720    0.13050    0.05570    1.000
    H111     H        0.32560    0.15900    0.03730    1.000
    H112     H        0.45370    0.14440    0.04220    1.000
    C70      C        0.40380    0.14270    0.11520    1.000
    C71      C        0.97190    0.92910    0.88290    1.000
    C72      C        0.00730    0.94360    0.94150    1.000
    H113     H        0.07600    0.97060    0.94730    1.000
    H114     H        0.95080    0.97140    0.95450    1.000
    C73      C        0.02500    0.87730    0.97270    1.000
    H115     H        0.08620    0.85230    0.96130    1.000
    H116     H        0.04810    0.88890    0.01140    1.000
    C74      C        0.92670    0.82810    0.96720    1.000
    H117     H        0.91580    0.80730    0.93080    1.000
    H118     H        0.86100    0.85610    0.96910    1.000
    C75      C        0.93220    0.77260    0.00610    1.000
    H119     H        0.00380    0.74970    0.00770    1.000
    H120     H        0.93390    0.79440    0.04170    1.000
    C76      C        0.84770    0.71610    0.00070    1.000
    H121     H        0.85460    0.68790    0.96880    1.000
    H122     H        0.77460    0.73800    0.99320    1.000
    C77      C        0.85150    0.66870    0.04730    1.000
    O63      O        0.67690    0.88480    0.58640    1.000
    O64      O        0.69490    0.81370    0.52130    1.000
    O65      O        0.32310    0.12100    0.41030    1.000
    O66      O        0.34240    0.16790    0.49070    1.000
    C78      C        0.67200    0.87240    0.53830    1.000
    C79      C        0.61800    0.92330    0.49540    1.000
    H123     H        0.53860    0.91430    0.48570    1.000
    H124     H        0.65020    0.91710    0.46270    1.000
    C80      C        0.63790    0.99580    0.51580    1.000
    H125     H        0.66330    0.02490    0.48830    1.000
    H126     H        0.69470    0.99620    0.54890    1.000
    C81      C        0.53120    0.02470    0.52810    1.000
    H127     H        0.51390    0.00250    0.56080    1.000
    H128     H        0.53690    0.07520    0.53420    1.000
    C82      C        0.44240    0.00870    0.47950    1.000
    H129     H        0.46450    0.02580    0.44610    1.000
    H130     H        0.43080    0.95820    0.47610    1.000
    C83      C        0.33910    0.04510    0.48670    1.000
    H131     H        0.33680    0.04840    0.52560    1.000
    H132     H        0.27460    0.01860    0.46880    1.000
    C84      C        0.33900    0.11660    0.46070    1.000
    U19      U        0.30382    0.38423    0.86220    1.000
    U20      U        0.40338    0.41260    0.72769    1.000
    U21      U        0.10535    0.35585    0.72740    1.000
    U22      U        0.64969    0.40855    0.84846    1.000
    U23      U        0.74768    0.38503    0.71356    1.000
    U24      U        0.94584    0.35632    0.84700    1.000
    O67      O        0.43370    0.41250    0.93980    1.000
    O68      O        0.60630    0.41470    0.93410    1.000
    O69      O        0.35610    0.30780    0.24360    1.000
    O70      O        0.35990    0.42080    0.25620    1.000
    O71      O        0.23600    0.37860    0.66690    1.000
    O72      O        0.22000    0.33450    0.58300    1.000
    O73      O        0.00150    0.65080    0.35890    1.000
    O74      O        0.17880    0.64590    0.36300    1.000
    O75      O        0.45400    0.41680    0.64310    1.000
    O76      O        0.62590    0.43420    0.63900    1.000
    O77      O        0.73680    0.16180    0.43770    1.000
    O78      O        0.56040    0.14280    0.43170    1.000
    O79      O        0.26890    0.38770    0.77180    1.000
    O80      O        0.77660    0.37580    0.80240    1.000
    O81      O        0.45720    0.43750    0.82650    1.000
    H133     H        0.46260    0.48170    0.83050    1.000
    O82      O        0.59590    0.43900    0.75110    1.000
    H134     H        0.58280    0.48550    0.75610    1.000
    O83      O        0.12460    0.33410    0.82590    1.000
    H135     H        0.12130    0.28870    0.81460    1.000
    O84      O        0.92860    0.32930    0.74980    1.000
    H136     H        0.92440    0.28180    0.73640    1.000
    C85      C        0.53250    0.40980    0.96030    1.000
    C86      C        0.56800    0.40190    0.01930    1.000
    H137     H        0.63040    0.36940    0.02570    1.000
    H138     H        0.59540    0.44720    0.03420    1.000
    C87      C        0.48220    0.37620    0.05140    1.000
    H139     H        0.45880    0.32900    0.03940    1.000
    H140     H        0.41730    0.40670    0.04400    1.000
    C88      C        0.52670    0.37540    0.11170    1.000
    H141     H        0.55540    0.42190    0.12280    1.000
    H142     H        0.58860    0.34260    0.11900    1.000
    C89      C        0.44330    0.35550    0.14540    1.000
    H143     H        0.37400    0.38020    0.13200    1.000
    H144     H        0.42870    0.30530    0.14170    1.000
    C90      C        0.48310    0.37300    0.20490    1.000
    H145     H        0.51180    0.42080    0.20780    1.000
    H146     H        0.54380    0.34160    0.22000    1.000
    C91      C        0.39380    0.36680    0.23780    1.000
    C92      C        0.21730    0.38340    0.61360    1.000
    C93      C        0.19180    0.45610    0.59280    1.000
    H147     H        0.12600    0.47250    0.60580    1.000
    H148     H        0.25320    0.48660    0.60870    1.000
    C94      C        0.17190    0.46410    0.53030    1.000
    H149     H        0.10590    0.43790    0.51380    1.000
    H150     H        0.23500    0.44520    0.51620    1.000
    C95      C        0.15710    0.54030    0.51580    1.000
    H151     H        0.22340    0.56560    0.53310    1.000
    H152     H        0.09500    0.55850    0.53110    1.000
    C96      C        0.13660    0.55520    0.45680    1.000
    H153     H        0.20150    0.54130    0.44190    1.000
    H154     H        0.07390    0.52710    0.43880    1.000
    C97      C        0.11280    0.63050    0.44430    1.000
    H155     H        0.17440    0.65900    0.46270    1.000
    H156     H        0.04630    0.64440    0.45780    1.000
    C98      C        0.09620    0.64270    0.38480    1.000
    C99      C        0.52810    0.42910    0.61710    1.000
    C100     C        0.49270    0.44360    0.55850    1.000
    H157     H        0.42400    0.47060    0.55270    1.000
    H158     H        0.54920    0.47140    0.54550    1.000
    C101     C        0.47500    0.37730    0.52730    1.000
    H159     H        0.41380    0.35230    0.53870    1.000
    H160     H        0.45190    0.38890    0.48860    1.000
    C102     C        0.57330    0.32810    0.53280    1.000
    H161     H        0.58420    0.30730    0.56920    1.000
    H162     H        0.63900    0.35610    0.53090    1.000
    C103     C        0.56780    0.27260    0.49390    1.000
    H163     H        0.49620    0.24970    0.49230    1.000
    H164     H        0.56610    0.29440    0.45830    1.000
    C104     C        0.65230    0.21610    0.49930    1.000
    H165     H        0.64540    0.18790    0.53120    1.000
    H166     H        0.72540    0.23800    0.50680    1.000
    C105     C        0.64850    0.16870    0.45270    1.000
    O85      O        0.82310    0.38480    0.91360    1.000
    O86      O        0.80510    0.31370    0.97870    1.000
    O87      O        0.17690    0.62100    0.08970    1.000
    O88      O        0.15760    0.66790    0.00930    1.000
    C106     C        0.82800    0.37240    0.96170    1.000
    C107     C        0.88200    0.42330    0.00460    1.000
    H167     H        0.96140    0.41430    0.01430    1.000
    H168     H        0.84980    0.41710    0.03730    1.000
    C108     C        0.86210    0.49580    0.98420    1.000
    H169     H        0.83670    0.52490    0.01170    1.000
    H170     H        0.80530    0.49620    0.95110    1.000
    C109     C        0.96880    0.52470    0.97190    1.000
    H171     H        0.98610    0.50250    0.93920    1.000
    H172     H        0.96310    0.57520    0.96580    1.000
    C110     C        0.05760    0.50870    0.02050    1.000
    H173     H        0.03550    0.52580    0.05390    1.000
    H174     H        0.06920    0.45820    0.02390    1.000
    C111     C        0.16090    0.54510    0.01330    1.000
    H175     H        0.16320    0.54840    0.97440    1.000
    H176     H        0.22540    0.51860    0.03120    1.000
    C112     C        0.16100    0.61660    0.03930    1.000
