data_functionalizedCrystal
_audit_creation_method	'EQeq! by Chris Wilmer'
_symmetry_space_group_name_H-M	'P1'
_symmetry_Int_Tables_number	1
_symmetry_cell_setting	triclinic
loop_
_symmetry_equiv_pos_as_xyz
  x,y,z
_cell_length_a	9.8281
_cell_length_b	10.1059
_cell_length_c	18.9121
_cell_angle_alpha	105.13
_cell_angle_beta	105.06
_cell_angle_gamma	90
loop_
_atom_site_label
_atom_site_type_symbol
_atom_site_fract_x
_atom_site_fract_y
_atom_site_fract_z
_atom_site_charge
Mof_In	In	0.13344	0.9882	0.27877	3.98
Mof_H 	H 	0.75191	0.82701	0.07793	0.055
Mof_H 	H 	0.68004	0.88972	0.97137	0.053
Mof_H 	H 	0.61541	0.82696	0.83335	0.047
Mof_H 	H 	0.15814	0.77426	0.72333	0.028
Mof_H 	H 	0.08898	0.71084	0.58342	0.047
Mof_H 	H 	0.3154	0.85258	0.07666	0.049
Mof_H 	H 	0.28075	0.69869	0.96431	0.05
Mof_H 	H 	0.21216	0.6494	0.8263	0.049
Mof_H 	H 	0.56574	0.6168	0.72194	0.044
Mof_H 	H 	0.4943	0.54964	0.5823	0.049
Mof_H 	H 	0.63823	0.94922	0.29	0.048
Mof_H 	H 	0.24927	0.36313	0.48846	0.051
Mof_H 	H 	0.12154	0.43523	0.2673	0.047
Mof_H 	H 	0.22246	0.77721	0.46886	0.053
Mof_C 	C 	0.87553	0.91971	0.22517	0.453
Mof_C 	C 	0.71602	0.89185	0.18858	-0.1
Mof_C 	C 	0.67199	0.84884	0.10847	0.013
Mof_C 	C 	0.57909	0.83356	0.94131	-0.042
Mof_C 	C 	0.5413	0.79943	0.86158	-0.03
Mof_C 	C 	0.23281	0.72642	0.69317	-0.02
Mof_C 	C 	0.19359	0.69117	0.61332	-0.046
Mof_C 	C 	0.33695	0.92536	0.22415	0.444
Mof_C 	C 	0.46024	0.89677	0.18791	-0.101
Mof_C 	C 	0.42541	0.8589	0.10774	0.011
Mof_C 	C 	0.35432	0.73123	0.9374	-0.042
Mof_C 	C 	0.3148	0.70156	0.8577	-0.034
Mof_C 	C 	0.46182	0.63902	0.69252	-0.03
Mof_C 	C 	0.42126	0.60068	0.61275	-0.045
Mof_C 	C 	0.60793	0.91451	0.22852	0.046
Mof_C 	C 	0.52861	0.83476	0.06702	-0.025
Mof_C 	C 	0.48698	0.79905	0.98105	0.024
Mof_C 	C 	0.40805	0.73476	0.81875	0.009
Mof_C 	C 	0.36729	0.70041	0.7338	-0
Mof_C 	C 	0.28684	0.6263	0.57239	0.028
Mof_C 	C 	0.24088	0.57591	0.48799	-0.033
Mof_C 	C 	0.22699	0.43385	0.45323	0.021
Mof_C 	C 	0.1828	0.38261	0.37369	-0.121
Mof_C 	C 	0.15453	0.47502	0.32865	0.055
Mof_C 	C 	0.16923	0.61789	0.36189	-0.112
Mof_C 	C 	0.21114	0.66763	0.44205	0.022
Mof_C 	C 	0.16514	0.23272	0.33746	0.46
Mof_C 	C 	0.14206	0.71356	0.31249	0.401
Mof_O 	O 	0.96611	0.91225	0.18782	-0.782
Mof_O 	O 	0.93726	0.95893	0.29505	-0.759
Mof_O 	O 	0.21329	0.94082	0.18782	-0.8
Mof_O 	O 	0.34022	0.9378	0.29265	-0.76
Mof_O 	O 	0.12584	0.17928	0.26711	-0.839
Mof_O 	O 	0.18632	0.14354	0.3734	-0.826
Mof_O 	O 	0.16733	0.85551	0.34508	-0.753
Mof_O 	O 	0.09916	0.66801	0.24358	-0.34
Mof_In	In	0.86656	0.0118	0.72123	3.981
Mof_H 	H 	0.6846	0.14742	0.92334	0.049
Mof_H 	H 	0.71925	0.30131	0.03569	0.05
Mof_H 	H 	0.78784	0.3506	0.1737	0.049
Mof_H 	H 	0.43426	0.3832	0.27806	0.044
Mof_H 	H 	0.5057	0.45036	0.4177	0.049
Mof_H 	H 	0.24809	0.17299	0.92207	0.056
Mof_H 	H 	0.31996	0.11028	0.02863	0.054
Mof_H 	H 	0.38459	0.17304	0.16665	0.048
Mof_H 	H 	0.84186	0.22574	0.27667	0.029
Mof_H 	H 	0.91102	0.28916	0.41658	0.048
Mof_H 	H 	0.36177	0.05078	0.71	0.048
Mof_H 	H 	0.75073	0.63687	0.51154	0.051
Mof_H 	H 	0.87846	0.56477	0.7327	0.047
Mof_H 	H 	0.77754	0.22279	0.53114	0.053
Mof_C 	C 	0.66305	0.07464	0.77585	0.444
Mof_C 	C 	0.53976	0.10323	0.81209	-0.101
Mof_C 	C 	0.57459	0.1411	0.89226	0.011
Mof_C 	C 	0.64568	0.26877	0.0626	-0.042
Mof_C 	C 	0.6852	0.29844	0.1423	-0.034
Mof_C 	C 	0.53818	0.36098	0.30748	-0.03
Mof_C 	C 	0.57874	0.39932	0.38725	-0.045
Mof_C 	C 	0.12447	0.08029	0.77483	0.453
Mof_C 	C 	0.28398	0.10815	0.81142	-0.1
Mof_C 	C 	0.32801	0.15116	0.89153	0.013
Mof_C 	C 	0.42091	0.16644	0.05869	-0.042
Mof_C 	C 	0.4587	0.20057	0.13842	-0.03
Mof_C 	C 	0.76719	0.27358	0.30683	-0.02
Mof_C 	C 	0.80641	0.30883	0.38668	-0.046
Mof_C 	C 	0.39207	0.08549	0.77148	0.046
Mof_C 	C 	0.47139	0.16524	0.93298	-0.025
Mof_C 	C 	0.51302	0.20095	0.01895	0.024
Mof_C 	C 	0.59195	0.26524	0.18125	0.009
Mof_C 	C 	0.63271	0.29959	0.2662	-0
Mof_C 	C 	0.71316	0.3737	0.42761	0.028
Mof_C 	C 	0.75912	0.42409	0.51201	-0.033
Mof_C 	C 	0.77301	0.56615	0.54677	0.021
Mof_C 	C 	0.8172	0.61739	0.62631	-0.121
Mof_C 	C 	0.84547	0.52498	0.67135	0.055
Mof_C 	C 	0.83077	0.38211	0.63811	-0.112
Mof_C 	C 	0.78886	0.33237	0.55795	0.022
Mof_C 	C 	0.83486	0.76728	0.66254	0.46
Mof_C 	C 	0.85794	0.28644	0.68751	0.401
Mof_O 	O 	0.78671	0.05918	0.81218	-0.8
Mof_O 	O 	0.65978	0.0622	0.70735	-0.76
Mof_O 	O 	0.03389	0.08775	0.81218	-0.782
Mof_O 	O 	0.06274	0.04107	0.70495	-0.759
Mof_O 	O 	0.87416	0.82072	0.73289	-0.839
Mof_O 	O 	0.81368	0.85646	0.6266	-0.826
Mof_O 	O 	0.83267	0.14449	0.65492	-0.753
Mof_O 	O 	0.90084	0.33199	0.75642	-0.34
_end
