data_functionalizedCrystal
_audit_creation_method	'EQeq! by Chris Wilmer'
_symmetry_space_group_name_H-M	'P1'
_symmetry_Int_Tables_number	1
_symmetry_cell_setting	triclinic
loop_
_symmetry_equiv_pos_as_xyz
  x,y,z
_cell_length_a	8.2331
_cell_length_b	10.8651
_cell_length_c	28.5582
_cell_angle_alpha	90
_cell_angle_beta	90
_cell_angle_gamma	90
loop_
_atom_site_label
_atom_site_type_symbol
_atom_site_fract_x
_atom_site_fract_y
_atom_site_fract_z
_atom_site_charge
Mof_U 	U 	0.64761	0.66651	0.92779	0.021
Mof_U 	U 	0.39659	0.16786	0.92975	0.016
Mof_U 	U 	0.28146	0.55706	0.75086	0.017
Mof_U 	U 	0.85239	0.33349	0.42779	0.022
Mof_U 	U 	0.10341	0.83214	0.42975	0.016
Mof_U 	U 	0.21854	0.44294	0.25086	0.016
Mof_U 	U 	0.35239	0.16651	0.57221	0.022
Mof_U 	U 	0.60341	0.66786	0.57025	0.017
Mof_U 	U 	0.71854	0.05706	0.74914	0.017
Mof_U 	U 	0.14761	0.83349	0.07221	0.022
Mof_U 	U 	0.89659	0.33214	0.07025	0.017
Mof_U 	U 	0.78146	0.94294	0.24914	0.017
Mof_H 	H 	0.334	0.7866	0.9618	0.244
Mof_H 	H 	0.7069	0.2521	0.9635	0.226
Mof_H 	H 	0.0934	0.8775	0.9183	0.205
Mof_H 	H 	0.0482	0.814	0.8705	0.214
Mof_H 	H 	0.2024	0.5536	0.9374	0.221
Mof_H 	H 	0.0578	0.5919	0.9049	0.227
Mof_H 	H 	0.9537	0.3671	0.9129	0.217
Mof_H 	H 	0.9842	0.3035	0.8645	0.222
Mof_H 	H 	0.9868	0.0942	0.9019	0.226
Mof_H 	H 	0.84	0.0551	0.9334	0.219
Mof_H 	H 	0.166	0.2134	0.4618	0.244
Mof_H 	H 	0.7931	0.7479	0.4635	0.226
Mof_H 	H 	0.4066	0.1225	0.4183	0.206
Mof_H 	H 	0.4518	0.186	0.3705	0.214
Mof_H 	H 	0.2976	0.4464	0.4374	0.221
Mof_H 	H 	0.4422	0.4081	0.4049	0.227
Mof_H 	H 	0.5463	0.6329	0.4129	0.217
Mof_H 	H 	0.5158	0.6965	0.3645	0.222
Mof_H 	H 	0.5132	0.9058	0.4019	0.227
Mof_H 	H 	0.66	0.9449	0.4334	0.22
Mof_H 	H 	0.666	0.2866	0.5382	0.244
Mof_H 	H 	0.2931	0.7521	0.5365	0.226
Mof_H 	H 	0.9066	0.3775	0.5817	0.206
Mof_H 	H 	0.9518	0.314	0.6295	0.215
Mof_H 	H 	0.7976	0.0536	0.5626	0.221
Mof_H 	H 	0.9422	0.0919	0.5951	0.226
Mof_H 	H 	0.0463	0.8671	0.5871	0.216
Mof_H 	H 	0.0158	0.8035	0.6355	0.222
Mof_H 	H 	0.0132	0.5942	0.5981	0.227
Mof_H 	H 	0.16	0.5551	0.5666	0.219
Mof_H 	H 	0.834	0.7134	0.0382	0.244
Mof_H 	H 	0.2069	0.2479	0.0365	0.226
Mof_H 	H 	0.5934	0.6225	0.0817	0.206
Mof_H 	H 	0.5482	0.686	0.1295	0.215
Mof_H 	H 	0.7024	0.9464	0.0626	0.222
Mof_H 	H 	0.5578	0.9081	0.0951	0.227
Mof_H 	H 	0.4537	0.1329	0.0871	0.217
Mof_H 	H 	0.4842	0.1965	0.1355	0.222
Mof_H 	H 	0.4868	0.4058	0.0981	0.227
Mof_H 	H 	0.34	0.4449	0.0666	0.219
Mof_C 	C 	0.244	0.7222	0.9046	0.312
Mof_C 	C 	0.3194	0.6593	0.8612	0.188
Mof_C 	C 	0.1378	0.839	0.8904	-0.484
Mof_C 	C 	0.2449	0.9287	0.8648	0.412
Mof_C 	C 	0.1348	0.6222	0.9278	-0.525
Mof_C 	C 	0.0433	0.6691	0.9696	0.422
Mof_C 	C 	0.8021	0.2231	0.9013	0.334
Mof_C 	C 	0.7159	0.1631	0.8598	0.171
Mof_C 	C 	0.9004	0.3314	0.8859	-0.513
Mof_C 	C 	0.798	0.4313	0.8615	0.431
Mof_C 	C 	0.9085	0.1239	0.9246	-0.535
Mof_C 	C 	0.9987	0.1679	0.9675	0.409
Mof_C 	C 	0.256	0.2778	0.4046	0.313
Mof_C 	C 	0.1806	0.3407	0.3612	0.188
Mof_C 	C 	0.3622	0.161	0.3904	-0.485
Mof_C 	C 	0.2551	0.0713	0.3648	0.415
Mof_C 	C 	0.3652	0.3778	0.4278	-0.526
Mof_C 	C 	0.4567	0.3309	0.4696	0.423
Mof_C 	C 	0.6979	0.7769	0.4013	0.334
Mof_C 	C 	0.7841	0.8369	0.3598	0.171
Mof_C 	C 	0.5996	0.6686	0.3859	-0.513
Mof_C 	C 	0.702	0.5687	0.3615	0.431
Mof_C 	C 	0.5915	0.8761	0.4246	-0.536
Mof_C 	C 	0.5013	0.8321	0.4675	0.411
Mof_C 	C 	0.756	0.2222	0.5954	0.313
Mof_C 	C 	0.6806	0.1593	0.6388	0.188
Mof_C 	C 	0.8622	0.339	0.6096	-0.485
Mof_C 	C 	0.7551	0.4287	0.6352	0.415
Mof_C 	C 	0.8652	0.1222	0.5722	-0.525
Mof_C 	C 	0.9567	0.1691	0.5304	0.421
Mof_C 	C 	0.1979	0.7231	0.5987	0.333
Mof_C 	C 	0.2841	0.6631	0.6402	0.171
Mof_C 	C 	0.0996	0.8314	0.6141	-0.512
Mof_C 	C 	0.202	0.9313	0.6385	0.428
Mof_C 	C 	0.0915	0.6239	0.5754	-0.535
Mof_C 	C 	0.0013	0.6679	0.5325	0.41
Mof_C 	C 	0.744	0.7778	0.0954	0.313
Mof_C 	C 	0.8194	0.8407	0.1388	0.187
Mof_C 	C 	0.6378	0.661	0.1096	-0.485
Mof_C 	C 	0.7449	0.5713	0.1352	0.415
Mof_C 	C 	0.6348	0.8778	0.0722	-0.526
Mof_C 	C 	0.5433	0.8309	0.0304	0.423
Mof_C 	C 	0.3021	0.2769	0.0987	0.334
Mof_C 	C 	0.2159	0.3369	0.1402	0.171
Mof_C 	C 	0.4004	0.1686	0.1141	-0.513
Mof_C 	C 	0.298	0.0687	0.1385	0.431
Mof_C 	C 	0.4085	0.3761	0.0754	-0.536
Mof_C 	C 	0.4987	0.3321	0.0325	0.411
Mof_O 	O 	0.3735	0.7598	0.9338	-0.321
Mof_O 	O 	0.4692	0.6427	0.8625	-0.117
Mof_O 	O 	0.2267	0.6287	0.8287	-0.152
Mof_O 	O 	0.2529	0.0384	0.8811	-0.213
Mof_O 	O 	0.313	0.8968	0.8275	-0.192
Mof_O 	O 	0.8932	0.6469	0.9728	-0.232
Mof_O 	O 	0.1219	0.7234	0.0007	-0.237
Mof_O 	O 	0.6726	0.2642	0.9324	-0.298
Mof_O 	O 	0.5654	0.1444	0.8629	-0.112
Mof_O 	O 	0.8034	0.1302	0.8259	-0.146
Mof_O 	O 	0.7968	0.5394	0.8775	-0.223
Mof_O 	O 	0.7222	0.4004	0.8258	-0.197
Mof_O 	O 	0.9188	0.2267	0.9985	-0.232
Mof_O 	O 	0.1474	0.1455	0.9716	-0.226
Mof_O 	O 	0.1265	0.2402	0.4338	-0.321
Mof_O 	O 	0.0308	0.3573	0.3625	-0.117
Mof_O 	O 	0.2733	0.3713	0.3287	-0.152
Mof_O 	O 	0.2471	0.9616	0.3811	-0.216
Mof_O 	O 	0.187	0.1032	0.3275	-0.193
Mof_O 	O 	0.6068	0.3531	0.4728	-0.233
Mof_O 	O 	0.3781	0.2766	0.5007	-0.237
Mof_O 	O 	0.8274	0.7358	0.4324	-0.298
Mof_O 	O 	0.9346	0.8556	0.3629	-0.112
Mof_O 	O 	0.6966	0.8698	0.3259	-0.146
Mof_O 	O 	0.7032	0.4606	0.3775	-0.223
Mof_O 	O 	0.7778	0.5996	0.3258	-0.198
Mof_O 	O 	0.5812	0.7733	0.4985	-0.232
Mof_O 	O 	0.3526	0.8545	0.4716	-0.227
Mof_O 	O 	0.6265	0.2598	0.5662	-0.321
Mof_O 	O 	0.5308	0.1427	0.6375	-0.116
Mof_O 	O 	0.7733	0.1287	0.6713	-0.152
Mof_O 	O 	0.7471	0.5384	0.6189	-0.215
Mof_O 	O 	0.687	0.3968	0.6725	-0.192
Mof_O 	O 	0.1068	0.1469	0.5272	-0.232
Mof_O 	O 	0.8781	0.2234	0.4993	-0.237
Mof_O 	O 	0.3274	0.7642	0.5676	-0.298
Mof_O 	O 	0.4346	0.6444	0.6371	-0.113
Mof_O 	O 	0.1966	0.6302	0.6741	-0.146
Mof_O 	O 	0.2032	0.0394	0.6225	-0.221
Mof_O 	O 	0.2778	0.9004	0.6742	-0.197
Mof_O 	O 	0.0812	0.7267	0.5015	-0.232
Mof_O 	O 	0.8526	0.6455	0.5284	-0.226
Mof_O 	O 	0.8735	0.7402	0.0662	-0.321
Mof_O 	O 	0.9692	0.8573	0.1375	-0.116
Mof_O 	O 	0.7267	0.8713	0.1713	-0.151
Mof_O 	O 	0.7529	0.4616	0.1189	-0.216
Mof_O 	O 	0.813	0.6032	0.1725	-0.193
Mof_O 	O 	0.3932	0.8531	0.0272	-0.234
Mof_O 	O 	0.6219	0.7766	0.9993	-0.237
Mof_O 	O 	0.1726	0.2358	0.0676	-0.298
Mof_O 	O 	0.0654	0.3556	0.1371	-0.113
Mof_O 	O 	0.3034	0.3698	0.1741	-0.147
Mof_O 	O 	0.2968	0.9606	0.1225	-0.223
Mof_O 	O 	0.2222	0.0996	0.1742	-0.198
Mof_O 	O 	0.4188	0.2733	0.0015	-0.232
Mof_O 	O 	0.6474	0.3545	0.0284	-0.227
_end
