data_functionalizedCrystal
_audit_creation_method	'EQeq! by Chris Wilmer'
_symmetry_space_group_name_H-M	'P1'
_symmetry_Int_Tables_number	1
_symmetry_cell_setting	triclinic
loop_
_symmetry_equiv_pos_as_xyz
  x,y,z
_cell_length_a	23.113
_cell_length_b	7.3954
_cell_length_c	29.657
_cell_angle_alpha	90
_cell_angle_beta	93.037
_cell_angle_gamma	90
loop_
_atom_site_label
_atom_site_type_symbol
_atom_site_fract_x
_atom_site_fract_y
_atom_site_fract_z
_atom_site_charge
Mof_Mn	Mn	0.97577	0.53603	0.35671	0.697
Mof_C 	C 	0.0867	0.4745	0.3102	0.357
Mof_C 	C 	0.1495	0.4231	0.31093	-0.104
Mof_C 	C 	0.1784	0.3779	0.35127	0.039
Mof_H 	H 	0.1591	0.3848	0.3779	0.039
Mof_C 	C 	0.2354	0.3229	0.35271	-0.091
Mof_C 	C 	0.2646	0.3171	0.31241	-0.011
Mof_H 	H 	0.3032	0.2808	0.3131	0.038
Mof_C 	C 	0.2368	0.3644	0.27182	-0.01
Mof_C 	C 	0.1789	0.4146	0.27134	-0.006
Mof_H 	H 	0.1594	0.443	0.244	0.035
Mof_C 	C 	0.2687	0.364	0.22935	0.008
Mof_C 	C 	0.2417	0.3106	0.18841	-0.034
Mof_H 	H 	0.2036	0.2698	0.1877	0.047
Mof_C 	C 	0.2709	0.317	0.14832	-0.063
Mof_C 	C 	0.328	0.3801	0.14976	0.015
Mof_H 	H 	0.3478	0.3862	0.1233	0.049
Mof_C 	C 	0.3555	0.434	0.19064	-0.082
Mof_C 	C 	0.3253	0.4237	0.22956	-0.024
Mof_H 	H 	0.3438	0.4581	0.2568	0.044
Mof_C 	C 	0.2408	0.2606	0.10471	0.296
Mof_C 	C 	0.4153	0.5105	0.19181	0.342
Mof_C 	C 	0.2645	0.2699	0.39707	0.349
Mof_O 	O 	0.05762	0.4637	0.27259	-0.383
Mof_O 	O 	0.06597	0.5203	0.34689	-0.389
Mof_O 	O 	0.23189	0.2552	0.42985	-0.371
Mof_O 	O 	0.31796	0.2477	0.4	-0.294
Mof_O 	O 	0.43884	0.5462	0.23021	-0.384
Mof_O 	O 	0.43935	0.5426	0.15551	-0.328
Mof_O 	O 	0.27134	0.2374	0.07094	-0.251
Mof_O 	O 	0.18721	0.2357	0.1033	-0.261
Mof_O 	O 	0.97132	0.2571	0.32206	-0.938
Mof_H 	H 	0.9997	0.2061	0.3339	0.427
Mof_H 	H 	0.9432	0.1926	0.3262	0.392
Mof_Mn	Mn	0.47577	0.03603	0.35671	0.656
Mof_C 	C 	0.5867	0.9745	0.3102	0.357
Mof_C 	C 	0.6495	0.9231	0.31093	-0.1
Mof_C 	C 	0.6784	0.8779	0.35127	0.038
Mof_H 	H 	0.6591	0.8848	0.3779	0.043
Mof_C 	C 	0.7354	0.8229	0.35271	-0.09
Mof_C 	C 	0.7646	0.8171	0.31241	-0.012
Mof_H 	H 	0.8032	0.7808	0.3131	0.039
Mof_C 	C 	0.7368	0.8644	0.27182	-0.01
Mof_C 	C 	0.6789	0.9146	0.27134	-0.007
Mof_H 	H 	0.6594	0.943	0.244	0.035
Mof_C 	C 	0.7687	0.864	0.22935	0.011
Mof_C 	C 	0.7417	0.8106	0.18841	-0.036
Mof_H 	H 	0.7036	0.7698	0.1877	0.049
Mof_C 	C 	0.7709	0.817	0.14832	-0.059
Mof_C 	C 	0.828	0.8801	0.14976	0.01
Mof_H 	H 	0.8478	0.8862	0.1233	0.053
Mof_C 	C 	0.8555	0.934	0.19064	-0.074
Mof_C 	C 	0.8253	0.9237	0.22956	-0.029
Mof_H 	H 	0.8438	0.9581	0.2568	0.047
Mof_C 	C 	0.7408	0.7606	0.10471	0.294
Mof_C 	C 	0.9153	0.0105	0.19181	0.334
Mof_C 	C 	0.7645	0.7699	0.39707	0.348
Mof_O 	O 	0.55762	0.9637	0.27259	-0.376
Mof_O 	O 	0.56597	0.0203	0.34689	-0.37
Mof_O 	O 	0.73189	0.7552	0.42985	-0.369
Mof_O 	O 	0.81796	0.7477	0.4	-0.291
Mof_O 	O 	0.93884	0.0462	0.23021	-0.361
Mof_O 	O 	0.93935	0.0426	0.15551	-0.307
Mof_O 	O 	0.77134	0.7374	0.07094	-0.248
Mof_O 	O 	0.68721	0.7357	0.1033	-0.259
Mof_O 	O 	0.47132	0.7571	0.32206	-0.944
Mof_H 	H 	0.4997	0.7061	0.3339	0.41
Mof_H 	H 	0.4432	0.6926	0.3262	0.389
Mof_Mn	Mn	0.02423	0.53603	0.14329	0.616
Mof_C 	C 	0.9133	0.4745	0.1898	0.349
Mof_C 	C 	0.8505	0.4231	0.18907	-0.094
Mof_C 	C 	0.8216	0.3779	0.14873	0.034
Mof_H 	H 	0.8409	0.3848	0.1221	0.046
Mof_C 	C 	0.7646	0.3229	0.14729	-0.087
Mof_C 	C 	0.7354	0.3171	0.18759	-0.014
Mof_H 	H 	0.6968	0.2808	0.1869	0.039
Mof_C 	C 	0.7632	0.3644	0.22818	-0.007
Mof_C 	C 	0.8211	0.4146	0.22866	-0.011
Mof_H 	H 	0.8406	0.443	0.256	0.038
Mof_C 	C 	0.7313	0.364	0.27065	0.008
Mof_C 	C 	0.7583	0.3106	0.31159	-0.034
Mof_H 	H 	0.7964	0.2698	0.3123	0.048
Mof_C 	C 	0.7291	0.317	0.35168	-0.061
Mof_C 	C 	0.672	0.3801	0.35024	0.014
Mof_H 	H 	0.6522	0.3862	0.3767	0.05
Mof_C 	C 	0.6445	0.434	0.30936	-0.081
Mof_C 	C 	0.6747	0.4237	0.27044	-0.024
Mof_H 	H 	0.6562	0.4581	0.2432	0.044
Mof_C 	C 	0.7592	0.2606	0.39529	0.294
Mof_C 	C 	0.5847	0.5105	0.30819	0.341
Mof_C 	C 	0.7355	0.2699	0.10293	0.346
Mof_O 	O 	0.94238	0.4637	0.22741	-0.352
Mof_O 	O 	0.93403	0.5203	0.15311	-0.347
Mof_O 	O 	0.76811	0.2552	0.07015	-0.368
Mof_O 	O 	0.68204	0.2477	0.1	-0.295
Mof_O 	O 	0.56116	0.5462	0.26979	-0.384
Mof_O 	O 	0.56065	0.5426	0.34449	-0.327
Mof_O 	O 	0.72866	0.2374	0.42906	-0.245
Mof_O 	O 	0.81279	0.2357	0.3967	-0.254
Mof_O 	O 	0.02868	0.2571	0.17794	-0.931
Mof_H 	H 	0.0003	0.2061	0.1661	0.39
Mof_H 	H 	0.0568	0.1926	0.1738	0.382
Mof_Mn	Mn	0.52423	0.03603	0.14329	0.652
Mof_C 	C 	0.4133	0.9745	0.1898	0.357
Mof_C 	C 	0.3505	0.9231	0.18907	-0.101
Mof_C 	C 	0.3216	0.8779	0.14873	0.039
Mof_H 	H 	0.3409	0.8848	0.1221	0.042
Mof_C 	C 	0.2646	0.8229	0.14729	-0.091
Mof_C 	C 	0.2354	0.8171	0.18759	-0.011
Mof_H 	H 	0.1968	0.7808	0.1869	0.038
Mof_C 	C 	0.2632	0.8644	0.22818	-0.009
Mof_C 	C 	0.3211	0.9146	0.22866	-0.007
Mof_H 	H 	0.3406	0.943	0.256	0.036
Mof_C 	C 	0.2313	0.864	0.27065	0.008
Mof_C 	C 	0.2583	0.8106	0.31159	-0.033
Mof_H 	H 	0.2964	0.7698	0.3123	0.048
Mof_C 	C 	0.2291	0.817	0.35168	-0.063
Mof_C 	C 	0.172	0.8801	0.35024	0.015
Mof_H 	H 	0.1522	0.8862	0.3767	0.048
Mof_C 	C 	0.1445	0.934	0.30936	-0.083
Mof_C 	C 	0.1747	0.9237	0.27044	-0.023
Mof_H 	H 	0.1562	0.9581	0.2432	0.044
Mof_C 	C 	0.2592	0.7606	0.39529	0.295
Mof_C 	C 	0.0847	0.0105	0.30819	0.341
Mof_C 	C 	0.2355	0.7699	0.10293	0.348
Mof_O 	O 	0.44238	0.9637	0.22741	-0.377
Mof_O 	O 	0.43403	0.0203	0.15311	-0.371
Mof_O 	O 	0.26811	0.7552	0.07015	-0.369
Mof_O 	O 	0.18204	0.7477	0.1	-0.298
Mof_O 	O 	0.06116	0.0462	0.26979	-0.388
Mof_O 	O 	0.06065	0.0426	0.34449	-0.343
Mof_O 	O 	0.22866	0.7374	0.42906	-0.248
Mof_O 	O 	0.31279	0.7357	0.3967	-0.257
Mof_O 	O 	0.52868	0.7571	0.17794	-0.943
Mof_H 	H 	0.5003	0.7061	0.1661	0.409
Mof_H 	H 	0.5568	0.6926	0.1738	0.389
Mof_Mn	Mn	0.02423	0.46397	0.64329	0.619
Mof_C 	C 	0.9133	0.5255	0.6898	0.348
Mof_C 	C 	0.8505	0.5769	0.68907	-0.093
Mof_C 	C 	0.8216	0.6221	0.64873	0.033
Mof_H 	H 	0.8409	0.6152	0.6221	0.047
Mof_C 	C 	0.7646	0.6771	0.64729	-0.087
Mof_C 	C 	0.7354	0.6829	0.68759	-0.014
Mof_H 	H 	0.6968	0.7192	0.6869	0.039
Mof_C 	C 	0.7632	0.6356	0.72818	-0.007
Mof_C 	C 	0.8211	0.5854	0.72866	-0.012
Mof_H 	H 	0.8406	0.557	0.756	0.038
Mof_C 	C 	0.7313	0.636	0.77065	0.008
Mof_C 	C 	0.7583	0.6894	0.81159	-0.035
Mof_H 	H 	0.7964	0.7302	0.8123	0.049
Mof_C 	C 	0.7291	0.683	0.85168	-0.059
Mof_C 	C 	0.672	0.6199	0.85024	0.012
Mof_H 	H 	0.6522	0.6138	0.8767	0.053
Mof_C 	C 	0.6445	0.566	0.80936	-0.08
Mof_C 	C 	0.6747	0.5763	0.77044	-0.025
Mof_H 	H 	0.6562	0.5419	0.7432	0.045
Mof_C 	C 	0.7592	0.7394	0.89529	0.292
Mof_C 	C 	0.5847	0.4895	0.80819	0.34
Mof_C 	C 	0.7355	0.7301	0.60293	0.347
Mof_O 	O 	0.94238	0.5363	0.72741	-0.353
Mof_O 	O 	0.93403	0.4797	0.65311	-0.347
Mof_O 	O 	0.76811	0.7448	0.57015	-0.368
Mof_O 	O 	0.68204	0.7523	0.6	-0.294
Mof_O 	O 	0.56116	0.4538	0.76979	-0.384
Mof_O 	O 	0.56065	0.4574	0.84449	-0.325
Mof_O 	O 	0.72866	0.7626	0.92906	-0.238
Mof_O 	O 	0.81279	0.7643	0.8967	-0.25
Mof_O 	O 	0.02868	0.7429	0.67794	-0.932
Mof_H 	H 	0.0003	0.7939	0.6661	0.391
Mof_H 	H 	0.0568	0.8074	0.6738	0.383
Mof_Mn	Mn	0.52423	0.96397	0.64329	0.655
Mof_C 	C 	0.4133	0.0255	0.6898	0.357
Mof_C 	C 	0.3505	0.0769	0.68907	-0.1
Mof_C 	C 	0.3216	0.1221	0.64873	0.038
Mof_H 	H 	0.3409	0.1152	0.6221	0.043
Mof_C 	C 	0.2646	0.1771	0.64729	-0.09
Mof_C 	C 	0.2354	0.1829	0.68759	-0.011
Mof_H 	H 	0.1968	0.2192	0.6869	0.038
Mof_C 	C 	0.2632	0.1356	0.72818	-0.01
Mof_C 	C 	0.3211	0.0854	0.72866	-0.007
Mof_H 	H 	0.3406	0.057	0.756	0.036
Mof_C 	C 	0.2313	0.136	0.77065	0.009
Mof_C 	C 	0.2583	0.1894	0.81159	-0.035
Mof_H 	H 	0.2964	0.2302	0.8123	0.048
Mof_C 	C 	0.2291	0.183	0.85168	-0.06
Mof_C 	C 	0.172	0.1199	0.85024	0.013
Mof_H 	H 	0.1522	0.1138	0.8767	0.05
Mof_C 	C 	0.1445	0.066	0.80936	-0.081
Mof_C 	C 	0.1747	0.0763	0.77044	-0.025
Mof_H 	H 	0.1562	0.0419	0.7432	0.045
Mof_C 	C 	0.2592	0.2394	0.89529	0.293
Mof_C 	C 	0.0847	0.9895	0.80819	0.34
Mof_C 	C 	0.2355	0.2301	0.60293	0.348
Mof_O 	O 	0.44238	0.0363	0.72741	-0.377
Mof_O 	O 	0.43403	0.9797	0.65311	-0.371
Mof_O 	O 	0.26811	0.2448	0.57015	-0.37
Mof_O 	O 	0.18204	0.2523	0.6	-0.296
Mof_O 	O 	0.06116	0.9538	0.76979	-0.388
Mof_O 	O 	0.06065	0.9574	0.84449	-0.341
Mof_O 	O 	0.22866	0.2626	0.92906	-0.241
Mof_O 	O 	0.31279	0.2643	0.8967	-0.253
Mof_O 	O 	0.52868	0.2429	0.67794	-0.944
Mof_H 	H 	0.5003	0.2939	0.6661	0.41
Mof_H 	H 	0.5568	0.3074	0.6738	0.389
Mof_Mn	Mn	0.97577	0.46397	0.85671	0.702
Mof_C 	C 	0.0867	0.5255	0.8102	0.357
Mof_C 	C 	0.1495	0.5769	0.81093	-0.101
Mof_C 	C 	0.1784	0.6221	0.85127	0.038
Mof_H 	H 	0.1591	0.6152	0.8779	0.043
Mof_C 	C 	0.2354	0.6771	0.85271	-0.089
Mof_C 	C 	0.2646	0.6829	0.81241	-0.013
Mof_H 	H 	0.3032	0.7192	0.8131	0.039
Mof_C 	C 	0.2368	0.6356	0.77182	-0.009
Mof_C 	C 	0.1789	0.5854	0.77134	-0.007
Mof_H 	H 	0.1594	0.557	0.744	0.035
Mof_C 	C 	0.2687	0.636	0.72935	0.008
Mof_C 	C 	0.2417	0.6894	0.68841	-0.034
Mof_H 	H 	0.2036	0.7302	0.6877	0.048
Mof_C 	C 	0.2709	0.683	0.64832	-0.062
Mof_C 	C 	0.328	0.6199	0.64976	0.014
Mof_H 	H 	0.3478	0.6138	0.6233	0.05
Mof_C 	C 	0.3555	0.566	0.69064	-0.081
Mof_C 	C 	0.3253	0.5763	0.72956	-0.025
Mof_H 	H 	0.3438	0.5419	0.7568	0.045
Mof_C 	C 	0.2408	0.7394	0.60471	0.295
Mof_C 	C 	0.4153	0.4895	0.69181	0.341
Mof_C 	C 	0.2645	0.7301	0.89707	0.345
Mof_O 	O 	0.05762	0.5363	0.77259	-0.383
Mof_O 	O 	0.06597	0.4797	0.84689	-0.388
Mof_O 	O 	0.23189	0.7448	0.92985	-0.36
Mof_O 	O 	0.31796	0.7523	0.9	-0.289
Mof_O 	O 	0.43884	0.4538	0.73021	-0.384
Mof_O 	O 	0.43935	0.4574	0.65551	-0.327
Mof_O 	O 	0.27134	0.7626	0.57094	-0.247
Mof_O 	O 	0.18721	0.7643	0.6033	-0.259
Mof_O 	O 	0.97132	0.7429	0.82206	-0.939
Mof_H 	H 	0.9997	0.7939	0.8339	0.427
Mof_H 	H 	0.9432	0.8074	0.8262	0.393
Mof_Mn	Mn	0.47577	0.96397	0.85671	0.66
Mof_C 	C 	0.5867	0.0255	0.8102	0.356
Mof_C 	C 	0.6495	0.0769	0.81093	-0.099
Mof_C 	C 	0.6784	0.1221	0.85127	0.036
Mof_H 	H 	0.6591	0.1152	0.8779	0.046
Mof_C 	C 	0.7354	0.1771	0.85271	-0.087
Mof_C 	C 	0.7646	0.1829	0.81241	-0.013
Mof_H 	H 	0.8032	0.2192	0.8131	0.04
Mof_C 	C 	0.7368	0.1356	0.77182	-0.009
Mof_C 	C 	0.6789	0.0854	0.77134	-0.008
Mof_H 	H 	0.6594	0.057	0.744	0.036
Mof_C 	C 	0.7687	0.136	0.72935	0.011
Mof_C 	C 	0.7417	0.1894	0.68841	-0.037
Mof_H 	H 	0.7036	0.2302	0.6877	0.049
Mof_C 	C 	0.7709	0.183	0.64832	-0.058
Mof_C 	C 	0.828	0.1199	0.64976	0.009
Mof_H 	H 	0.8478	0.1138	0.6233	0.055
Mof_C 	C 	0.8555	0.066	0.69064	-0.073
Mof_C 	C 	0.8253	0.0763	0.72956	-0.029
Mof_H 	H 	0.8438	0.0419	0.7568	0.048
Mof_C 	C 	0.7408	0.2394	0.60471	0.293
Mof_C 	C 	0.9153	0.9895	0.69181	0.333
Mof_C 	C 	0.7645	0.2301	0.89707	0.345
Mof_O 	O 	0.55762	0.0363	0.77259	-0.376
Mof_O 	O 	0.56597	0.9797	0.84689	-0.369
Mof_O 	O 	0.73189	0.2448	0.92985	-0.358
Mof_O 	O 	0.81796	0.2523	0.9	-0.286
Mof_O 	O 	0.93884	0.9538	0.73021	-0.361
Mof_O 	O 	0.93935	0.9574	0.65551	-0.306
Mof_O 	O 	0.77134	0.2626	0.57094	-0.244
Mof_O 	O 	0.68721	0.2643	0.6033	-0.256
Mof_O 	O 	0.47132	0.2429	0.82206	-0.945
Mof_H 	H 	0.4997	0.2939	0.8339	0.411
Mof_H 	H 	0.4432	0.3074	0.8262	0.39
Mof_Mn	Mn	2.80728e-18	0.24979	0.25	0.965
Mof_Mn	Mn	0.5	0.74979	0.25	1.021
Mof_Mn	Mn	2.24582e-17	0.75021	0.75	0.965
Mof_Mn	Mn	0.5	0.25021	0.75	1.021
Mof_Mn	Mn	0.25	0.25	0.5	0.721
Mof_Mn	Mn	0.75	0.25	-0	0.704
Mof_Mn	Mn	0.75	0.75	0.5	0.727
Mof_Mn	Mn	0.25	0.75	-0	0.698
_end
