data_functionalizedCrystal
_audit_creation_method	'EQeq! by Chris Wilmer'
_symmetry_space_group_name_H-M	'P1'
_symmetry_Int_Tables_number	1
_symmetry_cell_setting	triclinic
loop_
_symmetry_equiv_pos_as_xyz
  x,y,z
_cell_length_a	18.8292
_cell_length_b	18.8292
_cell_length_c	18.8292
_cell_angle_alpha	68.7605
_cell_angle_beta	74.0102
_cell_angle_gamma	111.239
loop_
_atom_site_label
_atom_site_type_symbol
_atom_site_fract_x
_atom_site_fract_y
_atom_site_fract_z
_atom_site_charge
Mof_Zn	Zn	0.31125	0.85338	0.20431	1.228
Mof_Zn	Zn	0.94231	0.14662	0.54213	1.228
Mof_Zn	Zn	0.45787	0.51556	0.68875	1.228
Mof_Zn	Zn	0.79569	0.48444	0.05769	1.228
Mof_Zn	Zn	0.68875	0.14662	0.79569	1.227
Mof_Zn	Zn	0.05769	0.85338	0.45787	1.227
Mof_Zn	Zn	0.54213	0.48444	0.31125	1.227
Mof_Zn	Zn	0.20431	0.51556	0.94231	1.227
Mof_Zn	Zn	0.37965	0.65095	0.7287	1.218
Mof_Zn	Zn	0.62035	0.34905	0.2713	1.218
Mof_Zn	Zn	0.7287	0.10835	0.62035	1.218
Mof_Zn	Zn	0.2713	0.89165	0.37965	1.218
Mof_H 	H 	0.493	0.8471	0.7871	0.012
Mof_H 	H 	0.4672	0.9302	0.9548	0.017
Mof_H 	H 	0.3364	0.341	0.8918	0.014
Mof_H 	H 	0.2809	0.6936	0.0223	0.018
Mof_H 	H 	0.3658	0.1529	0.3541	0.009
Mof_H 	H 	0.115	0.0698	0.463	0.013
Mof_H 	H 	0.7672	0.659	0.0046	0.014
Mof_H 	H 	0.2841	0.3064	0.4127	0.01
Mof_H 	H 	0.6459	0.2801	0.507	0.009
Mof_H 	H 	0.537	0.422	0.5328	0.013
Mof_H 	H 	0.9954	0.2282	0.6636	0.015
Mof_H 	H 	0.5873	0.3032	0.7191	0.01
Mof_H 	H 	0.2129	0.7199	0.6342	0.011
Mof_H 	H 	0.0452	0.578	0.885	0.015
Mof_H 	H 	0.1082	0.7718	0.2328	0.015
Mof_H 	H 	0.9777	0.6968	0.7159	0.014
Mof_H 	H 	0.507	0.1529	0.2129	0.012
Mof_H 	H 	0.5328	0.0698	0.0452	0.017
Mof_H 	H 	0.6636	0.659	0.1082	0.014
Mof_H 	H 	0.7191	0.3064	0.9777	0.018
Mof_H 	H 	0.6342	0.8471	0.6459	0.009
Mof_H 	H 	0.885	0.9302	0.537	0.013
Mof_H 	H 	0.2328	0.341	0.9954	0.014
Mof_H 	H 	0.7159	0.6936	0.5873	0.01
Mof_H 	H 	0.3541	0.7199	0.493	0.009
Mof_H 	H 	0.463	0.578	0.4672	0.013
Mof_H 	H 	0.0046	0.7718	0.3364	0.015
Mof_H 	H 	0.4127	0.6968	0.2809	0.01
Mof_H 	H 	0.7871	0.2801	0.3658	0.011
Mof_H 	H 	0.9548	0.422	0.115	0.015
Mof_H 	H 	0.8918	0.2282	0.7672	0.015
Mof_H 	H 	0.0223	0.3032	0.2841	0.014
Mof_C 	C 	0.4627	0.8368	0.8415	0.126
Mof_C 	C 	0.3832	0.7582	0.902	-0.184
Mof_C 	C 	0.3665	0.8092	0.0033	-0.188
Mof_C 	C 	0.4949	0.8983	0.864	-0.207
Mof_C 	C 	0.446	0.8857	0.9425	0.126
Mof_C 	C 	0.3257	0.3872	0.8819	0.012
Mof_C 	C 	0.3344	0.7453	0.9831	0.099
Mof_C 	C 	0.3478	0.6878	0.881	0.439
Mof_C 	C 	0.3165	0.7942	0.0865	0.422
Mof_C 	C 	0.577	0.9825	0.8037	0.465
Mof_C 	C 	0.3217	0.1632	0.3741	0.135
Mof_C 	C 	0.3398	0.2418	0.375	-0.193
Mof_C 	C 	0.1875	0.1908	0.4427	-0.205
Mof_C 	C 	0.2377	0.1017	0.4034	-0.216
Mof_C 	C 	0.1718	0.1143	0.4397	0.141
Mof_C 	C 	0.7309	0.6128	0.0615	0.012
Mof_C 	C 	0.2716	0.2547	0.4109	0.118
Mof_C 	C 	0.4312	0.3122	0.34	0.442
Mof_C 	C 	0.1193	0.2058	0.4777	0.428
Mof_C 	C 	0.2138	0.0175	0.4055	0.473
Mof_C 	C 	0.6259	0.3042	0.5373	0.135
Mof_C 	C 	0.625	0.2852	0.6168	-0.193
Mof_C 	C 	0.5573	0.3698	0.6335	-0.205
Mof_C 	C 	0.5966	0.3589	0.5051	-0.217
Mof_C 	C 	0.5603	0.3885	0.554	0.141
Mof_C 	C 	0.9385	0.2076	0.6743	0.012
Mof_C 	C 	0.5891	0.3175	0.6656	0.118
Mof_C 	C 	0.66	0.2288	0.6522	0.443
Mof_C 	C 	0.5223	0.403	0.6835	0.428
Mof_C 	C 	0.5945	0.3807	0.423	0.475
Mof_C 	C 	0.1585	0.6958	0.6783	0.131
Mof_C 	C 	0.098	0.7148	0.6602	-0.189
Mof_C 	C 	0.9967	0.6302	0.8125	-0.196
Mof_C 	C 	0.136	0.6411	0.7623	-0.213
Mof_C 	C 	0.0575	0.6115	0.8282	0.133
Mof_C 	C 	0.1181	0.7924	0.2691	0.012
Mof_C 	C 	0.0169	0.6825	0.7284	0.108
Mof_C 	C 	0.119	0.7712	0.5688	0.441
Mof_C 	C 	0.9135	0.597	0.8807	0.425
Mof_C 	C 	0.1963	0.6193	0.7862	0.473
Mof_C 	C 	0.5373	0.1632	0.1585	0.126
Mof_C 	C 	0.6168	0.2418	0.098	-0.184
Mof_C 	C 	0.6335	0.1908	0.9967	-0.188
Mof_C 	C 	0.5051	0.1017	0.136	-0.207
Mof_C 	C 	0.554	0.1143	0.0575	0.126
Mof_C 	C 	0.6743	0.6128	0.1181	0.012
Mof_C 	C 	0.6656	0.2547	0.0169	0.099
Mof_C 	C 	0.6522	0.3122	0.119	0.439
Mof_C 	C 	0.6835	0.2058	0.9135	0.422
Mof_C 	C 	0.423	0.0175	0.1963	0.465
Mof_C 	C 	0.6783	0.8368	0.6259	0.135
Mof_C 	C 	0.6602	0.7582	0.625	-0.193
Mof_C 	C 	0.8125	0.8092	0.5573	-0.205
Mof_C 	C 	0.7623	0.8983	0.5966	-0.216
Mof_C 	C 	0.8282	0.8857	0.5603	0.141
Mof_C 	C 	0.2691	0.3872	0.9385	0.012
Mof_C 	C 	0.7284	0.7453	0.5891	0.118
Mof_C 	C 	0.5688	0.6878	0.66	0.442
Mof_C 	C 	0.8807	0.7942	0.5223	0.428
Mof_C 	C 	0.7862	0.9825	0.5945	0.473
Mof_C 	C 	0.3741	0.6958	0.4627	0.135
Mof_C 	C 	0.375	0.7148	0.3832	-0.193
Mof_C 	C 	0.4427	0.6302	0.3665	-0.205
Mof_C 	C 	0.4034	0.6411	0.4949	-0.217
Mof_C 	C 	0.4397	0.6115	0.446	0.141
Mof_C 	C 	0.0615	0.7924	0.3257	0.012
Mof_C 	C 	0.4109	0.6825	0.3344	0.118
Mof_C 	C 	0.34	0.7712	0.3478	0.443
Mof_C 	C 	0.4777	0.597	0.3165	0.428
Mof_C 	C 	0.4055	0.6193	0.577	0.475
Mof_C 	C 	0.8415	0.3042	0.3217	0.131
Mof_C 	C 	0.902	0.2852	0.3398	-0.189
Mof_C 	C 	0.0033	0.3698	0.1875	-0.196
Mof_C 	C 	0.864	0.3589	0.2377	-0.213
Mof_C 	C 	0.9425	0.3885	0.1718	0.133
Mof_C 	C 	0.8819	0.2076	0.7309	0.012
Mof_C 	C 	0.9831	0.3175	0.2716	0.108
Mof_C 	C 	0.881	0.2288	0.4312	0.441
Mof_C 	C 	0.0865	0.403	0.1193	0.425
Mof_C 	C 	0.8037	0.3807	0.2138	0.473
Mof_N 	N 	0.3663	0.4622	0.8079	-0.232
Mof_N 	N 	0.7299	0.5378	0.0959	-0.232
Mof_N 	N 	0.9041	0.1742	0.6337	-0.232
Mof_N 	N 	0.1921	0.8258	0.2701	-0.232
Mof_N 	N 	0.6337	0.5378	0.1921	-0.232
Mof_N 	N 	0.2701	0.4622	0.9041	-0.232
Mof_N 	N 	0.0959	0.8258	0.3663	-0.232
Mof_N 	N 	0.8079	0.1742	0.7299	-0.232
Mof_N 	N 	0.3338	0.514	0.8198	-0.204
Mof_N 	N 	0.6662	0.486	0.1802	-0.204
Mof_N 	N 	0.8198	0.1536	0.6662	-0.203
Mof_N 	N 	0.1802	0.8464	0.3338	-0.203
Mof_O 	O 	0.3852	0.6978	0.811	-0.494
Mof_O 	O 	0.3477	0.8582	0.0985	-0.482
Mof_O 	O 	0.6147	0.0059	0.7272	-0.478
Mof_O 	O 	0.6105	0.0242	0.8353	-0.508
Mof_O 	O 	0.2753	0.618	0.9423	-0.506
Mof_O 	O 	0.2505	0.7266	0.1429	-0.352
Mof_O 	O 	0.4912	0.3022	0.3126	-0.495
Mof_O 	O 	0.0433	0.1418	0.5105	-0.485
Mof_O 	O 	0.2669	0.9941	0.3912	-0.481
Mof_O 	O 	0.1405	0.9758	0.4137	-0.511
Mof_O 	O 	0.4397	0.382	0.3427	-0.505
Mof_O 	O 	0.1305	0.2734	0.4761	-0.354
Mof_O 	O 	0.6874	0.1962	0.6148	-0.495
Mof_O 	O 	0.4895	0.4462	0.6523	-0.485
Mof_O 	O 	0.6088	0.3419	0.3853	-0.482
Mof_O 	O 	0.5863	0.4458	0.3895	-0.512
Mof_O 	O 	0.6573	0.2176	0.7247	-0.505
Mof_O 	O 	0.5239	0.3934	0.7495	-0.354
Mof_O 	O 	0.189	0.8038	0.5088	-0.495
Mof_O 	O 	0.9015	0.5538	0.9567	-0.482
Mof_O 	O 	0.2728	0.6581	0.7331	-0.482
Mof_O 	O 	0.1647	0.5542	0.8595	-0.513
Mof_O 	O 	0.0577	0.7824	0.5603	-0.505
Mof_O 	O 	0.8571	0.6066	0.8695	-0.353
Mof_O 	O 	0.6148	0.3022	0.189	-0.494
Mof_O 	O 	0.6523	0.1418	0.9015	-0.482
Mof_O 	O 	0.3853	0.9941	0.2728	-0.478
Mof_O 	O 	0.3895	0.9758	0.1647	-0.508
Mof_O 	O 	0.7247	0.382	0.0577	-0.506
Mof_O 	O 	0.7495	0.2734	0.8571	-0.352
Mof_O 	O 	0.5088	0.6978	0.6874	-0.495
Mof_O 	O 	0.9567	0.8582	0.4895	-0.485
Mof_O 	O 	0.7331	0.0059	0.6088	-0.481
Mof_O 	O 	0.8595	0.0242	0.5863	-0.511
Mof_O 	O 	0.5603	0.618	0.6573	-0.505
Mof_O 	O 	0.8695	0.7266	0.5239	-0.354
Mof_O 	O 	0.3126	0.8038	0.3852	-0.495
Mof_O 	O 	0.5105	0.5538	0.3477	-0.485
Mof_O 	O 	0.3912	0.6581	0.6147	-0.482
Mof_O 	O 	0.4137	0.5542	0.6105	-0.512
Mof_O 	O 	0.3427	0.7824	0.2753	-0.505
Mof_O 	O 	0.4761	0.6066	0.2505	-0.354
Mof_O 	O 	0.811	0.1962	0.4912	-0.495
Mof_O 	O 	0.0985	0.4462	0.0433	-0.482
Mof_O 	O 	0.7272	0.3419	0.2669	-0.482
Mof_O 	O 	0.8353	0.4458	0.1405	-0.513
Mof_O 	O 	0.9423	0.2176	0.4397	-0.505
Mof_O 	O 	0.1429	0.3934	0.1305	-0.353
Mof_H 	H 	0.5264	0.525	0.8724	0.159
Mof_H 	H 	0.4907	0.4254	0.9389	0.163
Mof_H 	H 	0.5296	0.46	0.8398	0.172
Mof_H 	H 	0.6777	0.6266	0.7771	0.181
Mof_H 	H 	0.6776	0.5606	0.745	0.181
Mof_H 	H 	0.7445	0.5956	0.7763	0.184
Mof_H 	H 	0.6026	0.475	0.9986	0.159
Mof_H 	H 	0.6357	0.5746	0.9347	0.163
Mof_H 	H 	0.7002	0.54	0.9304	0.172
Mof_H 	H 	0.5963	0.3734	0.9489	0.182
Mof_H 	H 	0.6944	0.4394	0.883	0.182
Mof_H 	H 	0.6281	0.4044	0.8511	0.185
Mof_C 	C 	0.5342	0.4753	0.8825	-0.455
Mof_C 	C 	0.6866	0.5778	0.7854	-0.48
Mof_C 	C 	0.6422	0.5247	0.9411	-0.456
Mof_C 	C 	0.6368	0.4222	0.8912	-0.481
Mof_N 	N 	0.6236	0.5	0.8764	0.083
Mof_H 	H 	0.0014	0.3988	0.4736	0.158
Mof_H 	H 	0.0653	0.4296	0.5093	0.163
Mof_H 	H 	0.0696	0.3694	0.4704	0.171
Mof_H 	H 	0.0511	0.4548	0.3223	0.182
Mof_H 	H 	0.117	0.4226	0.3224	0.181
Mof_H 	H 	0.1489	0.5208	0.2555	0.185
Mof_H 	H 	0.1276	0.6012	0.3974	0.159
Mof_H 	H 	0.0611	0.5704	0.3643	0.163
Mof_H 	H 	0.1602	0.6306	0.2998	0.172
Mof_H 	H 	0.2229	0.5452	0.4037	0.181
Mof_H 	H 	0.255	0.5774	0.3056	0.181
Mof_H 	H 	0.2237	0.4792	0.3719	0.184
Mof_C 	C 	0.0589	0.4167	0.4658	-0.454
Mof_C 	C 	0.1088	0.472	0.3134	-0.481
Mof_C 	C 	0.1175	0.5833	0.3578	-0.455
Mof_C 	C 	0.2146	0.528	0.3632	-0.48
Mof_N 	N 	0.1236	0.5	0.3764	0.083
Mof_H 	H 	0.4736	0.475	0.1276	0.159
Mof_H 	H 	0.5093	0.5746	0.0611	0.163
Mof_H 	H 	0.4704	0.54	0.1602	0.172
Mof_H 	H 	0.3223	0.3734	0.2229	0.181
Mof_H 	H 	0.3224	0.4394	0.255	0.181
Mof_H 	H 	0.2555	0.4044	0.2237	0.184
Mof_H 	H 	0.3974	0.525	0.0014	0.159
Mof_H 	H 	0.3643	0.4254	0.0653	0.163
Mof_H 	H 	0.2998	0.46	0.0696	0.172
Mof_H 	H 	0.4037	0.6266	0.0511	0.182
Mof_H 	H 	0.3056	0.5606	0.117	0.182
Mof_H 	H 	0.3719	0.5956	0.1489	0.185
Mof_C 	C 	0.4658	0.5247	0.1175	-0.455
Mof_C 	C 	0.3134	0.4222	0.2146	-0.48
Mof_C 	C 	0.3578	0.4753	0.0589	-0.456
Mof_C 	C 	0.3632	0.5778	0.1088	-0.481
Mof_N 	N 	0.3764	0.5	0.1236	0.083
Mof_H 	H 	0.9986	0.6012	0.5264	0.158
Mof_H 	H 	0.9347	0.5704	0.4907	0.163
Mof_H 	H 	0.9304	0.6306	0.5296	0.171
Mof_H 	H 	0.9489	0.5452	0.6777	0.182
Mof_H 	H 	0.883	0.5774	0.6776	0.181
Mof_H 	H 	0.8511	0.4792	0.7445	0.185
Mof_H 	H 	0.8724	0.3988	0.6026	0.159
Mof_H 	H 	0.9389	0.4296	0.6357	0.163
Mof_H 	H 	0.8398	0.3694	0.7002	0.172
Mof_H 	H 	0.7771	0.4548	0.5963	0.181
Mof_H 	H 	0.745	0.4226	0.6944	0.181
Mof_H 	H 	0.7763	0.5208	0.6281	0.184
Mof_C 	C 	0.9411	0.5833	0.5342	-0.454
Mof_C 	C 	0.8912	0.528	0.6866	-0.481
Mof_C 	C 	0.8825	0.4167	0.6422	-0.455
Mof_C 	C 	0.7854	0.472	0.6368	-0.48
Mof_N 	N 	0.8764	0.5	0.6236	0.083
_end
