# CIF file generated by openbabel 3.1.0, see https://openbabel.org
data_I
_chemical_name_common 'image0'
_cell_length_a 7.5238
_cell_length_b 21.9578
_cell_length_c 33.012
_cell_angle_alpha 90
_cell_angle_beta 95.252
_cell_angle_gamma 90
_space_group_name_H-M_alt 'P 1'
_space_group_name_Hall 'P 1'
loop_
    _symmetry_equiv_pos_as_xyz
    x,y,z
loop_
    _atom_site_label
    _atom_site_type_symbol
    _atom_site_fract_x
    _atom_site_fract_y
    _atom_site_fract_z
    _atom_site_occupancy
    Zn1      Zn       0.75595    0.13912    0.33409    1.000
    Zn2      Zn       0.20745    0.37941    0.16732    1.000
    O1       O        0.89560    0.21286    0.34901    1.000
    O2       O        0.06910    0.15358    0.38894    1.000
    O3       O        0.67540    0.60656    0.21713    1.000
    O4       O        0.67510    0.51051    0.19774    1.000
    O5       O        0.06930    0.30635    0.15162    1.000
    O6       O        0.88590    0.37006    0.11732    1.000
    O7       O        0.36180    0.91211    0.28150    1.000
    O8       O        0.32310    0.00762    0.29948    1.000
    S1       S        0.40092    0.11779    0.09063    1.000
    S2       S        0.58466    0.39732    0.40332    1.000
    S3       S        0.48328    0.48135    0.39104    1.000
    S4       S        0.52181    0.03801    0.10655    1.000
    N1       N        0.54000    0.45284    0.31188    1.000
    N2       N        0.44850    0.28975    0.40775    1.000
    N3       N        0.67820    0.09317    0.38209    1.000
    N4       N        0.52180    0.18659    0.31616    1.000
    N5       N        0.44240    0.33194    0.18572    1.000
    N6       N        0.29150    0.42591    0.12024    1.000
    N7       N        0.50660    0.96736    0.16830    1.000
    N8       N        0.73240    0.16075    0.11882    1.000
    C1       C        0.03280    0.20329    0.37343    1.000
    C2       C        0.15510    0.25608    0.38274    1.000
    C3       C        0.32360    0.24668    0.40164    1.000
    H1       H        0.35250    0.20760    0.41080    1.000
    C4       C        0.11160    0.31550    0.37175    1.000
    H2       H        0.99810    0.32450    0.35970    1.000
    C5       C        0.23480    0.36077    0.37850    1.000
    H3       H        0.20610    0.40090    0.37170    1.000
    C6       C        0.40130    0.34585    0.39555    1.000
    C7       C        0.52760    0.49707    0.33998    1.000
    C8       C        0.54210    0.55606    0.33187    1.000
    H4       H        0.52510    0.58510    0.35170    1.000
    C9       C        0.58150    0.57306    0.29475    1.000
    H5       H        0.59390    0.61430    0.28940    1.000
    C10      C        0.60410    0.53208    0.26448    1.000
    C11      C        0.57930    0.47121    0.27394    1.000
    H6       H        0.58960    0.44190    0.25390    1.000
    C12      C        0.65470    0.54962    0.22292    1.000
    C13      C        0.65110    0.12750    0.41486    1.000
    H7       H        0.67220    0.16920    0.41350    1.000
    C14      C        0.59510    0.10460    0.44955    1.000
    H8       H        0.57600    0.13060    0.47100    1.000
    C15      C        0.56600    0.04330    0.45334    1.000
    C16      C        0.59590    0.00750    0.42023    1.000
    H9       H        0.57940    0.96560    0.42160    1.000
    C17      C        0.64990    0.03312    0.38509    1.000
    H10      H        0.66700    0.00810    0.36300    1.000
    C18      C        0.50130    0.02860    0.49420    1.000
    H11      H        0.46420    0.05940    0.51080    1.000
    C19      C        0.37230    0.15522    0.30587    1.000
    H12      H        0.37190    0.11380    0.31160    1.000
    C20      C        0.21930    0.18068    0.28729    1.000
    H13      H        0.11940    0.15660    0.28050    1.000
    C21      C        0.21460    0.24271    0.27873    1.000
    C22      C        0.36720    0.27593    0.29100    1.000
    H14      H        0.36920    0.31780    0.28690    1.000
    C23      C        0.51610    0.24673    0.30928    1.000
    H15      H        0.61690    0.26980    0.31720    1.000
    C24      C        0.05950    0.27264    0.25685    1.000
    H16      H        0.07220    0.31350    0.25030    1.000
    C25      C        0.90410    0.24715    0.24555    1.000
    H17      H        0.89140    0.20630    0.25230    1.000
    C26      C        0.74980    0.27653    0.22355    1.000
    C27      C        0.59620    0.24383    0.21204    1.000
    H18      H        0.59460    0.20210    0.21670    1.000
    C28      C        0.44610    0.27171    0.19381    1.000
    H19      H        0.34440    0.24850    0.18690    1.000
    C29      C        0.59340    0.36300    0.19440    1.000
    H20      H        0.59480    0.40400    0.18730    1.000
    C30      C        0.74650    0.33818    0.21311    1.000
    H21      H        0.84750    0.36220    0.21880    1.000
    C31      C        0.30380    0.39469    0.08552    1.000
    H22      H        0.26680    0.35430    0.08440    1.000
    C32      C        0.36820    0.41959    0.05187    1.000
    H23      H        0.37800    0.39590    0.02880    1.000
    C33      C        0.41940    0.48088    0.05227    1.000
    C34      C        0.40350    0.51262    0.08785    1.000
    H24      H        0.43480    0.55360    0.08950    1.000
    C35      C        0.34210    0.48441    0.12072    1.000
    H25      H        0.33510    0.50680    0.14440    1.000
    C36      C        0.48300    0.51258    0.01732    1.000
    H26      H        0.50080    0.55440    0.01980    1.000
    C37      C        0.36150    0.96908    0.27508    1.000
    C38      C        0.40760    0.98980    0.23390    1.000
    C39      C        0.38560    0.04960    0.22196    1.000
    H27      H        0.34690    0.07810    0.24010    1.000
    C40      C        0.42010    0.06780    0.18351    1.000
    H28      H        0.40520    0.10820    0.17540    1.000
    C41      C        0.47650    0.02519    0.15788    1.000
    C42      C        0.47030    0.95084    0.20585    1.000
    H29      H        0.48880    0.91040    0.21340    1.000
    C43      C        0.56710    0.17530    0.10139    1.000
    C44      C        0.51700    0.23096    0.09216    1.000
    H30      H        0.40230    0.23890    0.08030    1.000
    C45      C        0.63310    0.27620    0.09997    1.000
    H31      H        0.59870    0.31570    0.09270    1.000
    C46      C        0.80400    0.26653    0.11866    1.000
    C47      C        0.85040    0.20704    0.12721    1.000
    H32      H        0.96460    0.19830    0.13900    1.000
    C48      C        0.92780    0.31832    0.12963    1.000
    C49      C        0.52970    0.99000    0.48360    1.000
    H33      H        0.54890    0.94900    0.47830    1.000
    Zn3      Zn       0.74405    0.63912    0.16591    1.000
    Zn4      Zn       0.29255    0.87941    0.33268    1.000
    O9       O        0.60440    0.71286    0.15099    1.000
    O10      O        0.43090    0.65358    0.11106    1.000
    O11      O        0.82460    0.10656    0.28287    1.000
    O12      O        0.82490    0.01051    0.30226    1.000
    O13      O        0.43070    0.80635    0.34838    1.000
    O14      O        0.61410    0.87006    0.38268    1.000
    O15      O        0.13820    0.41211    0.21850    1.000
    O16      O        0.17690    0.50762    0.20052    1.000
    S5       S        0.09908    0.61779    0.40937    1.000
    S6       S        0.91534    0.89732    0.09668    1.000
    S7       S        0.01672    0.98135    0.10896    1.000
    S8       S        0.97819    0.53801    0.39345    1.000
    N9       N        0.96000    0.95284    0.18812    1.000
    N10      N        0.05150    0.78975    0.09225    1.000
    N11      N        0.82180    0.59317    0.11791    1.000
    N12      N        0.97820    0.68659    0.18384    1.000
    N13      N        0.05760    0.83194    0.31428    1.000
    N14      N        0.20850    0.92591    0.37976    1.000
    N15      N        0.99340    0.46736    0.33170    1.000
    N16      N        0.76760    0.66075    0.38118    1.000
    C50      C        0.46720    0.70329    0.12657    1.000
    C51      C        0.34490    0.75608    0.11726    1.000
    C52      C        0.17640    0.74668    0.09836    1.000
    H34      H        0.14750    0.70760    0.08920    1.000
    C53      C        0.38840    0.81550    0.12825    1.000
    H35      H        0.50190    0.82450    0.14030    1.000
    C54      C        0.26520    0.86077    0.12150    1.000
    H36      H        0.29390    0.90090    0.12830    1.000
    C55      C        0.09870    0.84585    0.10445    1.000
    C56      C        0.97240    0.99707    0.16002    1.000
    C57      C        0.95790    0.05606    0.16813    1.000
    H37      H        0.97490    0.08510    0.14830    1.000
    C58      C        0.91850    0.07306    0.20525    1.000
    H38      H        0.90610    0.11430    0.21060    1.000
    C59      C        0.89590    0.03208    0.23552    1.000
    C60      C        0.92070    0.97121    0.22606    1.000
    H39      H        0.91040    0.94190    0.24610    1.000
    C61      C        0.84530    0.04962    0.27708    1.000
    C62      C        0.84890    0.62750    0.08514    1.000
    H40      H        0.82780    0.66920    0.08650    1.000
    C63      C        0.90490    0.60460    0.05045    1.000
    H41      H        0.92400    0.63060    0.02900    1.000
    C64      C        0.93400    0.54330    0.04666    1.000
    C65      C        0.90410    0.50750    0.07977    1.000
    H42      H        0.92060    0.46560    0.07840    1.000
    C66      C        0.85010    0.53312    0.11491    1.000
    H43      H        0.83300    0.50810    0.13700    1.000
    C67      C        0.99870    0.52860    0.00580    1.000
    H44      H        0.03580    0.55940    0.98920    1.000
    C68      C        0.12770    0.65522    0.19413    1.000
    H45      H        0.12810    0.61380    0.18840    1.000
    C69      C        0.28070    0.68068    0.21271    1.000
    H46      H        0.38060    0.65660    0.21950    1.000
    C70      C        0.28540    0.74271    0.22127    1.000
    C71      C        0.13280    0.77593    0.20900    1.000
    H47      H        0.13080    0.81780    0.21310    1.000
    C72      C        0.98390    0.74673    0.19072    1.000
    H48      H        0.88310    0.76980    0.18280    1.000
    C73      C        0.44050    0.77264    0.24315    1.000
    H49      H        0.42780    0.81350    0.24970    1.000
    C74      C        0.59590    0.74715    0.25445    1.000
    H50      H        0.60860    0.70630    0.24770    1.000
    C75      C        0.75020    0.77653    0.27645    1.000
    C76      C        0.90380    0.74383    0.28796    1.000
    H51      H        0.90540    0.70210    0.28330    1.000
    C77      C        0.05390    0.77171    0.30619    1.000
    H52      H        0.15560    0.74850    0.31310    1.000
    C78      C        0.90660    0.86300    0.30560    1.000
    H53      H        0.90520    0.90400    0.31270    1.000
    C79      C        0.75350    0.83818    0.28689    1.000
    H54      H        0.65250    0.86220    0.28120    1.000
    C80      C        0.19620    0.89469    0.41448    1.000
    H55      H        0.23320    0.85430    0.41560    1.000
    C81      C        0.13180    0.91959    0.44813    1.000
    H56      H        0.12200    0.89590    0.47120    1.000
    C82      C        0.08060    0.98088    0.44773    1.000
    C83      C        0.09650    0.01262    0.41215    1.000
    H57      H        0.06520    0.05360    0.41050    1.000
    C84      C        0.15790    0.98441    0.37928    1.000
    H58      H        0.16490    0.00680    0.35560    1.000
    C85      C        0.01700    0.01258    0.48268    1.000
    H59      H        0.99920    0.05440    0.48020    1.000
    C86      C        0.13850    0.46908    0.22492    1.000
    C87      C        0.09240    0.48980    0.26610    1.000
    C88      C        0.11440    0.54960    0.27804    1.000
    H60      H        0.15310    0.57810    0.25990    1.000
    C89      C        0.07990    0.56780    0.31649    1.000
    H61      H        0.09480    0.60820    0.32460    1.000
    C90      C        0.02350    0.52519    0.34212    1.000
    C91      C        0.02970    0.45084    0.29415    1.000
    H62      H        0.01120    0.41040    0.28660    1.000
    C92      C        0.93290    0.67530    0.39861    1.000
    C93      C        0.98300    0.73096    0.40784    1.000
    H63      H        0.09770    0.73890    0.41970    1.000
    C94      C        0.86690    0.77620    0.40003    1.000
    H64      H        0.90130    0.81570    0.40730    1.000
    C95      C        0.69600    0.76653    0.38134    1.000
    C96      C        0.64960    0.70704    0.37279    1.000
    H65      H        0.53540    0.69830    0.36100    1.000
    C97      C        0.57220    0.81832    0.37037    1.000
    C98      C        0.97030    0.49000    0.01640    1.000
    H66      H        0.95110    0.44900    0.02170    1.000
    Zn5      Zn       0.24405    0.86088    0.66591    1.000
    Zn6      Zn       0.79255    0.62059    0.83268    1.000
    O17      O        0.10440    0.78714    0.65099    1.000
    O18      O        0.93090    0.84642    0.61106    1.000
    O19      O        0.32460    0.39344    0.78287    1.000
    O20      O        0.32490    0.48949    0.80226    1.000
    O21      O        0.93070    0.69365    0.84838    1.000
    O22      O        0.11410    0.62994    0.88268    1.000
    O23      O        0.63820    0.08789    0.71850    1.000
    O24      O        0.67690    0.99238    0.70052    1.000
    S9       S        0.59908    0.88221    0.90937    1.000
    S10      S        0.41534    0.60268    0.59668    1.000
    S11      S        0.51672    0.51865    0.60896    1.000
    S12      S        0.47819    0.96199    0.89345    1.000
    N17      N        0.46000    0.54716    0.68812    1.000
    N18      N        0.55150    0.71025    0.59225    1.000
    N19      N        0.32180    0.90683    0.61791    1.000
    N20      N        0.47820    0.81341    0.68384    1.000
    N21      N        0.55760    0.66806    0.81428    1.000
    N22      N        0.70850    0.57409    0.87976    1.000
    N23      N        0.49340    0.03264    0.83170    1.000
    N24      N        0.26760    0.83925    0.88118    1.000
    C99      C        0.96720    0.79671    0.62657    1.000
    C100     C        0.84490    0.74392    0.61726    1.000
    C101     C        0.67640    0.75332    0.59836    1.000
    H67      H        0.64750    0.79240    0.58920    1.000
    C102     C        0.88840    0.68450    0.62825    1.000
    H68      H        0.00190    0.67550    0.64030    1.000
    C103     C        0.76520    0.63923    0.62150    1.000
    H69      H        0.79390    0.59910    0.62830    1.000
    C104     C        0.59870    0.65415    0.60445    1.000
    C105     C        0.47240    0.50293    0.66002    1.000
    C106     C        0.45790    0.44394    0.66813    1.000
    H70      H        0.47490    0.41490    0.64830    1.000
    C107     C        0.41850    0.42694    0.70525    1.000
    H71      H        0.40610    0.38570    0.71060    1.000
    C108     C        0.39590    0.46792    0.73552    1.000
    C109     C        0.42070    0.52879    0.72606    1.000
    H72      H        0.41040    0.55810    0.74610    1.000
    C110     C        0.34530    0.45038    0.77708    1.000
    C111     C        0.34890    0.87250    0.58514    1.000
    H73      H        0.32780    0.83080    0.58650    1.000
    C112     C        0.40490    0.89540    0.55045    1.000
    H74      H        0.42400    0.86940    0.52900    1.000
    C113     C        0.43400    0.95670    0.54666    1.000
    C114     C        0.40410    0.99250    0.57977    1.000
    H75      H        0.42060    0.03440    0.57840    1.000
    C115     C        0.35010    0.96688    0.61491    1.000
    H76      H        0.33300    0.99190    0.63700    1.000
    C116     C        0.49870    0.97140    0.50580    1.000
    H77      H        0.53580    0.94060    0.48920    1.000
    C117     C        0.62770    0.84478    0.69413    1.000
    H78      H        0.62810    0.88620    0.68840    1.000
    C118     C        0.78070    0.81932    0.71271    1.000
    H79      H        0.88060    0.84340    0.71950    1.000
    C119     C        0.78540    0.75729    0.72127    1.000
    C120     C        0.63280    0.72407    0.70900    1.000
    H80      H        0.63080    0.68220    0.71310    1.000
    C121     C        0.48390    0.75327    0.69072    1.000
    H81      H        0.38310    0.73020    0.68280    1.000
    C122     C        0.94050    0.72736    0.74315    1.000
    H82      H        0.92780    0.68650    0.74970    1.000
    C123     C        0.09590    0.75285    0.75445    1.000
    H83      H        0.10860    0.79370    0.74770    1.000
    C124     C        0.25020    0.72347    0.77645    1.000
    C125     C        0.40380    0.75617    0.78796    1.000
    H84      H        0.40540    0.79790    0.78330    1.000
    C126     C        0.55390    0.72829    0.80619    1.000
    H85      H        0.65560    0.75150    0.81310    1.000
    C127     C        0.40660    0.63700    0.80560    1.000
    H86      H        0.40520    0.59600    0.81270    1.000
    C128     C        0.25350    0.66182    0.78689    1.000
    H87      H        0.15250    0.63780    0.78120    1.000
    C129     C        0.69620    0.60531    0.91448    1.000
    H88      H        0.73320    0.64570    0.91560    1.000
    C130     C        0.63180    0.58041    0.94813    1.000
    H89      H        0.62200    0.60410    0.97120    1.000
    C131     C        0.58060    0.51912    0.94773    1.000
    C132     C        0.59650    0.48738    0.91215    1.000
    H90      H        0.56520    0.44640    0.91050    1.000
    C133     C        0.65790    0.51559    0.87928    1.000
    H91      H        0.66490    0.49320    0.85560    1.000
    C134     C        0.51700    0.48742    0.98268    1.000
    H92      H        0.49920    0.44560    0.98020    1.000
    C135     C        0.63850    0.03092    0.72492    1.000
    C136     C        0.59240    0.01020    0.76610    1.000
    C137     C        0.61440    0.95040    0.77804    1.000
    H93      H        0.65310    0.92190    0.75990    1.000
    C138     C        0.57990    0.93220    0.81649    1.000
    H94      H        0.59480    0.89180    0.82460    1.000
    C139     C        0.52350    0.97481    0.84212    1.000
    C140     C        0.52970    0.04916    0.79415    1.000
    H95      H        0.51120    0.08960    0.78660    1.000
    C141     C        0.43290    0.82470    0.89861    1.000
    C142     C        0.48300    0.76904    0.90784    1.000
    H96      H        0.59770    0.76110    0.91970    1.000
    C143     C        0.36690    0.72380    0.90003    1.000
    H97      H        0.40130    0.68430    0.90730    1.000
    C144     C        0.19600    0.73347    0.88134    1.000
    C145     C        0.14960    0.79296    0.87279    1.000
    H98      H        0.03540    0.80170    0.86100    1.000
    C146     C        0.07220    0.68168    0.87037    1.000
    C147     C        0.47030    0.01000    0.51640    1.000
    H99      H        0.45110    0.05100    0.52170    1.000
    Zn7      Zn       0.25595    0.36088    0.83409    1.000
    Zn8      Zn       0.70745    0.12059    0.66732    1.000
    O25      O        0.39560    0.28714    0.84901    1.000
    O26      O        0.56910    0.34642    0.88894    1.000
    O27      O        0.17540    0.89344    0.71713    1.000
    O28      O        0.17510    0.98949    0.69774    1.000
    O29      O        0.56930    0.19365    0.65162    1.000
    O30      O        0.38590    0.12994    0.61732    1.000
    O31      O        0.86180    0.58789    0.78150    1.000
    O32      O        0.82310    0.49238    0.79948    1.000
    S13      S        0.90092    0.38221    0.59063    1.000
    S14      S        0.08466    0.10268    0.90332    1.000
    S15      S        0.98328    0.01865    0.89104    1.000
    S16      S        0.02181    0.46199    0.60655    1.000
    N25      N        0.04000    0.04716    0.81188    1.000
    N26      N        0.94850    0.21025    0.90775    1.000
    N27      N        0.17820    0.40683    0.88209    1.000
    N28      N        0.02180    0.31341    0.81616    1.000
    N29      N        0.94240    0.16806    0.68572    1.000
    N30      N        0.79150    0.07409    0.62024    1.000
    N31      N        0.00660    0.53264    0.66830    1.000
    N32      N        0.23240    0.33925    0.61882    1.000
    C148     C        0.53280    0.29671    0.87343    1.000
    C149     C        0.65510    0.24392    0.88274    1.000
    C150     C        0.82360    0.25332    0.90164    1.000
    H100     H        0.85250    0.29240    0.91080    1.000
    C151     C        0.61160    0.18450    0.87175    1.000
    H101     H        0.49810    0.17550    0.85970    1.000
    C152     C        0.73480    0.13923    0.87850    1.000
    H102     H        0.70610    0.09910    0.87170    1.000
    C153     C        0.90130    0.15415    0.89555    1.000
    C154     C        0.02760    0.00293    0.83998    1.000
    C155     C        0.04210    0.94394    0.83187    1.000
    H103     H        0.02510    0.91490    0.85170    1.000
    C156     C        0.08150    0.92694    0.79475    1.000
    H104     H        0.09390    0.88570    0.78940    1.000
    C157     C        0.10410    0.96792    0.76448    1.000
    C158     C        0.07930    0.02879    0.77394    1.000
    H105     H        0.08960    0.05810    0.75390    1.000
    C159     C        0.15470    0.95038    0.72292    1.000
    C160     C        0.15110    0.37250    0.91486    1.000
    H106     H        0.17220    0.33080    0.91350    1.000
    C161     C        0.09510    0.39540    0.94955    1.000
    H107     H        0.07600    0.36940    0.97100    1.000
    C162     C        0.06600    0.45670    0.95334    1.000
    C163     C        0.09590    0.49250    0.92023    1.000
    H108     H        0.07940    0.53440    0.92160    1.000
    C164     C        0.14990    0.46688    0.88509    1.000
    H109     H        0.16700    0.49190    0.86300    1.000
    C165     C        0.00130    0.47140    0.99420    1.000
    H110     H        0.96420    0.44060    0.01080    1.000
    C166     C        0.87230    0.34478    0.80587    1.000
    H111     H        0.87190    0.38620    0.81160    1.000
    C167     C        0.71930    0.31932    0.78729    1.000
    H112     H        0.61940    0.34340    0.78050    1.000
    C168     C        0.71460    0.25729    0.77873    1.000
    C169     C        0.86720    0.22407    0.79100    1.000
    H113     H        0.86920    0.18220    0.78690    1.000
    C170     C        0.01610    0.25327    0.80928    1.000
    H114     H        0.11690    0.23020    0.81720    1.000
    C171     C        0.55950    0.22736    0.75685    1.000
    H115     H        0.57220    0.18650    0.75030    1.000
    C172     C        0.40410    0.25285    0.74555    1.000
    H116     H        0.39140    0.29370    0.75230    1.000
    C173     C        0.24980    0.22347    0.72355    1.000
    C174     C        0.09620    0.25617    0.71204    1.000
    H117     H        0.09460    0.29790    0.71670    1.000
    C175     C        0.94610    0.22829    0.69381    1.000
    H118     H        0.84440    0.25150    0.68690    1.000
    C176     C        0.09340    0.13700    0.69440    1.000
    H119     H        0.09480    0.09600    0.68730    1.000
    C177     C        0.24650    0.16182    0.71311    1.000
    H120     H        0.34750    0.13780    0.71880    1.000
    C178     C        0.80380    0.10531    0.58552    1.000
    H121     H        0.76680    0.14570    0.58440    1.000
    C179     C        0.86820    0.08041    0.55187    1.000
    H122     H        0.87800    0.10410    0.52880    1.000
    C180     C        0.91940    0.01912    0.55227    1.000
    C181     C        0.90350    0.98738    0.58785    1.000
    H123     H        0.93480    0.94640    0.58950    1.000
    C182     C        0.84210    0.01559    0.62072    1.000
    H124     H        0.83510    0.99320    0.64440    1.000
    C183     C        0.98300    0.98742    0.51732    1.000
    H125     H        0.00080    0.94560    0.51980    1.000
    C184     C        0.86150    0.53092    0.77508    1.000
    C185     C        0.90760    0.51020    0.73390    1.000
    C186     C        0.88560    0.45040    0.72196    1.000
    H126     H        0.84690    0.42190    0.74010    1.000
    C187     C        0.92010    0.43220    0.68351    1.000
    H127     H        0.90520    0.39180    0.67540    1.000
    C188     C        0.97650    0.47481    0.65788    1.000
    C189     C        0.97030    0.54916    0.70585    1.000
    H128     H        0.98880    0.58960    0.71340    1.000
    C190     C        0.06710    0.32470    0.60139    1.000
    C191     C        0.01700    0.26904    0.59216    1.000
    H129     H        0.90230    0.26110    0.58030    1.000
    C192     C        0.13310    0.22380    0.59997    1.000
    H130     H        0.09870    0.18430    0.59270    1.000
    C193     C        0.30400    0.23347    0.61866    1.000
    C194     C        0.35040    0.29296    0.62721    1.000
    H131     H        0.46460    0.30170    0.63900    1.000
    C195     C        0.42780    0.18168    0.62963    1.000
    C196     C        0.02970    0.51000    0.98360    1.000
    H132     H        0.04890    0.55100    0.97830    1.000
