data_functionalizedCrystal
_audit_creation_method	'EQeq! by Chris Wilmer'
_symmetry_space_group_name_H-M	'P1'
_symmetry_Int_Tables_number	1
_symmetry_cell_setting	triclinic
loop_
_symmetry_equiv_pos_as_xyz
  x,y,z
_cell_length_a	21.96
_cell_length_b	7.655
_cell_length_c	6.167
_cell_angle_alpha	90
_cell_angle_beta	91.47
_cell_angle_gamma	90
loop_
_atom_site_label
_atom_site_type_symbol
_atom_site_fract_x
_atom_site_fract_y
_atom_site_fract_z
_atom_site_charge
Mof_Ce	Ce	0.64534	0.25424	0.05018	2.782
Mof_O 	O 	0.54406	0.3622	0.8856	-0.528
Mof_O 	O 	0.53758	0.1445	0.1483	-0.532
Mof_O 	O 	0.65551	0.2037	0.6535	-0.57
Mof_O 	O 	0.65939	0.0452	0.3532	-0.575
Mof_O 	O 	0.63765	0.9446	0.9055	-0.597
Mof_H 	H 	0.6066	0.8847	0.9441	0.246
Mof_O 	O 	0.76297	0.892	0.7172	-0.572
Mof_H 	H 	0.7598	0.9803	0.8	0.225
Mof_O 	O 	0.66438	0.5398	0.8623	-0.57
Mof_O 	O 	0.74996	0.6477	0.0055	-0.633
Mof_C 	C 	0.6557	0.0612	0.5549	0.482
Mof_C 	C 	0.6509	0.8949	0.6887	-0.027
Mof_H 	H 	0.6173	0.8237	0.6298	0.008
Mof_C 	C 	0.71	0.7867	0.6874	0.011
Mof_H 	H 	0.7122	0.7284	0.5464	0.012
Mof_C 	C 	0.7073	0.6469	0.8622	0.463
Mof_Ce	Ce	0.14534	0.75424	0.05018	2.688
Mof_O 	O 	0.04406	0.8622	0.8856	-0.527
Mof_O 	O 	0.03758	0.6445	0.1483	-0.529
Mof_O 	O 	0.15551	0.7037	0.6535	-0.566
Mof_O 	O 	0.15939	0.5452	0.3532	-0.571
Mof_O 	O 	0.13765	0.4446	0.9055	-0.575
Mof_H 	H 	0.1066	0.3847	0.9441	0.252
Mof_O 	O 	0.26297	0.392	0.7172	-0.571
Mof_H 	H 	0.2598	0.4803	0.8	0.243
Mof_O 	O 	0.16438	0.0398	0.8623	-0.537
Mof_O 	O 	0.24996	0.1477	0.0055	-0.62
Mof_C 	C 	0.1557	0.5612	0.5549	0.441
Mof_C 	C 	0.1509	0.3949	0.6887	0.009
Mof_H 	H 	0.1173	0.3237	0.6298	0.008
Mof_C 	C 	0.21	0.2867	0.6874	0.008
Mof_H 	H 	0.2122	0.2284	0.5464	0.023
Mof_C 	C 	0.2073	0.1469	0.8622	0.461
Mof_Ce	Ce	0.35466	0.25424	0.94982	2.999
Mof_O 	O 	0.45594	0.3622	0.1144	-0.578
Mof_O 	O 	0.46242	0.1445	0.8517	-0.522
Mof_O 	O 	0.34449	0.2037	0.3465	-0.605
Mof_O 	O 	0.34061	0.0452	0.6468	-0.588
Mof_O 	O 	0.36235	0.9446	0.0945	-0.632
Mof_H 	H 	0.3934	0.8847	0.0559	0.236
Mof_O 	O 	0.23703	0.892	0.2828	-0.565
Mof_H 	H 	0.2402	0.9803	0.2	0.221
Mof_O 	O 	0.33562	0.5398	0.1377	-0.595
Mof_O 	O 	0.25004	0.6477	0.9945	-0.549
Mof_C 	C 	0.3443	0.0612	0.4451	0.493
Mof_C 	C 	0.3491	0.8949	0.3113	-0.03
Mof_H 	H 	0.3827	0.8237	0.3702	0.007
Mof_C 	C 	0.29	0.7867	0.3126	0.025
Mof_H 	H 	0.2878	0.7284	0.4536	0.01
Mof_C 	C 	0.2927	0.6469	0.1378	0.397
Mof_Ce	Ce	0.85466	0.75424	0.94982	2.916
Mof_O 	O 	0.95594	0.8622	0.1144	-0.549
Mof_O 	O 	0.96242	0.6445	0.8517	-0.49
Mof_O 	O 	0.84449	0.7037	0.3465	-0.6
Mof_O 	O 	0.84061	0.5452	0.6468	-0.584
Mof_O 	O 	0.86235	0.4446	0.0945	-0.612
Mof_H 	H 	0.8934	0.3847	0.0559	0.25
Mof_O 	O 	0.73703	0.392	0.2828	-0.565
Mof_H 	H 	0.7402	0.4803	0.2	0.238
Mof_O 	O 	0.83562	0.0398	0.1377	-0.56
Mof_O 	O 	0.75004	0.1477	0.9945	-0.537
Mof_C 	C 	0.8443	0.5612	0.4451	0.456
Mof_C 	C 	0.8491	0.3949	0.3113	0.006
Mof_H 	H 	0.8827	0.3237	0.3702	0.015
Mof_C 	C 	0.79	0.2867	0.3126	0.023
Mof_H 	H 	0.7878	0.2284	0.4536	0.022
Mof_C 	C 	0.7927	0.1469	0.1378	0.396
Mof_S 	S 	0.5	0.2547	-0	0.634
Mof_S 	S 	-0	0.7547	-0	0.555
_end
