data_functionalizedCrystal
_audit_creation_method	'EQeq! by Chris Wilmer'
_symmetry_space_group_name_H-M	'P1'
_symmetry_Int_Tables_number	1
_symmetry_cell_setting	triclinic
loop_
_symmetry_equiv_pos_as_xyz
  x,y,z
_cell_length_a	16.765
_cell_length_b	28.419
_cell_length_c	11.636
_cell_angle_alpha	90
_cell_angle_beta	99.94
_cell_angle_gamma	90
loop_
_atom_site_label
_atom_site_type_symbol
_atom_site_fract_x
_atom_site_fract_y
_atom_site_fract_z
_atom_site_charge
Mof_Zn	Zn	0.98804	0.64012	0.60118	1.319
Mof_O 	O 	0.4687	0.20472	0.6567	-0.449
Mof_O 	O 	0.9014	0.60216	0.6482	-0.386
Mof_O 	O 	0.9001	0.62677	0.8288	-0.412
Mof_C 	C 	0.8708	0.60478	0.7376	0.421
Mof_C 	C 	0.792	0.57974	0.7384	-0.13
Mof_C 	C 	0.755	0.5806	0.8343	0.062
Mof_H 	H 	0.7784	0.5981	0.9013	0.018
Mof_C 	C 	0.6824	0.55575	0.8341	-0.14
Mof_H 	H 	0.6564	0.5572	0.9004	0.075
Mof_C 	C 	0.6487	0.52944	0.7392	0.095
Mof_C 	C 	0.6853	0.5288	0.6433	-0.145
Mof_H 	H 	0.662	0.5111	0.5768	0.079
Mof_C 	C 	0.7559	0.5537	0.642	0.077
Mof_H 	H 	0.7803	0.5531	0.5741	0.029
Mof_C 	C 	0.5713	0.5032	0.7415	-0.046
Mof_C 	C 	0.485	0.60508	0.8477	-0.082
Mof_H 	H 	0.4743	0.5885	0.9144	0.056
Mof_C 	C 	0.4855	0.6537	0.8483	-0.008
Mof_H 	H 	0.476	0.6703	0.9155	0.029
Mof_C 	C 	0.5712	0.45346	0.742	-0
Mof_C 	C 	0.6464	0.42719	0.7298	0.033
Mof_C 	C 	0.7139	0.4303	0.8153	-0.068
Mof_H 	H 	0.7131	0.4502	0.8806	0.055
Mof_C 	C 	0.7834	0.4045	0.8073	-0.026
Mof_H 	H 	0.8296	0.4068	0.867	0.071
Mof_C 	C 	0.7849	0.3756	0.713	-0.067
Mof_H 	H 	0.8319	0.3575	0.7083	0.048
Mof_C 	C 	0.7189	0.3729	0.6257	-0.013
Mof_H 	H 	0.7211	0.3536	0.5597	0.037
Mof_C 	C 	0.6479	0.39832	0.6323	-0.079
Mof_H 	H 	0.6019	0.396	0.5722	0.058
Mof_C 	C 	0.453	0.35133	0.6611	-0.137
Mof_H 	H 	0.4199	0.3678	0.5996	0.076
Mof_C 	C 	0.4533	0.30293	0.6602	0.064
Mof_H 	H 	0.4213	0.2865	0.5976	0.02
Mof_Cl	Cl	0.9875	0.63717	0.4103	-0.821
Mof_O 	O 	0.0081	0.5725	0.5244	-0.465
Mof_N 	N 	0.9859	0.5198	0.3708	-0.164
Mof_C 	C 	0.0171	0.5623	0.4284	0.542
Mof_C 	C 	0.0774	0.5801	0.357	-0.845
Mof_H 	H 	0.1164	0.5552	0.3493	0.393
Mof_H 	H 	0.106	0.6073	0.3965	0.291
Mof_H 	H 	0.0491	0.5895	0.28	0.337
Mof_C 	C 	0.9289	0.4963	0.437	-0.155
Mof_H 	H 	0.877	0.513	0.4239	0.115
Mof_H 	H 	0.9517	0.4965	0.5203	0.176
Mof_H 	H 	0.9203	0.4637	0.4101	0.145
Mof_H 	H 	0.0382	0.5302	0.2298	-1.02
Mof_H 	H 	0.0225	0.4767	0.2503	-0.841
Mof_H 	H 	0.9509	0.5093	0.1938	-0.914
Mof_O 	O 	0.9451	0.6671	0.4455	-0.772
Mof_H 	H 	0.9709	0.6659	0.3898	0.762
Mof_H 	H 	0.8957	0.6713	0.4198	0.341
Mof_Zn	Zn	0.48804	0.14012	0.60118	1.288
Mof_O 	O 	0.9687	0.70472	0.6567	-0.317
Mof_O 	O 	0.4014	0.10216	0.6482	-0.446
Mof_O 	O 	0.4001	0.12677	0.8288	-0.468
Mof_C 	C 	0.3708	0.10478	0.7376	0.418
Mof_C 	C 	0.292	0.07974	0.7384	-0.143
Mof_C 	C 	0.255	0.0806	0.8343	0.06
Mof_H 	H 	0.2784	0.0981	0.9013	0.014
Mof_C 	C 	0.1824	0.05575	0.8341	-0.135
Mof_H 	H 	0.1564	0.0572	0.9004	0.063
Mof_C 	C 	0.1487	0.02944	0.7392	0.082
Mof_C 	C 	0.1853	0.0288	0.6433	-0.14
Mof_H 	H 	0.162	0.0111	0.5768	0.07
Mof_C 	C 	0.2559	0.0537	0.642	0.067
Mof_H 	H 	0.2803	0.0531	0.5741	0.02
Mof_C 	C 	0.0713	0.0032	0.7415	-0.029
Mof_C 	C 	0.985	0.10508	0.8477	-0.008
Mof_H 	H 	0.9743	0.0885	0.9144	0.076
Mof_C 	C 	0.9855	0.1537	0.8483	0.212
Mof_H 	H 	0.976	0.1703	0.9155	-0.008
Mof_C 	C 	0.0712	0.95346	0.742	0.003
Mof_C 	C 	0.1464	0.92719	0.7298	0.017
Mof_C 	C 	0.2139	0.9303	0.8153	-0.058
Mof_H 	H 	0.2131	0.9502	0.8806	0.046
Mof_C 	C 	0.2834	0.9045	0.8073	-0.044
Mof_H 	H 	0.3296	0.9068	0.867	0.063
Mof_C 	C 	0.2849	0.8756	0.713	-0.052
Mof_H 	H 	0.3319	0.8575	0.7083	0.032
Mof_C 	C 	0.2189	0.8729	0.6257	-0.035
Mof_H 	H 	0.2211	0.8536	0.5597	0.03
Mof_C 	C 	0.1479	0.89832	0.6323	-0.063
Mof_H 	H 	0.1019	0.896	0.5722	0.022
Mof_C 	C 	0.953	0.85133	0.6611	0.003
Mof_H 	H 	0.9199	0.8678	0.5996	0.054
Mof_C 	C 	0.9533	0.80293	0.6602	0.187
Mof_H 	H 	0.9213	0.7865	0.5976	0.003
Mof_Cl	Cl	0.4875	0.13717	0.4103	-0.983
Mof_O 	O 	0.5081	0.0725	0.5244	-0.416
Mof_N 	N 	0.4859	0.0198	0.3708	-0.21
Mof_C 	C 	0.5171	0.0623	0.4284	0.597
Mof_C 	C 	0.5774	0.0801	0.357	-0.908
Mof_H 	H 	0.6164	0.0552	0.3493	0.336
Mof_H 	H 	0.606	0.1073	0.3965	0.337
Mof_H 	H 	0.5491	0.0895	0.28	0.356
Mof_C 	C 	0.4289	0.9963	0.437	-0.257
Mof_H 	H 	0.377	0.013	0.4239	0.122
Mof_H 	H 	0.4517	0.9965	0.5203	0.143
Mof_H 	H 	0.4203	0.9637	0.4101	0.154
Mof_H 	H 	0.5382	0.0302	0.2298	-0.353
Mof_H 	H 	0.5225	0.9767	0.2503	-0.257
Mof_H 	H 	0.4509	0.0093	0.1938	-0.344
Mof_O 	O 	0.4451	0.1671	0.4455	-0.761
Mof_H 	H 	0.4709	0.1659	0.3898	0.792
Mof_H 	H 	0.3957	0.1713	0.4198	0.325
Mof_Zn	Zn	0.01196	0.64012	0.89882	1.258
Mof_O 	O 	0.5313	0.20472	0.8433	-0.448
Mof_O 	O 	0.0986	0.60216	0.8518	-0.452
Mof_O 	O 	0.0999	0.62677	0.6712	-0.51
Mof_C 	C 	0.1292	0.60478	0.7624	0.455
Mof_C 	C 	0.208	0.57974	0.7616	-0.15
Mof_C 	C 	0.245	0.5806	0.6657	0.08
Mof_H 	H 	0.2216	0.5981	0.5987	0.01
Mof_C 	C 	0.3176	0.55575	0.6659	-0.15
Mof_H 	H 	0.3436	0.5572	0.5996	0.08
Mof_C 	C 	0.3513	0.52944	0.7608	0.104
Mof_C 	C 	0.3147	0.5288	0.8567	-0.156
Mof_H 	H 	0.338	0.5111	0.9232	0.082
Mof_C 	C 	0.2441	0.5537	0.858	0.094
Mof_H 	H 	0.2197	0.5531	0.9259	0.02
Mof_C 	C 	0.4287	0.5032	0.7585	-0.048
Mof_C 	C 	0.515	0.60508	0.6523	-0.082
Mof_H 	H 	0.5257	0.5885	0.5856	0.057
Mof_C 	C 	0.5145	0.6537	0.6517	-0.008
Mof_H 	H 	0.524	0.6703	0.5845	0.031
Mof_C 	C 	0.4288	0.45346	0.758	0.001
Mof_C 	C 	0.3536	0.42719	0.7702	0.032
Mof_C 	C 	0.2861	0.4303	0.6847	-0.067
Mof_H 	H 	0.2869	0.4502	0.6194	0.056
Mof_C 	C 	0.2166	0.4045	0.6927	-0.026
Mof_H 	H 	0.1704	0.4068	0.633	0.064
Mof_C 	C 	0.2151	0.3756	0.787	-0.059
Mof_H 	H 	0.1681	0.3575	0.7917	0.027
Mof_C 	C 	0.2811	0.3729	0.8743	-0.019
Mof_H 	H 	0.2789	0.3536	0.9403	0.028
Mof_C 	C 	0.3521	0.39832	0.8677	-0.078
Mof_H 	H 	0.3981	0.396	0.9278	0.055
Mof_C 	C 	0.547	0.35133	0.8389	-0.137
Mof_H 	H 	0.5801	0.3678	0.9004	0.077
Mof_C 	C 	0.5467	0.30293	0.8398	0.064
Mof_H 	H 	0.5787	0.2865	0.9024	0.021
Mof_Cl	Cl	0.0125	0.63717	0.0897	-1.142
Mof_O 	O 	0.9919	0.5725	0.9756	-0.393
Mof_N 	N 	0.0141	0.5198	0.1292	-0.364
Mof_C 	C 	0.9829	0.5623	0.0716	0.859
Mof_C 	C 	0.9226	0.5801	0.143	-1.094
Mof_H 	H 	0.8836	0.5552	0.1507	0.464
Mof_H 	H 	0.894	0.6073	0.1035	0.407
Mof_H 	H 	0.9509	0.5895	0.22	0.502
Mof_C 	C 	0.0711	0.4963	0.063	-0.069
Mof_H 	H 	0.123	0.513	0.0761	0.085
Mof_H 	H 	0.0483	0.4965	0.9797	0.063
Mof_H 	H 	0.0797	0.4637	0.0899	0.118
Mof_H 	H 	0.9618	0.5302	0.2702	-0.981
Mof_H 	H 	0.9775	0.4767	0.2497	-0.59
Mof_H 	H 	0.0491	0.5093	0.3062	-0.958
Mof_O 	O 	0.0549	0.6671	0.0545	-0.746
Mof_H 	H 	0.0291	0.6659	0.1102	0.823
Mof_H 	H 	0.1043	0.6713	0.0802	0.314
Mof_Zn	Zn	0.51196	0.14012	0.89882	1.287
Mof_O 	O 	0.0313	0.70472	0.8433	-0.448
Mof_O 	O 	0.5986	0.10216	0.8518	-0.445
Mof_O 	O 	0.5999	0.12677	0.6712	-0.464
Mof_C 	C 	0.6292	0.10478	0.7624	0.418
Mof_C 	C 	0.708	0.07974	0.7616	-0.137
Mof_C 	C 	0.745	0.0806	0.6657	0.06
Mof_H 	H 	0.7216	0.0981	0.5987	0.021
Mof_C 	C 	0.8176	0.05575	0.6659	-0.118
Mof_H 	H 	0.8436	0.0572	0.5996	0.09
Mof_C 	C 	0.8513	0.02944	0.7608	0.072
Mof_C 	C 	0.8147	0.0288	0.8567	-0.129
Mof_H 	H 	0.838	0.0111	0.9232	0.081
Mof_C 	C 	0.7441	0.0537	0.858	0.064
Mof_H 	H 	0.7197	0.0531	0.9259	0.022
Mof_C 	C 	0.9287	0.0032	0.7585	0.075
Mof_C 	C 	0.015	0.10508	0.6523	-0.139
Mof_H 	H 	0.0257	0.0885	0.5856	0.055
Mof_C 	C 	0.0145	0.1537	0.6517	0.075
Mof_H 	H 	0.024	0.1703	0.5845	-0.017
Mof_C 	C 	0.9288	0.95346	0.758	0.106
Mof_C 	C 	0.8536	0.92719	0.7702	0.018
Mof_C 	C 	0.7861	0.9303	0.6847	-0.054
Mof_H 	H 	0.7869	0.9502	0.6194	0.05
Mof_C 	C 	0.7166	0.9045	0.6927	-0.04
Mof_H 	H 	0.6704	0.9068	0.633	0.064
Mof_C 	C 	0.7151	0.8756	0.787	-0.053
Mof_H 	H 	0.6681	0.8575	0.7917	0.036
Mof_C 	C 	0.7811	0.8729	0.8743	-0.019
Mof_H 	H 	0.7789	0.8536	0.9403	0.046
Mof_C 	C 	0.8521	0.89832	0.8677	-0.06
Mof_H 	H 	0.8981	0.896	0.9278	0.094
Mof_C 	C 	0.047	0.85133	0.8389	-0.127
Mof_H 	H 	0.0801	0.8678	0.9004	0.066
Mof_C 	C 	0.0467	0.80293	0.8398	0.065
Mof_H 	H 	0.0787	0.7865	0.9024	0.013
Mof_Cl	Cl	0.5125	0.13717	0.0897	-0.982
Mof_O 	O 	0.4919	0.0725	0.9756	-0.42
Mof_N 	N 	0.5141	0.0198	0.1292	-0.213
Mof_C 	C 	0.4829	0.0623	0.0716	0.602
Mof_C 	C 	0.4226	0.0801	0.143	-0.912
Mof_H 	H 	0.3836	0.0552	0.1507	0.338
Mof_H 	H 	0.394	0.1073	0.1035	0.338
Mof_H 	H 	0.4509	0.0895	0.22	0.357
Mof_C 	C 	0.5711	0.9963	0.063	-0.24
Mof_H 	H 	0.623	0.013	0.0761	0.117
Mof_H 	H 	0.5483	0.9965	0.9797	0.135
Mof_H 	H 	0.5797	0.9637	0.0899	0.149
Mof_H 	H 	0.4618	0.0302	0.2702	-0.353
Mof_H 	H 	0.4775	0.9767	0.2497	-0.257
Mof_H 	H 	0.5491	0.0093	0.3062	-0.344
Mof_O 	O 	0.5549	0.1671	0.0545	-0.761
Mof_H 	H 	0.5291	0.1659	0.1102	0.792
Mof_H 	H 	0.6043	0.1713	0.0802	0.329
Mof_C 	C 	0.5	0.5271	0.75	0.001
Mof_C 	C 	0.5	0.5797	0.75	0.036
Mof_C 	C 	0.5	0.6785	0.75	-0.063
Mof_H 	H 	0.5	0.712	0.75	0.042
Mof_C 	C 	0.5	0.4293	0.75	-0.043
Mof_C 	C 	0.5	0.3765	0.75	0.087
Mof_C 	C 	0.5	0.278	0.75	-0.136
Mof_C 	C 	0.5	0.2253	0.75	0.384
Mof_C 	C 	1.04096e-17	0.0271	0.75	-0.133
Mof_C 	C 	1.04096e-17	0.0797	0.75	-0.043
Mof_C 	C 	2.28865e-33	0.1785	0.75	-0.313
Mof_H 	H 	1.04096e-17	0.212	0.75	0.082
Mof_C 	C 	1.04096e-17	0.9293	0.75	-0.154
Mof_C 	C 	1.04096e-17	0.8765	0.75	-0.044
Mof_C 	C 	2.28865e-33	0.778	0.75	-0.252
Mof_C 	C 	1.04096e-17	0.7253	0.75	0.248
Mof_C 	C 	7.62883e-34	0.50779	0.25	4.468
Mof_C 	C 	0.5	0.00779	0.25	1.693
Mof_Zn	Zn	0.01196	0.35988	0.39882	1.261
Mof_O 	O 	0.5313	0.79528	0.3433	-0.447
Mof_O 	O 	0.0986	0.39784	0.3518	-0.45
Mof_O 	O 	0.0999	0.37323	0.1712	-0.507
Mof_C 	C 	0.1292	0.39522	0.2624	0.453
Mof_C 	C 	0.208	0.42026	0.2616	-0.149
Mof_C 	C 	0.245	0.4194	0.1657	0.079
Mof_H 	H 	0.2216	0.4019	0.0987	0.012
Mof_C 	C 	0.3176	0.44425	0.1659	-0.149
Mof_H 	H 	0.3436	0.4428	0.0996	0.082
Mof_C 	C 	0.3513	0.47056	0.2608	0.103
Mof_C 	C 	0.3147	0.4712	0.3567	-0.155
Mof_H 	H 	0.338	0.4889	0.4232	0.083
Mof_C 	C 	0.2441	0.4463	0.358	0.092
Mof_H 	H 	0.2197	0.4469	0.4259	0.022
Mof_C 	C 	0.4287	0.4968	0.2585	-0.048
Mof_C 	C 	0.515	0.39492	0.1523	-0.082
Mof_H 	H 	0.5257	0.4115	0.0856	0.058
Mof_C 	C 	0.5145	0.3463	0.1517	-0.007
Mof_H 	H 	0.524	0.3297	0.0845	0.032
Mof_C 	C 	0.4288	0.54654	0.258	0.001
Mof_C 	C 	0.3536	0.57281	0.2702	0.033
Mof_C 	C 	0.2861	0.5697	0.1847	-0.067
Mof_H 	H 	0.2869	0.5498	0.1194	0.057
Mof_C 	C 	0.2166	0.5955	0.1927	-0.026
Mof_H 	H 	0.1704	0.5932	0.133	0.065
Mof_C 	C 	0.2151	0.6244	0.287	-0.059
Mof_H 	H 	0.1681	0.6425	0.2917	0.028
Mof_C 	C 	0.2811	0.6271	0.3743	-0.018
Mof_H 	H 	0.2789	0.6464	0.4403	0.029
Mof_C 	C 	0.3521	0.60168	0.3677	-0.077
Mof_H 	H 	0.3981	0.604	0.4278	0.056
Mof_C 	C 	0.547	0.64867	0.3389	-0.136
Mof_H 	H 	0.5801	0.6322	0.4004	0.077
Mof_C 	C 	0.5467	0.69707	0.3398	0.064
Mof_H 	H 	0.5787	0.7135	0.4024	0.022
Mof_Cl	Cl	0.0125	0.36283	0.5897	-1.153
Mof_O 	O 	0.9919	0.4275	0.4756	-0.398
Mof_N 	N 	0.0141	0.4802	0.6292	-0.369
Mof_C 	C 	0.9829	0.4377	0.5716	0.875
Mof_C 	C 	0.9226	0.4199	0.643	-1.106
Mof_H 	H 	0.8836	0.4448	0.6507	0.471
Mof_H 	H 	0.894	0.3927	0.6035	0.411
Mof_H 	H 	0.9509	0.4105	0.72	0.51
Mof_C 	C 	0.0711	0.5037	0.563	-0.089
Mof_H 	H 	0.123	0.487	0.5761	0.089
Mof_H 	H 	0.0483	0.5035	0.4797	0.072
Mof_H 	H 	0.0797	0.5363	0.5899	0.123
Mof_H 	H 	0.9618	0.4698	0.7702	-1.009
Mof_H 	H 	0.9775	0.5233	0.7497	-0.606
Mof_H 	H 	0.0491	0.4907	0.8062	-0.984
Mof_O 	O 	0.0549	0.3329	0.5545	-0.749
Mof_H 	H 	0.0291	0.3341	0.6102	0.826
Mof_H 	H 	0.1043	0.3287	0.5802	0.313
Mof_Zn	Zn	0.51196	0.85988	0.39882	1.288
Mof_O 	O 	0.0313	0.29528	0.3433	-0.446
Mof_O 	O 	0.5986	0.89784	0.3518	-0.444
Mof_O 	O 	0.5999	0.87323	0.1712	-0.463
Mof_C 	C 	0.6292	0.89522	0.2624	0.418
Mof_C 	C 	0.708	0.92026	0.2616	-0.137
Mof_C 	C 	0.745	0.9194	0.1657	0.06
Mof_H 	H 	0.7216	0.9019	0.0987	0.022
Mof_C 	C 	0.8176	0.94425	0.1659	-0.119
Mof_H 	H 	0.8436	0.9428	0.0996	0.089
Mof_C 	C 	0.8513	0.97056	0.2608	0.073
Mof_C 	C 	0.8147	0.9712	0.3567	-0.13
Mof_H 	H 	0.838	0.9889	0.4232	0.082
Mof_C 	C 	0.7441	0.9463	0.358	0.065
Mof_H 	H 	0.7197	0.9469	0.4259	0.022
Mof_C 	C 	0.9287	0.9968	0.2585	0.07
Mof_C 	C 	0.015	0.89492	0.1523	-0.137
Mof_H 	H 	0.0257	0.9115	0.0856	0.057
Mof_C 	C 	0.0145	0.8463	0.1517	0.073
Mof_H 	H 	0.024	0.8297	0.0845	-0.013
Mof_C 	C 	0.9288	0.04654	0.258	0.103
Mof_C 	C 	0.8536	0.07281	0.2702	0.019
Mof_C 	C 	0.7861	0.0697	0.1847	-0.055
Mof_H 	H 	0.7869	0.0498	0.1194	0.05
Mof_C 	C 	0.7166	0.0955	0.1927	-0.04
Mof_H 	H 	0.6704	0.0932	0.133	0.064
Mof_C 	C 	0.7151	0.1244	0.287	-0.054
Mof_H 	H 	0.6681	0.1425	0.2917	0.037
Mof_C 	C 	0.7811	0.1271	0.3743	-0.018
Mof_H 	H 	0.7789	0.1464	0.4403	0.047
Mof_C 	C 	0.8521	0.10168	0.3677	-0.061
Mof_H 	H 	0.8981	0.104	0.4278	0.095
Mof_C 	C 	0.047	0.14867	0.3389	-0.127
Mof_H 	H 	0.0801	0.1322	0.4004	0.068
Mof_C 	C 	0.0467	0.19707	0.3398	0.065
Mof_H 	H 	0.0787	0.2135	0.4024	0.015
Mof_Cl	Cl	0.5125	0.86283	0.5897	-0.984
Mof_O 	O 	0.4919	0.9275	0.4756	-0.416
Mof_N 	N 	0.5141	0.9802	0.6292	-0.211
Mof_C 	C 	0.4829	0.9377	0.5716	0.598
Mof_C 	C 	0.4226	0.9199	0.643	-0.908
Mof_H 	H 	0.3836	0.9448	0.6507	0.336
Mof_H 	H 	0.394	0.8927	0.6035	0.336
Mof_H 	H 	0.4509	0.9105	0.72	0.356
Mof_C 	C 	0.5711	0.0037	0.563	-0.253
Mof_H 	H 	0.623	0.987	0.5761	0.12
Mof_H 	H 	0.5483	0.0035	0.4797	0.142
Mof_H 	H 	0.5797	0.0363	0.5899	0.153
Mof_H 	H 	0.4618	0.9698	0.7702	-0.356
Mof_H 	H 	0.4775	0.0233	0.7497	-0.259
Mof_H 	H 	0.5491	0.9907	0.8062	-0.347
Mof_O 	O 	0.5549	0.8329	0.5545	-0.762
Mof_H 	H 	0.5291	0.8341	0.6102	0.793
Mof_H 	H 	0.6043	0.8287	0.5802	0.329
Mof_Zn	Zn	0.98804	0.35988	0.10118	1.318
Mof_O 	O 	0.4687	0.79528	0.1567	-0.447
Mof_O 	O 	0.9014	0.39784	0.1482	-0.388
Mof_O 	O 	0.9001	0.37323	0.3288	-0.411
Mof_C 	C 	0.8708	0.39522	0.2376	0.422
Mof_C 	C 	0.792	0.42026	0.2384	-0.13
Mof_C 	C 	0.755	0.4194	0.3343	0.064
Mof_H 	H 	0.7784	0.4019	0.4013	0.019
Mof_C 	C 	0.6824	0.44425	0.3341	-0.14
Mof_H 	H 	0.6564	0.4428	0.4004	0.077
Mof_C 	C 	0.6487	0.47056	0.2392	0.095
Mof_C 	C 	0.6853	0.4712	0.1433	-0.146
Mof_H 	H 	0.662	0.4889	0.0768	0.079
Mof_C 	C 	0.7559	0.4463	0.142	0.077
Mof_H 	H 	0.7803	0.4469	0.0741	0.028
Mof_C 	C 	0.5713	0.4968	0.2415	-0.045
Mof_C 	C 	0.485	0.39492	0.3477	-0.082
Mof_H 	H 	0.4743	0.4115	0.4144	0.057
Mof_C 	C 	0.4855	0.3463	0.3483	-0.008
Mof_H 	H 	0.476	0.3297	0.4155	0.031
Mof_C 	C 	0.5712	0.54654	0.242	-0
Mof_C 	C 	0.6464	0.57281	0.2298	0.034
Mof_C 	C 	0.7139	0.5697	0.3153	-0.068
Mof_H 	H 	0.7131	0.5498	0.3806	0.056
Mof_C 	C 	0.7834	0.5955	0.3073	-0.026
Mof_H 	H 	0.8296	0.5932	0.367	0.071
Mof_C 	C 	0.7849	0.6244	0.213	-0.067
Mof_H 	H 	0.8319	0.6425	0.2083	0.048
Mof_C 	C 	0.7189	0.6271	0.1257	-0.013
Mof_H 	H 	0.7211	0.6464	0.0597	0.037
Mof_C 	C 	0.6479	0.60168	0.1323	-0.079
Mof_H 	H 	0.6019	0.604	0.0722	0.059
Mof_C 	C 	0.453	0.64867	0.1611	-0.137
Mof_H 	H 	0.4199	0.6322	0.0996	0.078
Mof_C 	C 	0.4533	0.69707	0.1602	0.064
Mof_H 	H 	0.4213	0.7135	0.0976	0.021
Mof_Cl	Cl	0.9875	0.36283	0.9103	-0.819
Mof_O 	O 	0.0081	0.4275	0.0244	-0.452
Mof_N 	N 	0.9859	0.4802	0.8708	-0.162
Mof_C 	C 	0.0171	0.4377	0.9284	0.526
Mof_C 	C 	0.0774	0.4199	0.857	-0.829
Mof_H 	H 	0.1164	0.4448	0.8493	0.391
Mof_H 	H 	0.106	0.3927	0.8965	0.284
Mof_H 	H 	0.0491	0.4105	0.78	0.333
Mof_C 	C 	0.9289	0.5037	0.937	-0.143
Mof_H 	H 	0.877	0.487	0.9239	0.112
Mof_H 	H 	0.9517	0.5035	0.0203	0.169
Mof_H 	H 	0.9203	0.5363	0.9101	0.142
Mof_H 	H 	0.0382	0.4698	0.7298	-1.049
Mof_H 	H 	0.0225	0.5233	0.7503	-0.866
Mof_H 	H 	0.9509	0.4907	0.6938	-0.939
Mof_O 	O 	0.9451	0.3329	0.9455	-0.774
Mof_H 	H 	0.9709	0.3341	0.8898	0.762
Mof_H 	H 	0.8957	0.3287	0.9198	0.342
Mof_Zn	Zn	0.48804	0.85988	0.10118	1.289
Mof_O 	O 	0.9687	0.29528	0.1567	-0.322
Mof_O 	O 	0.4014	0.89784	0.1482	-0.445
Mof_O 	O 	0.4001	0.87323	0.3288	-0.467
Mof_C 	C 	0.3708	0.89522	0.2376	0.418
Mof_C 	C 	0.292	0.92026	0.2384	-0.142
Mof_C 	C 	0.255	0.9194	0.3343	0.06
Mof_H 	H 	0.2784	0.9019	0.4013	0.015
Mof_C 	C 	0.1824	0.94425	0.3341	-0.135
Mof_H 	H 	0.1564	0.9428	0.4004	0.066
Mof_C 	C 	0.1487	0.97056	0.2392	0.083
Mof_C 	C 	0.1853	0.9712	0.1433	-0.14
Mof_H 	H 	0.162	0.9889	0.0768	0.072
Mof_C 	C 	0.2559	0.9463	0.142	0.068
Mof_H 	H 	0.2803	0.9469	0.0741	0.022
Mof_C 	C 	0.0713	0.9968	0.2415	-0.03
Mof_C 	C 	0.985	0.89492	0.3477	-0.01
Mof_H 	H 	0.9743	0.9115	0.4144	0.077
Mof_C 	C 	0.9855	0.8463	0.3483	0.205
Mof_H 	H 	0.976	0.8297	0.4155	-0.005
Mof_C 	C 	0.0712	0.04654	0.242	0.005
Mof_C 	C 	0.1464	0.07281	0.2298	0.018
Mof_C 	C 	0.2139	0.0697	0.3153	-0.058
Mof_H 	H 	0.2131	0.0498	0.3806	0.048
Mof_C 	C 	0.2834	0.0955	0.3073	-0.043
Mof_H 	H 	0.3296	0.0932	0.367	0.064
Mof_C 	C 	0.2849	0.1244	0.213	-0.052
Mof_H 	H 	0.3319	0.1425	0.2083	0.033
Mof_C 	C 	0.2189	0.1271	0.1257	-0.034
Mof_H 	H 	0.2211	0.1464	0.0597	0.031
Mof_C 	C 	0.1479	0.10168	0.1323	-0.063
Mof_H 	H 	0.1019	0.104	0.0722	0.024
Mof_C 	C 	0.953	0.14867	0.1611	-0.003
Mof_H 	H 	0.9199	0.1322	0.0996	0.055
Mof_C 	C 	0.9533	0.19707	0.1602	0.182
Mof_H 	H 	0.9213	0.2135	0.0976	0.004
Mof_Cl	Cl	0.4875	0.86283	0.9103	-0.985
Mof_O 	O 	0.5081	0.9275	0.0244	-0.41
Mof_N 	N 	0.4859	0.9802	0.8708	-0.209
Mof_C 	C 	0.5171	0.9377	0.9284	0.591
Mof_C 	C 	0.5774	0.9199	0.857	-0.901
Mof_H 	H 	0.6164	0.9448	0.8493	0.334
Mof_H 	H 	0.606	0.8927	0.8965	0.335
Mof_H 	H 	0.5491	0.9105	0.78	0.354
Mof_C 	C 	0.4289	0.0037	0.937	-0.26
Mof_H 	H 	0.377	0.987	0.9239	0.121
Mof_H 	H 	0.4517	0.0035	0.0203	0.146
Mof_H 	H 	0.4203	0.0363	0.9101	0.155
Mof_H 	H 	0.5382	0.9698	0.7298	-0.356
Mof_H 	H 	0.5225	0.0233	0.7503	-0.259
Mof_H 	H 	0.4509	0.9907	0.6938	-0.347
Mof_O 	O 	0.4451	0.8329	0.9455	-0.763
Mof_H 	H 	0.4709	0.8341	0.8898	0.794
Mof_H 	H 	0.3957	0.8287	0.9198	0.325
Mof_C 	C 	0.5	0.4729	0.25	0.002
Mof_C 	C 	0.5	0.4203	0.25	0.036
Mof_C 	C 	0.5	0.3215	0.25	-0.062
Mof_H 	H 	0.5	0.288	0.25	0.043
Mof_C 	C 	0.5	0.5707	0.25	-0.043
Mof_C 	C 	0.5	0.6235	0.25	0.088
Mof_C 	C 	0.5	0.722	0.25	-0.135
Mof_C 	C 	0.5	0.7747	0.25	0.384
Mof_C 	C 	7.62883e-34	0.9729	0.25	-0.127
Mof_C 	C 	7.62883e-34	0.9203	0.25	-0.04
Mof_C 	C 	5.20478e-18	0.8215	0.25	-0.304
Mof_H 	H 	-5.20478e-18	0.788	0.25	0.081
Mof_C 	C 	7.62883e-34	0.0707	0.25	-0.149
Mof_C 	C 	5.20478e-18	0.1235	0.25	-0.038
Mof_C 	C 	7.62883e-34	0.222	0.25	-0.246
Mof_C 	C 	7.62883e-34	0.2747	0.25	0.254
Mof_C 	C 	1.04096e-17	0.49221	0.75	4.591
Mof_C 	C 	0.5	0.99221	0.75	1.707
_end
