# CIF file generated by openbabel 3.1.0, see https://openbabel.org
data_I
_chemical_name_common 'image0'
_cell_length_a 12.13
_cell_length_b 12.13
_cell_length_c 30.555
_cell_angle_alpha 90
_cell_angle_beta 90
_cell_angle_gamma 90
_space_group_name_H-M_alt 'P 1'
_space_group_name_Hall 'P 1'
loop_
    _symmetry_equiv_pos_as_xyz
    x,y,z
loop_
    _atom_site_label
    _atom_site_type_symbol
    _atom_site_fract_x
    _atom_site_fract_y
    _atom_site_fract_z
    _atom_site_occupancy
    V1       V        0.50270    0.76940    0.37710    1.000
    V2       V        0.56560    0.63500    0.27210    1.000
    V3       V        0.40800    0.85810    0.48800    1.000
    V4       V        0.76450    0.48590    0.30160    1.000
    V5       V        0.23890    0.01240    0.43950    1.000
    V6       V        0.00310    0.77110    0.36340    1.000
    V7       V        0.36520    0.06090    0.21780    1.000
    V8       V        0.91140    0.85760    0.25370    1.000
    V9       V        0.74220    0.01460    0.30000    1.000
    V10      V        0.25960    0.48500    0.44060    1.000
    P1       P        0.50240    0.60630    0.45710    1.000
    P2       P        0.75260    0.75120    0.32980    1.000
    P3       P        0.50020    0.89170    0.28340    1.000
    P4       P        0.25090    0.75120    0.41260    1.000
    P5       P        0.60700    0.99250    0.53580    1.000
    P6       P        0.75230    0.25100    0.24650    1.000
    P7       P        0.99570    0.89290    0.45680    1.000
    O1       O        0.50140    0.86170    0.41550    1.000
    O2       O        0.50300    0.64060    0.31970    1.000
    O3       O        0.74430    0.45430    0.35210    1.000
    O4       O        0.25580    0.03840    0.38940    1.000
    O5       O        0.61970    0.48250    0.27420    1.000
    O6       O        0.37240    0.01060    0.47550    1.000
    O7       O        0.00380    0.86000    0.32500    1.000
    O8       O        0.36540    0.99980    0.17090    1.000
    O9       O        0.23960    0.45380    0.39210    1.000
    O10      O        0.76740    0.04790    0.35020    1.000
    O11      O        0.51030    0.12770    0.22530    1.000
    O12      O        0.88310    0.01520    0.27130    1.000
    O13      O        0.54920    0.63730    0.41180    1.000
    O14      O        0.59910    0.55260    0.48180    1.000
    O15      O        0.46000    0.70570    0.48340    1.000
    O16      O        0.41240    0.52020    0.45380    1.000
    O17      O        0.65770    0.78570    0.35820    1.000
    O18      O        0.72020    0.65180    0.29970    1.000
    O19      O        0.85020    0.71740    0.35690    1.000
    O20      O        0.78240    0.84630    0.29710    1.000
    O21      O        0.44830    0.85520    0.32660    1.000
    O22      O        0.55180    0.79370    0.26000    1.000
    O23      O        0.40580    0.93580    0.25470    1.000
    O24      O        0.58810    0.98260    0.29120    1.000
    O25      O        0.34740    0.71370    0.38450    1.000
    O26      O        0.28380    0.84870    0.44320    1.000
    O27      O        0.15670    0.79450    0.38520    1.000
    O28      O        0.21520    0.65060    0.44070    1.000
    O29      O        0.56000    0.90030    0.50710    1.000
    O30      O        0.51720    0.08140    0.54380    1.000
    O31      O        0.64760    0.94140    0.57860    1.000
    O32      O        0.70350    0.04080    0.51090    1.000
    O33      O        0.80000    0.34120    0.27740    1.000
    O34      O        0.84450    0.20300    0.21980    1.000
    O35      O        0.65440    0.29990    0.22170    1.000
    O36      O        0.70710    0.16070    0.27800    1.000
    O37      O        0.08650    0.97910    0.45500    1.000
    O38      O        0.94800    0.86510    0.41180    1.000
    O39      O        0.03760    0.79310    0.48300    1.000
    O40      O        0.89960    0.94430    0.48290    1.000
    K1       K        0.41050    0.77510    0.18030    1.000
    K2       K        0.43920    0.29050    0.06720    1.000
    K3       K        0.07280    0.22980    0.06190    1.000
    K4       K        0.04630    0.70960    0.17400    1.000
    V11      V        0.49730    0.23060    0.87710    1.000
    V12      V        0.43440    0.36500    0.77210    1.000
    V13      V        0.59200    0.14190    0.98800    1.000
    V14      V        0.23550    0.51410    0.80160    1.000
    V15      V        0.76110    0.98760    0.93950    1.000
    V16      V        0.99690    0.22890    0.86340    1.000
    V17      V        0.63480    0.93910    0.71780    1.000
    V18      V        0.08860    0.14240    0.75370    1.000
    V19      V        0.25780    0.98540    0.80000    1.000
    V20      V        0.74040    0.51500    0.94060    1.000
    P8       P        0.49760    0.39370    0.95710    1.000
    P9       P        0.24740    0.24880    0.82980    1.000
    P10      P        0.49980    0.10830    0.78340    1.000
    P11      P        0.74910    0.24880    0.91260    1.000
    P12      P        0.39300    0.00750    0.03580    1.000
    P13      P        0.24770    0.74900    0.74650    1.000
    P14      P        0.00430    0.10710    0.95680    1.000
    O41      O        0.49860    0.13830    0.91550    1.000
    O42      O        0.49700    0.35940    0.81970    1.000
    O43      O        0.25570    0.54570    0.85210    1.000
    O44      O        0.74420    0.96160    0.88940    1.000
    O45      O        0.38030    0.51750    0.77420    1.000
    O46      O        0.62760    0.98940    0.97550    1.000
    O47      O        0.99620    0.14000    0.82500    1.000
    O48      O        0.63460    0.00020    0.67090    1.000
    O49      O        0.76040    0.54620    0.89210    1.000
    O50      O        0.23260    0.95210    0.85020    1.000
    O51      O        0.48970    0.87230    0.72530    1.000
    O52      O        0.11690    0.98480    0.77130    1.000
    O53      O        0.45080    0.36270    0.91180    1.000
    O54      O        0.40090    0.44740    0.98180    1.000
    O55      O        0.54000    0.29430    0.98340    1.000
    O56      O        0.58760    0.47980    0.95380    1.000
    O57      O        0.34230    0.21430    0.85820    1.000
    O58      O        0.27980    0.34820    0.79970    1.000
    O59      O        0.14980    0.28260    0.85690    1.000
    O60      O        0.21760    0.15370    0.79710    1.000
    O61      O        0.55170    0.14480    0.82660    1.000
    O62      O        0.44820    0.20630    0.76000    1.000
    O63      O        0.59420    0.06420    0.75470    1.000
    O64      O        0.41190    0.01740    0.79120    1.000
    O65      O        0.65260    0.28630    0.88450    1.000
    O66      O        0.71620    0.15130    0.94320    1.000
    O67      O        0.84330    0.20550    0.88520    1.000
    O68      O        0.78480    0.34940    0.94070    1.000
    O69      O        0.44000    0.09970    0.00710    1.000
    O70      O        0.48280    0.91860    0.04380    1.000
    O71      O        0.35240    0.05860    0.07860    1.000
    O72      O        0.29650    0.95920    0.01090    1.000
    O73      O        0.20000    0.65880    0.77740    1.000
    O74      O        0.15550    0.79700    0.71980    1.000
    O75      O        0.34560    0.70010    0.72170    1.000
    O76      O        0.29290    0.83930    0.77800    1.000
    O77      O        0.91350    0.02090    0.95500    1.000
    O78      O        0.05200    0.13490    0.91180    1.000
    O79      O        0.96240    0.20690    0.98300    1.000
    O80      O        0.10040    0.05570    0.98290    1.000
    K5       K        0.58950    0.22490    0.68030    1.000
    K6       K        0.56080    0.70950    0.56720    1.000
    K7       K        0.92720    0.77020    0.56190    1.000
    K8       K        0.95370    0.29040    0.67400    1.000
    V21      V        0.23060    0.50270    0.12710    1.000
    V22      V        0.36500    0.56560    0.02210    1.000
    V23      V        0.14190    0.40800    0.23800    1.000
    V24      V        0.51410    0.76450    0.05160    1.000
    V25      V        0.98760    0.23890    0.18950    1.000
    V26      V        0.22890    0.00310    0.11340    1.000
    V27      V        0.93910    0.36520    0.96780    1.000
    V28      V        0.14240    0.91140    0.00370    1.000
    V29      V        0.98540    0.74220    0.05000    1.000
    V30      V        0.51500    0.25960    0.19060    1.000
    P15      P        0.39370    0.50240    0.20710    1.000
    P16      P        0.24880    0.75260    0.07980    1.000
    P17      P        0.10830    0.50020    0.03340    1.000
    P18      P        0.24880    0.25090    0.16260    1.000
    P19      P        0.00750    0.60700    0.28580    1.000
    P20      P        0.74900    0.75230    0.99650    1.000
    P21      P        0.10710    0.99570    0.20680    1.000
    O81      O        0.13830    0.50140    0.16550    1.000
    O82      O        0.35940    0.50300    0.06970    1.000
    O83      O        0.54570    0.74430    0.10210    1.000
    O84      O        0.96160    0.25580    0.13940    1.000
    O85      O        0.51750    0.61970    0.02420    1.000
    O86      O        0.98940    0.37240    0.22550    1.000
    O87      O        0.14000    0.00380    0.07500    1.000
    O88      O        0.00020    0.36540    0.92090    1.000
    O89      O        0.54620    0.23960    0.14210    1.000
    O90      O        0.95210    0.76740    0.10020    1.000
    O91      O        0.87230    0.51030    0.97530    1.000
    O92      O        0.98480    0.88310    0.02130    1.000
    O93      O        0.36270    0.54920    0.16180    1.000
    O94      O        0.44740    0.59910    0.23180    1.000
    O95      O        0.29430    0.46000    0.23340    1.000
    O96      O        0.47980    0.41240    0.20380    1.000
    O97      O        0.21430    0.65770    0.10820    1.000
    O98      O        0.34820    0.72020    0.04970    1.000
    O99      O        0.28260    0.85020    0.10690    1.000
    O100     O        0.15370    0.78240    0.04710    1.000
    O101     O        0.14480    0.44830    0.07660    1.000
    O102     O        0.20630    0.55180    0.01000    1.000
    O103     O        0.06420    0.40580    0.00470    1.000
    O104     O        0.01740    0.58810    0.04120    1.000
    O105     O        0.28630    0.34740    0.13450    1.000
    O106     O        0.15130    0.28380    0.19320    1.000
    O107     O        0.20550    0.15670    0.13520    1.000
    O108     O        0.34940    0.21520    0.19070    1.000
    O109     O        0.09970    0.56000    0.25710    1.000
    O110     O        0.91860    0.51720    0.29380    1.000
    O111     O        0.05860    0.64760    0.32860    1.000
    O112     O        0.95920    0.70350    0.26090    1.000
    O113     O        0.65880    0.80000    0.02740    1.000
    O114     O        0.79700    0.84450    0.96980    1.000
    O115     O        0.70010    0.65440    0.97170    1.000
    O116     O        0.83930    0.70710    0.02800    1.000
    O117     O        0.02090    0.08650    0.20500    1.000
    O118     O        0.13490    0.94800    0.16180    1.000
    O119     O        0.20690    0.03760    0.23300    1.000
    O120     O        0.05570    0.89960    0.23290    1.000
    K9       K        0.22490    0.41050    0.93030    1.000
    K10      K        0.70950    0.43920    0.81720    1.000
    K11      K        0.77020    0.07280    0.81190    1.000
    K12      K        0.29040    0.04630    0.92400    1.000
    V31      V        0.76940    0.49730    0.62710    1.000
    V32      V        0.63500    0.43440    0.52210    1.000
    V33      V        0.85810    0.59200    0.73800    1.000
    V34      V        0.48590    0.23550    0.55160    1.000
    V35      V        0.01240    0.76110    0.68950    1.000
    V36      V        0.77110    0.99690    0.61340    1.000
    V37      V        0.06090    0.63480    0.46780    1.000
    V38      V        0.85760    0.08860    0.50370    1.000
    V39      V        0.01460    0.25780    0.55000    1.000
    V40      V        0.48500    0.74040    0.69060    1.000
    P22      P        0.60630    0.49760    0.70710    1.000
    P23      P        0.75120    0.24740    0.57980    1.000
    P24      P        0.89170    0.49980    0.53340    1.000
    P25      P        0.75120    0.74910    0.66260    1.000
    P26      P        0.99250    0.39300    0.78580    1.000
    P27      P        0.25100    0.24770    0.49650    1.000
    P28      P        0.89290    0.00430    0.70680    1.000
    O121     O        0.86170    0.49860    0.66550    1.000
    O122     O        0.64060    0.49700    0.56970    1.000
    O123     O        0.45430    0.25570    0.60210    1.000
    O124     O        0.03840    0.74420    0.63940    1.000
    O125     O        0.48250    0.38030    0.52420    1.000
    O126     O        0.01060    0.62760    0.72550    1.000
    O127     O        0.86000    0.99620    0.57500    1.000
    O128     O        0.99980    0.63460    0.42090    1.000
    O129     O        0.45380    0.76040    0.64210    1.000
    O130     O        0.04790    0.23260    0.60020    1.000
    O131     O        0.12770    0.48970    0.47530    1.000
    O132     O        0.01520    0.11690    0.52130    1.000
    O133     O        0.63730    0.45080    0.66180    1.000
    O134     O        0.55260    0.40090    0.73180    1.000
    O135     O        0.70570    0.54000    0.73340    1.000
    O136     O        0.52020    0.58760    0.70380    1.000
    O137     O        0.78570    0.34230    0.60820    1.000
    O138     O        0.65180    0.27980    0.54970    1.000
    O139     O        0.71740    0.14980    0.60690    1.000
    O140     O        0.84630    0.21760    0.54710    1.000
    O141     O        0.85520    0.55170    0.57660    1.000
    O142     O        0.79370    0.44820    0.51000    1.000
    O143     O        0.93580    0.59420    0.50470    1.000
    O144     O        0.98260    0.41190    0.54120    1.000
    O145     O        0.71370    0.65260    0.63450    1.000
    O146     O        0.84870    0.71620    0.69320    1.000
    O147     O        0.79450    0.84330    0.63520    1.000
    O148     O        0.65060    0.78480    0.69070    1.000
    O149     O        0.90030    0.44000    0.75710    1.000
    O150     O        0.08140    0.48280    0.79380    1.000
    O151     O        0.94140    0.35240    0.82860    1.000
    O152     O        0.04080    0.29650    0.76090    1.000
    O153     O        0.34120    0.20000    0.52740    1.000
    O154     O        0.20300    0.15550    0.46980    1.000
    O155     O        0.29990    0.34560    0.47170    1.000
    O156     O        0.16070    0.29290    0.52800    1.000
    O157     O        0.97910    0.91350    0.70500    1.000
    O158     O        0.86510    0.05200    0.66180    1.000
    O159     O        0.79310    0.96240    0.73300    1.000
    O160     O        0.94430    0.10040    0.73290    1.000
    K13      K        0.77510    0.58950    0.43030    1.000
    K14      K        0.29050    0.56080    0.31720    1.000
    K15      K        0.22980    0.92720    0.31190    1.000
    K16      K        0.70960    0.95370    0.42400    1.000
