data_functionalizedCrystal
_audit_creation_method	'EQeq! by Chris Wilmer'
_symmetry_space_group_name_H-M	'P1'
_symmetry_Int_Tables_number	1
_symmetry_cell_setting	triclinic
loop_
_symmetry_equiv_pos_as_xyz
  x,y,z
_cell_length_a	10.013
_cell_length_b	11.416
_cell_length_c	14.914
_cell_angle_alpha	91.44
_cell_angle_beta	90
_cell_angle_gamma	90
loop_
_atom_site_label
_atom_site_type_symbol
_atom_site_fract_x
_atom_site_fract_y
_atom_site_fract_z
_atom_site_charge
Mof_Mg	Mg	1.38863e-33	0	0.5	1.458
Mof_Mg	Mg	0.62118	0.26112	0.69528	1.48
Mof_Mg	Mg	0.37882	0.73888	0.30472	1.481
Mof_Mg	Mg	0.42683	0.24489	0.86472	1.476
Mof_Mg	Mg	0.12118	0.23888	0.80472	1.473
Mof_Mg	Mg	0.92683	0.25511	0.63528	1.492
Mof_Mg	Mg	0.57317	0.75511	0.13528	1.477
Mof_Mg	Mg	0.07317	0.74489	0.36472	1.462
Mof_Mg	Mg	0.5	0.5	-0	1.466
Mof_Mg	Mg	0.87882	0.76112	0.19528	1.486
Mof_Mg	Mg	-6.0174e-33	0.5	0.5	1.466
Mof_Mg	Mg	0.5	0	-0	1.46
Mof_H 	H 	0.8538	0.803	0.572	-0.085
Mof_H 	H 	0.2743	0.1518	0.6302	-0.16
Mof_H 	H 	0.4519	0.4764	0.2558	-0.154
Mof_H 	H 	0.217	0.9947	0.9644	0.018
Mof_H 	H 	0.3728	0.9407	0.4478	-0.107
Mof_H 	H 	0.283	0.4947	0.4644	-0.142
Mof_H 	H 	0.8728	0.5593	0.0522	-0.121
Mof_H 	H 	0.5481	0.5236	0.7442	-0.119
Mof_H 	H 	0.2257	0.6518	0.1302	-0.198
Mof_H 	H 	0.2812	0.9644	0.2118	-0.228
Mof_H 	H 	0.7257	0.8482	0.3698	-0.13
Mof_H 	H 	0.1462	0.197	0.428	-0.19
Mof_H 	H 	0.6272	0.0593	0.5522	-0.152
Mof_H 	H 	0.783	0.0053	0.0356	-0.261
Mof_H 	H 	0.1272	0.4407	0.9478	-0.139
Mof_H 	H 	0.717	0.5053	0.5356	-0.116
Mof_H 	H 	0.0481	0.9764	0.7558	0.012
Mof_H 	H 	0.2188	0.4644	0.7118	-0.17
Mof_H 	H 	0.7188	0.0356	0.7882	-0.087
Mof_H 	H 	0.3538	0.697	0.928	-0.205
Mof_H 	H 	0.7812	0.5356	0.2882	-0.146
Mof_H 	H 	0.6462	0.303	0.072	-0.067
Mof_H 	H 	0.7743	0.3482	0.8698	-0.091
Mof_H 	H 	0.9519	0.0236	0.2442	-0.256
Mof_C 	C 	0.8513	0.5588	0.3255	0.58
Mof_C 	C 	0.9732	0.981	0.2946	0.865
Mof_C 	C 	0.5921	0.2594	0.0331	0.315
Mof_C 	C 	0.4732	0.519	0.2054	0.607
Mof_C 	C 	0.4079	0.7406	0.9669	0.848
Mof_C 	C 	0.0268	0.019	0.7054	0.261
Mof_C 	C 	0.5268	0.481	0.7946	0.578
Mof_C 	C 	0.7174	0.0776	0.5578	0.58
Mof_C 	C 	0.7341	0.4394	0.5691	0.548
Mof_C 	C 	0.6487	0.0588	0.8255	0.43
Mof_C 	C 	0.9079	0.7594	0.5331	0.556
Mof_C 	C 	0.2341	0.0606	0.9309	0.381
Mof_C 	C 	0.7659	0.9394	0.0691	0.732
Mof_C 	C 	0.3413	0.1781	0.6689	0.573
Mof_C 	C 	0.0921	0.2406	0.4669	0.607
Mof_C 	C 	0.7826	0.5776	0.0578	0.581
Mof_C 	C 	0.6587	0.8219	0.3311	0.569
Mof_C 	C 	0.1487	0.4412	0.6745	0.613
Mof_C 	C 	0.8413	0.3219	0.8311	0.543
Mof_C 	C 	0.2659	0.5606	0.4309	0.587
Mof_C 	C 	0.3513	0.9412	0.1745	0.763
Mof_C 	C 	0.1587	0.6781	0.1689	0.598
Mof_C 	C 	0.2826	0.9224	0.4422	0.556
Mof_C 	C 	0.2174	0.4224	0.9422	0.557
Mof_O 	O 	0.9745	0.8157	0.47547	-0.565
Mof_O 	O 	0.4878	0.4631	0.13435	-0.564
Mof_O 	O 	0.8539	0.4026	0.56965	-0.586
Mof_O 	O 	0.5157	0.3704	0.7836	-0.669
Mof_O 	O 	0.7503	0.6593	0.11493	-0.661
Mof_O 	O 	0.0122	0.9631	0.63435	-0.431
Mof_O 	O 	0.4535	0.1935	0.63575	-0.522
Mof_O 	O 	0.7036	0.5215	0.0097	-0.567
Mof_O 	O 	0.3091	0.195	0.75086	-0.676
Mof_O 	O 	0.8764	0.4961	0.3896	-0.458
Mof_O 	O 	0.3539	0.0974	0.93035	-0.596
Mof_O 	O 	0.5255	0.3157	0.97547	-0.486
Mof_O 	O 	0.0255	0.1843	0.52453	-0.763
Mof_O 	O 	0.2036	0.9785	0.4903	-0.494
Mof_O 	O 	0.1909	0.695	0.25086	-0.717
Mof_O 	O 	0.7497	0.1593	0.61493	-0.64
Mof_O 	O 	0.1461	0.5974	0.43035	-0.73
Mof_O 	O 	0.2497	0.3407	0.88507	-0.675
Mof_O 	O 	0.9843	0.8704	0.2836	-0.668
Mof_O 	O 	0.5122	0.5369	0.86565	-0.464
Mof_O 	O 	0.6236	0.9961	0.8896	-0.323
Mof_O 	O 	0.9087	0.652	0.542	-0.445
Mof_O 	O 	0.6379	0.3965	0.60865	-0.497
Mof_O 	O 	0.3764	0.0039	0.1104	-0.702
Mof_O 	O 	0.8091	0.305	0.74914	-0.611
Mof_O 	O 	0.1236	0.5039	0.6104	-0.567
Mof_O 	O 	0.5913	0.152	0.042	-0.521
Mof_O 	O 	0.2503	0.8407	0.38507	-0.693
Mof_O 	O 	0.4128	0.8474	0.19401	-0.724
Mof_O 	O 	0.5872	0.1526	0.80599	-0.629
Mof_O 	O 	0.9878	0.0369	0.36565	-0.567
Mof_O 	O 	0.0157	0.1296	0.7164	-0.672
Mof_O 	O 	0.9128	0.6526	0.30599	-0.612
Mof_O 	O 	0.0913	0.348	0.458	-0.589
Mof_O 	O 	0.5465	0.8065	0.36425	-0.497
Mof_O 	O 	0.1379	0.1035	0.89135	-0.507
Mof_O 	O 	0.4843	0.6296	0.2164	-0.681
Mof_O 	O 	0.4087	0.848	0.958	-0.507
Mof_O 	O 	0.0872	0.3474	0.69401	-0.742
Mof_O 	O 	0.6909	0.805	0.24914	-0.653
Mof_O 	O 	0.7964	0.0215	0.5097	-0.504
Mof_O 	O 	0.8621	0.8965	0.10865	-0.508
Mof_O 	O 	0.3621	0.6035	0.39135	-0.519
Mof_O 	O 	0.4745	0.6843	0.02453	-0.84
Mof_O 	O 	0.0465	0.6935	0.13575	-0.644
Mof_O 	O 	0.9535	0.3065	0.86425	-0.371
Mof_O 	O 	0.2964	0.4785	0.9903	-0.438
Mof_O 	O 	0.6461	0.9026	0.06965	-0.716
_end
