# CIF file generated by openbabel 3.1.0, see https://openbabel.org
data_I
_chemical_name_common 'image0'
_cell_length_a 12.295
_cell_length_b 30.7547
_cell_length_c 24.7649
_cell_angle_alpha 90
_cell_angle_beta 97.53
_cell_angle_gamma 90
_space_group_name_H-M_alt 'P 1'
_space_group_name_Hall 'P 1'
loop_
    _symmetry_equiv_pos_as_xyz
    x,y,z
loop_
    _atom_site_label
    _atom_site_type_symbol
    _atom_site_fract_x
    _atom_site_fract_y
    _atom_site_fract_z
    _atom_site_occupancy
    Zn1      Zn       0.58151    0.26267    0.20692    1.000
    Zn2      Zn       0.37930    0.27096    0.25387    1.000
    Zn3      Zn       0.78026    0.14301    0.06244    1.000
    Zn4      Zn       0.68886    0.12964    0.92093    1.000
    N1       N        0.71960    0.25248    0.16870    1.000
    N2       N        0.80060    0.20387    0.10620    1.000
    N3       N        0.91880    0.24150    0.17950    1.000
    N4       N        0.82740    0.28251    0.10190    1.000
    C1       C        0.70640    0.21190    0.13660    1.000
    H1       H        0.63830    0.21360    0.11050    1.000
    H2       H        0.69890    0.18710    0.16130    1.000
    C2       C        0.82440    0.24850    0.20790    1.000
    H3       H        0.83540    0.27530    0.23000    1.000
    H4       H        0.81760    0.22380    0.23300    1.000
    C3       C        0.73380    0.28940    0.13150    1.000
    H5       H        0.66640    0.29270    0.10520    1.000
    H6       H        0.74480    0.31650    0.15300    1.000
    C4       C        0.90160    0.20130    0.14770    1.000
    H7       H        0.89420    0.17660    0.17260    1.000
    H8       H        0.96640    0.19570    0.12880    1.000
    C5       C        0.92660    0.27750    0.14230    1.000
    H9       H        0.99100    0.27300    0.12280    1.000
    H10      H        0.93860    0.30470    0.16360    1.000
    C6       C        0.81210    0.24200    0.07060    1.000
    H11      H        0.87590    0.23740    0.05060    1.000
    H12      H        0.74570    0.24450    0.04350    1.000
    N5       N        0.24080    0.27765    0.29200    1.000
    N6       N        0.16400    0.31662    0.36430    1.000
    N7       N        0.13600    0.23820    0.35360    1.000
    N8       N        0.04250    0.28800    0.28630    1.000
    C7       C        0.25700    0.31370    0.33220    1.000
    H13      H        0.32570    0.30880    0.35710    1.000
    H14      H        0.26420    0.34150    0.31290    1.000
    C8       C        0.13590    0.28580    0.25510    1.000
    H15      H        0.14160    0.31340    0.23530    1.000
    H16      H        0.12370    0.26210    0.22790    1.000
    C9       C        0.22890    0.23630    0.32230    1.000
    H17      H        0.21820    0.21190    0.29610    1.000
    H18      H        0.29700    0.23080    0.34730    1.000
    C10      C        0.15460    0.27390    0.39230    1.000
    H19      H        0.22280    0.26840    0.41740    1.000
    H20      H        0.09300    0.27530    0.41440    1.000
    C11      C        0.03670    0.24730    0.31560    1.000
    H21      H        0.02440    0.22320    0.28900    1.000
    H22      H        0.97300    0.24830    0.33630    1.000
    C12      C        0.06150    0.32350    0.32620    1.000
    H23      H        0.99850    0.32540    0.34720    1.000
    H24      H        0.06660    0.35140    0.30670    1.000
    O1       O        0.52890    0.19973    0.20930    1.000
    O2       O        0.36120    0.20706    0.23440    1.000
    C13      C        0.43700    0.18560    0.21800    1.000
    C14      C        0.41630    0.13820    0.20790    1.000
    C15      C        0.49310    0.11300    0.18670    1.000
    H25      H        0.56070    0.12580    0.18050    1.000
    C16      C        0.47390    0.06890    0.17410    1.000
    C17      C        0.55090    0.04330    0.15110    1.000
    H26      H        0.61740    0.05610    0.14330    1.000
    C18      C        0.53150    0.00090    0.14010    1.000
    H27      H        0.58570    0.98380    0.12600    1.000
    C19      C        0.43210    0.98160    0.14930    1.000
    C20      C        0.35610    0.00530    0.17170    1.000
    H28      H        0.28980    0.99200    0.17880    1.000
    C21      C        0.37530    0.05000    0.18470    1.000
    C22      C        0.29560    0.07630    0.20540    1.000
    H29      H        0.22740    0.06400    0.21130    1.000
    C23      C        0.31580    0.11920    0.21690    1.000
    H30      H        0.26190    0.13630    0.23120    1.000
    C24      C        0.41800    0.93610    0.12750    1.000
    O3       O        0.32500    0.92100    0.12880    1.000
    O4       O        0.49500    0.91510    0.11250    1.000
    O5       O        0.63660    0.25657    0.28759    1.000
    O6       O        0.48420    0.25300    0.32391    1.000
    C25      C        0.58560    0.25230    0.32650    1.000
    C26      C        0.65320    0.24650    0.38100    1.000
    C27      C        0.76760    0.25300    0.38580    1.000
    H31      H        0.80010    0.26090    0.35440    1.000
    C28      C        0.83250    0.24840    0.43450    1.000
    H32      H        0.90950    0.25280    0.43670    1.000
    C29      C        0.78620    0.23710    0.48160    1.000
    C30      C        0.85070    0.23330    0.53340    1.000
    H33      H        0.92770    0.23790    0.53620    1.000
    C31      C        0.80560    0.22320    0.57880    1.000
    C32      C        0.69110    0.21400    0.57460    1.000
    H34      H        0.65950    0.20560    0.60600    1.000
    C33      C        0.62640    0.21730    0.52500    1.000
    H35      H        0.55020    0.21130    0.52260    1.000
    C34      C        0.67130    0.22940    0.47780    1.000
    C35      C        0.60590    0.23480    0.42630    1.000
    H36      H        0.52890    0.23020    0.42320    1.000
    C36      C        0.87290    0.22290    0.63450    1.000
    O7       O        0.82230    0.21533    0.67482    1.000
    O8       O        0.97410    0.23083    0.63720    1.000
    O9       O        0.59350    0.32791    0.21953    1.000
    O10      O        0.44640    0.33063    0.26400    1.000
    C37      C        0.53260    0.34650    0.24900    1.000
    C38      C        0.56200    0.39180    0.26880    1.000
    C39      C        0.66560    0.40970    0.26140    1.000
    H37      H        0.71620    0.39330    0.24370    1.000
    C40      C        0.69180    0.45080    0.27990    1.000
    H38      H        0.76050    0.46290    0.27430    1.000
    C41      C        0.62030    0.47530    0.30680    1.000
    C42      C        0.64440    0.51730    0.32690    1.000
    H39      H        0.71190    0.53020    0.32080    1.000
    C43      C        0.57580    0.54040    0.35480    1.000
    C44      C        0.47660    0.52140    0.36350    1.000
    H40      H        0.42740    0.53710    0.38270    1.000
    C45      C        0.44900    0.48080    0.34490    1.000
    H41      H        0.38130    0.46840    0.35170    1.000
    C46      C        0.51960    0.45680    0.31580    1.000
    C47      C        0.49260    0.41470    0.29580    1.000
    H42      H        0.42420    0.40230    0.30130    1.000
    C48      C        0.60390    0.58370    0.38090    1.000
    O11      O        0.52260    0.60420    0.39680    1.000
    O12      O        0.69780    0.59590    0.38340    1.000
    O13      O        0.87050    0.16596    0.00920    1.000
    O14      O        0.85000    0.13515    0.92695    1.000
    C49      C        0.90690    0.14980    0.96800    1.000
    C50      C        0.02830    0.14860    0.96800    1.000
    C51      C        0.09780    0.15420    0.01580    1.000
    H43      H        0.06840    0.15910    0.04880    1.000
    C52      C        0.21200    0.15250    0.01580    1.000
    C53      C        0.28530    0.15810    0.06440    1.000
    H44      H        0.25730    0.16240    0.09800    1.000
    C54      C        0.39570    0.15720    0.06330    1.000
    H45      H        0.44410    0.16070    0.09610    1.000
    C55      C        0.43890    0.15110    0.01360    1.000
    C56      C        0.37030    0.14460    0.96610    1.000
    H46      H        0.40020    0.13970    0.93320    1.000
    C57      C        0.25430    0.14510    0.96580    1.000
    C58      C        0.18160    0.13880    0.91730    1.000
    H47      H        0.20950    0.13330    0.88390    1.000
    C59      C        0.07090    0.14060    0.91870    1.000
    H48      H        0.02210    0.13640    0.88610    1.000
    C60      C        0.55930    0.15150    0.01150    1.000
    O15      O        0.59560    0.15999    0.96850    1.000
    O16      O        0.61900    0.14480    0.05700    1.000
    C61      C        0.38800    0.93670    0.13300    1.000
    O17      O        0.30100    0.92010    0.14500    1.000
    O18      O        0.43000    0.91350    0.10010    1.000
    C62      C        0.63300    0.58260    0.37400    1.000
    O19      O        0.58700    0.60510    0.40590    1.000
    O20      O        0.71600    0.60160    0.35720    1.000
    Zn5      Zn       0.91849    0.76267    0.29308    1.000
    Zn6      Zn       0.12070    0.77096    0.24613    1.000
    Zn7      Zn       0.71974    0.64301    0.43756    1.000
    Zn8      Zn       0.81114    0.62964    0.57907    1.000
    N9       N        0.78040    0.75248    0.33130    1.000
    N10      N        0.69940    0.70387    0.39380    1.000
    N11      N        0.58120    0.74150    0.32050    1.000
    N12      N        0.67260    0.78251    0.39810    1.000
    C63      C        0.79360    0.71190    0.36340    1.000
    H49      H        0.86170    0.71360    0.38950    1.000
    H50      H        0.80110    0.68710    0.33870    1.000
    C64      C        0.67560    0.74850    0.29210    1.000
    H51      H        0.66460    0.77530    0.27000    1.000
    H52      H        0.68240    0.72380    0.26700    1.000
    C65      C        0.76620    0.78940    0.36850    1.000
    H53      H        0.83360    0.79270    0.39480    1.000
    H54      H        0.75520    0.81650    0.34700    1.000
    C66      C        0.59840    0.70130    0.35230    1.000
    H55      H        0.60580    0.67660    0.32740    1.000
    H56      H        0.53360    0.69570    0.37120    1.000
    C67      C        0.57340    0.77750    0.35770    1.000
    H57      H        0.50900    0.77300    0.37720    1.000
    H58      H        0.56140    0.80470    0.33640    1.000
    C68      C        0.68790    0.74200    0.42940    1.000
    H59      H        0.62410    0.73740    0.44940    1.000
    H60      H        0.75430    0.74450    0.45650    1.000
    N13      N        0.25920    0.77765    0.20800    1.000
    N14      N        0.33600    0.81662    0.13570    1.000
    N15      N        0.36400    0.73820    0.14640    1.000
    N16      N        0.45750    0.78800    0.21370    1.000
    C69      C        0.24300    0.81370    0.16780    1.000
    H61      H        0.17430    0.80880    0.14290    1.000
    H62      H        0.23580    0.84150    0.18710    1.000
    C70      C        0.36410    0.78580    0.24490    1.000
    H63      H        0.35840    0.81340    0.26470    1.000
    H64      H        0.37630    0.76210    0.27210    1.000
    C71      C        0.27110    0.73630    0.17770    1.000
    H65      H        0.28180    0.71190    0.20390    1.000
    H66      H        0.20300    0.73080    0.15270    1.000
    C72      C        0.34540    0.77390    0.10770    1.000
    H67      H        0.27720    0.76840    0.08260    1.000
    H68      H        0.40700    0.77530    0.08560    1.000
    C73      C        0.46330    0.74730    0.18440    1.000
    H69      H        0.47560    0.72320    0.21100    1.000
    H70      H        0.52700    0.74830    0.16370    1.000
    C74      C        0.43850    0.82350    0.17380    1.000
    H71      H        0.50150    0.82540    0.15280    1.000
    H72      H        0.43340    0.85140    0.19330    1.000
    O21      O        0.97110    0.69973    0.29070    1.000
    O22      O        0.13880    0.70706    0.26560    1.000
    C75      C        0.06300    0.68560    0.28200    1.000
    C76      C        0.08370    0.63820    0.29210    1.000
    C77      C        0.00690    0.61300    0.31330    1.000
    H73      H        0.93930    0.62580    0.31950    1.000
    C78      C        0.02610    0.56890    0.32590    1.000
    C79      C        0.94910    0.54330    0.34890    1.000
    H74      H        0.88260    0.55610    0.35670    1.000
    C80      C        0.96850    0.50090    0.35990    1.000
    H75      H        0.91430    0.48380    0.37400    1.000
    C81      C        0.06790    0.48160    0.35070    1.000
    C82      C        0.14390    0.50530    0.32830    1.000
    H76      H        0.21020    0.49200    0.32120    1.000
    C83      C        0.12470    0.55000    0.31530    1.000
    C84      C        0.20440    0.57630    0.29460    1.000
    H77      H        0.27260    0.56400    0.28870    1.000
    C85      C        0.18420    0.61920    0.28310    1.000
    H78      H        0.23810    0.63630    0.26880    1.000
    C86      C        0.08200    0.43610    0.37250    1.000
    O23      O        0.17500    0.42100    0.37120    1.000
    O24      O        0.00500    0.41510    0.38750    1.000
    O25      O        0.86340    0.75657    0.21241    1.000
    O26      O        0.01580    0.75300    0.17609    1.000
    C87      C        0.91440    0.75230    0.17350    1.000
    C88      C        0.84680    0.74650    0.11900    1.000
    C89      C        0.73240    0.75300    0.11420    1.000
    H79      H        0.69990    0.76090    0.14560    1.000
    C90      C        0.66750    0.74840    0.06550    1.000
    H80      H        0.59050    0.75280    0.06330    1.000
    C91      C        0.71380    0.73710    0.01840    1.000
    C92      C        0.64930    0.73330    0.96660    1.000
    H81      H        0.57230    0.73790    0.96380    1.000
    C93      C        0.69440    0.72320    0.92120    1.000
    C94      C        0.80890    0.71400    0.92540    1.000
    H82      H        0.84050    0.70560    0.89400    1.000
    C95      C        0.87360    0.71730    0.97500    1.000
    H83      H        0.94980    0.71130    0.97740    1.000
    C96      C        0.82870    0.72940    0.02220    1.000
    C97      C        0.89410    0.73480    0.07370    1.000
    H84      H        0.97110    0.73020    0.07680    1.000
    C98      C        0.62710    0.72290    0.86550    1.000
    O27      O        0.67770    0.71533    0.82518    1.000
    O28      O        0.52590    0.73083    0.86280    1.000
    O29      O        0.90650    0.82791    0.28047    1.000
    O30      O        0.05360    0.83063    0.23600    1.000
    C99      C        0.96740    0.84650    0.25100    1.000
    C100     C        0.93800    0.89180    0.23120    1.000
    C101     C        0.83440    0.90970    0.23860    1.000
    H85      H        0.78380    0.89330    0.25630    1.000
    C102     C        0.80820    0.95080    0.22010    1.000
    H86      H        0.73950    0.96290    0.22570    1.000
    C103     C        0.87970    0.97530    0.19320    1.000
    C104     C        0.85560    0.01730    0.17310    1.000
    H87      H        0.78810    0.03020    0.17920    1.000
    C105     C        0.92420    0.04040    0.14520    1.000
    C106     C        0.02340    0.02140    0.13650    1.000
    H88      H        0.07260    0.03710    0.11730    1.000
    C107     C        0.05100    0.98080    0.15510    1.000
    H89      H        0.11870    0.96840    0.14830    1.000
    C108     C        0.98040    0.95680    0.18420    1.000
    C109     C        0.00740    0.91470    0.20420    1.000
    H90      H        0.07580    0.90230    0.19870    1.000
    C110     C        0.89610    0.08370    0.11910    1.000
    O31      O        0.97740    0.10420    0.10320    1.000
    O32      O        0.80220    0.09590    0.11660    1.000
    O33      O        0.62950    0.66596    0.49080    1.000
    O34      O        0.65000    0.63515    0.57305    1.000
    C111     C        0.59310    0.64980    0.53200    1.000
    C112     C        0.47170    0.64860    0.53200    1.000
    C113     C        0.40220    0.65420    0.48420    1.000
    H91      H        0.43160    0.65910    0.45120    1.000
    C114     C        0.28800    0.65250    0.48420    1.000
    C115     C        0.21470    0.65810    0.43560    1.000
    H92      H        0.24270    0.66240    0.40200    1.000
    C116     C        0.10430    0.65720    0.43670    1.000
    H93      H        0.05590    0.66070    0.40390    1.000
    C117     C        0.06110    0.65110    0.48640    1.000
    C118     C        0.12970    0.64460    0.53390    1.000
    H94      H        0.09980    0.63970    0.56680    1.000
    C119     C        0.24570    0.64510    0.53420    1.000
    C120     C        0.31840    0.63880    0.58270    1.000
    H95      H        0.29050    0.63330    0.61610    1.000
    C121     C        0.42910    0.64060    0.58130    1.000
    H96      H        0.47790    0.63640    0.61390    1.000
    C122     C        0.94070    0.65150    0.48850    1.000
    O35      O        0.90440    0.65999    0.53150    1.000
    O36      O        0.88100    0.64480    0.44300    1.000
    C123     C        0.11200    0.43670    0.36700    1.000
    O37      O        0.19900    0.42010    0.35500    1.000
    O38      O        0.07000    0.41350    0.39990    1.000
    C124     C        0.86700    0.08260    0.12600    1.000
    O39      O        0.91300    0.10510    0.09410    1.000
    O40      O        0.78400    0.10160    0.14280    1.000
    Zn9      Zn       0.41849    0.73733    0.79308    1.000
    Zn10     Zn       0.62070    0.72904    0.74613    1.000
    Zn11     Zn       0.21974    0.85699    0.93756    1.000
    Zn12     Zn       0.31114    0.87036    0.07907    1.000
    N17      N        0.28040    0.74752    0.83130    1.000
    N18      N        0.19940    0.79613    0.89380    1.000
    N19      N        0.08120    0.75850    0.82050    1.000
    N20      N        0.17260    0.71749    0.89810    1.000
    C125     C        0.29360    0.78810    0.86340    1.000
    H97      H        0.36170    0.78640    0.88950    1.000
    H98      H        0.30110    0.81290    0.83870    1.000
    C126     C        0.17560    0.75150    0.79210    1.000
    H99      H        0.16460    0.72470    0.77000    1.000
    H100     H        0.18240    0.77620    0.76700    1.000
    C127     C        0.26620    0.71060    0.86850    1.000
    H101     H        0.33360    0.70730    0.89480    1.000
    H102     H        0.25520    0.68350    0.84700    1.000
    C128     C        0.09840    0.79870    0.85230    1.000
    H103     H        0.10580    0.82340    0.82740    1.000
    H104     H        0.03360    0.80430    0.87120    1.000
    C129     C        0.07340    0.72250    0.85770    1.000
    H105     H        0.00900    0.72700    0.87720    1.000
    H106     H        0.06140    0.69530    0.83640    1.000
    C130     C        0.18790    0.75800    0.92940    1.000
    H107     H        0.12410    0.76260    0.94940    1.000
    H108     H        0.25430    0.75550    0.95650    1.000
    N21      N        0.75920    0.72235    0.70800    1.000
    N22      N        0.83600    0.68338    0.63570    1.000
    N23      N        0.86400    0.76180    0.64640    1.000
    N24      N        0.95750    0.71200    0.71370    1.000
    C131     C        0.74300    0.68630    0.66780    1.000
    H109     H        0.67430    0.69120    0.64290    1.000
    H110     H        0.73580    0.65850    0.68710    1.000
    C132     C        0.86410    0.71420    0.74490    1.000
    H111     H        0.85840    0.68660    0.76470    1.000
    H112     H        0.87630    0.73790    0.77210    1.000
    C133     C        0.77110    0.76370    0.67770    1.000
    H113     H        0.78180    0.78810    0.70390    1.000
    H114     H        0.70300    0.76920    0.65270    1.000
    C134     C        0.84540    0.72610    0.60770    1.000
    H115     H        0.77720    0.73160    0.58260    1.000
    H116     H        0.90700    0.72470    0.58560    1.000
    C135     C        0.96330    0.75270    0.68440    1.000
    H117     H        0.97560    0.77680    0.71100    1.000
    H118     H        0.02700    0.75170    0.66370    1.000
    C136     C        0.93850    0.67650    0.67380    1.000
    H119     H        0.00150    0.67460    0.65280    1.000
    H120     H        0.93340    0.64860    0.69330    1.000
    O41      O        0.47110    0.80027    0.79070    1.000
    O42      O        0.63880    0.79294    0.76560    1.000
    C137     C        0.56300    0.81440    0.78200    1.000
    C138     C        0.58370    0.86180    0.79210    1.000
    C139     C        0.50690    0.88700    0.81330    1.000
    H121     H        0.43930    0.87420    0.81950    1.000
    C140     C        0.52610    0.93110    0.82590    1.000
    C141     C        0.44910    0.95670    0.84890    1.000
    H122     H        0.38260    0.94390    0.85670    1.000
    C142     C        0.46850    0.99910    0.85990    1.000
    H123     H        0.41430    0.01620    0.87400    1.000
    C143     C        0.56790    0.01840    0.85070    1.000
    C144     C        0.64390    0.99470    0.82830    1.000
    H124     H        0.71020    0.00800    0.82120    1.000
    C145     C        0.62470    0.95000    0.81530    1.000
    C146     C        0.70440    0.92370    0.79460    1.000
    H125     H        0.77260    0.93600    0.78870    1.000
    C147     C        0.68420    0.88080    0.78310    1.000
    H126     H        0.73810    0.86370    0.76880    1.000
    C148     C        0.58200    0.06390    0.87250    1.000
    O43      O        0.67500    0.07900    0.87120    1.000
    O44      O        0.50500    0.08490    0.88750    1.000
    O45      O        0.36340    0.74343    0.71241    1.000
    O46      O        0.51580    0.74700    0.67609    1.000
    C149     C        0.41440    0.74770    0.67350    1.000
    C150     C        0.34680    0.75350    0.61900    1.000
    C151     C        0.23240    0.74700    0.61420    1.000
    H127     H        0.19990    0.73910    0.64560    1.000
    C152     C        0.16750    0.75160    0.56550    1.000
    H128     H        0.09050    0.74720    0.56330    1.000
    C153     C        0.21380    0.76290    0.51840    1.000
    C154     C        0.14930    0.76670    0.46660    1.000
    H129     H        0.07230    0.76210    0.46380    1.000
    C155     C        0.19440    0.77680    0.42120    1.000
    C156     C        0.30890    0.78600    0.42540    1.000
    H130     H        0.34050    0.79440    0.39400    1.000
    C157     C        0.37360    0.78270    0.47500    1.000
    H131     H        0.44980    0.78870    0.47740    1.000
    C158     C        0.32870    0.77060    0.52220    1.000
    C159     C        0.39410    0.76520    0.57370    1.000
    H132     H        0.47110    0.76980    0.57680    1.000
    C160     C        0.12710    0.77710    0.36550    1.000
    O47      O        0.17770    0.78467    0.32518    1.000
    O48      O        0.02590    0.76917    0.36280    1.000
    O49      O        0.40650    0.67209    0.78047    1.000
    O50      O        0.55360    0.66937    0.73600    1.000
    C161     C        0.46740    0.65350    0.75100    1.000
    C162     C        0.43800    0.60820    0.73120    1.000
    C163     C        0.33440    0.59030    0.73860    1.000
    H133     H        0.28380    0.60670    0.75630    1.000
    C164     C        0.30820    0.54920    0.72010    1.000
    H134     H        0.23950    0.53710    0.72570    1.000
    C165     C        0.37970    0.52470    0.69320    1.000
    C166     C        0.35560    0.48270    0.67310    1.000
    H135     H        0.28810    0.46980    0.67920    1.000
    C167     C        0.42420    0.45960    0.64520    1.000
    C168     C        0.52340    0.47860    0.63650    1.000
    H136     H        0.57260    0.46290    0.61730    1.000
    C169     C        0.55100    0.51920    0.65510    1.000
    H137     H        0.61870    0.53160    0.64830    1.000
    C170     C        0.48040    0.54320    0.68420    1.000
    C171     C        0.50740    0.58530    0.70420    1.000
    H138     H        0.57580    0.59770    0.69870    1.000
    C172     C        0.39610    0.41630    0.61910    1.000
    O51      O        0.47740    0.39580    0.60320    1.000
    O52      O        0.30220    0.40410    0.61660    1.000
    O53      O        0.12950    0.83404    0.99080    1.000
    O54      O        0.15000    0.86485    0.07305    1.000
    C173     C        0.09310    0.85020    0.03200    1.000
    C174     C        0.97170    0.85140    0.03200    1.000
    C175     C        0.90220    0.84580    0.98420    1.000
    H139     H        0.93160    0.84090    0.95120    1.000
    C176     C        0.78800    0.84750    0.98420    1.000
    C177     C        0.71470    0.84190    0.93560    1.000
    H140     H        0.74270    0.83760    0.90200    1.000
    C178     C        0.60430    0.84280    0.93670    1.000
    H141     H        0.55590    0.83930    0.90390    1.000
    C179     C        0.56110    0.84890    0.98640    1.000
    C180     C        0.62970    0.85540    0.03390    1.000
    H142     H        0.59980    0.86030    0.06680    1.000
    C181     C        0.74570    0.85490    0.03420    1.000
    C182     C        0.81840    0.86120    0.08270    1.000
    H143     H        0.79050    0.86670    0.11610    1.000
    C183     C        0.92910    0.85940    0.08130    1.000
    H144     H        0.97790    0.86360    0.11390    1.000
    C184     C        0.44070    0.84850    0.98850    1.000
    O55      O        0.40440    0.84001    0.03150    1.000
    O56      O        0.38100    0.85520    0.94300    1.000
    C185     C        0.61200    0.06330    0.86700    1.000
    O57      O        0.69900    0.07990    0.85500    1.000
    O58      O        0.57000    0.08650    0.89990    1.000
    C186     C        0.36700    0.41740    0.62600    1.000
    O59      O        0.41300    0.39490    0.59410    1.000
    O60      O        0.28400    0.39840    0.64280    1.000
    Zn13     Zn       0.08151    0.23733    0.70692    1.000
    Zn14     Zn       0.87930    0.22904    0.75387    1.000
    Zn15     Zn       0.28026    0.35699    0.56244    1.000
    Zn16     Zn       0.18886    0.37036    0.42093    1.000
    N25      N        0.21960    0.24752    0.66870    1.000
    N26      N        0.30060    0.29613    0.60620    1.000
    N27      N        0.41880    0.25850    0.67950    1.000
    N28      N        0.32740    0.21749    0.60190    1.000
    C187     C        0.20640    0.28810    0.63660    1.000
    H145     H        0.13830    0.28640    0.61050    1.000
    H146     H        0.19890    0.31290    0.66130    1.000
    C188     C        0.32440    0.25150    0.70790    1.000
    H147     H        0.33540    0.22470    0.73000    1.000
    H148     H        0.31760    0.27620    0.73300    1.000
    C189     C        0.23380    0.21060    0.63150    1.000
    H149     H        0.16640    0.20730    0.60520    1.000
    H150     H        0.24480    0.18350    0.65300    1.000
    C190     C        0.40160    0.29870    0.64770    1.000
    H151     H        0.39420    0.32340    0.67260    1.000
    H152     H        0.46640    0.30430    0.62880    1.000
    C191     C        0.42660    0.22250    0.64230    1.000
    H153     H        0.49100    0.22700    0.62280    1.000
    H154     H        0.43860    0.19530    0.66360    1.000
    C192     C        0.31210    0.25800    0.57060    1.000
    H155     H        0.37590    0.26260    0.55060    1.000
    H156     H        0.24570    0.25550    0.54350    1.000
    N29      N        0.74080    0.22235    0.79200    1.000
    N30      N        0.66400    0.18338    0.86430    1.000
    N31      N        0.63600    0.26180    0.85360    1.000
    N32      N        0.54250    0.21200    0.78630    1.000
    C193     C        0.75700    0.18630    0.83220    1.000
    H157     H        0.82570    0.19120    0.85710    1.000
    H158     H        0.76420    0.15850    0.81290    1.000
    C194     C        0.63590    0.21420    0.75510    1.000
    H159     H        0.64160    0.18660    0.73530    1.000
    H160     H        0.62370    0.23790    0.72790    1.000
    C195     C        0.72890    0.26370    0.82230    1.000
    H161     H        0.71820    0.28810    0.79610    1.000
    H162     H        0.79700    0.26920    0.84730    1.000
    C196     C        0.65460    0.22610    0.89230    1.000
    H163     H        0.72280    0.23160    0.91740    1.000
    H164     H        0.59300    0.22470    0.91440    1.000
    C197     C        0.53670    0.25270    0.81560    1.000
    H165     H        0.52440    0.27680    0.78900    1.000
    H166     H        0.47300    0.25170    0.83630    1.000
    C198     C        0.56150    0.17650    0.82620    1.000
    H167     H        0.49850    0.17460    0.84720    1.000
    H168     H        0.56660    0.14860    0.80670    1.000
    O61      O        0.02890    0.30027    0.70930    1.000
    O62      O        0.86120    0.29294    0.73440    1.000
    C199     C        0.93700    0.31440    0.71800    1.000
    C200     C        0.91630    0.36180    0.70790    1.000
    C201     C        0.99310    0.38700    0.68670    1.000
    H169     H        0.06070    0.37420    0.68050    1.000
    C202     C        0.97390    0.43110    0.67410    1.000
    C203     C        0.05090    0.45670    0.65110    1.000
    H170     H        0.11740    0.44390    0.64330    1.000
    C204     C        0.03150    0.49910    0.64010    1.000
    H171     H        0.08570    0.51620    0.62600    1.000
    C205     C        0.93210    0.51840    0.64930    1.000
    C206     C        0.85610    0.49470    0.67170    1.000
    H172     H        0.78980    0.50800    0.67880    1.000
    C207     C        0.87530    0.45000    0.68470    1.000
    C208     C        0.79560    0.42370    0.70540    1.000
    H173     H        0.72740    0.43600    0.71130    1.000
    C209     C        0.81580    0.38080    0.71690    1.000
    H174     H        0.76190    0.36370    0.73120    1.000
    C210     C        0.91800    0.56390    0.62750    1.000
    O63      O        0.82500    0.57900    0.62880    1.000
    O64      O        0.99500    0.58490    0.61250    1.000
    O65      O        0.13660    0.24343    0.78759    1.000
    O66      O        0.98420    0.24700    0.82391    1.000
    C211     C        0.08560    0.24770    0.82650    1.000
    C212     C        0.15320    0.25350    0.88100    1.000
    C213     C        0.26760    0.24700    0.88580    1.000
    H175     H        0.30010    0.23910    0.85440    1.000
    C214     C        0.33250    0.25160    0.93450    1.000
    H176     H        0.40950    0.24720    0.93670    1.000
    C215     C        0.28620    0.26290    0.98160    1.000
    C216     C        0.35070    0.26670    0.03340    1.000
    H177     H        0.42770    0.26210    0.03620    1.000
    C217     C        0.30560    0.27680    0.07880    1.000
    C218     C        0.19110    0.28600    0.07460    1.000
    H178     H        0.15950    0.29440    0.10600    1.000
    C219     C        0.12640    0.28270    0.02500    1.000
    H179     H        0.05020    0.28870    0.02260    1.000
    C220     C        0.17130    0.27060    0.97780    1.000
    C221     C        0.10590    0.26520    0.92630    1.000
    H180     H        0.02890    0.26980    0.92320    1.000
    C222     C        0.37290    0.27710    0.13450    1.000
    O67      O        0.32230    0.28467    0.17482    1.000
    O68      O        0.47410    0.26917    0.13720    1.000
    O69      O        0.09350    0.17209    0.71953    1.000
    O70      O        0.94640    0.16937    0.76400    1.000
    C223     C        0.03260    0.15350    0.74900    1.000
    C224     C        0.06200    0.10820    0.76880    1.000
    C225     C        0.16560    0.09030    0.76140    1.000
    H181     H        0.21620    0.10670    0.74370    1.000
    C226     C        0.19180    0.04920    0.77990    1.000
    H182     H        0.26050    0.03710    0.77430    1.000
    C227     C        0.12030    0.02470    0.80680    1.000
    C228     C        0.14440    0.98270    0.82690    1.000
    H183     H        0.21190    0.96980    0.82080    1.000
    C229     C        0.07580    0.95960    0.85480    1.000
    C230     C        0.97660    0.97860    0.86350    1.000
    H184     H        0.92740    0.96290    0.88270    1.000
    C231     C        0.94900    0.01920    0.84490    1.000
    H185     H        0.88130    0.03160    0.85170    1.000
    C232     C        0.01960    0.04320    0.81580    1.000
    C233     C        0.99260    0.08530    0.79580    1.000
    H186     H        0.92420    0.09770    0.80130    1.000
    C234     C        0.10390    0.91630    0.88090    1.000
    O71      O        0.02260    0.89580    0.89680    1.000
    O72      O        0.19780    0.90410    0.88340    1.000
    O73      O        0.37050    0.33404    0.50920    1.000
    O74      O        0.35000    0.36485    0.42695    1.000
    C235     C        0.40690    0.35020    0.46800    1.000
    C236     C        0.52830    0.35140    0.46800    1.000
    C237     C        0.59780    0.34580    0.51580    1.000
    H187     H        0.56840    0.34090    0.54880    1.000
    C238     C        0.71200    0.34750    0.51580    1.000
    C239     C        0.78530    0.34190    0.56440    1.000
    H188     H        0.75730    0.33760    0.59800    1.000
    C240     C        0.89570    0.34280    0.56330    1.000
    H189     H        0.94410    0.33930    0.59610    1.000
    C241     C        0.93890    0.34890    0.51360    1.000
    C242     C        0.87030    0.35540    0.46610    1.000
    H190     H        0.90020    0.36030    0.43320    1.000
    C243     C        0.75430    0.35490    0.46580    1.000
    C244     C        0.68160    0.36120    0.41730    1.000
    H191     H        0.70950    0.36670    0.38390    1.000
    C245     C        0.57090    0.35940    0.41870    1.000
    H192     H        0.52210    0.36360    0.38610    1.000
    C246     C        0.05930    0.34850    0.51150    1.000
    O75      O        0.09560    0.34001    0.46850    1.000
    O76      O        0.11900    0.35520    0.55700    1.000
    C247     C        0.88800    0.56330    0.63300    1.000
    O77      O        0.80100    0.57990    0.64500    1.000
    O78      O        0.93000    0.58650    0.60010    1.000
    C248     C        0.13300    0.91740    0.87400    1.000
    O79      O        0.08700    0.89490    0.90590    1.000
    O80      O        0.21600    0.89840    0.85720    1.000
