# CIF file generated by openbabel 3.1.0, see https://openbabel.org
data_I
_chemical_name_common 'image0'
_cell_length_a 12.972
_cell_length_b 22.296
_cell_length_c 12.988
_cell_angle_alpha 90
_cell_angle_beta 109.376
_cell_angle_gamma 90
_space_group_name_H-M_alt 'P 1'
_space_group_name_Hall 'P 1'
loop_
    _symmetry_equiv_pos_as_xyz
    x,y,z
loop_
    _atom_site_label
    _atom_site_type_symbol
    _atom_site_fract_x
    _atom_site_fract_y
    _atom_site_fract_z
    _atom_site_occupancy
    Zn1      Zn       0.85318    0.21332    0.75248    1.000
    Zn2      Zn       0.86644    0.08250    0.73759    1.000
    O1       O        0.69410    0.19430    0.71960    1.000
    C1       C        0.65270    0.13930    0.70470    1.000
    O2       O        0.70150    0.09150    0.70400    1.000
    O3       O        0.87460    0.18930    0.90930    1.000
    C2       C        0.87720    0.13620    0.95050    1.000
    O4       O        0.88390    0.09010    0.89520    1.000
    O5       O        0.02070    0.20100    0.78710    1.000
    C3       C        0.06650    0.15330    0.77230    1.000
    O6       O        0.02810    0.10400    0.77170    1.000
    O7       O        0.84070    0.20720    0.59670    1.000
    C4       C        0.84890    0.15760    0.54810    1.000
    O8       O        0.85160    0.10700    0.58510    1.000
    N1       N        0.85330    0.30290    0.76620    1.000
    C5       C        0.76000    0.33290    0.70130    1.000
    H1       H        0.69640    0.31170    0.65940    1.000
    C6       C        0.76410    0.39730    0.70040    1.000
    H2       H        0.70470    0.41910    0.65210    1.000
    C7       C        0.85370    0.42820    0.76890    1.000
    C8       C        0.94230    0.39750    0.84050    1.000
    H3       H        0.00260    0.41790    0.89040    1.000
    C9       C        0.93700    0.33360    0.83430    1.000
    H4       H        0.99660    0.31140    0.88150    1.000
    N2       N        0.85440    0.48960    0.76480    1.000
    C10      C        0.85940    0.52220    0.86450    1.000
    C11      C        0.85710    0.58790    0.86070    1.000
    C12      C        0.85970    0.62060    0.94730    1.000
    H5       H        0.86330    0.60220    0.01430    1.000
    C13      C        0.85710    0.68170    0.93630    1.000
    H6       H        0.85010    0.70430    0.99560    1.000
    C14      C        0.86390    0.71550    0.84330    1.000
    C15      C        0.86480    0.77810    0.83710    1.000
    N3       N        0.87290    0.80200    0.74890    1.000
    C16      C        0.86880    0.77780    0.65730    1.000
    C17      C        0.85870    0.70740    0.66090    1.000
    C18      C        0.86440    0.67540    0.56710    1.000
    H7       H        0.87490    0.69370    0.50520    1.000
    C19      C        0.85200    0.61060    0.57980    1.000
    H8       H        0.84030    0.58660    0.51650    1.000
    C20      C        0.85510    0.58430    0.66360    1.000
    C21      C        0.84800    0.51610    0.66300    1.000
    C22      C        0.85360    0.61870    0.75600    1.000
    C23      C        0.85670    0.68330    0.75940    1.000
    O9       O        0.85010    0.49550    0.94870    1.000
    O10      O        0.87190    0.81110    0.92540    1.000
    O11      O        0.86380    0.79960    0.57390    1.000
    O12      O        0.85240    0.48750    0.59410    1.000
    C24      C        0.53670    0.13600    0.70800    1.000
    C25      C        0.48860    0.07380    0.69810    1.000
    H9       H        0.52690    0.04020    0.68400    1.000
    C26      C        0.39090    0.06710    0.70960    1.000
    H10      H        0.36020    0.02830    0.70810    1.000
    C27      C        0.33080    0.12120    0.72480    1.000
    C28      C        0.21960    0.11530    0.73200    1.000
    H11      H        0.18310    0.07770    0.71740    1.000
    C29      C        0.17050    0.16210    0.75860    1.000
    C30      C        0.21660    0.21860    0.75230    1.000
    H12      H        0.17700    0.25420    0.75450    1.000
    C31      C        0.31390    0.22210    0.74330    1.000
    H13      H        0.34420    0.26130    0.74910    1.000
    C32      C        0.37590    0.17840    0.72730    1.000
    C33      C        0.48060    0.18400    0.72180    1.000
    H14      H        0.51300    0.22260    0.72790    1.000
    C34      C        0.86990    0.13050    0.05520    1.000
    C35      C        0.87400    0.07380    0.10360    1.000
    H15      H        0.88340    0.03900    0.06550    1.000
    C36      C        0.86490    0.06830    0.20380    1.000
    H16      H        0.86200    0.02910    0.23170    1.000
    C37      C        0.85940    0.11800    0.26860    1.000
    C38      C        0.85230    0.11550    0.36980    1.000
    H17      H        0.84760    0.07680    0.39840    1.000
    C39      C        0.85110    0.16340    0.43510    1.000
    C40      C        0.85090    0.21890    0.38920    1.000
    H18      H        0.85320    0.25340    0.43280    1.000
    C41      C        0.84740    0.22710    0.28210    1.000
    H19      H        0.83850    0.26620    0.25130    1.000
    C42      C        0.85730    0.17670    0.21830    1.000
    C43      C        0.86030    0.18140    0.11500    1.000
    H20      H        0.85580    0.21990    0.08250    1.000
    N4       N        0.87210    0.99130    0.73970    1.000
    C44      C        0.78450    0.95950    0.68020    1.000
    H21      H        0.72100    0.98000    0.63600    1.000
    C45      C        0.78540    0.89860    0.68220    1.000
    H22      H        0.72320    0.87630    0.64030    1.000
    C46      C        0.87490    0.87110    0.74390    1.000
    C47      C        0.96090    0.90190    0.80970    1.000
    H23      H        0.02420    0.88460    0.86070    1.000
    C48      C        0.94200    0.96460    0.79070    1.000
    H24      H        0.00270    0.98850    0.83060    1.000
    Zn3      Zn       0.14682    0.71332    0.24752    1.000
    Zn4      Zn       0.13356    0.58250    0.26241    1.000
    O13      O        0.30590    0.69430    0.28040    1.000
    C49      C        0.34730    0.63930    0.29530    1.000
    O14      O        0.29850    0.59150    0.29600    1.000
    O15      O        0.12540    0.68930    0.09070    1.000
    C50      C        0.12280    0.63620    0.04950    1.000
    O16      O        0.11610    0.59010    0.10480    1.000
    O17      O        0.97930    0.70100    0.21290    1.000
    C51      C        0.93350    0.65330    0.22770    1.000
    O18      O        0.97190    0.60400    0.22830    1.000
    O19      O        0.15930    0.70720    0.40330    1.000
    C52      C        0.15110    0.65760    0.45190    1.000
    O20      O        0.14840    0.60700    0.41490    1.000
    N5       N        0.14670    0.80290    0.23380    1.000
    C53      C        0.24000    0.83290    0.29870    1.000
    H25      H        0.30360    0.81170    0.34060    1.000
    C54      C        0.23590    0.89730    0.29960    1.000
    H26      H        0.29530    0.91910    0.34790    1.000
    C55      C        0.14630    0.92820    0.23110    1.000
    C56      C        0.05770    0.89750    0.15950    1.000
    H27      H        0.99740    0.91790    0.10960    1.000
    C57      C        0.06300    0.83360    0.16570    1.000
    H28      H        0.00340    0.81140    0.11850    1.000
    N6       N        0.14560    0.98960    0.23520    1.000
    C58      C        0.14060    0.02220    0.13550    1.000
    C59      C        0.14290    0.08790    0.13930    1.000
    C60      C        0.14030    0.12060    0.05270    1.000
    H29      H        0.13670    0.10220    0.98570    1.000
    C61      C        0.14290    0.18170    0.06370    1.000
    H30      H        0.14990    0.20430    0.00440    1.000
    C62      C        0.13610    0.21550    0.15670    1.000
    C63      C        0.13520    0.27810    0.16290    1.000
    N7       N        0.12710    0.30200    0.25110    1.000
    C64      C        0.13120    0.27780    0.34270    1.000
    C65      C        0.14130    0.20740    0.33910    1.000
    C66      C        0.13560    0.17540    0.43290    1.000
    H31      H        0.12510    0.19370    0.49480    1.000
    C67      C        0.14800    0.11060    0.42020    1.000
    H32      H        0.15970    0.08660    0.48350    1.000
    C68      C        0.14490    0.08430    0.33640    1.000
    C69      C        0.15200    0.01610    0.33700    1.000
    C70      C        0.14640    0.11870    0.24400    1.000
    C71      C        0.14330    0.18330    0.24060    1.000
    O21      O        0.14990    0.99550    0.05130    1.000
    O22      O        0.12810    0.31110    0.07460    1.000
    O23      O        0.13620    0.29960    0.42610    1.000
    O24      O        0.14760    0.98750    0.40590    1.000
    C72      C        0.46330    0.63600    0.29200    1.000
    C73      C        0.51140    0.57380    0.30190    1.000
    H33      H        0.47310    0.54020    0.31600    1.000
    C74      C        0.60910    0.56710    0.29040    1.000
    H34      H        0.63980    0.52830    0.29190    1.000
    C75      C        0.66920    0.62120    0.27520    1.000
    C76      C        0.78040    0.61530    0.26800    1.000
    H35      H        0.81690    0.57770    0.28260    1.000
    C77      C        0.82950    0.66210    0.24140    1.000
    C78      C        0.78340    0.71860    0.24770    1.000
    H36      H        0.82300    0.75420    0.24550    1.000
    C79      C        0.68610    0.72210    0.25670    1.000
    H37      H        0.65580    0.76130    0.25090    1.000
    C80      C        0.62410    0.67840    0.27270    1.000
    C81      C        0.51940    0.68400    0.27820    1.000
    H38      H        0.48700    0.72260    0.27210    1.000
    C82      C        0.13010    0.63050    0.94480    1.000
    C83      C        0.12600    0.57380    0.89640    1.000
    H39      H        0.11660    0.53900    0.93450    1.000
    C84      C        0.13510    0.56830    0.79620    1.000
    H40      H        0.13800    0.52910    0.76830    1.000
    C85      C        0.14060    0.61800    0.73140    1.000
    C86      C        0.14770    0.61550    0.63020    1.000
    H41      H        0.15240    0.57680    0.60160    1.000
    C87      C        0.14890    0.66340    0.56490    1.000
    C88      C        0.14910    0.71890    0.61080    1.000
    H42      H        0.14680    0.75340    0.56720    1.000
    C89      C        0.15260    0.72710    0.71790    1.000
    H43      H        0.16150    0.76620    0.74870    1.000
    C90      C        0.14270    0.67670    0.78170    1.000
    C91      C        0.13970    0.68140    0.88500    1.000
    H44      H        0.14420    0.71990    0.91750    1.000
    N8       N        0.12790    0.49130    0.26030    1.000
    C92      C        0.21550    0.45950    0.31980    1.000
    H45      H        0.27900    0.48000    0.36400    1.000
    C93      C        0.21460    0.39860    0.31780    1.000
    H46      H        0.27680    0.37630    0.35970    1.000
    C94      C        0.12510    0.37110    0.25610    1.000
    C95      C        0.03910    0.40190    0.19030    1.000
    H47      H        0.97580    0.38460    0.13930    1.000
    C96      C        0.05800    0.46460    0.20930    1.000
    H48      H        0.99730    0.48850    0.16940    1.000
