data_functionalizedCrystal
_audit_creation_method	'EQeq! by Chris Wilmer'
_symmetry_space_group_name_H-M	'P1'
_symmetry_Int_Tables_number	1
_symmetry_cell_setting	triclinic
loop_
_symmetry_equiv_pos_as_xyz
  x,y,z
_cell_length_a	15.9742
_cell_length_b	15.9742
_cell_length_c	19.4383
_cell_angle_alpha	90
_cell_angle_beta	90
_cell_angle_gamma	120
loop_
_atom_site_label
_atom_site_type_symbol
_atom_site_fract_x
_atom_site_fract_y
_atom_site_fract_z
_atom_site_charge
Mof_C 	C 	0.1726	0.4274	0.3214	0.194
Mof_C 	C 	0.1238	0.3574	0.2705	0.071
Mof_C 	C 	0.1633	0.3063	0.2422	-0.113
Mof_H 	H 	0.1312	0.2621	0.2071	0.059
Mof_C 	C 	0.2523	0.3214	0.2666	-0.025
Mof_H 	H 	0.2787	0.2865	0.2472	0.027
Mof_C 	C 	0.2999	0.3836	0.3164	-0.038
Mof_H 	H 	0.3581	0.3908	0.3321	0.045
Mof_C 	C 	0.2625	0.4398	0.3463	-0.104
Mof_C 	C 	0.3172	0.5112	0.3968	0.112
Mof_H 	H 	0.3751	0.5162	0.4113	0.022
Mof_C 	C 	0.3539	0.6509	0.4674	0.065
Mof_H 	H 	0.4097	0.6455	0.482	0.033
Mof_C 	C 	0.3898	0.7436	0.427	-0.169
Mof_H 	H 	0.4302	0.7438	0.3897	0.083
Mof_H 	H 	0.3346	0.7442	0.4068	0.088
Mof_C 	C 	0.4465	0.8343	0.4685	-0.066
Mof_H 	H 	0.4623	0.8901	0.4399	0.051
Mof_H 	H 	0.5065	0.839	0.4837	0.053
Mof_C 	C 	0.9784	0.2752	0.2038	0.184
Mof_H 	H 	0.0194	0.2687	0.1707	-0.057
Mof_H 	H 	0.9364	0.293	0.1807	-0.007
Mof_H 	H 	0.9402	0.2148	0.2272	-0.022
Mof_N 	N 	0.2927	0.5685	0.4236	-0.322
Mof_O 	O 	0.141	0.4823	0.34262	-0.495
Mof_O 	O 	0.037	0.3489	0.2531	-0.315
Mof_O 	O 	0.9235	0.47	0.46	-0.276
Mof_H 	H 	0.245	0.556	0.415	0.251
Mof_C 	C 	0.5726	0.7452	0.65473	0.217
Mof_C 	C 	0.6426	0.7664	0.60383	0.04
Mof_C 	C 	0.6937	0.857	0.57553	-0.079
Mof_H 	H 	0.7379	0.8691	0.54043	0.064
Mof_C 	C 	0.6786	0.9309	0.59993	-0.038
Mof_H 	H 	0.7135	0.9922	0.58053	0.051
Mof_C 	C 	0.6164	0.9163	0.64973	-0.018
Mof_H 	H 	0.6092	0.9673	0.66543	0.053
Mof_C 	C 	0.5602	0.8227	0.67963	-0.11
Mof_C 	C 	0.4888	0.806	0.73013	0.118
Mof_H 	H 	0.4838	0.8589	0.74463	0.028
Mof_C 	C 	0.3491	0.703	0.80073	0.064
Mof_H 	H 	0.3545	0.7642	0.81533	0.035
Mof_C 	C 	0.2564	0.6462	0.76033	-0.169
Mof_H 	H 	0.2562	0.6864	0.72303	0.08
Mof_H 	H 	0.2558	0.5904	0.74013	0.086
Mof_C 	C 	0.1657	0.6122	0.80183	-0.065
Mof_H 	H 	0.1099	0.5722	0.77323	0.035
Mof_H 	H 	0.161	0.6675	0.81703	0.045
Mof_C 	C 	0.7248	0.7032	0.53713	-0.125
Mof_H 	H 	0.7313	0.7507	0.50403	0.073
Mof_H 	H 	0.707	0.6434	0.51403	0.08
Mof_H 	H 	0.7852	0.7254	0.56053	0.073
Mof_N 	N 	0.4315	0.7242	0.75693	-0.322
Mof_O 	O 	0.5177	0.6587	0.67595	-0.512
Mof_O 	O 	0.6511	0.6881	0.58643	-0.233
Mof_O 	O 	0.53	0.4535	0.79333	-0.316
Mof_H 	H 	0.444	0.689	0.74833	0.252
Mof_C 	C 	0.2548	0.8274	0.98807	0.352
Mof_C 	C 	0.2336	0.8762	0.93717	-0.055
Mof_C 	C 	0.143	0.8367	0.90887	0.033
Mof_H 	H 	0.1309	0.8688	0.87377	0.013
Mof_C 	C 	0.0691	0.7477	0.93327	-0.174
Mof_H 	H 	0.0078	0.7213	0.91387	0.075
Mof_C 	C 	0.0837	0.7001	0.98307	0.139
Mof_H 	H 	0.0327	0.6419	0.99877	-0.011
Mof_C 	C 	0.1773	0.7375	0.01297	-0.267
Mof_C 	C 	0.194	0.6828	0.06347	0.181
Mof_H 	H 	0.1411	0.6249	0.07797	-0.011
Mof_C 	C 	0.297	0.6461	0.13407	0.066
Mof_H 	H 	0.2358	0.5903	0.14867	0.031
Mof_C 	C 	0.3538	0.6102	0.09367	-0.162
Mof_H 	H 	0.3136	0.5698	0.05637	0.067
Mof_H 	H 	0.4096	0.6654	0.07347	0.078
Mof_C 	C 	0.3878	0.5535	0.13517	-0.068
Mof_H 	H 	0.4278	0.5377	0.10657	0.039
Mof_H 	H 	0.3325	0.4935	0.15037	0.047
Mof_C 	C 	0.2968	0.0216	0.87047	-0.387
Mof_H 	H 	0.2493	0.9806	0.83737	0.168
Mof_H 	H 	0.3566	0.0636	0.84737	0.15
Mof_H 	H 	0.2746	0.0598	0.89387	0.139
Mof_N 	N 	0.2758	0.7073	0.09027	-0.346
Mof_O 	O 	0.3413	0.859	0.00929	-0.538
Mof_O 	O 	0.3119	0.963	0.91977	-0.126
Mof_O 	O 	0.5465	0.0765	0.12667	-0.304
Mof_H 	H 	0.311	0.755	0.08167	0.26
Mof_C 	C 	0.8274	0.5726	0.3214	0.229
Mof_C 	C 	0.8762	0.6426	0.2705	0.011
Mof_C 	C 	0.8367	0.6937	0.2422	-0.052
Mof_H 	H 	0.8688	0.7379	0.2071	0.049
Mof_C 	C 	0.7477	0.6786	0.2666	-0.06
Mof_H 	H 	0.7213	0.7135	0.2472	0.047
Mof_C 	C 	0.7001	0.6164	0.3164	-0.003
Mof_H 	H 	0.6419	0.6092	0.3321	0.036
Mof_C 	C 	0.7375	0.5602	0.3463	-0.123
Mof_C 	C 	0.6828	0.4888	0.3968	0.125
Mof_H 	H 	0.6249	0.4838	0.4113	0.018
Mof_C 	C 	0.6461	0.3491	0.4674	0.068
Mof_H 	H 	0.5903	0.3545	0.482	0.032
Mof_C 	C 	0.6102	0.2564	0.427	-0.173
Mof_H 	H 	0.5698	0.2562	0.3897	0.08
Mof_H 	H 	0.6654	0.2558	0.4068	0.088
Mof_C 	C 	0.5535	0.1657	0.4685	-0.059
Mof_H 	H 	0.5377	0.1099	0.4399	0.033
Mof_H 	H 	0.4935	0.161	0.4837	0.042
Mof_C 	C 	0.0216	0.7248	0.2038	-0.397
Mof_H 	H 	0.9806	0.7313	0.1707	0.175
Mof_H 	H 	0.0636	0.707	0.1807	0.152
Mof_H 	H 	0.0598	0.7852	0.2272	0.141
Mof_N 	N 	0.7073	0.4315	0.4236	-0.326
Mof_O 	O 	0.859	0.5177	0.34262	-0.493
Mof_O 	O 	0.963	0.6511	0.2531	-0.148
Mof_O 	O 	0.0765	0.53	0.46	-0.312
Mof_H 	H 	0.755	0.444	0.415	0.254
Mof_C 	C 	0.4274	0.2548	0.65473	0.217
Mof_C 	C 	0.3574	0.2336	0.60383	0.038
Mof_C 	C 	0.3063	0.143	0.57553	-0.085
Mof_H 	H 	0.2621	0.1309	0.54043	0.047
Mof_C 	C 	0.3214	0.0691	0.59993	-0.049
Mof_H 	H 	0.2865	0.0078	0.58053	0.025
Mof_C 	C 	0.3836	0.0837	0.64973	-0.021
Mof_H 	H 	0.3908	0.0327	0.66543	0.031
Mof_C 	C 	0.4398	0.1773	0.67963	-0.12
Mof_C 	C 	0.5112	0.194	0.73013	0.118
Mof_H 	H 	0.5162	0.1411	0.74463	0.016
Mof_C 	C 	0.6509	0.297	0.80073	0.064
Mof_H 	H 	0.6455	0.2358	0.81533	0.034
Mof_C 	C 	0.7436	0.3538	0.76033	-0.164
Mof_H 	H 	0.7438	0.3136	0.72303	0.08
Mof_H 	H 	0.7442	0.4096	0.74013	0.086
Mof_C 	C 	0.8343	0.3878	0.80183	-0.071
Mof_H 	H 	0.8901	0.4278	0.77323	0.053
Mof_H 	H 	0.839	0.3325	0.81703	0.055
Mof_C 	C 	0.2752	0.2968	0.53713	-0.085
Mof_H 	H 	0.2687	0.2493	0.50403	0.05
Mof_H 	H 	0.293	0.3566	0.51403	0.063
Mof_H 	H 	0.2148	0.2746	0.56053	0.045
Mof_N 	N 	0.5685	0.2758	0.75693	-0.324
Mof_O 	O 	0.4823	0.3413	0.67595	-0.513
Mof_O 	O 	0.3489	0.3119	0.58643	-0.242
Mof_O 	O 	0.47	0.5465	0.79333	-0.315
Mof_H 	H 	0.556	0.311	0.74833	0.252
Mof_C 	C 	0.7452	0.1726	0.98807	0.341
Mof_C 	C 	0.7664	0.1238	0.93717	-0.012
Mof_C 	C 	0.857	0.1633	0.90887	0.001
Mof_H 	H 	0.8691	0.1312	0.87377	0.033
Mof_C 	C 	0.9309	0.2523	0.93327	-0.149
Mof_H 	H 	0.9922	0.2787	0.91387	0.092
Mof_C 	C 	0.9163	0.2999	0.98307	0.133
Mof_H 	H 	0.9673	0.3581	0.99877	0.015
Mof_C 	C 	0.8227	0.2625	0.01297	-0.261
Mof_C 	C 	0.806	0.3172	0.06347	0.178
Mof_H 	H 	0.8589	0.3751	0.07797	0.002
Mof_C 	C 	0.703	0.3539	0.13407	0.065
Mof_H 	H 	0.7642	0.4097	0.14867	0.034
Mof_C 	C 	0.6462	0.3898	0.09367	-0.161
Mof_H 	H 	0.6864	0.4302	0.05637	0.07
Mof_H 	H 	0.5904	0.3346	0.07347	0.078
Mof_C 	C 	0.6122	0.4465	0.13517	-0.069
Mof_H 	H 	0.5722	0.4623	0.10657	0.04
Mof_H 	H 	0.6675	0.5065	0.15037	0.049
Mof_C 	C 	0.7032	0.9784	0.87047	0.074
Mof_H 	H 	0.7507	0.0194	0.83737	-0.009
Mof_H 	H 	0.6434	0.9364	0.84737	0.03
Mof_H 	H 	0.7254	0.9402	0.89387	0.024
Mof_N 	N 	0.7242	0.2927	0.09027	-0.343
Mof_O 	O 	0.6587	0.141	0.00929	-0.551
Mof_O 	O 	0.6881	0.037	0.91977	-0.258
Mof_O 	O 	0.4535	0.9235	0.12667	-0.268
Mof_H 	H 	0.689	0.245	0.08167	0.257
Mof_C 	C 	0.4274	0.1726	0.01193	0.038
Mof_C 	C 	0.3574	0.1238	0.06283	0.157
Mof_C 	C 	0.3063	0.1633	0.09113	-0.226
Mof_H 	H 	0.2621	0.1312	0.12623	0.098
Mof_C 	C 	0.3214	0.2523	0.06673	0.11
Mof_H 	H 	0.2865	0.2787	0.08613	-0.023
Mof_C 	C 	0.3836	0.2999	0.01693	-0.212
Mof_H 	H 	0.3908	0.3581	0.00123	0.092
Mof_C 	C 	0.4398	0.2625	0.98703	0.066
Mof_C 	C 	0.5112	0.3172	0.93653	0.04
Mof_H 	H 	0.5162	0.3751	0.92203	0.053
Mof_C 	C 	0.6509	0.3539	0.86593	0.066
Mof_H 	H 	0.6455	0.4097	0.85133	0.035
Mof_C 	C 	0.7436	0.3898	0.90633	-0.179
Mof_H 	H 	0.7438	0.4302	0.94363	0.097
Mof_H 	H 	0.7442	0.3346	0.92653	0.099
Mof_C 	C 	0.8343	0.4465	0.86483	-0.059
Mof_H 	H 	0.8901	0.4623	0.89343	0.053
Mof_H 	H 	0.839	0.5065	0.84963	0.052
Mof_C 	C 	0.2752	0.9784	0.12953	0.208
Mof_H 	H 	0.2687	0.0194	0.16263	-0.063
Mof_H 	H 	0.293	0.9364	0.15263	-0.012
Mof_H 	H 	0.2148	0.9402	0.10613	-0.034
Mof_N 	N 	0.5685	0.2927	0.90973	-0.298
Mof_O 	O 	0.4823	0.141	0.99071	-0.404
Mof_O 	O 	0.3489	0.037	0.08023	-0.342
Mof_O 	O 	0.47	0.9235	0.87333	-0.268
Mof_H 	H 	0.556	0.245	0.91833	0.244
Mof_C 	C 	0.7452	0.5726	0.6786	0.217
Mof_C 	C 	0.7664	0.6426	0.7295	0.041
Mof_C 	C 	0.857	0.6937	0.7578	-0.079
Mof_H 	H 	0.8691	0.7379	0.7929	0.065
Mof_C 	C 	0.9309	0.6786	0.7334	-0.037
Mof_H 	H 	0.9922	0.7135	0.7528	0.052
Mof_C 	C 	0.9163	0.6164	0.6836	-0.019
Mof_H 	H 	0.9673	0.6092	0.6679	0.055
Mof_C 	C 	0.8227	0.5602	0.6537	-0.109
Mof_C 	C 	0.806	0.4888	0.6032	0.118
Mof_H 	H 	0.8589	0.4838	0.5887	0.029
Mof_C 	C 	0.703	0.3491	0.5326	0.066
Mof_H 	H 	0.7642	0.3545	0.518	0.035
Mof_C 	C 	0.6462	0.2564	0.573	-0.171
Mof_H 	H 	0.6864	0.2562	0.6103	0.081
Mof_H 	H 	0.5904	0.2558	0.5932	0.087
Mof_C 	C 	0.6122	0.1657	0.5315	-0.061
Mof_H 	H 	0.5722	0.1099	0.5601	0.034
Mof_H 	H 	0.6675	0.161	0.5163	0.044
Mof_C 	C 	0.7032	0.7248	0.7962	-0.13
Mof_H 	H 	0.7507	0.7313	0.8293	0.078
Mof_H 	H 	0.6434	0.707	0.8193	0.083
Mof_H 	H 	0.7254	0.7852	0.7728	0.074
Mof_N 	N 	0.7242	0.4315	0.5764	-0.322
Mof_O 	O 	0.6587	0.5177	0.65738	-0.512
Mof_O 	O 	0.6881	0.6511	0.7469	-0.232
Mof_O 	O 	0.4535	0.53	0.54	-0.316
Mof_H 	H 	0.689	0.444	0.585	0.252
Mof_C 	C 	0.8274	0.2548	0.34527	0.228
Mof_C 	C 	0.8762	0.2336	0.39617	0.01
Mof_C 	C 	0.8367	0.143	0.42447	-0.056
Mof_H 	H 	0.8688	0.1309	0.45957	0.043
Mof_C 	C 	0.7477	0.0691	0.40007	-0.064
Mof_H 	H 	0.7213	0.0078	0.41947	0.034
Mof_C 	C 	0.7001	0.0837	0.35027	-0.006
Mof_H 	H 	0.6419	0.0327	0.33457	0.026
Mof_C 	C 	0.7375	0.1773	0.32037	-0.126
Mof_C 	C 	0.6828	0.194	0.26987	0.123
Mof_H 	H 	0.6249	0.1411	0.25537	0.015
Mof_C 	C 	0.6461	0.297	0.19927	0.067
Mof_H 	H 	0.5903	0.2358	0.18467	0.032
Mof_C 	C 	0.6102	0.3538	0.23967	-0.172
Mof_H 	H 	0.5698	0.3136	0.27697	0.08
Mof_H 	H 	0.6654	0.4096	0.25987	0.087
Mof_C 	C 	0.5535	0.3878	0.19817	-0.059
Mof_H 	H 	0.5377	0.4278	0.22677	0.04
Mof_H 	H 	0.4935	0.3325	0.18297	0.046
Mof_C 	C 	0.0216	0.2968	0.46287	-0.388
Mof_H 	H 	0.9806	0.2493	0.49597	0.17
Mof_H 	H 	0.0636	0.3566	0.48597	0.148
Mof_H 	H 	0.0598	0.2746	0.43947	0.131
Mof_N 	N 	0.7073	0.2758	0.24307	-0.326
Mof_O 	O 	0.859	0.3413	0.32405	-0.494
Mof_O 	O 	0.963	0.3119	0.41357	-0.15
Mof_O 	O 	0.0765	0.5465	0.20667	-0.313
Mof_H 	H 	0.755	0.311	0.25167	0.254
Mof_C 	C 	0.5726	0.8274	0.01193	0.089
Mof_C 	C 	0.6426	0.8762	0.06283	0.088
Mof_C 	C 	0.6937	0.8367	0.09113	-0.152
Mof_H 	H 	0.7379	0.8688	0.12623	0.083
Mof_C 	C 	0.6786	0.7477	0.06673	0.06
Mof_H 	H 	0.7135	0.7213	0.08613	0.002
Mof_C 	C 	0.6164	0.7001	0.01693	-0.159
Mof_H 	H 	0.6092	0.6419	0.00123	0.076
Mof_C 	C 	0.5602	0.7375	0.98703	0.029
Mof_C 	C 	0.4888	0.6828	0.93653	0.061
Mof_H 	H 	0.4838	0.6249	0.92203	0.045
Mof_C 	C 	0.3491	0.6461	0.86593	0.069
Mof_H 	H 	0.3545	0.5903	0.85133	0.033
Mof_C 	C 	0.2564	0.6102	0.90633	-0.183
Mof_H 	H 	0.2562	0.5698	0.94363	0.093
Mof_H 	H 	0.2558	0.6654	0.92653	0.098
Mof_C 	C 	0.1657	0.5535	0.86483	-0.053
Mof_H 	H 	0.1099	0.5377	0.89343	0.034
Mof_H 	H 	0.161	0.4935	0.84963	0.041
Mof_C 	C 	0.7248	0.0216	0.12953	-0.38
Mof_H 	H 	0.7313	0.9806	0.16263	0.171
Mof_H 	H 	0.707	0.0636	0.15263	0.148
Mof_H 	H 	0.7852	0.0598	0.10613	0.13
Mof_N 	N 	0.4315	0.7073	0.90973	-0.306
Mof_O 	O 	0.5177	0.859	0.99071	-0.413
Mof_O 	O 	0.6511	0.963	0.08023	-0.171
Mof_O 	O 	0.53	0.0765	0.87333	-0.298
Mof_H 	H 	0.444	0.755	0.91833	0.249
Mof_C 	C 	0.2548	0.4274	0.6786	0.217
Mof_C 	C 	0.2336	0.3574	0.7295	0.038
Mof_C 	C 	0.143	0.3063	0.7578	-0.085
Mof_H 	H 	0.1309	0.2621	0.7929	0.049
Mof_C 	C 	0.0691	0.3214	0.7334	-0.048
Mof_H 	H 	0.0078	0.2865	0.7528	0.024
Mof_C 	C 	0.0837	0.3836	0.6836	-0.021
Mof_H 	H 	0.0327	0.3908	0.6679	0.03
Mof_C 	C 	0.1773	0.4398	0.6537	-0.12
Mof_C 	C 	0.194	0.5112	0.6032	0.118
Mof_H 	H 	0.1411	0.5162	0.5887	0.016
Mof_C 	C 	0.297	0.6509	0.5326	0.065
Mof_H 	H 	0.2358	0.6455	0.518	0.033
Mof_C 	C 	0.3538	0.7436	0.573	-0.168
Mof_H 	H 	0.3136	0.7438	0.6103	0.081
Mof_H 	H 	0.4096	0.7442	0.5932	0.087
Mof_C 	C 	0.3878	0.8343	0.5315	-0.066
Mof_H 	H 	0.4278	0.8901	0.5601	0.051
Mof_H 	H 	0.3325	0.839	0.5163	0.053
Mof_C 	C 	0.2968	0.2752	0.7962	-0.094
Mof_H 	H 	0.2493	0.2687	0.8293	0.056
Mof_H 	H 	0.3566	0.293	0.8193	0.068
Mof_H 	H 	0.2746	0.2148	0.7728	0.049
Mof_N 	N 	0.2758	0.5685	0.5764	-0.324
Mof_O 	O 	0.3413	0.4823	0.65738	-0.513
Mof_O 	O 	0.3119	0.3489	0.7469	-0.24
Mof_O 	O 	0.5465	0.47	0.54	-0.316
Mof_H 	H 	0.311	0.556	0.585	0.252
Mof_C 	C 	0.1726	0.7452	0.34527	0.194
Mof_C 	C 	0.1238	0.7664	0.39617	0.073
Mof_C 	C 	0.1633	0.857	0.42447	-0.112
Mof_H 	H 	0.1312	0.8691	0.45957	0.069
Mof_C 	C 	0.2523	0.9309	0.40007	-0.017
Mof_H 	H 	0.2787	0.9922	0.41947	0.041
Mof_C 	C 	0.2999	0.9163	0.35027	-0.039
Mof_H 	H 	0.3581	0.9673	0.33457	0.06
Mof_C 	C 	0.2625	0.8227	0.32037	-0.097
Mof_C 	C 	0.3172	0.806	0.26987	0.109
Mof_H 	H 	0.3751	0.8589	0.25537	0.032
Mof_C 	C 	0.3539	0.703	0.19927	0.066
Mof_H 	H 	0.4097	0.7642	0.18467	0.035
Mof_C 	C 	0.3898	0.6462	0.23967	-0.172
Mof_H 	H 	0.4302	0.6864	0.27697	0.084
Mof_H 	H 	0.3346	0.5904	0.25987	0.088
Mof_C 	C 	0.4465	0.6122	0.19817	-0.06
Mof_H 	H 	0.4623	0.5722	0.22677	0.041
Mof_H 	H 	0.5065	0.6675	0.18297	0.047
Mof_C 	C 	0.9784	0.7032	0.46287	0.159
Mof_H 	H 	0.0194	0.7507	0.49597	-0.04
Mof_H 	H 	0.9364	0.6434	0.48597	0.005
Mof_H 	H 	0.9402	0.7254	0.43947	-0.006
Mof_N 	N 	0.2927	0.7242	0.24307	-0.32
Mof_O 	O 	0.141	0.6587	0.32405	-0.495
Mof_O 	O 	0.037	0.6881	0.41357	-0.31
Mof_O 	O 	0.9235	0.4535	0.20667	-0.277
Mof_H 	H 	0.245	0.689	0.25167	0.25
Mof_Ce	Ce	-4.96735e-17	0.5	0.33333	2.63
Mof_Ce	Ce	0.5	0.5	0.66667	2.771
Mof_Ce	Ce	0.5	0	-0	2.496
Mof_N 	N 	-7.34231e-17	0.5	0.4927	0.057
Mof_O 	O 	-8.28413e-17	0.5	0.5559	-0.162
Mof_N 	N 	0.5	0.5	0.82603	0.077
Mof_O 	O 	0.5	0.5	0.88923	-0.14
Mof_N 	N 	0.5	0	0.15937	0.056
Mof_O 	O 	0.5	5.87656e-33	0.22257	-0.161
Mof_N 	N 	0.5	2.35062e-32	0.84063	0.058
Mof_O 	O 	0.5	0	0.77743	-0.16
Mof_N 	N 	0.5	0.5	0.5073	0.077
Mof_O 	O 	0.5	0.5	0.4441	-0.144
Mof_N 	N 	-7.88567e-17	0.5	0.17397	0.057
Mof_O 	O 	-6.94385e-17	0.5	0.11077	-0.166
_end
