# CIF file generated by openbabel 3.1.0, see https://openbabel.org
data_I
_chemical_name_common 'image0'
_cell_length_a 14.7932
_cell_length_b 16.7885
_cell_length_c 27.7725
_cell_angle_alpha 90
_cell_angle_beta 90
_cell_angle_gamma 90
_space_group_name_H-M_alt 'P 1'
_space_group_name_Hall 'P 1'
loop_
    _symmetry_equiv_pos_as_xyz
    x,y,z
loop_
    _atom_site_label
    _atom_site_type_symbol
    _atom_site_fract_x
    _atom_site_fract_y
    _atom_site_fract_z
    _atom_site_occupancy
    N1       N        0.43910    0.94923    0.38777    1.000
    O1       O        0.32461    0.23776    0.19270    1.000
    O2       O        0.30105    0.93097    0.42549    1.000
    C1       C        0.38020    0.94850    0.42698    1.000
    O3       O        0.43497    0.31497    0.22202    1.000
    N2       N        0.30120    0.14826    0.27694    1.000
    O4       O        0.58824    0.98134    0.37253    1.000
    C2       C        0.40280    0.27180    0.19074    1.000
    C3       C        0.38950    0.13780    0.28023    1.000
    H1       H        0.42840    0.17890    0.26910    1.000
    C4       C        0.40860    0.26490    0.10087    1.000
    H2       H        0.34530    0.27470    0.10080    1.000
    C5       C        0.45380    0.25805    0.14428    1.000
    C6       C        0.42800    0.06910    0.29938    1.000
    H3       H        0.49180    0.06350    0.30110    1.000
    C7       C        0.40950    0.98400    0.51655    1.000
    H4       H        0.34980    0.97390    0.52740    1.000
    C8       C        0.52570    0.97420    0.40031    1.000
    C9       C        0.43520    0.97370    0.46926    1.000
    C10      C        0.41070    0.93381    0.33845    1.000
    H5       H        0.36440    0.89130    0.33820    1.000
    H6       H        0.46310    0.91520    0.31930    1.000
    C11      C        0.28050    0.02020    0.31271    1.000
    H7       H        0.24030    0.98020    0.32390    1.000
    C12      C        0.37190    0.00902    0.31585    1.000
    C13      C        0.47730    0.01030    0.54702    1.000
    C14      C        0.24710    0.08970    0.29325    1.000
    H8       H        0.18340    0.09650    0.29120    1.000
    C15      C        0.45380    0.25760    0.05792    1.000
    H9       H        0.42210    0.26290    0.02830    1.000
    N3       N        0.93910    0.44923    0.88777    1.000
    O5       O        0.82461    0.73776    0.69270    1.000
    O6       O        0.80105    0.43097    0.92549    1.000
    C16      C        0.88020    0.44850    0.92698    1.000
    O7       O        0.93497    0.81497    0.72202    1.000
    N4       N        0.80120    0.64826    0.77694    1.000
    O8       O        0.08824    0.48134    0.87253    1.000
    C17      C        0.90280    0.77180    0.69074    1.000
    C18      C        0.88950    0.63780    0.78023    1.000
    H10      H        0.92840    0.67890    0.76910    1.000
    C19      C        0.90860    0.76490    0.60087    1.000
    H11      H        0.84530    0.77470    0.60080    1.000
    C20      C        0.95380    0.75805    0.64428    1.000
    C21      C        0.92800    0.56910    0.79938    1.000
    H12      H        0.99180    0.56350    0.80110    1.000
    C22      C        0.90950    0.48400    0.01655    1.000
    H13      H        0.84980    0.47390    0.02740    1.000
    C23      C        0.02570    0.47420    0.90031    1.000
    C24      C        0.93520    0.47370    0.96926    1.000
    C25      C        0.91070    0.43381    0.83845    1.000
    H14      H        0.86440    0.39130    0.83820    1.000
    H15      H        0.96310    0.41520    0.81930    1.000
    C26      C        0.78050    0.52020    0.81271    1.000
    H16      H        0.74030    0.48020    0.82390    1.000
    C27      C        0.87190    0.50902    0.81585    1.000
    C28      C        0.97730    0.51030    0.04702    1.000
    C29      C        0.74710    0.58970    0.79325    1.000
    H17      H        0.68340    0.59650    0.79120    1.000
    C30      C        0.95380    0.75760    0.55792    1.000
    H18      H        0.92210    0.76290    0.52830    1.000
    N5       N        0.06090    0.05077    0.88777    1.000
    O9       O        0.17539    0.76224    0.69270    1.000
    O10      O        0.19895    0.06903    0.92549    1.000
    C31      C        0.11980    0.05150    0.92698    1.000
    O11      O        0.06503    0.68503    0.72202    1.000
    N6       N        0.19880    0.85174    0.77694    1.000
    O12      O        0.91176    0.01866    0.87253    1.000
    C32      C        0.09720    0.72820    0.69074    1.000
    C33      C        0.11050    0.86220    0.78023    1.000
    H19      H        0.07160    0.82110    0.76910    1.000
    C34      C        0.09140    0.73510    0.60087    1.000
    H20      H        0.15470    0.72530    0.60080    1.000
    C35      C        0.04620    0.74195    0.64428    1.000
    C36      C        0.07200    0.93090    0.79938    1.000
    H21      H        0.00820    0.93650    0.80110    1.000
    C37      C        0.09050    0.01600    0.01655    1.000
    H22      H        0.15020    0.02610    0.02740    1.000
    C38      C        0.97430    0.02580    0.90031    1.000
    C39      C        0.06480    0.02630    0.96926    1.000
    C40      C        0.08930    0.06619    0.83845    1.000
    H23      H        0.13560    0.10870    0.83820    1.000
    H24      H        0.03690    0.08480    0.81930    1.000
    C41      C        0.21950    0.97980    0.81271    1.000
    H25      H        0.25970    0.01980    0.82390    1.000
    C42      C        0.12810    0.99098    0.81585    1.000
    C43      C        0.02270    0.98970    0.04702    1.000
    C44      C        0.25290    0.91030    0.79325    1.000
    H26      H        0.31660    0.90350    0.79120    1.000
    C45      C        0.04620    0.74240    0.55792    1.000
    H27      H        0.07790    0.73710    0.52830    1.000
    N7       N        0.56090    0.55077    0.38777    1.000
    O13      O        0.67539    0.26224    0.19270    1.000
    O14      O        0.69895    0.56903    0.42549    1.000
    C46      C        0.61980    0.55150    0.42698    1.000
    O15      O        0.56503    0.18503    0.22202    1.000
    N8       N        0.69880    0.35174    0.27694    1.000
    O16      O        0.41176    0.51866    0.37253    1.000
    C47      C        0.59720    0.22820    0.19074    1.000
    C48      C        0.61050    0.36220    0.28023    1.000
    H28      H        0.57160    0.32110    0.26910    1.000
    C49      C        0.59140    0.23510    0.10087    1.000
    H29      H        0.65470    0.22530    0.10080    1.000
    C50      C        0.54620    0.24195    0.14428    1.000
    C51      C        0.57200    0.43090    0.29938    1.000
    H30      H        0.50820    0.43650    0.30110    1.000
    C52      C        0.59050    0.51600    0.51655    1.000
    H31      H        0.65020    0.52610    0.52740    1.000
    C53      C        0.47430    0.52580    0.40031    1.000
    C54      C        0.56480    0.52630    0.46926    1.000
    C55      C        0.58930    0.56619    0.33845    1.000
    H32      H        0.63560    0.60870    0.33820    1.000
    H33      H        0.53690    0.58480    0.31930    1.000
    C56      C        0.71950    0.47980    0.31271    1.000
    H34      H        0.75970    0.51980    0.32390    1.000
    C57      C        0.62810    0.49098    0.31585    1.000
    C58      C        0.52270    0.48970    0.54702    1.000
    C59      C        0.75290    0.41030    0.29325    1.000
    H35      H        0.81660    0.40350    0.29120    1.000
    C60      C        0.54620    0.24240    0.05792    1.000
    H36      H        0.57790    0.23710    0.02830    1.000
    N9       N        0.56090    0.05077    0.61223    1.000
    O17      O        0.67539    0.76224    0.80730    1.000
    O18      O        0.69895    0.06903    0.57451    1.000
    C61      C        0.61980    0.05150    0.57302    1.000
    O19      O        0.56503    0.68503    0.77798    1.000
    N10      N        0.69880    0.85174    0.72306    1.000
    O20      O        0.41176    0.01866    0.62747    1.000
    C62      C        0.59720    0.72820    0.80926    1.000
    C63      C        0.61050    0.86220    0.71977    1.000
    H37      H        0.57160    0.82110    0.73090    1.000
    C64      C        0.59140    0.73510    0.89913    1.000
    H38      H        0.65470    0.72530    0.89920    1.000
    C65      C        0.54620    0.74195    0.85572    1.000
    C66      C        0.57200    0.93090    0.70062    1.000
    H39      H        0.50820    0.93650    0.69890    1.000
    C67      C        0.59050    0.01600    0.48345    1.000
    H40      H        0.65020    0.02610    0.47260    1.000
    C68      C        0.47430    0.02580    0.59969    1.000
    C69      C        0.56480    0.02630    0.53074    1.000
    C70      C        0.58930    0.06619    0.66155    1.000
    H41      H        0.63560    0.10870    0.66180    1.000
    H42      H        0.53690    0.08480    0.68070    1.000
    C71      C        0.71950    0.97980    0.68729    1.000
    H43      H        0.75970    0.01980    0.67610    1.000
    C72      C        0.62810    0.99098    0.68415    1.000
    C73      C        0.52270    0.98970    0.45298    1.000
    C74      C        0.75290    0.91030    0.70675    1.000
    H44      H        0.81660    0.90350    0.70880    1.000
    C75      C        0.54620    0.74240    0.94208    1.000
    H45      H        0.57790    0.73710    0.97170    1.000
    N11      N        0.06090    0.55077    0.11223    1.000
    O21      O        0.17539    0.26224    0.30730    1.000
    O22      O        0.19895    0.56903    0.07451    1.000
    C76      C        0.11980    0.55150    0.07302    1.000
    O23      O        0.06503    0.18503    0.27798    1.000
    N12      N        0.19880    0.35174    0.22306    1.000
    O24      O        0.91176    0.51866    0.12747    1.000
    C77      C        0.09720    0.22820    0.30926    1.000
    C78      C        0.11050    0.36220    0.21977    1.000
    H46      H        0.07160    0.32110    0.23090    1.000
    C79      C        0.09140    0.23510    0.39913    1.000
    H47      H        0.15470    0.22530    0.39920    1.000
    C80      C        0.04620    0.24195    0.35572    1.000
    C81      C        0.07200    0.43090    0.20062    1.000
    H48      H        0.00820    0.43650    0.19890    1.000
    C82      C        0.09050    0.51600    0.98345    1.000
    H49      H        0.15020    0.52610    0.97260    1.000
    C83      C        0.97430    0.52580    0.09969    1.000
    C84      C        0.06480    0.52630    0.03074    1.000
    C85      C        0.08930    0.56619    0.16155    1.000
    H50      H        0.13560    0.60870    0.16180    1.000
    H51      H        0.03690    0.58480    0.18070    1.000
    C86      C        0.21950    0.47980    0.18729    1.000
    H52      H        0.25970    0.51980    0.17610    1.000
    C87      C        0.12810    0.49098    0.18415    1.000
    C88      C        0.02270    0.48970    0.95298    1.000
    C89      C        0.25290    0.41030    0.20675    1.000
    H53      H        0.31660    0.40350    0.20880    1.000
    C90      C        0.04620    0.24240    0.44208    1.000
    H54      H        0.07790    0.23710    0.47170    1.000
    N13      N        0.93910    0.94923    0.11223    1.000
    O25      O        0.82461    0.23776    0.30730    1.000
    O26      O        0.80105    0.93097    0.07451    1.000
    C91      C        0.88020    0.94850    0.07302    1.000
    O27      O        0.93497    0.31497    0.27798    1.000
    N14      N        0.80120    0.14826    0.22306    1.000
    O28      O        0.08824    0.98134    0.12747    1.000
    C92      C        0.90280    0.27180    0.30926    1.000
    C93      C        0.88950    0.13780    0.21977    1.000
    H55      H        0.92840    0.17890    0.23090    1.000
    C94      C        0.90860    0.26490    0.39913    1.000
    H56      H        0.84530    0.27470    0.39920    1.000
    C95      C        0.95380    0.25805    0.35572    1.000
    C96      C        0.92800    0.06910    0.20062    1.000
    H57      H        0.99180    0.06350    0.19890    1.000
    C97      C        0.90950    0.98400    0.98345    1.000
    H58      H        0.84980    0.97390    0.97260    1.000
    C98      C        0.02570    0.97420    0.09969    1.000
    C99      C        0.93520    0.97370    0.03074    1.000
    C100     C        0.91070    0.93381    0.16155    1.000
    H59      H        0.86440    0.89130    0.16180    1.000
    H60      H        0.96310    0.91520    0.18070    1.000
    C101     C        0.78050    0.02020    0.18729    1.000
    H61      H        0.74030    0.98020    0.17610    1.000
    C102     C        0.87190    0.00902    0.18415    1.000
    C103     C        0.97730    0.01030    0.95298    1.000
    C104     C        0.74710    0.08970    0.20675    1.000
    H62      H        0.68340    0.09650    0.20880    1.000
    C105     C        0.95380    0.25760    0.44208    1.000
    H63      H        0.92210    0.26290    0.47170    1.000
    N15      N        0.43910    0.44923    0.61223    1.000
    O29      O        0.32461    0.73776    0.80730    1.000
    O30      O        0.30105    0.43097    0.57451    1.000
    C106     C        0.38020    0.44850    0.57302    1.000
    O31      O        0.43497    0.81497    0.77798    1.000
    N16      N        0.30120    0.64826    0.72306    1.000
    O32      O        0.58824    0.48134    0.62747    1.000
    C107     C        0.40280    0.77180    0.80926    1.000
    C108     C        0.38950    0.63780    0.71977    1.000
    H64      H        0.42840    0.67890    0.73090    1.000
    C109     C        0.40860    0.76490    0.89913    1.000
    H65      H        0.34530    0.77470    0.89920    1.000
    C110     C        0.45380    0.75805    0.85572    1.000
    C111     C        0.42800    0.56910    0.70062    1.000
    H66      H        0.49180    0.56350    0.69890    1.000
    C112     C        0.40950    0.48400    0.48345    1.000
    H67      H        0.34980    0.47390    0.47260    1.000
    C113     C        0.52570    0.47420    0.59969    1.000
    C114     C        0.43520    0.47370    0.53074    1.000
    C115     C        0.41070    0.43381    0.66155    1.000
    H68      H        0.36440    0.39130    0.66180    1.000
    H69      H        0.46310    0.41520    0.68070    1.000
    C116     C        0.28050    0.52020    0.68729    1.000
    H70      H        0.24030    0.48020    0.67610    1.000
    C117     C        0.37190    0.50902    0.68415    1.000
    C118     C        0.47730    0.51030    0.45298    1.000
    C119     C        0.24710    0.58970    0.70675    1.000
    H71      H        0.18340    0.59650    0.70880    1.000
    C120     C        0.45380    0.75760    0.94208    1.000
    H72      H        0.42210    0.76290    0.97170    1.000
    Cu1      Cu       0.25000    0.25000    0.25000    1.000
    Cu2      Cu       0.25000    0.75000    0.75000    1.000
    Cu3      Cu       0.75000    0.75000    0.75000    1.000
    Cu4      Cu       0.75000    0.25000    0.25000    1.000
    N17      N        0.56090    0.44923    0.11223    1.000
    O33      O        0.67539    0.73776    0.30730    1.000
    O34      O        0.69895    0.43097    0.07451    1.000
    C121     C        0.61980    0.44850    0.07302    1.000
    O35      O        0.56503    0.81497    0.27798    1.000
    N18      N        0.69880    0.64826    0.22306    1.000
    O36      O        0.41176    0.48134    0.12747    1.000
    C122     C        0.59720    0.77180    0.30926    1.000
    C123     C        0.61050    0.63780    0.21977    1.000
    H73      H        0.57160    0.67890    0.23090    1.000
    C124     C        0.59140    0.76490    0.39913    1.000
    H74      H        0.65470    0.77470    0.39920    1.000
    C125     C        0.54620    0.75805    0.35572    1.000
    C126     C        0.57200    0.56910    0.20062    1.000
    H75      H        0.50820    0.56350    0.19890    1.000
    C127     C        0.59050    0.48400    0.98345    1.000
    H76      H        0.65020    0.47390    0.97260    1.000
    C128     C        0.47430    0.47420    0.09969    1.000
    C129     C        0.56480    0.47370    0.03074    1.000
    C130     C        0.58930    0.43381    0.16155    1.000
    H77      H        0.63560    0.39130    0.16180    1.000
    H78      H        0.53690    0.41520    0.18070    1.000
    C131     C        0.71950    0.52020    0.18729    1.000
    H79      H        0.75970    0.48020    0.17610    1.000
    C132     C        0.62810    0.50902    0.18415    1.000
    C133     C        0.52270    0.51030    0.95298    1.000
    C134     C        0.75290    0.58970    0.20675    1.000
    H80      H        0.81660    0.59650    0.20880    1.000
    C135     C        0.54620    0.75760    0.44208    1.000
    H81      H        0.57790    0.76290    0.47170    1.000
    N19      N        0.06090    0.94923    0.61223    1.000
    O37      O        0.17539    0.23776    0.80730    1.000
    O38      O        0.19895    0.93097    0.57451    1.000
    C136     C        0.11980    0.94850    0.57302    1.000
    O39      O        0.06503    0.31497    0.77798    1.000
    N20      N        0.19880    0.14826    0.72306    1.000
    O40      O        0.91176    0.98134    0.62747    1.000
    C137     C        0.09720    0.27180    0.80926    1.000
    C138     C        0.11050    0.13780    0.71977    1.000
    H82      H        0.07160    0.17890    0.73090    1.000
    C139     C        0.09140    0.26490    0.89913    1.000
    H83      H        0.15470    0.27470    0.89920    1.000
    C140     C        0.04620    0.25805    0.85572    1.000
    C141     C        0.07200    0.06910    0.70062    1.000
    H84      H        0.00820    0.06350    0.69890    1.000
    C142     C        0.09050    0.98400    0.48345    1.000
    H85      H        0.15020    0.97390    0.47260    1.000
    C143     C        0.97430    0.97420    0.59969    1.000
    C144     C        0.06480    0.97370    0.53074    1.000
    C145     C        0.08930    0.93381    0.66155    1.000
    H86      H        0.13560    0.89130    0.66180    1.000
    H87      H        0.03690    0.91520    0.68070    1.000
    C146     C        0.21950    0.02020    0.68729    1.000
    H88      H        0.25970    0.98020    0.67610    1.000
    C147     C        0.12810    0.00902    0.68415    1.000
    C148     C        0.02270    0.01030    0.45298    1.000
    C149     C        0.25290    0.08970    0.70675    1.000
    H89      H        0.31660    0.09650    0.70880    1.000
    C150     C        0.04620    0.25760    0.94208    1.000
    H90      H        0.07790    0.26290    0.97170    1.000
    N21      N        0.93910    0.55077    0.61223    1.000
    O41      O        0.82461    0.26224    0.80730    1.000
    O42      O        0.80105    0.56903    0.57451    1.000
    C151     C        0.88020    0.55150    0.57302    1.000
    O43      O        0.93497    0.18503    0.77798    1.000
    N22      N        0.80120    0.35174    0.72306    1.000
    O44      O        0.08824    0.51866    0.62747    1.000
    C152     C        0.90280    0.22820    0.80926    1.000
    C153     C        0.88950    0.36220    0.71977    1.000
    H91      H        0.92840    0.32110    0.73090    1.000
    C154     C        0.90860    0.23510    0.89913    1.000
    H92      H        0.84530    0.22530    0.89920    1.000
    C155     C        0.95380    0.24195    0.85572    1.000
    C156     C        0.92800    0.43090    0.70062    1.000
    H93      H        0.99180    0.43650    0.69890    1.000
    C157     C        0.90950    0.51600    0.48345    1.000
    H94      H        0.84980    0.52610    0.47260    1.000
    C158     C        0.02570    0.52580    0.59969    1.000
    C159     C        0.93520    0.52630    0.53074    1.000
    C160     C        0.91070    0.56619    0.66155    1.000
    H95      H        0.86440    0.60870    0.66180    1.000
    H96      H        0.96310    0.58480    0.68070    1.000
    C161     C        0.78050    0.47980    0.68729    1.000
    H97      H        0.74030    0.51980    0.67610    1.000
    C162     C        0.87190    0.49098    0.68415    1.000
    C163     C        0.97730    0.48970    0.45298    1.000
    C164     C        0.74710    0.41030    0.70675    1.000
    H98      H        0.68340    0.40350    0.70880    1.000
    C165     C        0.95380    0.24240    0.94208    1.000
    H99      H        0.92210    0.23710    0.97170    1.000
    N23      N        0.43910    0.05077    0.11223    1.000
    O45      O        0.32461    0.76224    0.30730    1.000
    O46      O        0.30105    0.06903    0.07451    1.000
    C166     C        0.38020    0.05150    0.07302    1.000
    O47      O        0.43497    0.68503    0.27798    1.000
    N24      N        0.30120    0.85174    0.22306    1.000
    O48      O        0.58824    0.01866    0.12747    1.000
    C167     C        0.40280    0.72820    0.30926    1.000
    C168     C        0.38950    0.86220    0.21977    1.000
    H100     H        0.42840    0.82110    0.23090    1.000
    C169     C        0.40860    0.73510    0.39913    1.000
    H101     H        0.34530    0.72530    0.39920    1.000
    C170     C        0.45380    0.74195    0.35572    1.000
    C171     C        0.42800    0.93090    0.20062    1.000
    H102     H        0.49180    0.93650    0.19890    1.000
    C172     C        0.40950    0.01600    0.98345    1.000
    H103     H        0.34980    0.02610    0.97260    1.000
    C173     C        0.52570    0.02580    0.09969    1.000
    C174     C        0.43520    0.02630    0.03074    1.000
    C175     C        0.41070    0.06619    0.16155    1.000
    H104     H        0.36440    0.10870    0.16180    1.000
    H105     H        0.46310    0.08480    0.18070    1.000
    C176     C        0.28050    0.97980    0.18729    1.000
    H106     H        0.24030    0.01980    0.17610    1.000
    C177     C        0.37190    0.99098    0.18415    1.000
    C178     C        0.47730    0.98970    0.95298    1.000
    C179     C        0.24710    0.91030    0.20675    1.000
    H107     H        0.18340    0.90350    0.20880    1.000
    C180     C        0.45380    0.74240    0.44208    1.000
    H108     H        0.42210    0.73710    0.47170    1.000
    N25      N        0.43910    0.55077    0.88777    1.000
    O49      O        0.32461    0.26224    0.69270    1.000
    O50      O        0.30105    0.56903    0.92549    1.000
    C181     C        0.38020    0.55150    0.92698    1.000
    O51      O        0.43497    0.18503    0.72202    1.000
    N26      N        0.30120    0.35174    0.77694    1.000
    O52      O        0.58824    0.51866    0.87253    1.000
    C182     C        0.40280    0.22820    0.69074    1.000
    C183     C        0.38950    0.36220    0.78023    1.000
    H109     H        0.42840    0.32110    0.76910    1.000
    C184     C        0.40860    0.23510    0.60087    1.000
    H110     H        0.34530    0.22530    0.60080    1.000
    C185     C        0.45380    0.24195    0.64428    1.000
    C186     C        0.42800    0.43090    0.79938    1.000
    H111     H        0.49180    0.43650    0.80110    1.000
    C187     C        0.40950    0.51600    0.01655    1.000
    H112     H        0.34980    0.52610    0.02740    1.000
    C188     C        0.52570    0.52580    0.90031    1.000
    C189     C        0.43520    0.52630    0.96926    1.000
    C190     C        0.41070    0.56619    0.83845    1.000
    H113     H        0.36440    0.60870    0.83820    1.000
    H114     H        0.46310    0.58480    0.81930    1.000
    C191     C        0.28050    0.47980    0.81271    1.000
    H115     H        0.24030    0.51980    0.82390    1.000
    C192     C        0.37190    0.49098    0.81585    1.000
    C193     C        0.47730    0.48970    0.04702    1.000
    C194     C        0.24710    0.41030    0.79325    1.000
    H116     H        0.18340    0.40350    0.79120    1.000
    C195     C        0.45380    0.24240    0.55792    1.000
    H117     H        0.42210    0.23710    0.52830    1.000
    N27      N        0.93910    0.05077    0.38777    1.000
    O53      O        0.82461    0.76224    0.19270    1.000
    O54      O        0.80105    0.06903    0.42549    1.000
    C196     C        0.88020    0.05150    0.42698    1.000
    O55      O        0.93497    0.68503    0.22202    1.000
    N28      N        0.80120    0.85174    0.27694    1.000
    O56      O        0.08824    0.01866    0.37253    1.000
    C197     C        0.90280    0.72820    0.19074    1.000
    C198     C        0.88950    0.86220    0.28023    1.000
    H118     H        0.92840    0.82110    0.26910    1.000
    C199     C        0.90860    0.73510    0.10087    1.000
    H119     H        0.84530    0.72530    0.10080    1.000
    C200     C        0.95380    0.74195    0.14428    1.000
    C201     C        0.92800    0.93090    0.29938    1.000
    H120     H        0.99180    0.93650    0.30110    1.000
    C202     C        0.90950    0.01600    0.51655    1.000
    H121     H        0.84980    0.02610    0.52740    1.000
    C203     C        0.02570    0.02580    0.40031    1.000
    C204     C        0.93520    0.02630    0.46926    1.000
    C205     C        0.91070    0.06619    0.33845    1.000
    H122     H        0.86440    0.10870    0.33820    1.000
    H123     H        0.96310    0.08480    0.31930    1.000
    C206     C        0.78050    0.97980    0.31271    1.000
    H124     H        0.74030    0.01980    0.32390    1.000
    C207     C        0.87190    0.99098    0.31585    1.000
    C208     C        0.97730    0.98970    0.54702    1.000
    C209     C        0.74710    0.91030    0.29325    1.000
    H125     H        0.68340    0.90350    0.29120    1.000
    C210     C        0.95380    0.74240    0.05792    1.000
    H126     H        0.92210    0.73710    0.02830    1.000
    N29      N        0.06090    0.44923    0.38777    1.000
    O57      O        0.17539    0.73776    0.19270    1.000
    O58      O        0.19895    0.43097    0.42549    1.000
    C211     C        0.11980    0.44850    0.42698    1.000
    O59      O        0.06503    0.81497    0.22202    1.000
    N30      N        0.19880    0.64826    0.27694    1.000
    O60      O        0.91176    0.48134    0.37253    1.000
    C212     C        0.09720    0.77180    0.19074    1.000
    C213     C        0.11050    0.63780    0.28023    1.000
    H127     H        0.07160    0.67890    0.26910    1.000
    C214     C        0.09140    0.76490    0.10087    1.000
    H128     H        0.15470    0.77470    0.10080    1.000
    C215     C        0.04620    0.75805    0.14428    1.000
    C216     C        0.07200    0.56910    0.29938    1.000
    H129     H        0.00820    0.56350    0.30110    1.000
    C217     C        0.09050    0.48400    0.51655    1.000
    H130     H        0.15020    0.47390    0.52740    1.000
    C218     C        0.97430    0.47420    0.40031    1.000
    C219     C        0.06480    0.47370    0.46926    1.000
    C220     C        0.08930    0.43381    0.33845    1.000
    H131     H        0.13560    0.39130    0.33820    1.000
    H132     H        0.03690    0.41520    0.31930    1.000
    C221     C        0.21950    0.52020    0.31271    1.000
    H133     H        0.25970    0.48020    0.32390    1.000
    C222     C        0.12810    0.50902    0.31585    1.000
    C223     C        0.02270    0.51030    0.54702    1.000
    C224     C        0.25290    0.58970    0.29325    1.000
    H134     H        0.31660    0.59650    0.29120    1.000
    C225     C        0.04620    0.75760    0.05792    1.000
    H135     H        0.07790    0.76290    0.02830    1.000
    N31      N        0.56090    0.94923    0.88777    1.000
    O61      O        0.67539    0.23776    0.69270    1.000
    O62      O        0.69895    0.93097    0.92549    1.000
    C226     C        0.61980    0.94850    0.92698    1.000
    O63      O        0.56503    0.31497    0.72202    1.000
    N32      N        0.69880    0.14826    0.77694    1.000
    O64      O        0.41176    0.98134    0.87253    1.000
    C227     C        0.59720    0.27180    0.69074    1.000
    C228     C        0.61050    0.13780    0.78023    1.000
    H136     H        0.57160    0.17890    0.76910    1.000
    C229     C        0.59140    0.26490    0.60087    1.000
    H137     H        0.65470    0.27470    0.60080    1.000
    C230     C        0.54620    0.25805    0.64428    1.000
    C231     C        0.57200    0.06910    0.79938    1.000
    H138     H        0.50820    0.06350    0.80110    1.000
    C232     C        0.59050    0.98400    0.01655    1.000
    H139     H        0.65020    0.97390    0.02740    1.000
    C233     C        0.47430    0.97420    0.90031    1.000
    C234     C        0.56480    0.97370    0.96926    1.000
    C235     C        0.58930    0.93381    0.83845    1.000
    H140     H        0.63560    0.89130    0.83820    1.000
    H141     H        0.53690    0.91520    0.81930    1.000
    C236     C        0.71950    0.02020    0.81271    1.000
    H142     H        0.75970    0.98020    0.82390    1.000
    C237     C        0.62810    0.00902    0.81585    1.000
    C238     C        0.52270    0.01030    0.04702    1.000
    C239     C        0.75290    0.08970    0.79325    1.000
    H143     H        0.81660    0.09650    0.79120    1.000
    C240     C        0.54620    0.25760    0.55792    1.000
    H144     H        0.57790    0.26290    0.52830    1.000
    Cu5      Cu       0.75000    0.75000    0.25000    1.000
    Cu6      Cu       0.75000    0.25000    0.75000    1.000
    Cu7      Cu       0.25000    0.25000    0.75000    1.000
    Cu8      Cu       0.25000    0.75000    0.25000    1.000
