data_functionalizedCrystal
_audit_creation_method	'EQeq! by Chris Wilmer'
_symmetry_space_group_name_H-M	'P1'
_symmetry_Int_Tables_number	1
_symmetry_cell_setting	triclinic
loop_
_symmetry_equiv_pos_as_xyz
  x,y,z
_cell_length_a	19.362
_cell_length_b	19.362
_cell_length_c	19.362
_cell_angle_alpha	90
_cell_angle_beta	90
_cell_angle_gamma	90
loop_
_atom_site_label
_atom_site_type_symbol
_atom_site_fract_x
_atom_site_fract_y
_atom_site_fract_z
_atom_site_charge
Mof_N 	N 	0.36585	0.41388	0.08266	-0.077
Mof_N 	N 	0.32375	0.40471	0.13615	-0.091
Mof_N 	N 	0.63415	0.58612	0.08266	-0.075
Mof_N 	N 	0.67625	0.59529	0.13615	-0.087
Mof_N 	N 	0.63415	0.41388	0.91734	-0.059
Mof_N 	N 	0.67625	0.40471	0.86385	-0.081
Mof_N 	N 	0.36585	0.58612	0.91734	-0.06
Mof_N 	N 	0.32375	0.59529	0.86385	-0.083
Mof_N 	N 	0.08266	0.36585	0.41388	-0.076
Mof_N 	N 	0.13615	0.32375	0.40471	-0.09
Mof_N 	N 	0.08266	0.63415	0.58612	-0.074
Mof_N 	N 	0.13615	0.67625	0.59529	-0.087
Mof_N 	N 	0.91734	0.63415	0.41388	-0.059
Mof_N 	N 	0.86385	0.67625	0.40471	-0.081
Mof_N 	N 	0.91734	0.36585	0.58612	-0.06
Mof_N 	N 	0.86385	0.32375	0.59529	-0.083
Mof_N 	N 	0.41388	0.08266	0.36585	-0.076
Mof_N 	N 	0.40471	0.13615	0.32375	-0.09
Mof_N 	N 	0.58612	0.08266	0.63415	-0.074
Mof_N 	N 	0.59529	0.13615	0.67625	-0.087
Mof_N 	N 	0.41388	0.91734	0.63415	-0.059
Mof_N 	N 	0.40471	0.86385	0.67625	-0.081
Mof_N 	N 	0.58612	0.91734	0.36585	-0.06
Mof_N 	N 	0.59529	0.86385	0.32375	-0.083
Mof_N 	N 	0.41388	0.36585	0.91734	-0.061
Mof_N 	N 	0.40471	0.32375	0.86385	-0.084
Mof_N 	N 	0.58612	0.63415	0.91734	-0.059
Mof_N 	N 	0.59529	0.67625	0.86385	-0.08
Mof_N 	N 	0.41388	0.63415	0.08266	-0.075
Mof_N 	N 	0.40471	0.67625	0.13615	-0.088
Mof_N 	N 	0.58612	0.36585	0.08266	-0.076
Mof_N 	N 	0.59529	0.32375	0.13615	-0.09
Mof_N 	N 	0.36585	0.08266	0.58612	-0.076
Mof_N 	N 	0.32375	0.13615	0.59529	-0.09
Mof_N 	N 	0.63415	0.08266	0.41388	-0.075
Mof_N 	N 	0.67625	0.13615	0.40471	-0.088
Mof_N 	N 	0.63415	0.91734	0.58612	-0.059
Mof_N 	N 	0.67625	0.86385	0.59529	-0.08
Mof_N 	N 	0.36585	0.91734	0.41388	-0.061
Mof_N 	N 	0.32375	0.86385	0.40471	-0.084
Mof_N 	N 	0.08266	0.41388	0.63415	-0.075
Mof_N 	N 	0.13615	0.40471	0.67625	-0.088
Mof_N 	N 	0.08266	0.58612	0.36585	-0.076
Mof_N 	N 	0.13615	0.59529	0.32375	-0.09
Mof_N 	N 	0.91734	0.41388	0.36585	-0.061
Mof_N 	N 	0.86385	0.40471	0.32375	-0.084
Mof_N 	N 	0.91734	0.58612	0.63415	-0.059
Mof_N 	N 	0.86385	0.59529	0.67625	-0.08
Mof_N 	N 	0.63415	0.58612	0.91734	-0.059
Mof_N 	N 	0.67625	0.59529	0.86385	-0.08
Mof_N 	N 	0.36585	0.41388	0.91734	-0.061
Mof_N 	N 	0.32375	0.40471	0.86385	-0.084
Mof_N 	N 	0.36585	0.58612	0.08266	-0.076
Mof_N 	N 	0.32375	0.59529	0.13615	-0.09
Mof_N 	N 	0.63415	0.41388	0.08266	-0.075
Mof_N 	N 	0.67625	0.40471	0.13615	-0.088
Mof_N 	N 	0.91734	0.63415	0.58612	-0.059
Mof_N 	N 	0.86385	0.67625	0.59529	-0.08
Mof_N 	N 	0.91734	0.36585	0.41388	-0.061
Mof_N 	N 	0.86385	0.32375	0.40471	-0.084
Mof_N 	N 	0.08266	0.36585	0.58612	-0.076
Mof_N 	N 	0.13615	0.32375	0.59529	-0.09
Mof_N 	N 	0.08266	0.63415	0.41388	-0.075
Mof_N 	N 	0.13615	0.67625	0.40471	-0.088
Mof_N 	N 	0.58612	0.91734	0.63415	-0.059
Mof_N 	N 	0.59529	0.86385	0.67625	-0.08
Mof_N 	N 	0.41388	0.91734	0.36585	-0.061
Mof_N 	N 	0.40471	0.86385	0.32375	-0.084
Mof_N 	N 	0.58612	0.08266	0.36585	-0.076
Mof_N 	N 	0.59529	0.13615	0.32375	-0.09
Mof_N 	N 	0.41388	0.08266	0.63415	-0.075
Mof_N 	N 	0.40471	0.13615	0.67625	-0.088
Mof_N 	N 	0.58612	0.63415	0.08266	-0.074
Mof_N 	N 	0.59529	0.67625	0.13615	-0.087
Mof_N 	N 	0.41388	0.36585	0.08266	-0.076
Mof_N 	N 	0.40471	0.32375	0.13615	-0.09
Mof_N 	N 	0.58612	0.36585	0.91734	-0.06
Mof_N 	N 	0.59529	0.32375	0.86385	-0.083
Mof_N 	N 	0.41388	0.63415	0.91734	-0.059
Mof_N 	N 	0.40471	0.67625	0.86385	-0.081
Mof_N 	N 	0.63415	0.91734	0.41388	-0.059
Mof_N 	N 	0.67625	0.86385	0.40471	-0.081
Mof_N 	N 	0.36585	0.91734	0.58612	-0.06
Mof_N 	N 	0.32375	0.86385	0.59529	-0.083
Mof_N 	N 	0.36585	0.08266	0.41388	-0.076
Mof_N 	N 	0.32375	0.13615	0.40471	-0.09
Mof_N 	N 	0.63415	0.08266	0.58612	-0.074
Mof_N 	N 	0.67625	0.13615	0.59529	-0.087
Mof_N 	N 	0.91734	0.58612	0.36585	-0.06
Mof_N 	N 	0.86385	0.59529	0.32375	-0.083
Mof_N 	N 	0.91734	0.41388	0.63415	-0.059
Mof_N 	N 	0.86385	0.40471	0.67625	-0.081
Mof_N 	N 	0.08266	0.58612	0.63415	-0.074
Mof_N 	N 	0.13615	0.59529	0.67625	-0.087
Mof_N 	N 	0.08266	0.41388	0.36585	-0.076
Mof_N 	N 	0.13615	0.40471	0.32375	-0.09
Mof_Cd	Cd	0.35542	0.5	-0	0.321
Mof_Cd	Cd	0.64458	0.5	-0	0.327
Mof_Cd	Cd	5.35246e-33	0.35542	0.5	0.321
Mof_Cd	Cd	8.83022e-33	0.64458	0.5	0.327
Mof_Cd	Cd	0.5	0	0.35542	0.321
Mof_Cd	Cd	0.5	0	0.64458	0.327
Mof_Cd	Cd	0.5	0.35542	-0	0.321
Mof_Cd	Cd	0.5	0.64458	-0	0.327
Mof_Cd	Cd	0.35542	3.47776e-33	0.5	0.321
Mof_Cd	Cd	0.64458	3.47776e-33	0.5	0.327
Mof_Cd	Cd	9.37231e-33	0.5	0.64458	0.327
Mof_Cd	Cd	4.81037e-33	0.5	0.35542	0.321
Mof_C 	C 	0.34895	0.34895	0.16773	0.104
Mof_C 	C 	0.31849	0.31849	0.23034	0.035
Mof_C 	C 	0.65105	0.65105	0.16773	0.107
Mof_C 	C 	0.68151	0.68151	0.23034	0.042
Mof_C 	C 	0.65105	0.34895	0.83227	0.11
Mof_C 	C 	0.68151	0.31849	0.76966	0.044
Mof_C 	C 	0.34895	0.65105	0.83227	0.11
Mof_C 	C 	0.31849	0.68151	0.76966	0.044
Mof_C 	C 	0.16773	0.34895	0.34895	0.104
Mof_C 	C 	0.23034	0.31849	0.31849	0.035
Mof_C 	C 	0.16773	0.65105	0.65105	0.107
Mof_C 	C 	0.23034	0.68151	0.68151	0.042
Mof_C 	C 	0.83227	0.65105	0.34895	0.11
Mof_C 	C 	0.76966	0.68151	0.31849	0.044
Mof_C 	C 	0.83227	0.34895	0.65105	0.11
Mof_C 	C 	0.76966	0.31849	0.68151	0.044
Mof_C 	C 	0.34895	0.16773	0.34895	0.104
Mof_C 	C 	0.31849	0.23034	0.31849	0.035
Mof_C 	C 	0.65105	0.16773	0.65105	0.107
Mof_C 	C 	0.68151	0.23034	0.68151	0.042
Mof_C 	C 	0.34895	0.83227	0.65105	0.11
Mof_C 	C 	0.31849	0.76966	0.68151	0.044
Mof_C 	C 	0.65105	0.83227	0.34895	0.11
Mof_C 	C 	0.68151	0.76966	0.31849	0.044
Mof_C 	C 	0.34895	0.34895	0.83227	0.109
Mof_C 	C 	0.31849	0.31849	0.76966	0.041
Mof_C 	C 	0.65105	0.65105	0.83227	0.112
Mof_C 	C 	0.68151	0.68151	0.76966	0.048
Mof_C 	C 	0.34895	0.65105	0.16773	0.106
Mof_C 	C 	0.31849	0.68151	0.23034	0.039
Mof_C 	C 	0.65105	0.34895	0.16773	0.106
Mof_C 	C 	0.68151	0.31849	0.23034	0.039
Mof_C 	C 	0.34895	0.16773	0.65105	0.106
Mof_C 	C 	0.31849	0.23034	0.68151	0.039
Mof_C 	C 	0.65105	0.16773	0.34895	0.106
Mof_C 	C 	0.68151	0.23034	0.31849	0.039
Mof_C 	C 	0.65105	0.83227	0.65105	0.112
Mof_C 	C 	0.68151	0.76966	0.68151	0.048
Mof_C 	C 	0.34895	0.83227	0.34895	0.109
Mof_C 	C 	0.31849	0.76966	0.31849	0.041
Mof_C 	C 	0.16773	0.34895	0.65105	0.106
Mof_C 	C 	0.23034	0.31849	0.68151	0.039
Mof_C 	C 	0.16773	0.65105	0.34895	0.106
Mof_C 	C 	0.23034	0.68151	0.31849	0.039
Mof_C 	C 	0.83227	0.34895	0.34895	0.109
Mof_C 	C 	0.76966	0.31849	0.31849	0.041
Mof_C 	C 	0.83227	0.65105	0.65105	0.112
Mof_C 	C 	0.76966	0.68151	0.68151	0.048
Mof_C 	C 	0.25984	0.34782	0.25984	-0.092
Mof_H 	H 	0.2403	0.3871	0.2403	0.081
Mof_C 	C 	0.74016	0.65218	0.25984	-0.093
Mof_H 	H 	0.7597	0.6129	0.2403	0.088
Mof_C 	C 	0.74016	0.34782	0.74016	-0.093
Mof_H 	H 	0.7597	0.3871	0.7597	0.091
Mof_C 	C 	0.25984	0.65218	0.74016	-0.093
Mof_H 	H 	0.2403	0.6129	0.7597	0.088
Mof_C 	C 	0.25984	0.25984	0.34782	-0.092
Mof_H 	H 	0.2403	0.2403	0.3871	0.081
Mof_C 	C 	0.25984	0.74016	0.65218	-0.093
Mof_H 	H 	0.2403	0.7597	0.6129	0.088
Mof_C 	C 	0.74016	0.74016	0.34782	-0.093
Mof_H 	H 	0.7597	0.7597	0.3871	0.091
Mof_C 	C 	0.74016	0.25984	0.65218	-0.093
Mof_H 	H 	0.7597	0.2403	0.6129	0.088
Mof_C 	C 	0.34782	0.25984	0.25984	-0.092
Mof_H 	H 	0.3871	0.2403	0.2403	0.081
Mof_C 	C 	0.65218	0.25984	0.74016	-0.093
Mof_H 	H 	0.6129	0.2403	0.7597	0.088
Mof_C 	C 	0.34782	0.74016	0.74016	-0.093
Mof_H 	H 	0.3871	0.7597	0.7597	0.091
Mof_C 	C 	0.65218	0.74016	0.25984	-0.093
Mof_H 	H 	0.6129	0.7597	0.2403	0.088
Mof_C 	C 	0.34782	0.25984	0.74016	-0.092
Mof_H 	H 	0.3871	0.2403	0.7597	0.086
Mof_C 	C 	0.65218	0.74016	0.74016	-0.093
Mof_H 	H 	0.6129	0.7597	0.7597	0.092
Mof_C 	C 	0.34782	0.74016	0.25984	-0.092
Mof_H 	H 	0.3871	0.7597	0.2403	0.086
Mof_C 	C 	0.65218	0.25984	0.25984	-0.092
Mof_H 	H 	0.6129	0.2403	0.2403	0.083
Mof_C 	C 	0.25984	0.25984	0.65218	-0.092
Mof_H 	H 	0.2403	0.2403	0.6129	0.083
Mof_C 	C 	0.74016	0.25984	0.34782	-0.092
Mof_H 	H 	0.7597	0.2403	0.3871	0.086
Mof_C 	C 	0.74016	0.74016	0.65218	-0.093
Mof_H 	H 	0.7597	0.7597	0.6129	0.092
Mof_C 	C 	0.25984	0.74016	0.34782	-0.092
Mof_H 	H 	0.2403	0.7597	0.3871	0.086
Mof_C 	C 	0.25984	0.34782	0.74016	-0.092
Mof_H 	H 	0.2403	0.3871	0.7597	0.086
Mof_C 	C 	0.25984	0.65218	0.25984	-0.092
Mof_H 	H 	0.2403	0.6129	0.2403	0.083
Mof_C 	C 	0.74016	0.34782	0.25984	-0.092
Mof_H 	H 	0.7597	0.3871	0.2403	0.086
Mof_C 	C 	0.74016	0.65218	0.74016	-0.093
Mof_H 	H 	0.7597	0.6129	0.7597	0.092
_end
