data_functionalizedCrystal
_audit_creation_method	'EQeq! by Chris Wilmer'
_symmetry_space_group_name_H-M	'P1'
_symmetry_Int_Tables_number	1
_symmetry_cell_setting	triclinic
loop_
_symmetry_equiv_pos_as_xyz
  x,y,z
_cell_length_a	13.486
_cell_length_b	13.486
_cell_length_c	18.31
_cell_angle_alpha	90
_cell_angle_beta	90
_cell_angle_gamma	120
loop_
_atom_site_label
_atom_site_type_symbol
_atom_site_fract_x
_atom_site_fract_y
_atom_site_fract_z
_atom_site_charge
Mof_Fe	Fe	0.29352	0.43733	0.45609	0.985
Mof_P 	P 	0.15791	0.18893	0.3708	0.579
Mof_H 	H 	0.2273	0.1952	0.3491	-0.126
Mof_P 	P 	0.50478	0.63193	0.5528	0.599
Mof_H 	H 	0.5031	0.676	0.5949	-0.118
Mof_O 	O 	0.0659	0.1405	0.31224	-0.356
Mof_O 	O 	0.1308	0.1146	0.43815	-0.365
Mof_O 	O 	0.3281	0.5556	0.38063	-0.334
Mof_O 	O 	0.3817	0.5458	0.5351	-0.364
Mof_O 	O 	0.5739	0.5763	0.5759	-0.355
Mof_O 	O 	0.5665	0.7178	0.4917	-0.362
Mof_O 	O 	0.1848	0.3107	0.389	-0.337
Mof_Fe	Fe	0.56267	0.85619	0.45609	1.043
Mof_P 	P 	0.81107	0.96898	0.3708	0.735
Mof_H 	H 	0.8048	0.0321	0.3491	-0.199
Mof_P 	P 	0.36807	0.87285	0.5528	0.596
Mof_H 	H 	0.324	0.8271	0.5949	-0.119
Mof_O 	O 	0.8595	0.9254	0.31224	-0.287
Mof_O 	O 	0.8854	0.0162	0.43815	-0.37
Mof_O 	O 	0.4444	0.7725	0.38063	-0.325
Mof_O 	O 	0.4542	0.8359	0.5351	-0.356
Mof_O 	O 	0.4237	0.9976	0.5759	-0.305
Mof_O 	O 	0.2822	0.8487	0.4917	-0.342
Mof_O 	O 	0.6893	0.8741	0.389	-0.338
Mof_Fe	Fe	0.14381	0.70648	0.45609	0.931
Mof_P 	P 	0.03102	0.84209	0.3708	0.413
Mof_H 	H 	0.9679	0.7727	0.3491	-0.029
Mof_P 	P 	0.12715	0.49522	0.5528	0.597
Mof_H 	H 	0.1729	0.4969	0.5949	-0.124
Mof_O 	O 	0.0746	0.9341	0.31224	-0.266
Mof_O 	O 	0.9838	0.8692	0.43815	-0.235
Mof_O 	O 	0.2275	0.6719	0.38063	-0.334
Mof_O 	O 	0.1641	0.6183	0.5351	-0.371
Mof_O 	O 	0.0024	0.4261	0.5759	-0.408
Mof_O 	O 	0.1513	0.4335	0.4917	-0.373
Mof_O 	O 	0.1259	0.8152	0.389	-0.304
Mof_Fe	Fe	0.43733	0.29352	0.04391	0.965
Mof_P 	P 	0.18893	0.15791	0.1292	0.576
Mof_H 	H 	0.1952	0.2273	0.1509	-0.127
Mof_P 	P 	0.63193	0.50478	0.9472	0.618
Mof_H 	H 	0.676	0.5031	0.9051	-0.122
Mof_O 	O 	0.1405	0.0659	0.18776	-0.357
Mof_O 	O 	0.1146	0.1308	0.06185	-0.368
Mof_O 	O 	0.5556	0.3281	0.11937	-0.335
Mof_O 	O 	0.5458	0.3817	0.9649	-0.351
Mof_O 	O 	0.5763	0.5739	0.9241	-0.354
Mof_O 	O 	0.7178	0.5665	0.0083	-0.38
Mof_O 	O 	0.3107	0.1848	0.111	-0.337
Mof_Fe	Fe	0.85619	0.56267	0.04391	1.021
Mof_P 	P 	0.96898	0.81107	0.1292	0.722
Mof_H 	H 	0.0321	0.8048	0.1509	-0.193
Mof_P 	P 	0.87285	0.36807	0.9472	0.619
Mof_H 	H 	0.8271	0.324	0.9051	-0.122
Mof_O 	O 	0.9254	0.8595	0.18776	-0.285
Mof_O 	O 	0.0162	0.8854	0.06185	-0.365
Mof_O 	O 	0.7725	0.4444	0.11937	-0.325
Mof_O 	O 	0.8359	0.4542	0.9649	-0.344
Mof_O 	O 	0.9976	0.4237	0.9241	-0.302
Mof_O 	O 	0.8487	0.2822	0.0083	-0.362
Mof_O 	O 	0.8741	0.6893	0.111	-0.336
Mof_Fe	Fe	0.70648	0.14381	0.04391	0.907
Mof_P 	P 	0.84209	0.03102	0.1292	0.4
Mof_H 	H 	0.7727	0.9679	0.1509	-0.023
Mof_P 	P 	0.49522	0.12715	0.9472	0.619
Mof_H 	H 	0.4969	0.1729	0.9051	-0.127
Mof_O 	O 	0.9341	0.0746	0.18776	-0.267
Mof_O 	O 	0.8692	0.9838	0.06185	-0.233
Mof_O 	O 	0.6719	0.2275	0.11937	-0.334
Mof_O 	O 	0.6183	0.1641	0.9649	-0.356
Mof_O 	O 	0.4261	0.0024	0.9241	-0.403
Mof_O 	O 	0.4335	0.1513	0.0083	-0.392
Mof_O 	O 	0.8152	0.1259	0.111	-0.303
Mof_Fe	Fe	0.70648	0.56267	0.54391	0.988
Mof_P 	P 	0.84209	0.81107	0.6292	0.57
Mof_H 	H 	0.7727	0.8048	0.6509	-0.108
Mof_P 	P 	0.49522	0.36807	0.4472	0.596
Mof_H 	H 	0.4969	0.324	0.4051	-0.122
Mof_O 	O 	0.9341	0.8595	0.68776	-0.255
Mof_O 	O 	0.8692	0.8854	0.56185	-0.284
Mof_O 	O 	0.6719	0.4444	0.61937	-0.328
Mof_O 	O 	0.6183	0.4542	0.4649	-0.363
Mof_O 	O 	0.4261	0.4237	0.4241	-0.356
Mof_O 	O 	0.4335	0.2822	0.5083	-0.356
Mof_O 	O 	0.8152	0.6893	0.611	-0.316
Mof_Fe	Fe	0.43733	0.14381	0.54391	0.926
Mof_P 	P 	0.18893	0.03102	0.6292	0.398
Mof_H 	H 	0.1952	0.9679	0.6509	-0.027
Mof_P 	P 	0.63193	0.12715	0.4472	0.598
Mof_H 	H 	0.676	0.1729	0.4051	-0.122
Mof_O 	O 	0.1405	0.0746	0.68776	-0.321
Mof_O 	O 	0.1146	0.9838	0.56185	-0.264
Mof_O 	O 	0.5556	0.2275	0.61937	-0.337
Mof_O 	O 	0.5458	0.1641	0.4649	-0.371
Mof_O 	O 	0.5763	0.0024	0.4241	-0.406
Mof_O 	O 	0.7178	0.1513	0.5083	-0.375
Mof_O 	O 	0.3107	0.1259	0.611	-0.313
Mof_Fe	Fe	0.85619	0.29352	0.54391	1.045
Mof_P 	P 	0.96898	0.15791	0.6292	0.759
Mof_H 	H 	0.0321	0.2273	0.6509	-0.219
Mof_P 	P 	0.87285	0.50478	0.4472	0.597
Mof_H 	H 	0.8271	0.5031	0.4051	-0.117
Mof_O 	O 	0.9254	0.0659	0.68776	-0.335
Mof_O 	O 	0.0162	0.1308	0.56185	-0.421
Mof_O 	O 	0.7725	0.3281	0.61937	-0.328
Mof_O 	O 	0.8359	0.3817	0.4649	-0.357
Mof_O 	O 	0.9976	0.5739	0.4241	-0.306
Mof_O 	O 	0.8487	0.5665	0.5083	-0.346
Mof_O 	O 	0.8741	0.1848	0.611	-0.349
Mof_Fe	Fe	0.56267	0.70648	0.95609	1.005
Mof_P 	P 	0.81107	0.84209	0.8708	0.568
Mof_H 	H 	0.8048	0.7727	0.8491	-0.106
Mof_P 	P 	0.36807	0.49522	0.0528	0.577
Mof_H 	H 	0.324	0.4969	0.0949	-0.119
Mof_O 	O 	0.8595	0.9341	0.81224	-0.255
Mof_O 	O 	0.8854	0.8692	0.93815	-0.27
Mof_O 	O 	0.4444	0.6719	0.88063	-0.328
Mof_O 	O 	0.4542	0.6183	0.0351	-0.374
Mof_O 	O 	0.4237	0.4261	0.0759	-0.357
Mof_O 	O 	0.2822	0.4335	0.9917	-0.338
Mof_O 	O 	0.6893	0.8152	0.889	-0.316
Mof_Fe	Fe	0.14381	0.43733	0.95609	0.942
Mof_P 	P 	0.03102	0.18893	0.8708	0.389
Mof_H 	H 	0.9679	0.1952	0.8491	-0.02
Mof_P 	P 	0.12715	0.63193	0.0528	0.582
Mof_H 	H 	0.1729	0.676	0.0949	-0.119
Mof_O 	O 	0.0746	0.1405	0.81224	-0.319
Mof_O 	O 	0.9838	0.1146	0.93815	-0.243
Mof_O 	O 	0.2275	0.5556	0.88063	-0.337
Mof_O 	O 	0.1641	0.5458	0.0351	-0.381
Mof_O 	O 	0.0024	0.5763	0.0759	-0.404
Mof_O 	O 	0.1513	0.7178	0.9917	-0.361
Mof_O 	O 	0.1259	0.3107	0.889	-0.311
Mof_Fe	Fe	0.29352	0.85619	0.95609	1.055
Mof_P 	P 	0.15791	0.96898	0.8708	0.744
Mof_H 	H 	0.2273	0.0321	0.8491	-0.21
Mof_P 	P 	0.50478	0.87285	0.0528	0.58
Mof_H 	H 	0.5031	0.8271	0.0949	-0.114
Mof_O 	O 	0.0659	0.9254	0.81224	-0.335
Mof_O 	O 	0.1308	0.0162	0.93815	-0.4
Mof_O 	O 	0.3281	0.7725	0.88063	-0.329
Mof_O 	O 	0.3817	0.8359	0.0351	-0.365
Mof_O 	O 	0.5739	0.9976	0.0759	-0.303
Mof_O 	O 	0.5665	0.8487	0.9917	-0.332
Mof_O 	O 	0.1848	0.8741	0.889	-0.348
Mof_Fe	Fe	-8.75317e-33	8.75317e-33	0.25	0.83
Mof_Fe	Fe	1.75063e-32	0	0.75	0.834
Mof_Fe	Fe	-1.75063e-32	1.75063e-32	0.5	0.827
Mof_Fe	Fe	-0	0	-0	0.786
Mof_P 	P 	0.33333	0.66667	0.36092	0.495
Mof_P 	P 	0.66667	0.33333	0.13908	0.492
Mof_P 	P 	0.66667	0.33333	0.63908	0.496
Mof_P 	P 	0.33333	0.66667	0.86092	0.497
_end
