# CIF file generated by openbabel 3.1.0, see https://openbabel.org
data_I
_chemical_name_common 'image0'
_cell_length_a 6.9795
_cell_length_b 29.501
_cell_length_c 15.8327
_cell_angle_alpha 90
_cell_angle_beta 101.455
_cell_angle_gamma 90
_space_group_name_H-M_alt 'P 1'
_space_group_name_Hall 'P 1'
loop_
    _symmetry_equiv_pos_as_xyz
    x,y,z
loop_
    _atom_site_label
    _atom_site_type_symbol
    _atom_site_fract_x
    _atom_site_fract_y
    _atom_site_fract_z
    _atom_site_occupancy
    U1       U        0.98260    0.46394    0.84795    1.000
    O1       O        0.80130    0.42760    0.71600    1.000
    O2       O        0.65120    0.48327    0.76910    1.000
    O3       O        0.25210    0.46833    0.96610    1.000
    O4       O        0.12410    0.47161    0.08470    1.000
    O5       O        0.17200    0.09559    0.31810    1.000
    O6       O        0.01410    0.15932    0.26930    1.000
    N1       N        0.09750    0.40201    0.59010    1.000
    N2       N        0.76150    0.39618    0.18800    1.000
    N3       N        0.69710    0.21035    0.37680    1.000
    C1       C        0.64780    0.44970    0.71920    1.000
    C2       C        0.45590    0.43380    0.66960    1.000
    C3       C        0.29800    0.46280    0.65160    1.000
    H1       H        0.31290    0.49400    0.66630    1.000
    C4       C        0.11640    0.44580    0.61140    1.000
    H2       H        0.00610    0.46530    0.59930    1.000
    C5       C        0.25090    0.37330    0.60640    1.000
    H3       H        0.23240    0.34220    0.59110    1.000
    C6       C        0.43330    0.38840    0.64490    1.000
    H4       H        0.54210    0.36840    0.65450    1.000
    C7       C        0.25790    0.46130    0.04500    1.000
    C8       C        0.43610    0.43830    0.09610    1.000
    C9       C        0.44140    0.42380    0.17890    1.000
    H5       H        0.33190    0.42840    0.20520    1.000
    C10      C        0.60690    0.40250    0.22360    1.000
    H6       H        0.61000    0.39220    0.28070    1.000
    C11      C        0.76030    0.40950    0.10610    1.000
    H7       H        0.87170    0.40430    0.08140    1.000
    C12      C        0.59810    0.43050    0.05870    1.000
    H8       H        0.59630    0.43950    0.00100    1.000
    C13      C        0.15950    0.13780    0.30310    1.000
    C14      C        0.35110    0.16350    0.32940    1.000
    C15      C        0.36320    0.20910    0.30880    1.000
    H9       H        0.25220    0.22440    0.27720    1.000
    C16      C        0.53810    0.23190    0.33470    1.000
    H10      H        0.54530    0.26330    0.32240    1.000
    C17      C        0.68840    0.16600    0.39640    1.000
    H11      H        0.80140    0.15120    0.42760    1.000
    C18      C        0.52080    0.14240    0.37210    1.000
    H12      H        0.51880    0.11080    0.38430    1.000
    C19      C        0.90350    0.35560    0.47180    1.000
    C20      C        0.92770    0.37860    0.39630    1.000
    C21      C        0.92440    0.35380    0.32120    1.000
    C22      C        0.89850    0.30670    0.31920    1.000
    C23      C        0.88930    0.28390    0.39660    1.000
    C24      C        0.88480    0.30790    0.47300    1.000
    C25      C        0.90100    0.38350    0.55130    1.000
    H13      H        0.80800    0.40890    0.53620    1.000
    H14      H        0.85410    0.36440    0.59450    1.000
    C26      C        0.95520    0.42950    0.39820    1.000
    H15      H        0.93120    0.44120    0.33920    1.000
    H16      H        0.08930    0.43680    0.42700    1.000
    H17      H        0.86310    0.44340    0.42980    1.000
    C27      C        0.94960    0.37740    0.23990    1.000
    H18      H        0.00590    0.35580    0.20370    1.000
    H19      H        0.04400    0.40260    0.25520    1.000
    C28      C        0.88180    0.28090    0.23510    1.000
    H20      H        0.84640    0.24930    0.24360    1.000
    H21      H        0.00740    0.28180    0.21640    1.000
    H22      H        0.78070    0.29490    0.19100    1.000
    C29      C        0.89440    0.23300    0.39890    1.000
    H23      H        0.95990    0.22320    0.45730    1.000
    H24      H        0.97490    0.22220    0.35800    1.000
    C30      C        0.86390    0.28300    0.55250    1.000
    H25      H        0.80060    0.30270    0.58870    1.000
    H26      H        0.99350    0.27410    0.58450    1.000
    H27      H        0.78400    0.25580    0.53670    1.000
    U2       U        0.01740    0.96394    0.65205    1.000
    O7       O        0.19870    0.92760    0.78400    1.000
    O8       O        0.34880    0.98327    0.73090    1.000
    O9       O        0.74790    0.96833    0.53390    1.000
    O10      O        0.87590    0.97161    0.41530    1.000
    O11      O        0.82800    0.59559    0.18190    1.000
    O12      O        0.98590    0.65932    0.23070    1.000
    N4       N        0.90250    0.90201    0.90990    1.000
    N5       N        0.23850    0.89618    0.31200    1.000
    N6       N        0.30290    0.71035    0.12320    1.000
    C31      C        0.35220    0.94970    0.78080    1.000
    C32      C        0.54410    0.93380    0.83040    1.000
    C33      C        0.70200    0.96280    0.84840    1.000
    H28      H        0.68710    0.99400    0.83370    1.000
    C34      C        0.88360    0.94580    0.88860    1.000
    H29      H        0.99390    0.96530    0.90070    1.000
    C35      C        0.74910    0.87330    0.89360    1.000
    H30      H        0.76760    0.84220    0.90890    1.000
    C36      C        0.56670    0.88840    0.85510    1.000
    H31      H        0.45790    0.86840    0.84550    1.000
    C37      C        0.74210    0.96130    0.45500    1.000
    C38      C        0.56390    0.93830    0.40390    1.000
    C39      C        0.55860    0.92380    0.32110    1.000
    H32      H        0.66810    0.92840    0.29480    1.000
    C40      C        0.39310    0.90250    0.27640    1.000
    H33      H        0.39000    0.89220    0.21930    1.000
    C41      C        0.23970    0.90950    0.39390    1.000
    H34      H        0.12830    0.90430    0.41860    1.000
    C42      C        0.40190    0.93050    0.44130    1.000
    H35      H        0.40370    0.93950    0.49900    1.000
    C43      C        0.84050    0.63780    0.19690    1.000
    C44      C        0.64890    0.66350    0.17060    1.000
    C45      C        0.63680    0.70910    0.19120    1.000
    H36      H        0.74780    0.72440    0.22280    1.000
    C46      C        0.46190    0.73190    0.16530    1.000
    H37      H        0.45470    0.76330    0.17760    1.000
    C47      C        0.31160    0.66600    0.10360    1.000
    H38      H        0.19860    0.65120    0.07240    1.000
    C48      C        0.47920    0.64240    0.12790    1.000
    H39      H        0.48120    0.61080    0.11570    1.000
    C49      C        0.09650    0.85560    0.02820    1.000
    C50      C        0.07230    0.87860    0.10370    1.000
    C51      C        0.07560    0.85380    0.17880    1.000
    C52      C        0.10150    0.80670    0.18080    1.000
    C53      C        0.11070    0.78390    0.10340    1.000
    C54      C        0.11520    0.80790    0.02700    1.000
    C55      C        0.09900    0.88350    0.94870    1.000
    H40      H        0.19200    0.90890    0.96380    1.000
    H41      H        0.14590    0.86440    0.90550    1.000
    C56      C        0.04480    0.92950    0.10180    1.000
    H42      H        0.06880    0.94120    0.16080    1.000
    H43      H        0.91070    0.93680    0.07300    1.000
    H44      H        0.13690    0.94340    0.07020    1.000
    C57      C        0.05040    0.87740    0.26010    1.000
    H45      H        0.99410    0.85580    0.29630    1.000
    H46      H        0.95600    0.90260    0.24480    1.000
    C58      C        0.11820    0.78090    0.26490    1.000
    H47      H        0.15360    0.74930    0.25640    1.000
    H48      H        0.99260    0.78180    0.28360    1.000
    H49      H        0.21930    0.79490    0.30900    1.000
    C59      C        0.10560    0.73300    0.10110    1.000
    H50      H        0.04010    0.72320    0.04270    1.000
    H51      H        0.02510    0.72220    0.14200    1.000
    C60      C        0.13610    0.78300    0.94750    1.000
    H52      H        0.19940    0.80270    0.91130    1.000
    H53      H        0.00650    0.77410    0.91550    1.000
    H54      H        0.21600    0.75580    0.96330    1.000
    U3       U        0.01740    0.53606    0.15205    1.000
    O13      O        0.19870    0.57240    0.28400    1.000
    O14      O        0.34880    0.51673    0.23090    1.000
    O15      O        0.74790    0.53167    0.03390    1.000
    O16      O        0.87590    0.52839    0.91530    1.000
    O17      O        0.82800    0.90441    0.68190    1.000
    O18      O        0.98590    0.84068    0.73070    1.000
    N7       N        0.90250    0.59799    0.40990    1.000
    N8       N        0.23850    0.60382    0.81200    1.000
    N9       N        0.30290    0.78965    0.62320    1.000
    C61      C        0.35220    0.55030    0.28080    1.000
    C62      C        0.54410    0.56620    0.33040    1.000
    C63      C        0.70200    0.53720    0.34840    1.000
    H55      H        0.68710    0.50600    0.33370    1.000
    C64      C        0.88360    0.55420    0.38860    1.000
    H56      H        0.99390    0.53470    0.40070    1.000
    C65      C        0.74910    0.62670    0.39360    1.000
    H57      H        0.76760    0.65780    0.40890    1.000
    C66      C        0.56670    0.61160    0.35510    1.000
    H58      H        0.45790    0.63160    0.34550    1.000
    C67      C        0.74210    0.53870    0.95500    1.000
    C68      C        0.56390    0.56170    0.90390    1.000
    C69      C        0.55860    0.57620    0.82110    1.000
    H59      H        0.66810    0.57160    0.79480    1.000
    C70      C        0.39310    0.59750    0.77640    1.000
    H60      H        0.39000    0.60780    0.71930    1.000
    C71      C        0.23970    0.59050    0.89390    1.000
    H61      H        0.12830    0.59570    0.91860    1.000
    C72      C        0.40190    0.56950    0.94130    1.000
    H62      H        0.40370    0.56050    0.99900    1.000
    C73      C        0.84050    0.86220    0.69690    1.000
    C74      C        0.64890    0.83650    0.67060    1.000
    C75      C        0.63680    0.79090    0.69120    1.000
    H63      H        0.74780    0.77560    0.72280    1.000
    C76      C        0.46190    0.76810    0.66530    1.000
    H64      H        0.45470    0.73670    0.67760    1.000
    C77      C        0.31160    0.83400    0.60360    1.000
    H65      H        0.19860    0.84880    0.57240    1.000
    C78      C        0.47920    0.85760    0.62790    1.000
    H66      H        0.48120    0.88920    0.61570    1.000
    C79      C        0.09650    0.64440    0.52820    1.000
    C80      C        0.07230    0.62140    0.60370    1.000
    C81      C        0.07560    0.64620    0.67880    1.000
    C82      C        0.10150    0.69330    0.68080    1.000
    C83      C        0.11070    0.71610    0.60340    1.000
    C84      C        0.11520    0.69210    0.52700    1.000
    C85      C        0.09900    0.61650    0.44870    1.000
    H67      H        0.19200    0.59110    0.46380    1.000
    H68      H        0.14590    0.63560    0.40550    1.000
    C86      C        0.04480    0.57050    0.60180    1.000
    H69      H        0.06880    0.55880    0.66080    1.000
    H70      H        0.91070    0.56320    0.57300    1.000
    H71      H        0.13690    0.55660    0.57020    1.000
    C87      C        0.05040    0.62260    0.76010    1.000
    H72      H        0.99410    0.64420    0.79630    1.000
    H73      H        0.95600    0.59740    0.74480    1.000
    C88      C        0.11820    0.71910    0.76490    1.000
    H74      H        0.15360    0.75070    0.75640    1.000
    H75      H        0.99260    0.71820    0.78360    1.000
    H76      H        0.21930    0.70510    0.80900    1.000
    C89      C        0.10560    0.76700    0.60110    1.000
    H77      H        0.04010    0.77680    0.54270    1.000
    H78      H        0.02510    0.77780    0.64200    1.000
    C90      C        0.13610    0.71700    0.44750    1.000
    H79      H        0.19940    0.69730    0.41130    1.000
    H80      H        0.00650    0.72590    0.41550    1.000
    H81      H        0.21600    0.74420    0.46330    1.000
    U4       U        0.98260    0.03606    0.34795    1.000
    O19      O        0.80130    0.07240    0.21600    1.000
    O20      O        0.65120    0.01673    0.26910    1.000
    O21      O        0.25210    0.03167    0.46610    1.000
    O22      O        0.12410    0.02839    0.58470    1.000
    O23      O        0.17200    0.40441    0.81810    1.000
    O24      O        0.01410    0.34068    0.76930    1.000
    N10      N        0.09750    0.09799    0.09010    1.000
    N11      N        0.76150    0.10382    0.68800    1.000
    N12      N        0.69710    0.28965    0.87680    1.000
    C91      C        0.64780    0.05030    0.21920    1.000
    C92      C        0.45590    0.06620    0.16960    1.000
    C93      C        0.29800    0.03720    0.15160    1.000
    H82      H        0.31290    0.00600    0.16630    1.000
    C94      C        0.11640    0.05420    0.11140    1.000
    H83      H        0.00610    0.03470    0.09930    1.000
    C95      C        0.25090    0.12670    0.10640    1.000
    H84      H        0.23240    0.15780    0.09110    1.000
    C96      C        0.43330    0.11160    0.14490    1.000
    H85      H        0.54210    0.13160    0.15450    1.000
    C97      C        0.25790    0.03870    0.54500    1.000
    C98      C        0.43610    0.06170    0.59610    1.000
    C99      C        0.44140    0.07620    0.67890    1.000
    H86      H        0.33190    0.07160    0.70520    1.000
    C100     C        0.60690    0.09750    0.72360    1.000
    H87      H        0.61000    0.10780    0.78070    1.000
    C101     C        0.76030    0.09050    0.60610    1.000
    H88      H        0.87170    0.09570    0.58140    1.000
    C102     C        0.59810    0.06950    0.55870    1.000
    H89      H        0.59630    0.06050    0.50100    1.000
    C103     C        0.15950    0.36220    0.80310    1.000
    C104     C        0.35110    0.33650    0.82940    1.000
    C105     C        0.36320    0.29090    0.80880    1.000
    H90      H        0.25220    0.27560    0.77720    1.000
    C106     C        0.53810    0.26810    0.83470    1.000
    H91      H        0.54530    0.23670    0.82240    1.000
    C107     C        0.68840    0.33400    0.89640    1.000
    H92      H        0.80140    0.34880    0.92760    1.000
    C108     C        0.52080    0.35760    0.87210    1.000
    H93      H        0.51880    0.38920    0.88430    1.000
    C109     C        0.90350    0.14440    0.97180    1.000
    C110     C        0.92770    0.12140    0.89630    1.000
    C111     C        0.92440    0.14620    0.82120    1.000
    C112     C        0.89850    0.19330    0.81920    1.000
    C113     C        0.88930    0.21610    0.89660    1.000
    C114     C        0.88480    0.19210    0.97300    1.000
    C115     C        0.90100    0.11650    0.05130    1.000
    H94      H        0.80800    0.09110    0.03620    1.000
    H95      H        0.85410    0.13560    0.09450    1.000
    C116     C        0.95520    0.07050    0.89820    1.000
    H96      H        0.93120    0.05880    0.83920    1.000
    H97      H        0.08930    0.06320    0.92700    1.000
    H98      H        0.86310    0.05660    0.92980    1.000
    C117     C        0.94960    0.12260    0.73990    1.000
    H99      H        0.00590    0.14420    0.70370    1.000
    H100     H        0.04400    0.09740    0.75520    1.000
    C118     C        0.88180    0.21910    0.73510    1.000
    H101     H        0.84640    0.25070    0.74360    1.000
    H102     H        0.00740    0.21820    0.71640    1.000
    H103     H        0.78070    0.20510    0.69100    1.000
    C119     C        0.89440    0.26700    0.89890    1.000
    H104     H        0.95990    0.27680    0.95730    1.000
    H105     H        0.97490    0.27780    0.85800    1.000
    C120     C        0.86390    0.21700    0.05250    1.000
    H106     H        0.80060    0.19730    0.08870    1.000
    H107     H        0.99350    0.22590    0.08450    1.000
    H108     H        0.78400    0.24420    0.03670    1.000
