data_functionalizedCrystal
_audit_creation_method	'EQeq! by Chris Wilmer'
_symmetry_space_group_name_H-M	'P1'
_symmetry_Int_Tables_number	1
_symmetry_cell_setting	triclinic
loop_
_symmetry_equiv_pos_as_xyz
  x,y,z
_cell_length_a	21.628
_cell_length_b	13.998
_cell_length_c	8.945
_cell_angle_alpha	90
_cell_angle_beta	90
_cell_angle_gamma	90
loop_
_atom_site_label
_atom_site_type_symbol
_atom_site_fract_x
_atom_site_fract_y
_atom_site_fract_z
_atom_site_charge
Mof_N 	N 	0.0632	0.2846	0.053	-0.132
Mof_N 	N 	0.2018	0.3581	0.0628	-0.127
Mof_C 	C 	0.0326	0.2946	0.9526	-0.002
Mof_C 	C 	0.2252	0.3871	0.9568	-0.007
Mof_N 	N 	0.4368	0.7846	0.947	-0.133
Mof_N 	N 	0.2982	0.8581	0.9372	-0.127
Mof_C 	C 	0.4674	0.7946	0.0474	-0.003
Mof_C 	C 	0.2748	0.8871	0.0432	-0.008
Mof_N 	N 	0.9368	0.7154	0.553	-0.134
Mof_N 	N 	0.7982	0.6419	0.5628	-0.128
Mof_C 	C 	0.9674	0.7054	0.4526	-0.002
Mof_C 	C 	0.7748	0.6129	0.4568	-0.007
Mof_N 	N 	0.5632	0.2154	0.447	-0.134
Mof_N 	N 	0.7018	0.1419	0.4372	-0.128
Mof_C 	C 	0.5326	0.2054	0.5474	-0.002
Mof_C 	C 	0.7252	0.1129	0.5432	-0.007
Mof_N 	N 	0.9368	0.7154	0.947	-0.133
Mof_N 	N 	0.7982	0.6419	0.9372	-0.128
Mof_C 	C 	0.9674	0.7054	0.0474	-0.002
Mof_C 	C 	0.7748	0.6129	0.0432	-0.007
Mof_N 	N 	0.5632	0.2154	0.053	-0.133
Mof_N 	N 	0.7018	0.1419	0.0628	-0.127
Mof_C 	C 	0.5326	0.2054	0.9526	-0.003
Mof_C 	C 	0.7252	0.1129	0.9568	-0.008
Mof_N 	N 	0.0632	0.2846	0.447	-0.134
Mof_N 	N 	0.2018	0.3581	0.4372	-0.128
Mof_C 	C 	0.0326	0.2946	0.5474	-0.002
Mof_C 	C 	0.2252	0.3871	0.5432	-0.007
Mof_N 	N 	0.4368	0.7846	0.553	-0.134
Mof_N 	N 	0.2982	0.8581	0.5628	-0.128
Mof_C 	C 	0.4674	0.7946	0.4526	-0.002
Mof_C 	C 	0.2748	0.8871	0.4568	-0.007
Mof_Cd	Cd	0.13	0.31264	0.25	0.384
Mof_N 	N 	0.0949	0.4691	0.25	-0.133
Mof_N 	N 	0.1678	0.1542	0.25	-0.13
Mof_C 	C 	0.0695	0.5385	0.25	-0.003
Mof_C 	C 	0.1877	0.0785	0.25	-0.004
Mof_Cd	Cd	0.37	0.81264	0.75	0.384
Mof_N 	N 	0.4051	0.9691	0.75	-0.132
Mof_N 	N 	0.3322	0.6542	0.75	-0.13
Mof_C 	C 	0.4305	0.0385	0.75	-0.004
Mof_C 	C 	0.3123	0.5785	0.75	-0.005
Mof_Cd	Cd	0.87	0.68736	0.75	0.384
Mof_N 	N 	0.9051	0.5309	0.75	-0.133
Mof_N 	N 	0.8322	0.8458	0.75	-0.13
Mof_C 	C 	0.9305	0.4615	0.75	-0.003
Mof_C 	C 	0.8123	0.9215	0.75	-0.004
Mof_Cd	Cd	0.63	0.18736	0.25	0.384
Mof_N 	N 	0.5949	0.0309	0.25	-0.132
Mof_N 	N 	0.6678	0.3458	0.25	-0.13
Mof_C 	C 	0.5695	0.9615	0.25	-0.004
Mof_C 	C 	0.6877	0.4215	0.25	-0.005
Mof_Cd	Cd	0.27139	0.4339	0.75	0.276
Mof_Cd	Cd	0.9751	0.31989	0.75	0.272
Mof_C 	C 	0.8943	0.2191	0.75	-0.064
Mof_C 	C 	0.3531	0.3321	0.75	-0.057
Mof_Cd	Cd	0.22861	0.9339	0.25	0.275
Mof_Cd	Cd	0.5249	0.81989	0.25	0.273
Mof_C 	C 	0.6057	0.7191	0.25	-0.063
Mof_C 	C 	0.1469	0.8321	0.25	-0.057
Mof_Cd	Cd	0.72861	0.5661	0.25	0.276
Mof_Cd	Cd	0.0249	0.68011	0.25	0.272
Mof_C 	C 	0.1057	0.7809	0.25	-0.064
Mof_C 	C 	0.6469	0.6679	0.25	-0.057
Mof_Cd	Cd	0.77139	0.0661	0.75	0.275
Mof_Cd	Cd	0.4751	0.18011	0.75	0.273
Mof_C 	C 	0.3943	0.2809	0.75	-0.063
Mof_C 	C 	0.8531	0.1679	0.75	-0.057
_end
