# CIF file generated by openbabel 3.1.0, see https://openbabel.org
data_I
_chemical_name_common 'image0'
_cell_length_a 19.4476
_cell_length_b 19.4476
_cell_length_c 24.1299
_cell_angle_alpha 90
_cell_angle_beta 90
_cell_angle_gamma 90
_space_group_name_H-M_alt 'P 1'
_space_group_name_Hall 'P 1'
loop_
    _symmetry_equiv_pos_as_xyz
    x,y,z
loop_
    _atom_site_label
    _atom_site_type_symbol
    _atom_site_fract_x
    _atom_site_fract_y
    _atom_site_fract_z
    _atom_site_occupancy
    Cu1      Cu       0.23190    0.22359    0.29834    1.000
    O1       O        0.21130    0.31840    0.31580    1.000
    O2       O        0.94310    0.07010    0.05840    1.000
    O3       O        0.23970    0.36430    0.23580    1.000
    O4       O        0.14230    0.21320    0.26310    1.000
    O5       O        0.17220    0.25960    0.18130    1.000
    C1       C        0.15440    0.43880    0.35120    1.000
    H1       H        0.13880    0.39630    0.36600    1.000
    C2       C        0.13100    0.22810    0.21300    1.000
    C3       C        0.19520    0.43790    0.30570    1.000
    C4       C        0.21940    0.36720    0.28430    1.000
    C5       C        0.06120    0.16490    0.14630    1.000
    H2       H        0.10320    0.14900    0.13080    1.000
    C6       C        0.06330    0.20990    0.18920    1.000
    O6       O        0.07000    0.44020    0.44310    1.000
    H3       H        0.22370    0.54460    0.16380    1.000
    H4       H        0.16900    0.49190    0.18930    1.000
    H5       H        0.23590    0.46350    0.15820    1.000
    Cu2      Cu       0.73190    0.72359    0.79834    1.000
    O7       O        0.71130    0.81840    0.81580    1.000
    O8       O        0.44310    0.57010    0.55840    1.000
    O9       O        0.73970    0.86430    0.73580    1.000
    O10      O        0.64230    0.71320    0.76310    1.000
    O11      O        0.67220    0.75960    0.68130    1.000
    C7       C        0.65440    0.93880    0.85120    1.000
    H6       H        0.63880    0.89630    0.86600    1.000
    C8       C        0.63100    0.72810    0.71300    1.000
    C9       C        0.69520    0.93790    0.80570    1.000
    C10      C        0.71940    0.86720    0.78430    1.000
    C11      C        0.56120    0.66490    0.64630    1.000
    H7       H        0.60320    0.64900    0.63080    1.000
    C12      C        0.56330    0.70990    0.68920    1.000
    O12      O        0.57000    0.94020    0.94310    1.000
    H8       H        0.72370    0.04460    0.66380    1.000
    H9       H        0.66900    0.99190    0.68930    1.000
    H10      H        0.73590    0.96350    0.65820    1.000
    Cu3      Cu       0.76810    0.77641    0.29834    1.000
    O13      O        0.78870    0.68160    0.31580    1.000
    O14      O        0.05690    0.92990    0.05840    1.000
    O15      O        0.76030    0.63570    0.23580    1.000
    O16      O        0.85770    0.78680    0.26310    1.000
    O17      O        0.82780    0.74040    0.18130    1.000
    C13      C        0.84560    0.56120    0.35120    1.000
    H11      H        0.86120    0.60370    0.36600    1.000
    C14      C        0.86900    0.77190    0.21300    1.000
    C15      C        0.80480    0.56210    0.30570    1.000
    C16      C        0.78060    0.63280    0.28430    1.000
    C17      C        0.93880    0.83510    0.14630    1.000
    H12      H        0.89680    0.85100    0.13080    1.000
    C18      C        0.93670    0.79010    0.18920    1.000
    O18      O        0.93000    0.55980    0.44310    1.000
    H13      H        0.77630    0.45540    0.16380    1.000
    H14      H        0.83100    0.50810    0.18930    1.000
    H15      H        0.76410    0.53650    0.15820    1.000
    Cu4      Cu       0.26810    0.27641    0.79834    1.000
    O19      O        0.28870    0.18160    0.81580    1.000
    O20      O        0.55690    0.42990    0.55840    1.000
    O21      O        0.26030    0.13570    0.73580    1.000
    O22      O        0.35770    0.28680    0.76310    1.000
    O23      O        0.32780    0.24040    0.68130    1.000
    C19      C        0.34560    0.06120    0.85120    1.000
    H16      H        0.36120    0.10370    0.86600    1.000
    C20      C        0.36900    0.27190    0.71300    1.000
    C21      C        0.30480    0.06210    0.80570    1.000
    C22      C        0.28060    0.13280    0.78430    1.000
    C23      C        0.43880    0.33510    0.64630    1.000
    H17      H        0.39680    0.35100    0.63080    1.000
    C24      C        0.43670    0.29010    0.68920    1.000
    O24      O        0.43000    0.05980    0.94310    1.000
    H18      H        0.27630    0.95540    0.66380    1.000
    H19      H        0.33100    0.00810    0.68930    1.000
    H20      H        0.26410    0.03650    0.65820    1.000
    Cu5      Cu       0.76810    0.22359    0.70166    1.000
    O25      O        0.78870    0.31840    0.68420    1.000
    O26      O        0.05690    0.07010    0.94160    1.000
    O27      O        0.76030    0.36430    0.76420    1.000
    O28      O        0.85770    0.21320    0.73690    1.000
    O29      O        0.82780    0.25960    0.81870    1.000
    C25      C        0.84560    0.43880    0.64880    1.000
    H21      H        0.86120    0.39630    0.63400    1.000
    C26      C        0.86900    0.22810    0.78700    1.000
    C27      C        0.80480    0.43790    0.69430    1.000
    C28      C        0.78060    0.36720    0.71570    1.000
    C29      C        0.93880    0.16490    0.85370    1.000
    H22      H        0.89680    0.14900    0.86920    1.000
    C30      C        0.93670    0.20990    0.81080    1.000
    O30      O        0.93000    0.44020    0.55690    1.000
    H23      H        0.77630    0.54460    0.83620    1.000
    H24      H        0.83100    0.49190    0.81070    1.000
    H25      H        0.76410    0.46350    0.84180    1.000
    Cu6      Cu       0.26810    0.72359    0.20166    1.000
    O31      O        0.28870    0.81840    0.18420    1.000
    O32      O        0.55690    0.57010    0.44160    1.000
    O33      O        0.26030    0.86430    0.26420    1.000
    O34      O        0.35770    0.71320    0.23690    1.000
    O35      O        0.32780    0.75960    0.31870    1.000
    C31      C        0.34560    0.93880    0.14880    1.000
    H26      H        0.36120    0.89630    0.13400    1.000
    C32      C        0.36900    0.72810    0.28700    1.000
    C33      C        0.30480    0.93790    0.19430    1.000
    C34      C        0.28060    0.86720    0.21570    1.000
    C35      C        0.43880    0.66490    0.35370    1.000
    H27      H        0.39680    0.64900    0.36920    1.000
    C36      C        0.43670    0.70990    0.31080    1.000
    O36      O        0.43000    0.94020    0.05690    1.000
    H28      H        0.27630    0.04460    0.33620    1.000
    H29      H        0.33100    0.99190    0.31070    1.000
    H30      H        0.26410    0.96350    0.34180    1.000
    Cu7      Cu       0.23190    0.77641    0.70166    1.000
    O37      O        0.21130    0.68160    0.68420    1.000
    O38      O        0.94310    0.92990    0.94160    1.000
    O39      O        0.23970    0.63570    0.76420    1.000
    O40      O        0.14230    0.78680    0.73690    1.000
    O41      O        0.17220    0.74040    0.81870    1.000
    C37      C        0.15440    0.56120    0.64880    1.000
    H31      H        0.13880    0.60370    0.63400    1.000
    C38      C        0.13100    0.77190    0.78700    1.000
    C39      C        0.19520    0.56210    0.69430    1.000
    C40      C        0.21940    0.63280    0.71570    1.000
    C41      C        0.06120    0.83510    0.85370    1.000
    H32      H        0.10320    0.85100    0.86920    1.000
    C42      C        0.06330    0.79010    0.81080    1.000
    O42      O        0.07000    0.55980    0.55690    1.000
    H33      H        0.22370    0.45540    0.83620    1.000
    H34      H        0.16900    0.50810    0.81070    1.000
    H35      H        0.23590    0.53650    0.84180    1.000
    Cu8      Cu       0.73190    0.27641    0.20166    1.000
    O43      O        0.71130    0.18160    0.18420    1.000
    O44      O        0.44310    0.42990    0.44160    1.000
    O45      O        0.73970    0.13570    0.26420    1.000
    O46      O        0.64230    0.28680    0.23690    1.000
    O47      O        0.67220    0.24040    0.31870    1.000
    C43      C        0.65440    0.06120    0.14880    1.000
    H36      H        0.63880    0.10370    0.13400    1.000
    C44      C        0.63100    0.27190    0.28700    1.000
    C45      C        0.69520    0.06210    0.19430    1.000
    C46      C        0.71940    0.13280    0.21570    1.000
    C47      C        0.56120    0.33510    0.35370    1.000
    H37      H        0.60320    0.35100    0.36920    1.000
    C48      C        0.56330    0.29010    0.31080    1.000
    O48      O        0.57000    0.05980    0.05690    1.000
    H38      H        0.72370    0.95540    0.33620    1.000
    H39      H        0.66900    0.00810    0.31070    1.000
    H40      H        0.73590    0.03650    0.34180    1.000
    Cu9      Cu       0.76810    0.77641    0.70166    1.000
    O49      O        0.78870    0.68160    0.68420    1.000
    O50      O        0.05690    0.92990    0.94160    1.000
    O51      O        0.76030    0.63570    0.76420    1.000
    O52      O        0.85770    0.78680    0.73690    1.000
    O53      O        0.82780    0.74040    0.81870    1.000
    C49      C        0.84560    0.56120    0.64880    1.000
    H41      H        0.86120    0.60370    0.63400    1.000
    C50      C        0.86900    0.77190    0.78700    1.000
    C51      C        0.80480    0.56210    0.69430    1.000
    C52      C        0.78060    0.63280    0.71570    1.000
    C53      C        0.93880    0.83510    0.85370    1.000
    H42      H        0.89680    0.85100    0.86920    1.000
    C54      C        0.93670    0.79010    0.81080    1.000
    O54      O        0.93000    0.55980    0.55690    1.000
    H43      H        0.77630    0.45540    0.83620    1.000
    H44      H        0.83100    0.50810    0.81070    1.000
    H45      H        0.76410    0.53650    0.84180    1.000
    Cu10     Cu       0.26810    0.27641    0.20166    1.000
    O55      O        0.28870    0.18160    0.18420    1.000
    O56      O        0.55690    0.42990    0.44160    1.000
    O57      O        0.26030    0.13570    0.26420    1.000
    O58      O        0.35770    0.28680    0.23690    1.000
    O59      O        0.32780    0.24040    0.31870    1.000
    C55      C        0.34560    0.06120    0.14880    1.000
    H46      H        0.36120    0.10370    0.13400    1.000
    C56      C        0.36900    0.27190    0.28700    1.000
    C57      C        0.30480    0.06210    0.19430    1.000
    C58      C        0.28060    0.13280    0.21570    1.000
    C59      C        0.43880    0.33510    0.35370    1.000
    H47      H        0.39680    0.35100    0.36920    1.000
    C60      C        0.43670    0.29010    0.31080    1.000
    O60      O        0.43000    0.05980    0.05690    1.000
    H48      H        0.27630    0.95540    0.33620    1.000
    H49      H        0.33100    0.00810    0.31070    1.000
    H50      H        0.26410    0.03650    0.34180    1.000
    Cu11     Cu       0.23190    0.22359    0.70166    1.000
    O61      O        0.21130    0.31840    0.68420    1.000
    O62      O        0.94310    0.07010    0.94160    1.000
    O63      O        0.23970    0.36430    0.76420    1.000
    O64      O        0.14230    0.21320    0.73690    1.000
    O65      O        0.17220    0.25960    0.81870    1.000
    C61      C        0.15440    0.43880    0.64880    1.000
    H51      H        0.13880    0.39630    0.63400    1.000
    C62      C        0.13100    0.22810    0.78700    1.000
    C63      C        0.19520    0.43790    0.69430    1.000
    C64      C        0.21940    0.36720    0.71570    1.000
    C65      C        0.06120    0.16490    0.85370    1.000
    H52      H        0.10320    0.14900    0.86920    1.000
    C66      C        0.06330    0.20990    0.81080    1.000
    O66      O        0.07000    0.44020    0.55690    1.000
    H53      H        0.22370    0.54460    0.83620    1.000
    H54      H        0.16900    0.49190    0.81070    1.000
    H55      H        0.23590    0.46350    0.84180    1.000
    Cu12     Cu       0.73190    0.72359    0.20166    1.000
    O67      O        0.71130    0.81840    0.18420    1.000
    O68      O        0.44310    0.57010    0.44160    1.000
    O69      O        0.73970    0.86430    0.26420    1.000
    O70      O        0.64230    0.71320    0.23690    1.000
    O71      O        0.67220    0.75960    0.31870    1.000
    C67      C        0.65440    0.93880    0.14880    1.000
    H56      H        0.63880    0.89630    0.13400    1.000
    C68      C        0.63100    0.72810    0.28700    1.000
    C69      C        0.69520    0.93790    0.19430    1.000
    C70      C        0.71940    0.86720    0.21570    1.000
    C71      C        0.56120    0.66490    0.35370    1.000
    H57      H        0.60320    0.64900    0.36920    1.000
    C72      C        0.56330    0.70990    0.31080    1.000
    O72      O        0.57000    0.94020    0.05690    1.000
    H58      H        0.72370    0.04460    0.33620    1.000
    H59      H        0.66900    0.99190    0.31070    1.000
    H60      H        0.73590    0.96350    0.34180    1.000
    Cu13     Cu       0.23190    0.77641    0.29834    1.000
    O73      O        0.21130    0.68160    0.31580    1.000
    O74      O        0.94310    0.92990    0.05840    1.000
    O75      O        0.23970    0.63570    0.23580    1.000
    O76      O        0.14230    0.78680    0.26310    1.000
    O77      O        0.17220    0.74040    0.18130    1.000
    C73      C        0.15440    0.56120    0.35120    1.000
    H61      H        0.13880    0.60370    0.36600    1.000
    C74      C        0.13100    0.77190    0.21300    1.000
    C75      C        0.19520    0.56210    0.30570    1.000
    C76      C        0.21940    0.63280    0.28430    1.000
    C77      C        0.06120    0.83510    0.14630    1.000
    H62      H        0.10320    0.85100    0.13080    1.000
    C78      C        0.06330    0.79010    0.18920    1.000
    O78      O        0.07000    0.55980    0.44310    1.000
    H63      H        0.22370    0.45540    0.16380    1.000
    H64      H        0.16900    0.50810    0.18930    1.000
    H65      H        0.23590    0.53650    0.15820    1.000
    Cu14     Cu       0.73190    0.27641    0.79834    1.000
    O79      O        0.71130    0.18160    0.81580    1.000
    O80      O        0.44310    0.42990    0.55840    1.000
    O81      O        0.73970    0.13570    0.73580    1.000
    O82      O        0.64230    0.28680    0.76310    1.000
    O83      O        0.67220    0.24040    0.68130    1.000
    C79      C        0.65440    0.06120    0.85120    1.000
    H66      H        0.63880    0.10370    0.86600    1.000
    C80      C        0.63100    0.27190    0.71300    1.000
    C81      C        0.69520    0.06210    0.80570    1.000
    C82      C        0.71940    0.13280    0.78430    1.000
    C83      C        0.56120    0.33510    0.64630    1.000
    H67      H        0.60320    0.35100    0.63080    1.000
    C84      C        0.56330    0.29010    0.68920    1.000
    O84      O        0.57000    0.05980    0.94310    1.000
    H68      H        0.72370    0.95540    0.66380    1.000
    H69      H        0.66900    0.00810    0.68930    1.000
    H70      H        0.73590    0.03650    0.65820    1.000
    Cu15     Cu       0.76810    0.22359    0.29834    1.000
    O85      O        0.78870    0.31840    0.31580    1.000
    O86      O        0.05690    0.07010    0.05840    1.000
    O87      O        0.76030    0.36430    0.23580    1.000
    O88      O        0.85770    0.21320    0.26310    1.000
    O89      O        0.82780    0.25960    0.18130    1.000
    C85      C        0.84560    0.43880    0.35120    1.000
    H71      H        0.86120    0.39630    0.36600    1.000
    C86      C        0.86900    0.22810    0.21300    1.000
    C87      C        0.80480    0.43790    0.30570    1.000
    C88      C        0.78060    0.36720    0.28430    1.000
    C89      C        0.93880    0.16490    0.14630    1.000
    H72      H        0.89680    0.14900    0.13080    1.000
    C90      C        0.93670    0.20990    0.18920    1.000
    O90      O        0.93000    0.44020    0.44310    1.000
    H73      H        0.77630    0.54460    0.16380    1.000
    H74      H        0.83100    0.49190    0.18930    1.000
    H75      H        0.76410    0.46350    0.15820    1.000
    Cu16     Cu       0.26810    0.72359    0.79834    1.000
    O91      O        0.28870    0.81840    0.81580    1.000
    O92      O        0.55690    0.57010    0.55840    1.000
    O93      O        0.26030    0.86430    0.73580    1.000
    O94      O        0.35770    0.71320    0.76310    1.000
    O95      O        0.32780    0.75960    0.68130    1.000
    C91      C        0.34560    0.93880    0.85120    1.000
    H76      H        0.36120    0.89630    0.86600    1.000
    C92      C        0.36900    0.72810    0.71300    1.000
    C93      C        0.30480    0.93790    0.80570    1.000
    C94      C        0.28060    0.86720    0.78430    1.000
    C95      C        0.43880    0.66490    0.64630    1.000
    H77      H        0.39680    0.64900    0.63080    1.000
    C96      C        0.43670    0.70990    0.68920    1.000
    O96      O        0.43000    0.94020    0.94310    1.000
    H78      H        0.27630    0.04460    0.66380    1.000
    H79      H        0.33100    0.99190    0.68930    1.000
    H80      H        0.26410    0.96350    0.65820    1.000
    Cu17     Cu       0.93251    0.00000    0.00000    1.000
    Cu18     Cu       0.43251    0.50000    0.50000    1.000
    Cu19     Cu       0.06749    0.00000    0.00000    1.000
    Cu20     Cu       0.56749    0.50000    0.50000    1.000
    C97      C        0.00000    0.08980    0.07580    1.000
    O97      O        0.00000    0.28290    0.25210    1.000
    C98      C        0.00000    0.14160    0.12440    1.000
    C99      C        0.00000    0.23550    0.21110    1.000
    C100     C        0.50000    0.58980    0.57580    1.000
    O98      O        0.50000    0.78290    0.75210    1.000
    C101     C        0.50000    0.64160    0.62440    1.000
    C102     C        0.50000    0.73550    0.71110    1.000
    C103     C        0.00000    0.91020    0.07580    1.000
    O99      O        0.00000    0.71710    0.25210    1.000
    C104     C        0.00000    0.85840    0.12440    1.000
    C105     C        0.00000    0.76450    0.21110    1.000
    C106     C        0.50000    0.41020    0.57580    1.000
    O100     O        0.50000    0.21710    0.75210    1.000
    C107     C        0.50000    0.35840    0.62440    1.000
    C108     C        0.50000    0.26450    0.71110    1.000
    C109     C        0.00000    0.08980    0.92420    1.000
    O101     O        0.00000    0.28290    0.74790    1.000
    C110     C        0.00000    0.14160    0.87560    1.000
    C111     C        0.00000    0.23550    0.78890    1.000
    C112     C        0.50000    0.58980    0.42420    1.000
    O102     O        0.50000    0.78290    0.24790    1.000
    C113     C        0.50000    0.64160    0.37560    1.000
    C114     C        0.50000    0.73550    0.28890    1.000
    C115     C        0.00000    0.91020    0.92420    1.000
    O103     O        0.00000    0.71710    0.74790    1.000
    C116     C        0.00000    0.85840    0.87560    1.000
    C117     C        0.00000    0.76450    0.78890    1.000
    C118     C        0.50000    0.41020    0.42420    1.000
    O104     O        0.50000    0.21710    0.24790    1.000
    C119     C        0.50000    0.35840    0.37560    1.000
    C120     C        0.50000    0.26450    0.28890    1.000
    O105     O        0.25650    0.50000    0.23590    1.000
    C121     C        0.21990    0.50000    0.28080    1.000
    C122     C        0.08790    0.50000    0.42430    1.000
    C123     C        0.13460    0.50000    0.37710    1.000
    C124     C        0.21800    0.50000    0.18200    1.000
    O106     O        0.75650    0.00000    0.73590    1.000
    C125     C        0.71990    0.00000    0.78080    1.000
    C126     C        0.58790    0.00000    0.92430    1.000
    C127     C        0.63460    0.00000    0.87710    1.000
    C128     C        0.71800    0.00000    0.68200    1.000
    O107     O        0.74350    0.50000    0.23590    1.000
    C129     C        0.78010    0.50000    0.28080    1.000
    C130     C        0.91210    0.50000    0.42430    1.000
    C131     C        0.86540    0.50000    0.37710    1.000
    C132     C        0.78200    0.50000    0.18200    1.000
    O108     O        0.24350    0.00000    0.73590    1.000
    C133     C        0.28010    0.00000    0.78080    1.000
    C134     C        0.41210    0.00000    0.92430    1.000
    C135     C        0.36540    0.00000    0.87710    1.000
    C136     C        0.28200    0.00000    0.68200    1.000
    O109     O        0.74350    0.50000    0.76410    1.000
    C137     C        0.78010    0.50000    0.71920    1.000
    C138     C        0.91210    0.50000    0.57570    1.000
    C139     C        0.86540    0.50000    0.62290    1.000
    C140     C        0.78200    0.50000    0.81800    1.000
    O110     O        0.24350    0.00000    0.26410    1.000
    C141     C        0.28010    0.00000    0.21920    1.000
    C142     C        0.41210    0.00000    0.07570    1.000
    C143     C        0.36540    0.00000    0.12290    1.000
    C144     C        0.28200    0.00000    0.31800    1.000
    O111     O        0.25650    0.50000    0.76410    1.000
    C145     C        0.21990    0.50000    0.71920    1.000
    C146     C        0.08790    0.50000    0.57570    1.000
    C147     C        0.13460    0.50000    0.62290    1.000
    C148     C        0.21800    0.50000    0.81800    1.000
    O112     O        0.75650    0.00000    0.26410    1.000
    C149     C        0.71990    0.00000    0.21920    1.000
    C150     C        0.58790    0.00000    0.07570    1.000
    C151     C        0.63460    0.00000    0.12290    1.000
    C152     C        0.71800    0.00000    0.31800    1.000
    Cu21     Cu       0.00000    0.43195    0.50000    1.000
    Cu22     Cu       0.50000    0.93195    0.00000    1.000
    Cu23     Cu       0.00000    0.56805    0.50000    1.000
    Cu24     Cu       0.50000    0.06805    0.00000    1.000
