# CIF file generated by openbabel 3.1.0, see https://openbabel.org
data_I
_chemical_name_common 'image0'
_cell_length_a 24
_cell_length_b 11.0768
_cell_length_c 34.991
_cell_angle_alpha 90
_cell_angle_beta 99.66
_cell_angle_gamma 90
_space_group_name_H-M_alt 'P 1'
_space_group_name_Hall 'P 1'
loop_
    _symmetry_equiv_pos_as_xyz
    x,y,z
loop_
    _atom_site_label
    _atom_site_type_symbol
    _atom_site_fract_x
    _atom_site_fract_y
    _atom_site_fract_z
    _atom_site_occupancy
    Mn1      Mn       0.67387    0.53518    0.50519    1.000
    Mn2      Mn       0.74580    0.25600    0.49870    1.000
    C1       C        0.77511    0.43600    0.61449    1.000
    C2       C        0.79659    0.33890    0.63604    1.000
    H1       H        0.79330    0.26280    0.62470    1.000
    C3       C        0.82300    0.34940    0.67405    1.000
    H2       H        0.83660    0.28130    0.68820    1.000
    C4       C        0.82880    0.46170    0.69068    1.000
    C5       C        0.80690    0.56040    0.66949    1.000
    H3       H        0.80960    0.63650    0.68090    1.000
    C6       C        0.78140    0.54760    0.63223    1.000
    H4       H        0.76780    0.61580    0.61820    1.000
    C7       C        0.88705    0.39060    0.74925    1.000
    H5       H        0.86230    0.33130    0.75810    1.000
    H6       H        0.91060    0.35040    0.73320    1.000
    C8       C        0.92372    0.45230    0.78396    1.000
    C9       C        0.96422    0.54060    0.76973    1.000
    H7       H        0.98620    0.58300    0.79140    1.000
    H8       H        0.94340    0.59960    0.75240    1.000
    C10      C        0.88740    0.51960    0.80835    1.000
    H9       H        0.86640    0.58340    0.79330    1.000
    H10      H        0.91080    0.55550    0.83080    1.000
    C11      C        0.95557    0.35130    0.80827    1.000
    H11      H        0.97630    0.30230    0.79250    1.000
    H12      H        0.92930    0.29980    0.81900    1.000
    C12      C        0.02292    0.33860    0.86686    1.000
    C13      C        0.06670    0.39300    0.89057    1.000
    H13      H        0.07510    0.47330    0.88640    1.000
    C14      C        0.09846    0.33130    0.92043    1.000
    H14      H        0.12840    0.37000    0.93600    1.000
    C15      C        0.08681    0.21380    0.92763    1.000
    C16      C        0.12240    0.14040    0.95926    1.000
    C17      C        0.04250    0.15830    0.90371    1.000
    H15      H        0.03370    0.07820    0.90800    1.000
    C18      C        0.01090    0.22140    0.87329    1.000
    H16      H        0.98140    0.18320    0.85720    1.000
    C19      C        0.74810    0.42380    0.57305    1.000
    C20      C        0.75830    0.49360    0.95696    1.000
    C21      C        0.78237    0.47890    0.92048    1.000
    C22      C        0.78200    0.36910    0.90201    1.000
    H17      H        0.76660    0.30230    0.91250    1.000
    C23      C        0.82750    0.45480    0.85315    1.000
    C24      C        0.82820    0.56660    0.87074    1.000
    H18      H        0.84330    0.63350    0.86010    1.000
    C25      C        0.80380    0.35620    0.86848    1.000
    H19      H        0.80270    0.28160    0.85610    1.000
    C26      C        0.80560    0.57650    0.90481    1.000
    H20      H        0.80640    0.65090    0.91720    1.000
    O1       O        0.85449    0.48520    0.72782    1.000
    O2       O        0.84937    0.43340    0.82037    1.000
    O3       O        0.99356    0.40860    0.83865    1.000
    O4       O        0.75050    0.32420    0.55702    1.000
    O5       O        0.72506    0.51730    0.55694    1.000
    O6       O        0.72513    0.41300    0.96501    1.000
    O7       O        0.11142    0.03230    0.96194    1.000
    O8       O        0.16083    0.19420    0.98152    1.000
    O9       O        0.77270    0.58340    0.97762    1.000
    Mn3      Mn       0.17387    0.03518    0.50519    1.000
    Mn4      Mn       0.24580    0.75600    0.49870    1.000
    C27      C        0.27511    0.93600    0.61449    1.000
    C28      C        0.29659    0.83890    0.63604    1.000
    H21      H        0.29330    0.76280    0.62470    1.000
    C29      C        0.32300    0.84940    0.67405    1.000
    H22      H        0.33660    0.78130    0.68820    1.000
    C30      C        0.32880    0.96170    0.69068    1.000
    C31      C        0.30690    0.06040    0.66949    1.000
    H23      H        0.30960    0.13650    0.68090    1.000
    C32      C        0.28140    0.04760    0.63223    1.000
    H24      H        0.26780    0.11580    0.61820    1.000
    C33      C        0.38705    0.89060    0.74925    1.000
    H25      H        0.36230    0.83130    0.75810    1.000
    H26      H        0.41060    0.85040    0.73320    1.000
    C34      C        0.42372    0.95230    0.78396    1.000
    C35      C        0.46422    0.04060    0.76973    1.000
    H27      H        0.48620    0.08300    0.79140    1.000
    H28      H        0.44340    0.09960    0.75240    1.000
    C36      C        0.38740    0.01960    0.80835    1.000
    H29      H        0.36640    0.08340    0.79330    1.000
    H30      H        0.41080    0.05550    0.83080    1.000
    C37      C        0.45557    0.85130    0.80827    1.000
    H31      H        0.47630    0.80230    0.79250    1.000
    H32      H        0.42930    0.79980    0.81900    1.000
    C38      C        0.52292    0.83860    0.86686    1.000
    C39      C        0.56670    0.89300    0.89057    1.000
    H33      H        0.57510    0.97330    0.88640    1.000
    C40      C        0.59846    0.83130    0.92043    1.000
    H34      H        0.62840    0.87000    0.93600    1.000
    C41      C        0.58681    0.71380    0.92763    1.000
    C42      C        0.62240    0.64040    0.95926    1.000
    C43      C        0.54250    0.65830    0.90371    1.000
    H35      H        0.53370    0.57820    0.90800    1.000
    C44      C        0.51090    0.72140    0.87329    1.000
    H36      H        0.48140    0.68320    0.85720    1.000
    C45      C        0.24810    0.92380    0.57305    1.000
    C46      C        0.25830    0.99360    0.95696    1.000
    C47      C        0.28237    0.97890    0.92048    1.000
    C48      C        0.28200    0.86910    0.90201    1.000
    H37      H        0.26660    0.80230    0.91250    1.000
    C49      C        0.32750    0.95480    0.85315    1.000
    C50      C        0.32820    0.06660    0.87074    1.000
    H38      H        0.34330    0.13350    0.86010    1.000
    C51      C        0.30380    0.85620    0.86848    1.000
    H39      H        0.30270    0.78160    0.85610    1.000
    C52      C        0.30560    0.07650    0.90481    1.000
    H40      H        0.30640    0.15090    0.91720    1.000
    O10      O        0.35449    0.98520    0.72782    1.000
    O11      O        0.34937    0.93340    0.82037    1.000
    O12      O        0.49356    0.90860    0.83865    1.000
    O13      O        0.25050    0.82420    0.55702    1.000
    O14      O        0.22506    0.01730    0.55694    1.000
    O15      O        0.22513    0.91300    0.96501    1.000
    O16      O        0.61142    0.53230    0.96194    1.000
    O17      O        0.66083    0.69420    0.98152    1.000
    O18      O        0.27270    0.08340    0.97762    1.000
    Mn5      Mn       0.32613    0.53518    0.99481    1.000
    Mn6      Mn       0.25420    0.25600    0.00130    1.000
    C53      C        0.22489    0.43600    0.88551    1.000
    C54      C        0.20341    0.33890    0.86396    1.000
    H41      H        0.20670    0.26280    0.87530    1.000
    C55      C        0.17700    0.34940    0.82595    1.000
    H42      H        0.16340    0.28130    0.81180    1.000
    C56      C        0.17120    0.46170    0.80932    1.000
    C57      C        0.19310    0.56040    0.83051    1.000
    H43      H        0.19040    0.63650    0.81910    1.000
    C58      C        0.21860    0.54760    0.86777    1.000
    H44      H        0.23220    0.61580    0.88180    1.000
    C59      C        0.11295    0.39060    0.75075    1.000
    H45      H        0.13770    0.33130    0.74190    1.000
    H46      H        0.08940    0.35040    0.76680    1.000
    C60      C        0.07628    0.45230    0.71604    1.000
    C61      C        0.03578    0.54060    0.73027    1.000
    H47      H        0.01380    0.58300    0.70860    1.000
    H48      H        0.05660    0.59960    0.74760    1.000
    C62      C        0.11260    0.51960    0.69165    1.000
    H49      H        0.13360    0.58340    0.70670    1.000
    H50      H        0.08920    0.55550    0.66920    1.000
    C63      C        0.04443    0.35130    0.69173    1.000
    H51      H        0.02370    0.30230    0.70750    1.000
    H52      H        0.07070    0.29980    0.68100    1.000
    C64      C        0.97708    0.33860    0.63314    1.000
    C65      C        0.93330    0.39300    0.60943    1.000
    H53      H        0.92490    0.47330    0.61360    1.000
    C66      C        0.90154    0.33130    0.57957    1.000
    H54      H        0.87160    0.37000    0.56400    1.000
    C67      C        0.91319    0.21380    0.57237    1.000
    C68      C        0.87760    0.14040    0.54074    1.000
    C69      C        0.95750    0.15830    0.59629    1.000
    H55      H        0.96630    0.07820    0.59200    1.000
    C70      C        0.98910    0.22140    0.62671    1.000
    H56      H        0.01860    0.18320    0.64280    1.000
    C71      C        0.25190    0.42380    0.92695    1.000
    C72      C        0.24170    0.49360    0.54304    1.000
    C73      C        0.21763    0.47890    0.57952    1.000
    C74      C        0.21800    0.36910    0.59799    1.000
    H57      H        0.23340    0.30230    0.58750    1.000
    C75      C        0.17250    0.45480    0.64685    1.000
    C76      C        0.17180    0.56660    0.62926    1.000
    H58      H        0.15670    0.63350    0.63990    1.000
    C77      C        0.19620    0.35620    0.63152    1.000
    H59      H        0.19730    0.28160    0.64390    1.000
    C78      C        0.19440    0.57650    0.59519    1.000
    H60      H        0.19360    0.65090    0.58280    1.000
    O19      O        0.14551    0.48520    0.77218    1.000
    O20      O        0.15063    0.43340    0.67963    1.000
    O21      O        0.00644    0.40860    0.66135    1.000
    O22      O        0.24950    0.32420    0.94298    1.000
    O23      O        0.27494    0.51730    0.94306    1.000
    O24      O        0.27487    0.41300    0.53499    1.000
    O25      O        0.88858    0.03230    0.53806    1.000
    O26      O        0.83917    0.19420    0.51848    1.000
    O27      O        0.22730    0.58340    0.52238    1.000
    Mn7      Mn       0.82613    0.03518    0.99481    1.000
    Mn8      Mn       0.75420    0.75600    0.00130    1.000
    C79      C        0.72489    0.93600    0.88551    1.000
    C80      C        0.70341    0.83890    0.86396    1.000
    H61      H        0.70670    0.76280    0.87530    1.000
    C81      C        0.67700    0.84940    0.82595    1.000
    H62      H        0.66340    0.78130    0.81180    1.000
    C82      C        0.67120    0.96170    0.80932    1.000
    C83      C        0.69310    0.06040    0.83051    1.000
    H63      H        0.69040    0.13650    0.81910    1.000
    C84      C        0.71860    0.04760    0.86777    1.000
    H64      H        0.73220    0.11580    0.88180    1.000
    C85      C        0.61295    0.89060    0.75075    1.000
    H65      H        0.63770    0.83130    0.74190    1.000
    H66      H        0.58940    0.85040    0.76680    1.000
    C86      C        0.57628    0.95230    0.71604    1.000
    C87      C        0.53578    0.04060    0.73027    1.000
    H67      H        0.51380    0.08300    0.70860    1.000
    H68      H        0.55660    0.09960    0.74760    1.000
    C88      C        0.61260    0.01960    0.69165    1.000
    H69      H        0.63360    0.08340    0.70670    1.000
    H70      H        0.58920    0.05550    0.66920    1.000
    C89      C        0.54443    0.85130    0.69173    1.000
    H71      H        0.52370    0.80230    0.70750    1.000
    H72      H        0.57070    0.79980    0.68100    1.000
    C90      C        0.47708    0.83860    0.63314    1.000
    C91      C        0.43330    0.89300    0.60943    1.000
    H73      H        0.42490    0.97330    0.61360    1.000
    C92      C        0.40154    0.83130    0.57957    1.000
    H74      H        0.37160    0.87000    0.56400    1.000
    C93      C        0.41319    0.71380    0.57237    1.000
    C94      C        0.37760    0.64040    0.54074    1.000
    C95      C        0.45750    0.65830    0.59629    1.000
    H75      H        0.46630    0.57820    0.59200    1.000
    C96      C        0.48910    0.72140    0.62671    1.000
    H76      H        0.51860    0.68320    0.64280    1.000
    C97      C        0.75190    0.92380    0.92695    1.000
    C98      C        0.74170    0.99360    0.54304    1.000
    C99      C        0.71763    0.97890    0.57952    1.000
    C100     C        0.71800    0.86910    0.59799    1.000
    H77      H        0.73340    0.80230    0.58750    1.000
    C101     C        0.67250    0.95480    0.64685    1.000
    C102     C        0.67180    0.06660    0.62926    1.000
    H78      H        0.65670    0.13350    0.63990    1.000
    C103     C        0.69620    0.85620    0.63152    1.000
    H79      H        0.69730    0.78160    0.64390    1.000
    C104     C        0.69440    0.07650    0.59519    1.000
    H80      H        0.69360    0.15090    0.58280    1.000
    O28      O        0.64551    0.98520    0.77218    1.000
    O29      O        0.65063    0.93340    0.67963    1.000
    O30      O        0.50644    0.90860    0.66135    1.000
    O31      O        0.74950    0.82420    0.94298    1.000
    O32      O        0.77494    0.01730    0.94306    1.000
    O33      O        0.77487    0.91300    0.53499    1.000
    O34      O        0.38858    0.53230    0.53806    1.000
    O35      O        0.33917    0.69420    0.51848    1.000
    O36      O        0.72730    0.08340    0.52238    1.000
    Mn9      Mn       0.32613    0.46482    0.49481    1.000
    Mn10     Mn       0.25420    0.74400    0.50130    1.000
    C105     C        0.22489    0.56400    0.38551    1.000
    C106     C        0.20341    0.66110    0.36396    1.000
    H81      H        0.20670    0.73720    0.37530    1.000
    C107     C        0.17700    0.65060    0.32595    1.000
    H82      H        0.16340    0.71870    0.31180    1.000
    C108     C        0.17120    0.53830    0.30932    1.000
    C109     C        0.19310    0.43960    0.33051    1.000
    H83      H        0.19040    0.36350    0.31910    1.000
    C110     C        0.21860    0.45240    0.36777    1.000
    H84      H        0.23220    0.38420    0.38180    1.000
    C111     C        0.11295    0.60940    0.25075    1.000
    H85      H        0.13770    0.66870    0.24190    1.000
    H86      H        0.08940    0.64960    0.26680    1.000
    C112     C        0.07628    0.54770    0.21604    1.000
    C113     C        0.03578    0.45940    0.23027    1.000
    H87      H        0.01380    0.41700    0.20860    1.000
    H88      H        0.05660    0.40040    0.24760    1.000
    C114     C        0.11260    0.48040    0.19165    1.000
    H89      H        0.13360    0.41660    0.20670    1.000
    H90      H        0.08920    0.44450    0.16920    1.000
    C115     C        0.04443    0.64870    0.19173    1.000
    H91      H        0.02370    0.69770    0.20750    1.000
    H92      H        0.07070    0.70020    0.18100    1.000
    C116     C        0.97708    0.66140    0.13314    1.000
    C117     C        0.93330    0.60700    0.10943    1.000
    H93      H        0.92490    0.52670    0.11360    1.000
    C118     C        0.90154    0.66870    0.07957    1.000
    H94      H        0.87160    0.63000    0.06400    1.000
    C119     C        0.91319    0.78620    0.07237    1.000
    C120     C        0.87760    0.85960    0.04074    1.000
    C121     C        0.95750    0.84170    0.09629    1.000
    H95      H        0.96630    0.92180    0.09200    1.000
    C122     C        0.98910    0.77860    0.12671    1.000
    H96      H        0.01860    0.81680    0.14280    1.000
    C123     C        0.25190    0.57620    0.42695    1.000
    C124     C        0.24170    0.50640    0.04304    1.000
    C125     C        0.21763    0.52110    0.07952    1.000
    C126     C        0.21800    0.63090    0.09799    1.000
    H97      H        0.23340    0.69770    0.08750    1.000
    C127     C        0.17250    0.54520    0.14685    1.000
    C128     C        0.17180    0.43340    0.12926    1.000
    H98      H        0.15670    0.36650    0.13990    1.000
    C129     C        0.19620    0.64380    0.13152    1.000
    H99      H        0.19730    0.71840    0.14390    1.000
    C130     C        0.19440    0.42350    0.09519    1.000
    H100     H        0.19360    0.34910    0.08280    1.000
    O37      O        0.14551    0.51480    0.27218    1.000
    O38      O        0.15063    0.56660    0.17963    1.000
    O39      O        0.00644    0.59140    0.16135    1.000
    O40      O        0.24950    0.67580    0.44298    1.000
    O41      O        0.27494    0.48270    0.44306    1.000
    O42      O        0.27487    0.58700    0.03499    1.000
    O43      O        0.88858    0.96770    0.03806    1.000
    O44      O        0.83917    0.80580    0.01848    1.000
    O45      O        0.22730    0.41660    0.02238    1.000
    Mn11     Mn       0.82613    0.96482    0.49481    1.000
    Mn12     Mn       0.75420    0.24400    0.50130    1.000
    C131     C        0.72489    0.06400    0.38551    1.000
    C132     C        0.70341    0.16110    0.36396    1.000
    H101     H        0.70670    0.23720    0.37530    1.000
    C133     C        0.67700    0.15060    0.32595    1.000
    H102     H        0.66340    0.21870    0.31180    1.000
    C134     C        0.67120    0.03830    0.30932    1.000
    C135     C        0.69310    0.93960    0.33051    1.000
    H103     H        0.69040    0.86350    0.31910    1.000
    C136     C        0.71860    0.95240    0.36777    1.000
    H104     H        0.73220    0.88420    0.38180    1.000
    C137     C        0.61295    0.10940    0.25075    1.000
    H105     H        0.63770    0.16870    0.24190    1.000
    H106     H        0.58940    0.14960    0.26680    1.000
    C138     C        0.57628    0.04770    0.21604    1.000
    C139     C        0.53578    0.95940    0.23027    1.000
    H107     H        0.51380    0.91700    0.20860    1.000
    H108     H        0.55660    0.90040    0.24760    1.000
    C140     C        0.61260    0.98040    0.19165    1.000
    H109     H        0.63360    0.91660    0.20670    1.000
    H110     H        0.58920    0.94450    0.16920    1.000
    C141     C        0.54443    0.14870    0.19173    1.000
    H111     H        0.52370    0.19770    0.20750    1.000
    H112     H        0.57070    0.20020    0.18100    1.000
    C142     C        0.47708    0.16140    0.13314    1.000
    C143     C        0.43330    0.10700    0.10943    1.000
    H113     H        0.42490    0.02670    0.11360    1.000
    C144     C        0.40154    0.16870    0.07957    1.000
    H114     H        0.37160    0.13000    0.06400    1.000
    C145     C        0.41319    0.28620    0.07237    1.000
    C146     C        0.37760    0.35960    0.04074    1.000
    C147     C        0.45750    0.34170    0.09629    1.000
    H115     H        0.46630    0.42180    0.09200    1.000
    C148     C        0.48910    0.27860    0.12671    1.000
    H116     H        0.51860    0.31680    0.14280    1.000
    C149     C        0.75190    0.07620    0.42695    1.000
    C150     C        0.74170    0.00640    0.04304    1.000
    C151     C        0.71763    0.02110    0.07952    1.000
    C152     C        0.71800    0.13090    0.09799    1.000
    H117     H        0.73340    0.19770    0.08750    1.000
    C153     C        0.67250    0.04520    0.14685    1.000
    C154     C        0.67180    0.93340    0.12926    1.000
    H118     H        0.65670    0.86650    0.13990    1.000
    C155     C        0.69620    0.14380    0.13152    1.000
    H119     H        0.69730    0.21840    0.14390    1.000
    C156     C        0.69440    0.92350    0.09519    1.000
    H120     H        0.69360    0.84910    0.08280    1.000
    O46      O        0.64551    0.01480    0.27218    1.000
    O47      O        0.65063    0.06660    0.17963    1.000
    O48      O        0.50644    0.09140    0.16135    1.000
    O49      O        0.74950    0.17580    0.44298    1.000
    O50      O        0.77494    0.98270    0.44306    1.000
    O51      O        0.77487    0.08700    0.03499    1.000
    O52      O        0.38858    0.46770    0.03806    1.000
    O53      O        0.33917    0.30580    0.01848    1.000
    O54      O        0.72730    0.91660    0.02238    1.000
    Mn13     Mn       0.67387    0.46482    0.00519    1.000
    Mn14     Mn       0.74580    0.74400    0.99870    1.000
    C157     C        0.77511    0.56400    0.11449    1.000
    C158     C        0.79659    0.66110    0.13604    1.000
    H121     H        0.79330    0.73720    0.12470    1.000
    C159     C        0.82300    0.65060    0.17405    1.000
    H122     H        0.83660    0.71870    0.18820    1.000
    C160     C        0.82880    0.53830    0.19068    1.000
    C161     C        0.80690    0.43960    0.16949    1.000
    H123     H        0.80960    0.36350    0.18090    1.000
    C162     C        0.78140    0.45240    0.13223    1.000
    H124     H        0.76780    0.38420    0.11820    1.000
    C163     C        0.88705    0.60940    0.24925    1.000
    H125     H        0.86230    0.66870    0.25810    1.000
    H126     H        0.91060    0.64960    0.23320    1.000
    C164     C        0.92372    0.54770    0.28396    1.000
    C165     C        0.96422    0.45940    0.26973    1.000
    H127     H        0.98620    0.41700    0.29140    1.000
    H128     H        0.94340    0.40040    0.25240    1.000
    C166     C        0.88740    0.48040    0.30835    1.000
    H129     H        0.86640    0.41660    0.29330    1.000
    H130     H        0.91080    0.44450    0.33080    1.000
    C167     C        0.95557    0.64870    0.30827    1.000
    H131     H        0.97630    0.69770    0.29250    1.000
    H132     H        0.92930    0.70020    0.31900    1.000
    C168     C        0.02292    0.66140    0.36686    1.000
    C169     C        0.06670    0.60700    0.39057    1.000
    H133     H        0.07510    0.52670    0.38640    1.000
    C170     C        0.09846    0.66870    0.42043    1.000
    H134     H        0.12840    0.63000    0.43600    1.000
    C171     C        0.08681    0.78620    0.42763    1.000
    C172     C        0.12240    0.85960    0.45926    1.000
    C173     C        0.04250    0.84170    0.40371    1.000
    H135     H        0.03370    0.92180    0.40800    1.000
    C174     C        0.01090    0.77860    0.37329    1.000
    H136     H        0.98140    0.81680    0.35720    1.000
    C175     C        0.74810    0.57620    0.07305    1.000
    C176     C        0.75830    0.50640    0.45696    1.000
    C177     C        0.78237    0.52110    0.42048    1.000
    C178     C        0.78200    0.63090    0.40201    1.000
    H137     H        0.76660    0.69770    0.41250    1.000
    C179     C        0.82750    0.54520    0.35315    1.000
    C180     C        0.82820    0.43340    0.37074    1.000
    H138     H        0.84330    0.36650    0.36010    1.000
    C181     C        0.80380    0.64380    0.36848    1.000
    H139     H        0.80270    0.71840    0.35610    1.000
    C182     C        0.80560    0.42350    0.40481    1.000
    H140     H        0.80640    0.34910    0.41720    1.000
    O55      O        0.85449    0.51480    0.22782    1.000
    O56      O        0.84937    0.56660    0.32037    1.000
    O57      O        0.99356    0.59140    0.33865    1.000
    O58      O        0.75050    0.67580    0.05702    1.000
    O59      O        0.72506    0.48270    0.05694    1.000
    O60      O        0.72513    0.58700    0.46501    1.000
    O61      O        0.11142    0.96770    0.46194    1.000
    O62      O        0.16083    0.80580    0.48152    1.000
    O63      O        0.77270    0.41660    0.47762    1.000
    Mn15     Mn       0.17387    0.96482    0.00519    1.000
    Mn16     Mn       0.24580    0.24400    0.99870    1.000
    C183     C        0.27511    0.06400    0.11449    1.000
    C184     C        0.29659    0.16110    0.13604    1.000
    H141     H        0.29330    0.23720    0.12470    1.000
    C185     C        0.32300    0.15060    0.17405    1.000
    H142     H        0.33660    0.21870    0.18820    1.000
    C186     C        0.32880    0.03830    0.19068    1.000
    C187     C        0.30690    0.93960    0.16949    1.000
    H143     H        0.30960    0.86350    0.18090    1.000
    C188     C        0.28140    0.95240    0.13223    1.000
    H144     H        0.26780    0.88420    0.11820    1.000
    C189     C        0.38705    0.10940    0.24925    1.000
    H145     H        0.36230    0.16870    0.25810    1.000
    H146     H        0.41060    0.14960    0.23320    1.000
    C190     C        0.42372    0.04770    0.28396    1.000
    C191     C        0.46422    0.95940    0.26973    1.000
    H147     H        0.48620    0.91700    0.29140    1.000
    H148     H        0.44340    0.90040    0.25240    1.000
    C192     C        0.38740    0.98040    0.30835    1.000
    H149     H        0.36640    0.91660    0.29330    1.000
    H150     H        0.41080    0.94450    0.33080    1.000
    C193     C        0.45557    0.14870    0.30827    1.000
    H151     H        0.47630    0.19770    0.29250    1.000
    H152     H        0.42930    0.20020    0.31900    1.000
    C194     C        0.52292    0.16140    0.36686    1.000
    C195     C        0.56670    0.10700    0.39057    1.000
    H153     H        0.57510    0.02670    0.38640    1.000
    C196     C        0.59846    0.16870    0.42043    1.000
    H154     H        0.62840    0.13000    0.43600    1.000
    C197     C        0.58681    0.28620    0.42763    1.000
    C198     C        0.62240    0.35960    0.45926    1.000
    C199     C        0.54250    0.34170    0.40371    1.000
    H155     H        0.53370    0.42180    0.40800    1.000
    C200     C        0.51090    0.27860    0.37329    1.000
    H156     H        0.48140    0.31680    0.35720    1.000
    C201     C        0.24810    0.07620    0.07305    1.000
    C202     C        0.25830    0.00640    0.45696    1.000
    C203     C        0.28237    0.02110    0.42048    1.000
    C204     C        0.28200    0.13090    0.40201    1.000
    H157     H        0.26660    0.19770    0.41250    1.000
    C205     C        0.32750    0.04520    0.35315    1.000
    C206     C        0.32820    0.93340    0.37074    1.000
    H158     H        0.34330    0.86650    0.36010    1.000
    C207     C        0.30380    0.14380    0.36848    1.000
    H159     H        0.30270    0.21840    0.35610    1.000
    C208     C        0.30560    0.92350    0.40481    1.000
    H160     H        0.30640    0.84910    0.41720    1.000
    O64      O        0.35449    0.01480    0.22782    1.000
    O65      O        0.34937    0.06660    0.32037    1.000
    O66      O        0.49356    0.09140    0.33865    1.000
    O67      O        0.25050    0.17580    0.05702    1.000
    O68      O        0.22506    0.98270    0.05694    1.000
    O69      O        0.22513    0.08700    0.46501    1.000
    O70      O        0.61142    0.46770    0.46194    1.000
    O71      O        0.66083    0.30580    0.48152    1.000
    O72      O        0.27270    0.91660    0.47762    1.000
    O73      O        0.00000    0.47210    0.75000    1.000
    O74      O        0.50000    0.97210    0.75000    1.000
    O75      O        0.00000    0.52790    0.25000    1.000
    O76      O        0.50000    0.02790    0.25000    1.000
