data_functionalizedCrystal
_audit_creation_method	'EQeq! by Chris Wilmer'
_symmetry_space_group_name_H-M	'P1'
_symmetry_Int_Tables_number	1
_symmetry_cell_setting	triclinic
loop_
_symmetry_equiv_pos_as_xyz
  x,y,z
_cell_length_a	25.8728
_cell_length_b	25.8728
_cell_length_c	6.87
_cell_angle_alpha	90
_cell_angle_beta	90
_cell_angle_gamma	120
loop_
_atom_site_label
_atom_site_type_symbol
_atom_site_fract_x
_atom_site_fract_y
_atom_site_fract_z
_atom_site_charge
Mof_Mg	Mg	0.3804	0.3515	0.1382	1.469
Mof_O 	O 	0.32522	0.29556	0.362	-0.737
Mof_O 	O 	0.30284	0.2288	0.5976	-0.547
Mof_O 	O 	0.3539	0.2744	0.0023	-0.669
Mof_C 	C 	0.31582	0.24659	0.4239	0.491
Mof_C 	C 	0.32894	0.20868	0.2858	-0.222
Mof_C 	C 	0.34593	0.22389	0.0919	0.225
Mof_C 	C 	0.35265	0.18251	0.9728	-0.084
Mof_H 	H 	0.3606	0.1904	0.8263	0.066
Mof_Mg	Mg	0.04707	0.68483	0.47153	1.469
Mof_O 	O 	0.99189	0.62889	0.69533	-0.735
Mof_O 	O 	0.96951	0.56213	0.93093	-0.546
Mof_O 	O 	0.02057	0.60773	0.33563	-0.668
Mof_C 	C 	0.98249	0.57992	0.75723	0.492
Mof_C 	C 	0.99561	0.54201	0.61913	-0.221
Mof_C 	C 	0.0126	0.55722	0.42523	0.226
Mof_C 	C 	0.01932	0.51584	0.30613	-0.084
Mof_H 	H 	0.02727	0.52373	0.15963	0.067
Mof_Mg	Mg	0.71373	0.01817	0.80487	1.47
Mof_O 	O 	0.65855	0.96223	0.02867	-0.735
Mof_O 	O 	0.63617	0.89547	0.26427	-0.546
Mof_O 	O 	0.68723	0.94107	0.66897	-0.668
Mof_C 	C 	0.64915	0.91326	0.09057	0.492
Mof_C 	C 	0.66227	0.87535	0.95247	-0.222
Mof_C 	C 	0.67926	0.89056	0.75857	0.226
Mof_C 	C 	0.68598	0.84918	0.63947	-0.084
Mof_H 	H 	0.69393	0.85707	0.49297	0.067
Mof_Mg	Mg	0.6485	0.0289	0.1382	1.47
Mof_O 	O 	0.70444	0.02966	0.362	-0.735
Mof_O 	O 	0.7712	0.07404	0.5976	-0.546
Mof_O 	O 	0.7256	0.0795	0.0023	-0.668
Mof_C 	C 	0.75341	0.06923	0.4239	0.492
Mof_C 	C 	0.79132	0.12026	0.2858	-0.221
Mof_C 	C 	0.77611	0.12204	0.0919	0.225
Mof_C 	C 	0.81749	0.17014	0.9728	-0.082
Mof_H 	H 	0.8096	0.1702	0.8263	0.067
Mof_Mg	Mg	0.31517	0.36223	0.47153	1.47
Mof_O 	O 	0.37111	0.36299	0.69533	-0.736
Mof_O 	O 	0.43787	0.40737	0.93093	-0.547
Mof_O 	O 	0.39227	0.41283	0.33563	-0.668
Mof_C 	C 	0.42008	0.40256	0.75723	0.492
Mof_C 	C 	0.45799	0.45359	0.61913	-0.221
Mof_C 	C 	0.44278	0.45537	0.42523	0.226
Mof_C 	C 	0.48416	0.50347	0.30613	-0.084
Mof_H 	H 	0.47627	0.50353	0.15963	0.067
Mof_Mg	Mg	0.98183	0.69557	0.80487	1.47
Mof_O 	O 	0.03777	0.69633	0.02867	-0.735
Mof_O 	O 	0.10453	0.74071	0.26427	-0.547
Mof_O 	O 	0.05893	0.74617	0.66897	-0.668
Mof_C 	C 	0.08674	0.7359	0.09057	0.493
Mof_C 	C 	0.12465	0.78693	0.95247	-0.223
Mof_C 	C 	0.10944	0.78871	0.75857	0.227
Mof_C 	C 	0.15082	0.83681	0.63947	-0.084
Mof_H 	H 	0.14293	0.83687	0.49297	0.068
Mof_Mg	Mg	0.9711	0.6196	0.1382	1.47
Mof_O 	O 	0.97034	0.67478	0.362	-0.736
Mof_O 	O 	0.92596	0.69716	0.5976	-0.546
Mof_O 	O 	0.9205	0.6461	0.0023	-0.669
Mof_C 	C 	0.93077	0.68418	0.4239	0.492
Mof_C 	C 	0.87974	0.67106	0.2858	-0.221
Mof_C 	C 	0.87796	0.65407	0.0919	0.226
Mof_C 	C 	0.82986	0.64735	0.9728	-0.083
Mof_H 	H 	0.8298	0.6394	0.8263	0.067
Mof_Mg	Mg	0.63777	0.95293	0.47153	1.47
Mof_O 	O 	0.63701	0.00811	0.69533	-0.735
Mof_O 	O 	0.59263	0.03049	0.93093	-0.546
Mof_O 	O 	0.58717	0.97943	0.33563	-0.668
Mof_C 	C 	0.59744	0.01751	0.75723	0.492
Mof_C 	C 	0.54641	0.00439	0.61913	-0.221
Mof_C 	C 	0.54463	0.9874	0.42523	0.226
Mof_C 	C 	0.49653	0.98068	0.30613	-0.084
Mof_H 	H 	0.49647	0.97273	0.15963	0.067
Mof_Mg	Mg	0.30443	0.28627	0.80487	1.47
Mof_O 	O 	0.30367	0.34145	0.02867	-0.736
Mof_O 	O 	0.25929	0.36383	0.26427	-0.546
Mof_O 	O 	0.25383	0.31277	0.66897	-0.668
Mof_C 	C 	0.2641	0.35085	0.09057	0.492
Mof_C 	C 	0.21307	0.33773	0.95247	-0.221
Mof_C 	C 	0.21129	0.32074	0.75857	0.226
Mof_C 	C 	0.16319	0.31402	0.63947	-0.084
Mof_H 	H 	0.16313	0.30607	0.49297	0.067
Mof_Mg	Mg	0.6196	0.6485	0.8618	1.47
Mof_O 	O 	0.67478	0.70444	0.638	-0.736
Mof_O 	O 	0.69716	0.7712	0.4024	-0.546
Mof_O 	O 	0.6461	0.7256	0.9977	-0.668
Mof_C 	C 	0.68418	0.75341	0.5761	0.492
Mof_C 	C 	0.67106	0.79132	0.7142	-0.221
Mof_C 	C 	0.65407	0.77611	0.9081	0.226
Mof_C 	C 	0.64735	0.81749	0.0272	-0.083
Mof_H 	H 	0.6394	0.8096	0.1737	0.067
Mof_Mg	Mg	0.28627	0.98183	0.19513	1.47
Mof_O 	O 	0.34145	0.03777	0.97133	-0.735
Mof_O 	O 	0.36383	0.10453	0.73573	-0.546
Mof_O 	O 	0.31277	0.05893	0.33103	-0.668
Mof_C 	C 	0.35085	0.08674	0.90943	0.492
Mof_C 	C 	0.33773	0.12465	0.04753	-0.222
Mof_C 	C 	0.32074	0.10944	0.24143	0.226
Mof_C 	C 	0.31402	0.15082	0.36053	-0.084
Mof_H 	H 	0.30607	0.14293	0.50703	0.067
Mof_Mg	Mg	0.95293	0.31517	0.52847	1.47
Mof_O 	O 	0.00811	0.37111	0.30467	-0.735
Mof_O 	O 	0.03049	0.43787	0.06907	-0.546
Mof_O 	O 	0.97943	0.39227	0.66437	-0.668
Mof_C 	C 	0.01751	0.42008	0.24277	0.492
Mof_C 	C 	0.00439	0.45799	0.38087	-0.221
Mof_C 	C 	0.9874	0.44278	0.57477	0.226
Mof_C 	C 	0.98068	0.48416	0.69387	-0.084
Mof_H 	H 	0.97273	0.47627	0.84037	0.067
Mof_Mg	Mg	0.3515	0.9711	0.8618	1.47
Mof_O 	O 	0.29556	0.97034	0.638	-0.735
Mof_O 	O 	0.2288	0.92596	0.4024	-0.546
Mof_O 	O 	0.2744	0.9205	0.9977	-0.668
Mof_C 	C 	0.24659	0.93077	0.5761	0.492
Mof_C 	C 	0.20868	0.87974	0.7142	-0.221
Mof_C 	C 	0.22389	0.87796	0.9081	0.225
Mof_C 	C 	0.18251	0.82986	0.0272	-0.082
Mof_H 	H 	0.1904	0.8298	0.1737	0.067
Mof_Mg	Mg	0.01817	0.30443	0.19513	1.47
Mof_O 	O 	0.96223	0.30367	0.97133	-0.735
Mof_O 	O 	0.89547	0.25929	0.73573	-0.547
Mof_O 	O 	0.94107	0.25383	0.33103	-0.668
Mof_C 	C 	0.91326	0.2641	0.90943	0.493
Mof_C 	C 	0.87535	0.21307	0.04753	-0.223
Mof_C 	C 	0.89056	0.21129	0.24143	0.227
Mof_C 	C 	0.84918	0.16319	0.36053	-0.084
Mof_H 	H 	0.85707	0.16313	0.50703	0.068
Mof_Mg	Mg	0.68483	0.63777	0.52847	1.47
Mof_O 	O 	0.62889	0.63701	0.30467	-0.736
Mof_O 	O 	0.56213	0.59263	0.06907	-0.547
Mof_O 	O 	0.60773	0.58717	0.66437	-0.668
Mof_C 	C 	0.57992	0.59744	0.24277	0.492
Mof_C 	C 	0.54201	0.54641	0.38087	-0.221
Mof_C 	C 	0.55722	0.54463	0.57477	0.226
Mof_C 	C 	0.51584	0.49653	0.69387	-0.084
Mof_H 	H 	0.52373	0.49647	0.84037	0.067
Mof_Mg	Mg	0.0289	0.3804	0.8618	1.47
Mof_O 	O 	0.02966	0.32522	0.638	-0.736
Mof_O 	O 	0.07404	0.30284	0.4024	-0.546
Mof_O 	O 	0.0795	0.3539	0.9977	-0.669
Mof_C 	C 	0.06923	0.31582	0.5761	0.492
Mof_C 	C 	0.12026	0.32894	0.7142	-0.221
Mof_C 	C 	0.12204	0.34593	0.9081	0.226
Mof_C 	C 	0.17014	0.35265	0.0272	-0.083
Mof_H 	H 	0.1702	0.3606	0.1737	0.067
Mof_Mg	Mg	0.69557	0.71373	0.19513	1.47
Mof_O 	O 	0.69633	0.65855	0.97133	-0.736
Mof_O 	O 	0.74071	0.63617	0.73573	-0.546
Mof_O 	O 	0.74617	0.68723	0.33103	-0.668
Mof_C 	C 	0.7359	0.64915	0.90943	0.492
Mof_C 	C 	0.78693	0.66227	0.04753	-0.221
Mof_C 	C 	0.78871	0.67926	0.24143	0.226
Mof_C 	C 	0.83681	0.68598	0.36053	-0.084
Mof_H 	H 	0.83687	0.69393	0.50703	0.067
Mof_Mg	Mg	0.36223	0.04707	0.52847	1.47
Mof_O 	O 	0.36299	0.99189	0.30467	-0.735
Mof_O 	O 	0.40737	0.96951	0.06907	-0.546
Mof_O 	O 	0.41283	0.02057	0.66437	-0.668
Mof_C 	C 	0.40256	0.98249	0.24277	0.492
Mof_C 	C 	0.45359	0.99561	0.38087	-0.221
Mof_C 	C 	0.45537	0.0126	0.57477	0.226
Mof_C 	C 	0.50347	0.01932	0.69387	-0.084
Mof_H 	H 	0.50353	0.02727	0.84037	0.067
_end
