data_functionalizedCrystal
_audit_creation_method	'EQeq! by Chris Wilmer'
_symmetry_space_group_name_H-M	'P1'
_symmetry_Int_Tables_number	1
_symmetry_cell_setting	triclinic
loop_
_symmetry_equiv_pos_as_xyz
  x,y,z
_cell_length_a	13.111
_cell_length_b	14.791
_cell_length_c	15.671
_cell_angle_alpha	90
_cell_angle_beta	92.625
_cell_angle_gamma	90
loop_
_atom_site_label
_atom_site_type_symbol
_atom_site_fract_x
_atom_site_fract_y
_atom_site_fract_z
_atom_site_charge
Mof_Cu	Cu	0.52586	0.1982	0.3918	0.864
Mof_C 	C 	0.8874	0.1789	0.7999	0.101
Mof_H 	H 	0.9063	0.1412	0.8455	-0.015
Mof_C 	C 	0.8184	0.1472	0.7383	-0.141
Mof_H 	H 	0.7923	0.089	0.7416	0.09
Mof_C 	C 	0.7886	0.2037	0.6711	0.074
Mof_C 	C 	0.8296	0.2887	0.6694	-0.137
Mof_H 	H 	0.8106	0.3285	0.6255	0.091
Mof_C 	C 	0.8992	0.3152	0.7329	0.095
Mof_H 	H 	0.9269	0.373	0.7309	0.006
Mof_C 	C 	0.7133	0.1728	0.606	0.091
Mof_C 	C 	0.1693	0.2481	0.7652	0.085
Mof_H 	H 	0.1474	0.3027	0.7412	-0.01
Mof_C 	C 	0.2353	0.1951	0.7208	-0.145
Mof_H 	H 	0.2573	0.2137	0.668	0.09
Mof_C 	C 	0.2684	0.1135	0.7559	0.078
Mof_C 	C 	0.2332	0.09	0.8342	-0.153
Mof_H 	H 	0.2537	0.0358	0.8598	0.083
Mof_C 	C 	0.1677	0.1464	0.8745	0.094
Mof_H 	H 	0.145	0.1293	0.9276	-0.019
Mof_C 	C 	0.336	0.0555	0.70861	0.054
Mof_N 	N 	0.928	0.26072	0.79724	-0.224
Mof_N 	N 	0.6854	0.22122	0.53608	-0.094
Mof_N 	N 	0.6161	0.16957	0.49612	-0.157
Mof_N 	N 	0.603	0.09381	0.53972	-0.154
Mof_N 	N 	0.6639	0.09377	0.60968	-0.092
Mof_N 	N 	0.1354	0.22434	0.84097	-0.237
Mof_N 	N 	0.3785	0.08184	0.63626	-0.089
Mof_N 	N 	0.4296	0.00954	0.61246	-0.168
Mof_N 	N 	0.4188	0.94268	0.66698	-0.097
Mof_N 	N 	0.36	0.96976	0.72915	-0.062
Mof_N 	N 	0.4169	0.12503	0.44235	-0.245
Mof_N 	N 	0.3306	0.1356	0.4281	-0.04
Mof_N 	N 	0.2451	0.1449	0.4148	-0.083
Mof_Cu	Cu	0.97414	0.6982	0.1082	0.878
Mof_C 	C 	0.6126	0.6789	0.7001	0.105
Mof_H 	H 	0.5937	0.6412	0.6545	-0.024
Mof_C 	C 	0.6816	0.6472	0.7617	-0.147
Mof_H 	H 	0.7077	0.589	0.7584	0.099
Mof_C 	C 	0.7114	0.7037	0.8289	0.084
Mof_C 	C 	0.6704	0.7887	0.8306	-0.142
Mof_H 	H 	0.6894	0.8285	0.8745	0.103
Mof_C 	C 	0.6008	0.8152	0.7671	0.1
Mof_H 	H 	0.5731	0.873	0.7691	0.002
Mof_C 	C 	0.7867	0.6728	0.894	0.098
Mof_C 	C 	0.3307	0.7481	0.7348	0.086
Mof_H 	H 	0.3526	0.8027	0.7588	0.001
Mof_C 	C 	0.2647	0.6951	0.7792	-0.135
Mof_H 	H 	0.2427	0.7137	0.832	0.096
Mof_C 	C 	0.2316	0.6135	0.7441	0.07
Mof_C 	C 	0.2668	0.59	0.6658	-0.144
Mof_H 	H 	0.2463	0.5358	0.6402	0.085
Mof_C 	C 	0.3323	0.6464	0.6255	0.093
Mof_H 	H 	0.355	0.6293	0.5724	-0.017
Mof_C 	C 	0.164	0.5555	0.79139	0.09
Mof_N 	N 	0.572	0.76072	0.70276	-0.236
Mof_N 	N 	0.8146	0.72122	0.96392	-0.069
Mof_N 	N 	0.8839	0.66957	0.00388	-0.182
Mof_N 	N 	0.897	0.59381	0.96028	-0.114
Mof_N 	N 	0.8361	0.59377	0.89032	-0.08
Mof_N 	N 	0.3646	0.72434	0.65903	-0.232
Mof_N 	N 	0.1215	0.58184	0.86374	-0.087
Mof_N 	N 	0.0704	0.50954	0.88754	-0.145
Mof_N 	N 	0.0812	0.44268	0.83302	-0.12
Mof_N 	N 	0.14	0.46976	0.77085	-0.093
Mof_N 	N 	0.0831	0.62503	0.05765	-0.258
Mof_N 	N 	0.1694	0.6356	0.0719	-0.04
Mof_N 	N 	0.2549	0.6449	0.0852	-0.078
Mof_Cu	Cu	0.47414	0.8018	0.6082	0.866
Mof_C 	C 	0.1126	0.8211	0.2001	0.101
Mof_H 	H 	0.0937	0.8588	0.1545	-0.033
Mof_C 	C 	0.1816	0.8528	0.2617	-0.153
Mof_H 	H 	0.2077	0.911	0.2584	0.1
Mof_C 	C 	0.2114	0.7963	0.3289	0.079
Mof_C 	C 	0.1704	0.7113	0.3306	-0.149
Mof_H 	H 	0.1894	0.6715	0.3745	0.087
Mof_C 	C 	0.1008	0.6848	0.2671	0.093
Mof_H 	H 	0.0731	0.627	0.2691	-0.018
Mof_C 	C 	0.2867	0.8272	0.394	0.089
Mof_C 	C 	0.8307	0.7519	0.2348	0.084
Mof_H 	H 	0.8526	0.6973	0.2588	0.003
Mof_C 	C 	0.7647	0.8049	0.2792	-0.126
Mof_H 	H 	0.7427	0.7863	0.332	0.091
Mof_C 	C 	0.7316	0.8865	0.2441	0.062
Mof_C 	C 	0.7668	0.91	0.1658	-0.134
Mof_H 	H 	0.7463	0.9642	0.1402	0.092
Mof_C 	C 	0.8323	0.8536	0.1255	0.092
Mof_H 	H 	0.855	0.8707	0.0724	-0.014
Mof_C 	C 	0.664	0.9445	0.29139	0.126
Mof_N 	N 	0.072	0.73928	0.20276	-0.248
Mof_N 	N 	0.3146	0.77878	0.46392	-0.095
Mof_N 	N 	0.3839	0.83043	0.50388	-0.154
Mof_N 	N 	0.397	0.90619	0.46028	-0.139
Mof_N 	N 	0.3361	0.90623	0.39032	-0.081
Mof_N 	N 	0.8646	0.77566	0.15903	-0.229
Mof_N 	N 	0.6215	0.91816	0.36374	-0.092
Mof_N 	N 	0.5704	0.99046	0.38754	-0.123
Mof_N 	N 	0.5812	0.05732	0.33302	-0.132
Mof_N 	N 	0.64	0.03024	0.27085	-0.116
Mof_N 	N 	0.5831	0.87497	0.55765	-0.231
Mof_N 	N 	0.6694	0.8644	0.5719	-0.031
Mof_N 	N 	0.7549	0.8551	0.5852	-0.056
Mof_Cu	Cu	0.02586	0.3018	0.8918	0.851
Mof_C 	C 	0.3874	0.3211	0.2999	0.096
Mof_H 	H 	0.4063	0.3588	0.3455	-0.025
Mof_C 	C 	0.3184	0.3528	0.2383	-0.148
Mof_H 	H 	0.2923	0.411	0.2416	0.09
Mof_C 	C 	0.2886	0.2963	0.1711	0.069
Mof_C 	C 	0.3296	0.2113	0.1694	-0.145
Mof_H 	H 	0.3106	0.1715	0.1255	0.075
Mof_C 	C 	0.3992	0.1848	0.2329	0.088
Mof_H 	H 	0.4269	0.127	0.2309	-0.015
Mof_C 	C 	0.2133	0.3272	0.106	0.082
Mof_C 	C 	0.6693	0.2519	0.2652	0.083
Mof_H 	H 	0.6474	0.1973	0.2412	-0.007
Mof_C 	C 	0.7353	0.3049	0.2208	-0.136
Mof_H 	H 	0.7573	0.2863	0.168	0.084
Mof_C 	C 	0.7684	0.3865	0.2559	0.07
Mof_C 	C 	0.7332	0.41	0.3342	-0.143
Mof_H 	H 	0.7537	0.4642	0.3598	0.091
Mof_C 	C 	0.6677	0.3536	0.3745	0.093
Mof_H 	H 	0.645	0.3707	0.4276	-0.015
Mof_C 	C 	0.836	0.4445	0.20861	0.092
Mof_N 	N 	0.428	0.23928	0.29724	-0.237
Mof_N 	N 	0.1854	0.27878	0.03608	-0.119
Mof_N 	N 	0.1161	0.33043	0.99612	-0.131
Mof_N 	N 	0.103	0.40619	0.03972	-0.173
Mof_N 	N 	0.1639	0.40623	0.10968	-0.092
Mof_N 	N 	0.6354	0.27566	0.34097	-0.233
Mof_N 	N 	0.8785	0.41816	0.13626	-0.092
Mof_N 	N 	0.9296	0.49046	0.11246	-0.142
Mof_N 	N 	0.9188	0.55732	0.16698	-0.109
Mof_N 	N 	0.86	0.53024	0.22915	-0.087
Mof_N 	N 	0.9169	0.37497	0.94235	-0.213
Mof_N 	N 	0.8306	0.3644	0.9281	-0.03
Mof_N 	N 	0.7451	0.3551	0.9148	-0.06
Mof_Cu	Cu	0.5	0	0.5	0.856
Mof_Cu	Cu	-0	0.5	-0	0.84
_end
