# CIF file generated by openbabel 3.1.0, see https://openbabel.org
data_I
_chemical_name_common 'image0'
_cell_length_a 15.123
_cell_length_b 12.305
_cell_length_c 19.264
_cell_angle_alpha 90
_cell_angle_beta 98.62
_cell_angle_gamma 90
_space_group_name_H-M_alt 'P 1'
_space_group_name_Hall 'P 1'
loop_
    _symmetry_equiv_pos_as_xyz
    x,y,z
loop_
    _atom_site_label
    _atom_site_type_symbol
    _atom_site_fract_x
    _atom_site_fract_y
    _atom_site_fract_z
    _atom_site_occupancy
    Mo1      Mo       0.48260    0.39580    0.67660    1.000
    Mo2      Mo       0.37640    0.49270    0.57600    1.000
    Mo3      Mo       0.25140    0.34170    0.44280    1.000
    Mo4      Mo       0.26200    0.13050    0.44390    1.000
    Mo5      Mo       0.40000    0.99640    0.57900    1.000
    Mo6      Mo       0.49370    0.11100    0.68090    1.000
    Mo7      Mo       0.50230    0.39270    0.32200    1.000
    Mo8      Mo       0.59350    0.50500    0.41910    1.000
    Mo9      Mo       0.73510    0.36920    0.55910    1.000
    Mo10     Mo       0.74470    0.15940    0.56100    1.000
    Mo11     Mo       0.61490    0.00040    0.42520    1.000
    Mo12     Mo       0.51530    0.10310    0.32440    1.000
    P1       P        0.30500    0.24100    0.61000    1.000
    P2       P        0.46500    0.24900    0.82300    1.000
    P3       P        0.16100    0.51400    0.54100    1.000
    P4       P        0.18300    0.95200    0.54800    1.000
    P5       P        0.70000    0.26200    0.39400    1.000
    P6       P        0.53300    0.24200    0.17800    1.000
    P7       P        0.81000    0.55600    0.45800    1.000
    P8       P        0.83800    0.97700    0.46200    1.000
    Cd1      Cd       0.50000    0.24570    0.50000    1.000
    Cd2      Cd       0.50040    0.25100    0.00060    1.000
    O1       O        0.36400    0.47000    0.67100    1.000
    O2       O        0.47900    0.39100    0.57000    1.000
    O3       O        0.46400    0.35600    0.78000    1.000
    O4       O        0.56000    0.25400    0.68300    1.000
    O5       O        0.38600    0.24900    0.66300    1.000
    O6       O        0.34400    0.46100    0.46600    1.000
    O7       O        0.25500    0.56900    0.56100    1.000
    O8       O        0.29700    0.34100    0.56600    1.000
    O9       O        0.35000    0.24800    0.44400    1.000
    O10      O        0.17100    0.25000    0.46800    1.000
    O11      O        0.16100    0.44400    0.47400    1.000
    O12      O        0.31000    0.14500    0.56000    1.000
    O13      O        0.18400    0.00700    0.47200    1.000
    O14      O        0.36100    0.01800    0.47500    1.000
    O15      O        0.39100    0.01300    0.68000    1.000
    O16      O        0.27800    0.92200    0.58100    1.000
    O17      O        0.49200    0.11600    0.57900    1.000
    O18      O        0.47400    0.15800    0.77800    1.000
    O19      O        0.60300    0.25900    0.34700    1.000
    O20      O        0.61000    0.47600    0.32400    1.000
    O21      O        0.50800    0.39200    0.42500    1.000
    O22      O        0.43000    0.23900    0.32300    1.000
    O23      O        0.52100    0.35400    0.21900    1.000
    O24      O        0.69600    0.36600    0.44100    1.000
    O25      O        0.62600    0.48200    0.53500    1.000
    O26      O        0.71400    0.59000    0.43200    1.000
    O27      O        0.63700    0.26300    0.55800    1.000
    O28      O        0.81700    0.49100    0.52300    1.000
    O29      O        0.82600    0.26600    0.54100    1.000
    O30      O        0.64600    0.02800    0.53400    1.000
    O31      O        0.83200    0.04500    0.52900    1.000
    O32      O        0.70400    0.16000    0.44600    1.000
    O33      O        0.74800    0.94300    0.43000    1.000
    O34      O        0.52400    0.11200    0.42300    1.000
    O35      O        0.62200    0.02800    0.32400    1.000
    O36      O        0.51200    0.14700    0.22100    1.000
    O37      O        0.21400    0.22500    0.64200    1.000
    O38      O        0.53100    0.24800    0.89100    1.000
    O39      O        0.36300    0.24300    0.83700    1.000
    O40      O        0.14000    0.44500    0.60500    1.000
    O41      O        0.09400    0.60900    0.52800    1.000
    O42      O        0.12100    0.85700    0.54700    1.000
    O43      O        0.14300    0.03200    0.59400    1.000
    O44      O        0.77400    0.26300    0.35500    1.000
    O45      O        0.47400    0.23600    0.11200    1.000
    O46      O        0.63400    0.24200    0.16200    1.000
    O47      O        0.84200    0.47500    0.39700    1.000
    O48      O        0.86700    0.65500    0.46700    1.000
    O49      O        0.86600    0.07000    0.40700    1.000
    O50      O        0.91600    0.91000    0.46900    1.000
    Mo13     Mo       0.98260    0.60420    0.17660    1.000
    Mo14     Mo       0.87640    0.50730    0.07600    1.000
    Mo15     Mo       0.75140    0.65830    0.94280    1.000
    Mo16     Mo       0.76200    0.86950    0.94390    1.000
    Mo17     Mo       0.90000    0.00360    0.07900    1.000
    Mo18     Mo       0.99370    0.88900    0.18090    1.000
    Mo19     Mo       0.00230    0.60730    0.82200    1.000
    Mo20     Mo       0.09350    0.49500    0.91910    1.000
    Mo21     Mo       0.23510    0.63080    0.05910    1.000
    Mo22     Mo       0.24470    0.84060    0.06100    1.000
    Mo23     Mo       0.11490    0.99960    0.92520    1.000
    Mo24     Mo       0.01530    0.89690    0.82440    1.000
    P9       P        0.80500    0.75900    0.11000    1.000
    P10      P        0.96500    0.75100    0.32300    1.000
    P11      P        0.66100    0.48600    0.04100    1.000
    P12      P        0.68300    0.04800    0.04800    1.000
    P13      P        0.20000    0.73800    0.89400    1.000
    P14      P        0.03300    0.75800    0.67800    1.000
    P15      P        0.31000    0.44400    0.95800    1.000
    P16      P        0.33800    0.02300    0.96200    1.000
    Cd3      Cd       0.00000    0.75430    0.00000    1.000
    Cd4      Cd       0.00040    0.74900    0.50060    1.000
    O51      O        0.86400    0.53000    0.17100    1.000
    O52      O        0.97900    0.60900    0.07000    1.000
    O53      O        0.96400    0.64400    0.28000    1.000
    O54      O        0.06000    0.74600    0.18300    1.000
    O55      O        0.88600    0.75100    0.16300    1.000
    O56      O        0.84400    0.53900    0.96600    1.000
    O57      O        0.75500    0.43100    0.06100    1.000
    O58      O        0.79700    0.65900    0.06600    1.000
    O59      O        0.85000    0.75200    0.94400    1.000
    O60      O        0.67100    0.75000    0.96800    1.000
    O61      O        0.66100    0.55600    0.97400    1.000
    O62      O        0.81000    0.85500    0.06000    1.000
    O63      O        0.68400    0.99300    0.97200    1.000
    O64      O        0.86100    0.98200    0.97500    1.000
    O65      O        0.89100    0.98700    0.18000    1.000
    O66      O        0.77800    0.07800    0.08100    1.000
    O67      O        0.99200    0.88400    0.07900    1.000
    O68      O        0.97400    0.84200    0.27800    1.000
    O69      O        0.10300    0.74100    0.84700    1.000
    O70      O        0.11000    0.52400    0.82400    1.000
    O71      O        0.00800    0.60800    0.92500    1.000
    O72      O        0.93000    0.76100    0.82300    1.000
    O73      O        0.02100    0.64600    0.71900    1.000
    O74      O        0.19600    0.63400    0.94100    1.000
    O75      O        0.12600    0.51800    0.03500    1.000
    O76      O        0.21400    0.41000    0.93200    1.000
    O77      O        0.13700    0.73700    0.05800    1.000
    O78      O        0.31700    0.50900    0.02300    1.000
    O79      O        0.32600    0.73400    0.04100    1.000
    O80      O        0.14600    0.97200    0.03400    1.000
    O81      O        0.33200    0.95500    0.02900    1.000
    O82      O        0.20400    0.84000    0.94600    1.000
    O83      O        0.24800    0.05700    0.93000    1.000
    O84      O        0.02400    0.88800    0.92300    1.000
    O85      O        0.12200    0.97200    0.82400    1.000
    O86      O        0.01200    0.85300    0.72100    1.000
    O87      O        0.71400    0.77500    0.14200    1.000
    O88      O        0.03100    0.75200    0.39100    1.000
    O89      O        0.86300    0.75700    0.33700    1.000
    O90      O        0.64000    0.55500    0.10500    1.000
    O91      O        0.59400    0.39100    0.02800    1.000
    O92      O        0.62100    0.14300    0.04700    1.000
    O93      O        0.64300    0.96800    0.09400    1.000
    O94      O        0.27400    0.73700    0.85500    1.000
    O95      O        0.97400    0.76400    0.61200    1.000
    O96      O        0.13400    0.75800    0.66200    1.000
    O97      O        0.34200    0.52500    0.89700    1.000
    O98      O        0.36700    0.34500    0.96700    1.000
    O99      O        0.36600    0.93000    0.90700    1.000
    O100     O        0.41600    0.09000    0.96900    1.000
