data_functionalizedCrystal
_audit_creation_method	'EQeq! by Chris Wilmer'
_symmetry_space_group_name_H-M	'P1'
_symmetry_Int_Tables_number	1
_symmetry_cell_setting	triclinic
loop_
_symmetry_equiv_pos_as_xyz
  x,y,z
_cell_length_a	15.283
_cell_length_b	24.9021
_cell_length_c	10.6168
_cell_angle_alpha	90
_cell_angle_beta	90
_cell_angle_gamma	90
loop_
_atom_site_label
_atom_site_type_symbol
_atom_site_fract_x
_atom_site_fract_y
_atom_site_fract_z
_atom_site_charge
Mof_O 	O 	0.64453	0.72684	0.60347	-0.384
Mof_O 	O 	0.30426	0.8416	0.3962	-0.38
Mof_O 	O 	0.63612	0.61959	0.28668	-0.463
Mof_O 	O 	0.41379	0.62681	0.2906	-0.249
Mof_O 	O 	0.27598	0.50488	0.2888	-0.258
Mof_N 	N 	0.72873	0.62403	0.1151	-0.174
Mof_N 	N 	0.60933	0.67462	0.1155	-0.172
Mof_N 	N 	0.45101	0.67747	0.1152	-0.156
Mof_N 	N 	0.32584	0.63241	0.1145	-0.15
Mof_N 	N 	0.2332	0.5536	0.1151	-0.151
Mof_N 	N 	0.2093	0.46587	0.1156	-0.159
Mof_H 	H 	0.4707	0.778	0.5757	0.099
Mof_C 	C 	0.4724	0.88547	0.6185	-0.274
Mof_H 	H 	0.443	0.9209	0.6204	0.102
Mof_H 	H 	0.4549	0.8653	0.6948	0.117
Mof_C 	C 	0.57203	0.89338	0.618	0.194
Mof_H 	H 	0.59	0.9136	0.6951	-0.03
Mof_C 	C 	0.6163	0.83784	0.6175	-0.278
Mof_H 	H 	0.6807	0.8423	0.6188	0.117
Mof_H 	H 	0.599	0.8177	0.6939	0.12
Mof_C 	C 	0.65653	0.63788	0.1816	0.351
Mof_C 	C 	0.5312	0.70062	0.1634	0.067
Mof_H 	H 	0.531	0.6981	0.2564	0.02
Mof_H 	H 	0.533	0.7392	0.1406	0.013
Mof_C 	C 	0.39838	0.64392	0.1844	0.268
Mof_C 	C 	0.25009	0.6063	0.1674	0.045
Mof_H 	H 	0.1982	0.6293	0.153	0.018
Mof_H 	H 	0.2583	0.6029	0.2595	0.04
Mof_C 	C 	0.2436	0.50755	0.1837	0.27
Mof_C 	C 	0.20348	0.41128	0.1625	0.069
Mof_H 	H 	0.2068	0.412	0.2556	0.015
Mof_H 	H 	0.1457	0.3963	0.1391	0.011
Mof_O 	O 	0.35547	0.27316	0.60347	-0.383
Mof_O 	O 	0.69574	0.1584	0.3962	-0.379
Mof_O 	O 	0.36388	0.38041	0.28668	-0.462
Mof_O 	O 	0.58621	0.37319	0.2906	-0.248
Mof_O 	O 	0.72402	0.49512	0.2888	-0.257
Mof_N 	N 	0.27127	0.37597	0.1151	-0.173
Mof_N 	N 	0.39067	0.32538	0.1155	-0.171
Mof_N 	N 	0.54899	0.32253	0.1152	-0.155
Mof_N 	N 	0.67416	0.36759	0.1145	-0.149
Mof_N 	N 	0.7668	0.4464	0.1151	-0.15
Mof_N 	N 	0.7907	0.53413	0.1156	-0.158
Mof_H 	H 	0.5293	0.222	0.5757	0.1
Mof_C 	C 	0.5276	0.11453	0.6185	-0.274
Mof_H 	H 	0.557	0.0791	0.6204	0.102
Mof_H 	H 	0.5451	0.1347	0.6948	0.117
Mof_C 	C 	0.42797	0.10662	0.618	0.194
Mof_H 	H 	0.41	0.0864	0.6951	-0.03
Mof_C 	C 	0.3837	0.16216	0.6175	-0.278
Mof_H 	H 	0.3193	0.1577	0.6188	0.117
Mof_H 	H 	0.401	0.1823	0.6939	0.12
Mof_C 	C 	0.34347	0.36212	0.1816	0.351
Mof_C 	C 	0.4688	0.29938	0.1634	0.067
Mof_H 	H 	0.469	0.3019	0.2564	0.02
Mof_H 	H 	0.467	0.2608	0.1406	0.013
Mof_C 	C 	0.60162	0.35608	0.1844	0.268
Mof_C 	C 	0.74991	0.3937	0.1674	0.045
Mof_H 	H 	0.8018	0.3707	0.153	0.018
Mof_H 	H 	0.7417	0.3971	0.2595	0.04
Mof_C 	C 	0.7564	0.49245	0.1837	0.27
Mof_C 	C 	0.79652	0.58872	0.1625	0.069
Mof_H 	H 	0.7932	0.588	0.2556	0.015
Mof_H 	H 	0.8543	0.6037	0.1391	0.011
Mof_O 	O 	0.85547	0.22684	0.39653	-0.385
Mof_O 	O 	0.19574	0.3416	0.6038	-0.377
Mof_O 	O 	0.86388	0.11959	0.71332	-0.46
Mof_O 	O 	0.08621	0.12681	0.7094	-0.247
Mof_O 	O 	0.22402	0.00488	0.7112	-0.255
Mof_N 	N 	0.77127	0.12403	0.8849	-0.156
Mof_N 	N 	0.89067	0.17462	0.8845	-0.154
Mof_N 	N 	0.04899	0.17747	0.8848	-0.137
Mof_N 	N 	0.17416	0.13241	0.8855	-0.131
Mof_N 	N 	0.2668	0.0536	0.8849	-0.133
Mof_N 	N 	0.2907	0.96587	0.8844	-0.141
Mof_H 	H 	0.0293	0.278	0.4243	0.099
Mof_C 	C 	0.0276	0.38547	0.3815	-0.271
Mof_H 	H 	0.057	0.4209	0.3796	0.099
Mof_H 	H 	0.0451	0.3653	0.3052	0.112
Mof_C 	C 	0.92797	0.39338	0.382	0.191
Mof_H 	H 	0.91	0.4136	0.3049	-0.033
Mof_C 	C 	0.8837	0.33784	0.3825	-0.276
Mof_H 	H 	0.8193	0.3423	0.3812	0.116
Mof_H 	H 	0.901	0.3177	0.3061	0.115
Mof_C 	C 	0.84347	0.13788	0.8184	0.358
Mof_C 	C 	0.9688	0.20062	0.8366	0.071
Mof_H 	H 	0.969	0.1981	0.7436	0.019
Mof_H 	H 	0.967	0.2392	0.8594	0.026
Mof_C 	C 	0.10162	0.14392	0.8156	0.275
Mof_C 	C 	0.24991	0.1063	0.8326	0.05
Mof_H 	H 	0.3018	0.1293	0.847	0.029
Mof_H 	H 	0.2417	0.1029	0.7405	0.039
Mof_C 	C 	0.2564	0.00755	0.8163	0.278
Mof_C 	C 	0.29652	0.91128	0.8375	0.074
Mof_H 	H 	0.2932	0.912	0.7444	0.015
Mof_H 	H 	0.3543	0.8963	0.8609	0.024
Mof_O 	O 	0.14453	0.77316	0.39653	-0.385
Mof_O 	O 	0.80426	0.6584	0.6038	-0.377
Mof_O 	O 	0.13612	0.88041	0.71332	-0.46
Mof_O 	O 	0.91379	0.87319	0.7094	-0.247
Mof_O 	O 	0.77598	0.99512	0.7112	-0.255
Mof_N 	N 	0.22873	0.87597	0.8849	-0.156
Mof_N 	N 	0.10933	0.82538	0.8845	-0.154
Mof_N 	N 	0.95101	0.82253	0.8848	-0.137
Mof_N 	N 	0.82584	0.86759	0.8855	-0.131
Mof_N 	N 	0.7332	0.9464	0.8849	-0.133
Mof_N 	N 	0.7093	0.03413	0.8844	-0.141
Mof_H 	H 	0.9707	0.722	0.4243	0.099
Mof_C 	C 	0.9724	0.61453	0.3815	-0.271
Mof_H 	H 	0.943	0.5791	0.3796	0.099
Mof_H 	H 	0.9549	0.6347	0.3052	0.112
Mof_C 	C 	0.07203	0.60662	0.382	0.191
Mof_H 	H 	0.09	0.5864	0.3049	-0.033
Mof_C 	C 	0.1163	0.66216	0.3825	-0.276
Mof_H 	H 	0.1807	0.6577	0.3812	0.116
Mof_H 	H 	0.099	0.6823	0.3061	0.115
Mof_C 	C 	0.15653	0.86212	0.8184	0.358
Mof_C 	C 	0.0312	0.79938	0.8366	0.071
Mof_H 	H 	0.031	0.8019	0.7436	0.019
Mof_H 	H 	0.033	0.7608	0.8594	0.026
Mof_C 	C 	0.89838	0.85608	0.8156	0.275
Mof_C 	C 	0.75009	0.8937	0.8326	0.05
Mof_H 	H 	0.6982	0.8707	0.847	0.029
Mof_H 	H 	0.7583	0.8971	0.7405	0.039
Mof_C 	C 	0.7436	0.99245	0.8163	0.278
Mof_C 	C 	0.70348	0.08872	0.8375	0.074
Mof_H 	H 	0.7068	0.088	0.7444	0.015
Mof_H 	H 	0.6457	0.1037	0.8609	0.024
Mof_O 	O 	0.35547	0.27316	0.39653	-0.385
Mof_O 	O 	0.69574	0.1584	0.6038	-0.377
Mof_O 	O 	0.36388	0.38041	0.71332	-0.46
Mof_O 	O 	0.58621	0.37319	0.7094	-0.247
Mof_O 	O 	0.72402	0.49512	0.7112	-0.256
Mof_N 	N 	0.27127	0.37597	0.8849	-0.156
Mof_N 	N 	0.39067	0.32538	0.8845	-0.154
Mof_N 	N 	0.54899	0.32253	0.8848	-0.137
Mof_N 	N 	0.67416	0.36759	0.8855	-0.131
Mof_N 	N 	0.7668	0.4464	0.8849	-0.133
Mof_N 	N 	0.7907	0.53413	0.8844	-0.14
Mof_H 	H 	0.5293	0.222	0.4243	0.099
Mof_C 	C 	0.5276	0.11453	0.3815	-0.272
Mof_H 	H 	0.557	0.0791	0.3796	0.099
Mof_H 	H 	0.5451	0.1347	0.3052	0.112
Mof_C 	C 	0.42797	0.10662	0.382	0.192
Mof_H 	H 	0.41	0.0864	0.3049	-0.034
Mof_C 	C 	0.3837	0.16216	0.3825	-0.276
Mof_H 	H 	0.3193	0.1577	0.3812	0.116
Mof_H 	H 	0.401	0.1823	0.3061	0.115
Mof_C 	C 	0.34347	0.36212	0.8184	0.358
Mof_C 	C 	0.4688	0.29938	0.8366	0.072
Mof_H 	H 	0.469	0.3019	0.7436	0.019
Mof_H 	H 	0.467	0.2608	0.8594	0.026
Mof_C 	C 	0.60162	0.35608	0.8156	0.275
Mof_C 	C 	0.74991	0.3937	0.8326	0.05
Mof_H 	H 	0.8018	0.3707	0.847	0.029
Mof_H 	H 	0.7417	0.3971	0.7405	0.039
Mof_C 	C 	0.7564	0.49245	0.8163	0.278
Mof_C 	C 	0.79652	0.58872	0.8375	0.074
Mof_H 	H 	0.7932	0.588	0.7444	0.015
Mof_H 	H 	0.8543	0.6037	0.8609	0.024
Mof_O 	O 	0.64453	0.72684	0.39653	-0.385
Mof_O 	O 	0.30426	0.8416	0.6038	-0.377
Mof_O 	O 	0.63612	0.61959	0.71332	-0.46
Mof_O 	O 	0.41379	0.62681	0.7094	-0.247
Mof_O 	O 	0.27598	0.50488	0.7112	-0.256
Mof_N 	N 	0.72873	0.62403	0.8849	-0.156
Mof_N 	N 	0.60933	0.67462	0.8845	-0.154
Mof_N 	N 	0.45101	0.67747	0.8848	-0.137
Mof_N 	N 	0.32584	0.63241	0.8855	-0.131
Mof_N 	N 	0.2332	0.5536	0.8849	-0.133
Mof_N 	N 	0.2093	0.46587	0.8844	-0.14
Mof_H 	H 	0.4707	0.778	0.4243	0.099
Mof_C 	C 	0.4724	0.88547	0.3815	-0.272
Mof_H 	H 	0.443	0.9209	0.3796	0.099
Mof_H 	H 	0.4549	0.8653	0.3052	0.112
Mof_C 	C 	0.57203	0.89338	0.382	0.192
Mof_H 	H 	0.59	0.9136	0.3049	-0.034
Mof_C 	C 	0.6163	0.83784	0.3825	-0.276
Mof_H 	H 	0.6807	0.8423	0.3812	0.116
Mof_H 	H 	0.599	0.8177	0.3061	0.115
Mof_C 	C 	0.65653	0.63788	0.8184	0.358
Mof_C 	C 	0.5312	0.70062	0.8366	0.072
Mof_H 	H 	0.531	0.6981	0.7436	0.019
Mof_H 	H 	0.533	0.7392	0.8594	0.026
Mof_C 	C 	0.39838	0.64392	0.8156	0.275
Mof_C 	C 	0.25009	0.6063	0.8326	0.05
Mof_H 	H 	0.1982	0.6293	0.847	0.029
Mof_H 	H 	0.2583	0.6029	0.7405	0.039
Mof_C 	C 	0.2436	0.50755	0.8163	0.278
Mof_C 	C 	0.20348	0.41128	0.8375	0.074
Mof_H 	H 	0.2068	0.412	0.7444	0.015
Mof_H 	H 	0.1457	0.3963	0.8609	0.024
Mof_O 	O 	0.14453	0.77316	0.60347	-0.383
Mof_O 	O 	0.80426	0.6584	0.3962	-0.379
Mof_O 	O 	0.13612	0.88041	0.28668	-0.462
Mof_O 	O 	0.91379	0.87319	0.2906	-0.248
Mof_O 	O 	0.77598	0.99512	0.2888	-0.257
Mof_N 	N 	0.22873	0.87597	0.1151	-0.173
Mof_N 	N 	0.10933	0.82538	0.1155	-0.171
Mof_N 	N 	0.95101	0.82253	0.1152	-0.154
Mof_N 	N 	0.82584	0.86759	0.1145	-0.149
Mof_N 	N 	0.7332	0.9464	0.1151	-0.15
Mof_N 	N 	0.7093	0.03413	0.1156	-0.158
Mof_H 	H 	0.9707	0.722	0.5757	0.1
Mof_C 	C 	0.9724	0.61453	0.6185	-0.273
Mof_H 	H 	0.943	0.5791	0.6204	0.102
Mof_H 	H 	0.9549	0.6347	0.6948	0.117
Mof_C 	C 	0.07203	0.60662	0.618	0.193
Mof_H 	H 	0.09	0.5864	0.6951	-0.03
Mof_C 	C 	0.1163	0.66216	0.6175	-0.278
Mof_H 	H 	0.1807	0.6577	0.6188	0.117
Mof_H 	H 	0.099	0.6823	0.6939	0.12
Mof_C 	C 	0.15653	0.86212	0.1816	0.35
Mof_C 	C 	0.0312	0.79938	0.1634	0.067
Mof_H 	H 	0.031	0.8019	0.2564	0.02
Mof_H 	H 	0.033	0.7608	0.1406	0.013
Mof_C 	C 	0.89838	0.85608	0.1844	0.268
Mof_C 	C 	0.75009	0.8937	0.1674	0.045
Mof_H 	H 	0.6982	0.8707	0.153	0.018
Mof_H 	H 	0.7583	0.8971	0.2595	0.04
Mof_C 	C 	0.7436	0.99245	0.1837	0.271
Mof_C 	C 	0.70348	0.08872	0.1625	0.069
Mof_H 	H 	0.7068	0.088	0.2556	0.015
Mof_H 	H 	0.6457	0.1037	0.1391	0.011
Mof_O 	O 	0.85547	0.22684	0.60347	-0.383
Mof_O 	O 	0.19574	0.3416	0.3962	-0.379
Mof_O 	O 	0.86388	0.11959	0.28668	-0.462
Mof_O 	O 	0.08621	0.12681	0.2906	-0.248
Mof_O 	O 	0.22402	0.00488	0.2888	-0.257
Mof_N 	N 	0.77127	0.12403	0.1151	-0.173
Mof_N 	N 	0.89067	0.17462	0.1155	-0.171
Mof_N 	N 	0.04899	0.17747	0.1152	-0.154
Mof_N 	N 	0.17416	0.13241	0.1145	-0.149
Mof_N 	N 	0.2668	0.0536	0.1151	-0.15
Mof_N 	N 	0.2907	0.96587	0.1156	-0.158
Mof_H 	H 	0.0293	0.278	0.5757	0.1
Mof_C 	C 	0.0276	0.38547	0.6185	-0.273
Mof_H 	H 	0.057	0.4209	0.6204	0.102
Mof_H 	H 	0.0451	0.3653	0.6948	0.117
Mof_C 	C 	0.92797	0.39338	0.618	0.193
Mof_H 	H 	0.91	0.4136	0.6951	-0.03
Mof_C 	C 	0.8837	0.33784	0.6175	-0.278
Mof_H 	H 	0.8193	0.3423	0.6188	0.117
Mof_H 	H 	0.901	0.3177	0.6939	0.12
Mof_C 	C 	0.84347	0.13788	0.1816	0.35
Mof_C 	C 	0.9688	0.20062	0.1634	0.067
Mof_H 	H 	0.969	0.1981	0.2564	0.02
Mof_H 	H 	0.967	0.2392	0.1406	0.013
Mof_C 	C 	0.10162	0.14392	0.1844	0.268
Mof_C 	C 	0.24991	0.1063	0.1674	0.045
Mof_H 	H 	0.3018	0.1293	0.153	0.018
Mof_H 	H 	0.2417	0.1029	0.2595	0.04
Mof_C 	C 	0.2564	0.00755	0.1837	0.271
Mof_C 	C 	0.29652	0.91128	0.1625	0.069
Mof_H 	H 	0.2932	0.912	0.2556	0.015
Mof_H 	H 	0.3543	0.8963	0.1391	0.011
Mof_Tb	Tb	0.66358	0.63971	0.5	1.822
Mof_C 	C 	0.5895	0.80626	0.5	0.125
Mof_C 	C 	0.4886	0.79854	0.5	-0.235
Mof_C 	C 	0.4439	0.85435	0.5	0.121
Mof_C 	C 	0.6003	0.92451	0.5	-0.312
Mof_H 	H 	0.573	0.9606	0.5	0.111
Mof_H 	H 	0.6647	0.9292	0.5	0.128
Mof_C 	C 	0.6298	0.75041	0.5	0.22
Mof_C 	C 	0.3453	0.84526	0.5	0.207
Mof_Tb	Tb	0.33642	0.36029	0.5	1.822
Mof_C 	C 	0.4105	0.19374	0.5	0.125
Mof_C 	C 	0.5114	0.20146	0.5	-0.235
Mof_C 	C 	0.5561	0.14565	0.5	0.121
Mof_C 	C 	0.3997	0.07549	0.5	-0.312
Mof_H 	H 	0.427	0.0394	0.5	0.111
Mof_H 	H 	0.3353	0.0708	0.5	0.128
Mof_C 	C 	0.3702	0.24959	0.5	0.22
Mof_C 	C 	0.6547	0.15474	0.5	0.207
Mof_Tb	Tb	0.83642	0.13971	0.5	1.822
Mof_C 	C 	0.9105	0.30626	0.5	0.124
Mof_C 	C 	0.0114	0.29854	0.5	-0.234
Mof_C 	C 	0.0561	0.35435	0.5	0.121
Mof_C 	C 	0.8997	0.42451	0.5	-0.312
Mof_H 	H 	0.927	0.4606	0.5	0.111
Mof_H 	H 	0.8353	0.4292	0.5	0.128
Mof_C 	C 	0.8702	0.25041	0.5	0.22
Mof_C 	C 	0.1547	0.34526	0.5	0.207
Mof_Tb	Tb	0.16358	0.86029	0.5	1.822
Mof_C 	C 	0.0895	0.69374	0.5	0.124
Mof_C 	C 	0.9886	0.70146	0.5	-0.234
Mof_C 	C 	0.9439	0.64565	0.5	0.121
Mof_C 	C 	0.1003	0.57549	0.5	-0.312
Mof_H 	H 	0.073	0.5394	0.5	0.111
Mof_H 	H 	0.1647	0.5708	0.5	0.128
Mof_C 	C 	0.1298	0.74959	0.5	0.22
Mof_C 	C 	0.8453	0.65474	0.5	0.207
Mof_C 	C 	0.7368	0.65512	-0	0.042
Mof_H 	H 	0.7912	0.6775	-0	0.014
Mof_C 	C 	0.6535	0.69037	-0	0.04
Mof_H 	H 	0.6683	0.7295	-0	0.014
Mof_C 	C 	0.409	0.69517	-0	0.039
Mof_H 	H 	0.3991	0.7349	-0	0.013
Mof_C 	C 	0.3217	0.6638	-0	0.039
Mof_H 	H 	0.2702	0.6886	-0	0.014
Mof_C 	C 	0.1842	0.54523	-0	0.039
Mof_H 	H 	0.1282	0.566	-0	0.01
Mof_C 	C 	0.1671	0.48362	-0	0.038
Mof_H 	H 	0.1031	0.4752	-0	0.01
Mof_C 	C 	0.2632	0.34488	-0	0.042
Mof_H 	H 	0.2088	0.3225	-0	0.014
Mof_C 	C 	0.3465	0.30963	-0	0.04
Mof_H 	H 	0.3317	0.2705	-0	0.014
Mof_C 	C 	0.591	0.30483	-0	0.039
Mof_H 	H 	0.6009	0.2651	-0	0.013
Mof_C 	C 	0.6783	0.3362	-0	0.039
Mof_H 	H 	0.7298	0.3114	-0	0.014
Mof_C 	C 	0.8158	0.45477	-0	0.039
Mof_H 	H 	0.8718	0.434	-0	0.01
Mof_C 	C 	0.8329	0.51638	-0	0.038
Mof_H 	H 	0.8969	0.5248	-0	0.01
Mof_C 	C 	0.7632	0.15512	-0	0.042
Mof_H 	H 	0.7088	0.1775	-0	0.014
Mof_C 	C 	0.8465	0.19037	-0	0.04
Mof_H 	H 	0.8317	0.2295	-0	0.014
Mof_C 	C 	0.091	0.19517	-0	0.039
Mof_H 	H 	0.1009	0.2349	-0	0.013
Mof_C 	C 	0.1783	0.1638	-0	0.039
Mof_H 	H 	0.2298	0.1886	-0	0.014
Mof_C 	C 	0.3158	0.04523	-0	0.039
Mof_H 	H 	0.3718	0.066	-0	0.01
Mof_C 	C 	0.3329	0.98362	-0	0.037
Mof_H 	H 	0.3969	0.9752	-0	0.01
Mof_C 	C 	0.2368	0.84488	-0	0.042
Mof_H 	H 	0.2912	0.8225	-0	0.014
Mof_C 	C 	0.1535	0.80963	-0	0.04
Mof_H 	H 	0.1683	0.7705	-0	0.014
Mof_C 	C 	0.909	0.80483	-0	0.039
Mof_H 	H 	0.8991	0.7651	-0	0.013
Mof_C 	C 	0.8217	0.8362	-0	0.039
Mof_H 	H 	0.7702	0.8114	-0	0.014
Mof_C 	C 	0.6842	0.95477	-0	0.039
Mof_H 	H 	0.6282	0.934	-0	0.01
Mof_C 	C 	0.6671	0.01638	-0	0.037
Mof_H 	H 	0.6031	0.0248	-0	0.01
_end
