data_functionalizedCrystal
_audit_creation_method	'EQeq! by Chris Wilmer'
_symmetry_space_group_name_H-M	'P1'
_symmetry_Int_Tables_number	1
_symmetry_cell_setting	triclinic
loop_
_symmetry_equiv_pos_as_xyz
  x,y,z
_cell_length_a	9.4056
_cell_length_b	22.3152
_cell_length_c	10.082
_cell_angle_alpha	90
_cell_angle_beta	102.96
_cell_angle_gamma	90
loop_
_atom_site_label
_atom_site_type_symbol
_atom_site_fract_x
_atom_site_fract_y
_atom_site_fract_z
_atom_site_charge
Mof_Er	Er	0.24787	0.27613	0.05256	1.695
Mof_Er	Er	0.71757	0.43395	0.86311	1.847
Mof_N 	N 	0.5998	0.41516	0.6297	-0.229
Mof_N 	N 	0.5329	0.41262	0.4072	-0.199
Mof_H 	H 	0.51867	0.42217	0.32273	0.156
Mof_N 	N 	0.7766	0.5085	0.6505	-0.19
Mof_O 	O 	0.0664	0.33652	0.1143	-0.411
Mof_O 	O 	0.0294	0.28574	0.8708	-0.396
Mof_O 	O 	0.8273	0.34105	0.7984	-0.378
Mof_O 	O 	0.8499	0.38093	0.0522	-0.393
Mof_O 	O 	0.5233	0.36042	0.8268	-0.441
Mof_O 	O 	0.6019	0.4363	0.0539	-0.38
Mof_O 	O 	0.3801	0.29478	0.6977	-0.497
Mof_O 	O 	0.2731	0.29258	0.3966	-0.525
Mof_O 	O 	0.3646	0.33489	0.2336	-0.474
Mof_O 	O 	0.4689	0.49216	0.163	-0.422
Mof_O 	O 	0.9743	0.44671	0.8708	-0.414
Mof_O 	O 	0.1809	0.48236	0.001	-0.411
Mof_C 	C 	0.4537	0.3682	0.4534	-0.035
Mof_C 	C 	0.4991	0.3705	0.5944	-0.056
Mof_C 	C 	0.6187	0.44	0.5161	0.121
Mof_C 	C 	0.7228	0.4892	0.5211	0.049
Mof_C 	C 	0.7651	0.512	0.4077	-0.118
Mof_H 	H 	0.72912	0.49606	0.32148	0.09
Mof_C 	C 	0.8636	0.5598	0.4277	0.049
Mof_H 	H 	0.89376	0.57735	0.35497	0.016
Mof_C 	C 	0.9149	0.5802	0.5596	-0.144
Mof_H 	H 	0.97928	0.61238	0.57601	0.086
Mof_C 	C 	0.8717	0.5535	0.6649	0.107
Mof_H 	H 	0.9108	0.56747	0.75239	0.008
Mof_C 	C 	0.3558	0.3288	0.3547	0.431
Mof_C 	C 	0.4633	0.3385	0.7104	0.401
Mof_C 	C 	0.5206	0.4793	0.0634	0.273
Mof_C 	C 	0.0444	0.4796	0.9613	0.271
Mof_C 	C 	0.9518	0.3482	0.0311	0.268
Mof_C 	C 	0.9333	0.3229	0.8857	0.244
Mof_Er	Er	0.75213	0.77613	0.44744	1.7
Mof_Er	Er	0.28243	0.93395	0.63689	1.843
Mof_N 	N 	0.4002	0.91516	0.8703	-0.229
Mof_N 	N 	0.4671	0.91262	0.0928	-0.199
Mof_H 	H 	0.48133	0.92217	0.17727	0.157
Mof_N 	N 	0.2234	0.0085	0.8495	-0.186
Mof_O 	O 	0.9336	0.83652	0.3857	-0.407
Mof_O 	O 	0.9706	0.78574	0.6292	-0.401
Mof_O 	O 	0.1727	0.84105	0.7016	-0.379
Mof_O 	O 	0.1501	0.88093	0.4478	-0.393
Mof_O 	O 	0.4767	0.86042	0.6732	-0.441
Mof_O 	O 	0.3981	0.9363	0.4461	-0.38
Mof_O 	O 	0.6199	0.79478	0.8023	-0.498
Mof_O 	O 	0.7269	0.79258	0.1034	-0.522
Mof_O 	O 	0.6354	0.83489	0.2664	-0.474
Mof_O 	O 	0.5311	0.99216	0.337	-0.421
Mof_O 	O 	0.0257	0.94671	0.6292	-0.412
Mof_O 	O 	0.8191	0.98236	0.499	-0.408
Mof_C 	C 	0.5463	0.8682	0.0466	-0.03
Mof_C 	C 	0.5009	0.8705	0.9056	-0.06
Mof_C 	C 	0.3813	0.94	0.9839	0.12
Mof_C 	C 	0.2772	0.9892	0.9789	0.045
Mof_C 	C 	0.2349	0.012	0.0923	-0.114
Mof_H 	H 	0.27088	0.99606	0.17852	0.089
Mof_C 	C 	0.1364	0.0598	0.0723	0.036
Mof_H 	H 	0.10624	0.07735	0.14503	0.019
Mof_C 	C 	0.0851	0.0802	0.9404	-0.129
Mof_H 	H 	0.02072	0.11238	0.92399	0.083
Mof_C 	C 	0.1283	0.0535	0.8351	0.101
Mof_H 	H 	0.0892	0.06747	0.74761	0.012
Mof_C 	C 	0.6442	0.8288	0.1453	0.429
Mof_C 	C 	0.5367	0.8385	0.7896	0.401
Mof_C 	C 	0.4794	0.9793	0.4366	0.272
Mof_C 	C 	0.9556	0.9796	0.5387	0.267
Mof_C 	C 	0.0482	0.8482	0.4689	0.262
Mof_C 	C 	0.0667	0.8229	0.6143	0.249
Mof_Er	Er	0.75213	0.72387	0.94744	1.694
Mof_Er	Er	0.28243	0.56605	0.13689	1.846
Mof_N 	N 	0.4002	0.58484	0.3703	-0.229
Mof_N 	N 	0.4671	0.58738	0.5928	-0.199
Mof_H 	H 	0.48133	0.57783	0.67727	0.156
Mof_N 	N 	0.2234	0.4915	0.3495	-0.19
Mof_O 	O 	0.9336	0.66348	0.8857	-0.411
Mof_O 	O 	0.9706	0.71426	0.1292	-0.396
Mof_O 	O 	0.1727	0.65895	0.2016	-0.378
Mof_O 	O 	0.1501	0.61907	0.9478	-0.393
Mof_O 	O 	0.4767	0.63958	0.1732	-0.441
Mof_O 	O 	0.3981	0.5637	0.9461	-0.38
Mof_O 	O 	0.6199	0.70522	0.3023	-0.497
Mof_O 	O 	0.7269	0.70742	0.6034	-0.525
Mof_O 	O 	0.6354	0.66511	0.7664	-0.474
Mof_O 	O 	0.5311	0.50784	0.837	-0.422
Mof_O 	O 	0.0257	0.55329	0.1292	-0.414
Mof_O 	O 	0.8191	0.51764	0.999	-0.411
Mof_C 	C 	0.5463	0.6318	0.5466	-0.035
Mof_C 	C 	0.5009	0.6295	0.4056	-0.056
Mof_C 	C 	0.3813	0.56	0.4839	0.121
Mof_C 	C 	0.2772	0.5108	0.4789	0.049
Mof_C 	C 	0.2349	0.488	0.5923	-0.118
Mof_H 	H 	0.27088	0.50394	0.67852	0.09
Mof_C 	C 	0.1364	0.4402	0.5723	0.049
Mof_H 	H 	0.10624	0.42265	0.64503	0.016
Mof_C 	C 	0.0851	0.4198	0.4404	-0.144
Mof_H 	H 	0.02072	0.38762	0.42399	0.086
Mof_C 	C 	0.1283	0.4465	0.3351	0.107
Mof_H 	H 	0.0892	0.43253	0.24761	0.008
Mof_C 	C 	0.6442	0.6712	0.6453	0.431
Mof_C 	C 	0.5367	0.6615	0.2896	0.401
Mof_C 	C 	0.4794	0.5207	0.9366	0.273
Mof_C 	C 	0.9556	0.5204	0.0387	0.271
Mof_C 	C 	0.0482	0.6518	0.9689	0.268
Mof_C 	C 	0.0667	0.6771	0.1143	0.244
Mof_Er	Er	0.24787	0.22387	0.55256	1.7
Mof_Er	Er	0.71757	0.06605	0.36311	1.843
Mof_N 	N 	0.5998	0.08484	0.1297	-0.229
Mof_N 	N 	0.5329	0.08738	0.9072	-0.199
Mof_H 	H 	0.51867	0.07783	0.82273	0.157
Mof_N 	N 	0.7766	0.9915	0.1505	-0.186
Mof_O 	O 	0.0664	0.16348	0.6143	-0.407
Mof_O 	O 	0.0294	0.21426	0.3708	-0.401
Mof_O 	O 	0.8273	0.15895	0.2984	-0.379
Mof_O 	O 	0.8499	0.11907	0.5522	-0.393
Mof_O 	O 	0.5233	0.13958	0.3268	-0.441
Mof_O 	O 	0.6019	0.0637	0.5539	-0.38
Mof_O 	O 	0.3801	0.20522	0.1977	-0.498
Mof_O 	O 	0.2731	0.20742	0.8966	-0.522
Mof_O 	O 	0.3646	0.16511	0.7336	-0.474
Mof_O 	O 	0.4689	0.00784	0.663	-0.421
Mof_O 	O 	0.9743	0.05329	0.3708	-0.412
Mof_O 	O 	0.1809	0.01764	0.501	-0.408
Mof_C 	C 	0.4537	0.1318	0.9534	-0.03
Mof_C 	C 	0.4991	0.1295	0.0944	-0.06
Mof_C 	C 	0.6187	0.06	0.0161	0.12
Mof_C 	C 	0.7228	0.0108	0.0211	0.045
Mof_C 	C 	0.7651	0.988	0.9077	-0.114
Mof_H 	H 	0.72912	0.00394	0.82148	0.089
Mof_C 	C 	0.8636	0.9402	0.9277	0.036
Mof_H 	H 	0.89376	0.92265	0.85497	0.019
Mof_C 	C 	0.9149	0.9198	0.0596	-0.129
Mof_H 	H 	0.97928	0.88762	0.07601	0.083
Mof_C 	C 	0.8717	0.9465	0.1649	0.101
Mof_H 	H 	0.9108	0.93253	0.25239	0.012
Mof_C 	C 	0.3558	0.1712	0.8547	0.429
Mof_C 	C 	0.4633	0.1615	0.2104	0.401
Mof_C 	C 	0.5206	0.0207	0.5634	0.272
Mof_C 	C 	0.0444	0.0204	0.4613	0.267
Mof_C 	C 	0.9518	0.1518	0.5311	0.262
Mof_C 	C 	0.9333	0.1771	0.3857	0.249
_end
