# CIF file generated by openbabel 3.1.0, see https://openbabel.org
data_I
_chemical_name_common 'image0'
_cell_length_a 20.461
_cell_length_b 20.461
_cell_length_c 17.8279
_cell_angle_alpha 90
_cell_angle_beta 90
_cell_angle_gamma 90
_space_group_name_H-M_alt 'P 1'
_space_group_name_Hall 'P 1'
loop_
    _symmetry_equiv_pos_as_xyz
    x,y,z
loop_
    _atom_site_label
    _atom_site_type_symbol
    _atom_site_fract_x
    _atom_site_fract_y
    _atom_site_fract_z
    _atom_site_occupancy
    Co1      Co       0.25775    0.11894    0.65066    1.000
    O1       O        0.23579    0.12901    0.75574    1.000
    O2       O        0.31272    0.05840    0.76675    1.000
    O3       O        0.25867    0.96501    0.09771    1.000
    O4       O        0.33861    0.94542    0.01277    1.000
    O5       O        0.17302    0.19279    0.09710    1.000
    O6       O        0.16041    0.24298    0.98841    1.000
    C1       C        0.27144    0.09400    0.79431    1.000
    C2       C        0.26224    0.09421    0.87818    1.000
    C3       C        0.22804    0.14416    0.91352    1.000
    H1       H        0.21340    0.17970    0.88560    1.000
    C4       C        0.21558    0.14162    0.98956    1.000
    C5       C        0.23740    0.08830    0.03101    1.000
    H2       H        0.22890    0.08620    0.08220    1.000
    C6       C        0.27159    0.03856    0.99651    1.000
    C7       C        0.28432    0.04214    0.91946    1.000
    H3       H        0.30790    0.00900    0.89610    1.000
    C8       C        0.18078    0.19740    0.02771    1.000
    C9       C        0.29150    0.97718    0.03888    1.000
    Co2      Co       0.75775    0.61894    0.15066    1.000
    O7       O        0.73579    0.62901    0.25574    1.000
    O8       O        0.81272    0.55840    0.26675    1.000
    O9       O        0.75867    0.46501    0.59771    1.000
    O10      O        0.83861    0.44542    0.51277    1.000
    O11      O        0.67302    0.69279    0.59710    1.000
    O12      O        0.66041    0.74298    0.48841    1.000
    C10      C        0.77144    0.59400    0.29431    1.000
    C11      C        0.76224    0.59421    0.37818    1.000
    C12      C        0.72804    0.64416    0.41352    1.000
    H4       H        0.71340    0.67970    0.38560    1.000
    C13      C        0.71558    0.64162    0.48956    1.000
    C14      C        0.73740    0.58830    0.53101    1.000
    H5       H        0.72890    0.58620    0.58220    1.000
    C15      C        0.77159    0.53856    0.49651    1.000
    C16      C        0.78432    0.54214    0.41946    1.000
    H6       H        0.80790    0.50900    0.39610    1.000
    C17      C        0.68078    0.69740    0.52771    1.000
    C18      C        0.79150    0.47718    0.53888    1.000
    Co3      Co       0.74225    0.88106    0.65066    1.000
    O13      O        0.76421    0.87099    0.75574    1.000
    O14      O        0.68728    0.94160    0.76675    1.000
    O15      O        0.74133    0.03499    0.09771    1.000
    O16      O        0.66139    0.05458    0.01277    1.000
    O17      O        0.82698    0.80721    0.09710    1.000
    O18      O        0.83959    0.75702    0.98841    1.000
    C19      C        0.72856    0.90600    0.79431    1.000
    C20      C        0.73776    0.90579    0.87818    1.000
    C21      C        0.77196    0.85584    0.91352    1.000
    H7       H        0.78660    0.82030    0.88560    1.000
    C22      C        0.78442    0.85838    0.98956    1.000
    C23      C        0.76260    0.91170    0.03101    1.000
    H8       H        0.77110    0.91380    0.08220    1.000
    C24      C        0.72841    0.96144    0.99651    1.000
    C25      C        0.71568    0.95786    0.91946    1.000
    H9       H        0.69210    0.99100    0.89610    1.000
    C26      C        0.81922    0.80260    0.02771    1.000
    C27      C        0.70850    0.02282    0.03888    1.000
    Co4      Co       0.24225    0.38106    0.15066    1.000
    O19      O        0.26421    0.37099    0.25574    1.000
    O20      O        0.18728    0.44160    0.26675    1.000
    O21      O        0.24133    0.53499    0.59771    1.000
    O22      O        0.16139    0.55458    0.51277    1.000
    O23      O        0.32698    0.30721    0.59710    1.000
    O24      O        0.33959    0.25702    0.48841    1.000
    C28      C        0.22856    0.40600    0.29431    1.000
    C29      C        0.23776    0.40579    0.37818    1.000
    C30      C        0.27196    0.35584    0.41352    1.000
    H10      H        0.28660    0.32030    0.38560    1.000
    C31      C        0.28442    0.35838    0.48956    1.000
    C32      C        0.26260    0.41170    0.53101    1.000
    H11      H        0.27110    0.41380    0.58220    1.000
    C33      C        0.22841    0.46144    0.49651    1.000
    C34      C        0.21568    0.45786    0.41946    1.000
    H12      H        0.19210    0.49100    0.39610    1.000
    C35      C        0.31922    0.30260    0.52771    1.000
    C36      C        0.20850    0.52282    0.53888    1.000
    Co5      Co       0.88106    0.25775    0.65066    1.000
    O25      O        0.87099    0.23579    0.75574    1.000
    O26      O        0.94160    0.31272    0.76675    1.000
    O27      O        0.03499    0.25867    0.09771    1.000
    O28      O        0.05458    0.33861    0.01277    1.000
    O29      O        0.80721    0.17302    0.09710    1.000
    O30      O        0.75702    0.16041    0.98841    1.000
    C37      C        0.90600    0.27144    0.79431    1.000
    C38      C        0.90579    0.26224    0.87818    1.000
    C39      C        0.85584    0.22804    0.91352    1.000
    H13      H        0.82030    0.21340    0.88560    1.000
    C40      C        0.85838    0.21558    0.98956    1.000
    C41      C        0.91170    0.23740    0.03101    1.000
    H14      H        0.91380    0.22890    0.08220    1.000
    C42      C        0.96144    0.27159    0.99651    1.000
    C43      C        0.95786    0.28432    0.91946    1.000
    H15      H        0.99100    0.30790    0.89610    1.000
    C44      C        0.80260    0.18078    0.02771    1.000
    C45      C        0.02282    0.29150    0.03888    1.000
    Co6      Co       0.38106    0.75775    0.15066    1.000
    O31      O        0.37099    0.73579    0.25574    1.000
    O32      O        0.44160    0.81272    0.26675    1.000
    O33      O        0.53499    0.75867    0.59771    1.000
    O34      O        0.55458    0.83861    0.51277    1.000
    O35      O        0.30721    0.67302    0.59710    1.000
    O36      O        0.25702    0.66041    0.48841    1.000
    C46      C        0.40600    0.77144    0.29431    1.000
    C47      C        0.40579    0.76224    0.37818    1.000
    C48      C        0.35584    0.72804    0.41352    1.000
    H16      H        0.32030    0.71340    0.38560    1.000
    C49      C        0.35838    0.71558    0.48956    1.000
    C50      C        0.41170    0.73740    0.53101    1.000
    H17      H        0.41380    0.72890    0.58220    1.000
    C51      C        0.46144    0.77159    0.49651    1.000
    C52      C        0.45786    0.78432    0.41946    1.000
    H18      H        0.49100    0.80790    0.39610    1.000
    C53      C        0.30260    0.68078    0.52771    1.000
    C54      C        0.52282    0.79150    0.53888    1.000
    Co7      Co       0.11894    0.74225    0.65066    1.000
    O37      O        0.12901    0.76421    0.75574    1.000
    O38      O        0.05840    0.68728    0.76675    1.000
    O39      O        0.96501    0.74133    0.09771    1.000
    O40      O        0.94542    0.66139    0.01277    1.000
    O41      O        0.19279    0.82698    0.09710    1.000
    O42      O        0.24298    0.83959    0.98841    1.000
    C55      C        0.09400    0.72856    0.79431    1.000
    C56      C        0.09421    0.73776    0.87818    1.000
    C57      C        0.14416    0.77196    0.91352    1.000
    H19      H        0.17970    0.78660    0.88560    1.000
    C58      C        0.14162    0.78442    0.98956    1.000
    C59      C        0.08830    0.76260    0.03101    1.000
    H20      H        0.08620    0.77110    0.08220    1.000
    C60      C        0.03856    0.72841    0.99651    1.000
    C61      C        0.04214    0.71568    0.91946    1.000
    H21      H        0.00900    0.69210    0.89610    1.000
    C62      C        0.19740    0.81922    0.02771    1.000
    C63      C        0.97718    0.70850    0.03888    1.000
    Co8      Co       0.61894    0.24225    0.15066    1.000
    O43      O        0.62901    0.26421    0.25574    1.000
    O44      O        0.55840    0.18728    0.26675    1.000
    O45      O        0.46501    0.24133    0.59771    1.000
    O46      O        0.44542    0.16139    0.51277    1.000
    O47      O        0.69279    0.32698    0.59710    1.000
    O48      O        0.74298    0.33959    0.48841    1.000
    C64      C        0.59400    0.22856    0.29431    1.000
    C65      C        0.59421    0.23776    0.37818    1.000
    C66      C        0.64416    0.27196    0.41352    1.000
    H22      H        0.67970    0.28660    0.38560    1.000
    C67      C        0.64162    0.28442    0.48956    1.000
    C68      C        0.58830    0.26260    0.53101    1.000
    H23      H        0.58620    0.27110    0.58220    1.000
    C69      C        0.53856    0.22841    0.49651    1.000
    C70      C        0.54214    0.21568    0.41946    1.000
    H24      H        0.50900    0.19210    0.39610    1.000
    C71      C        0.69740    0.31922    0.52771    1.000
    C72      C        0.47718    0.20850    0.53888    1.000
    Co9      Co       0.25775    0.88106    0.15066    1.000
    O49      O        0.23579    0.87099    0.25574    1.000
    O50      O        0.31272    0.94160    0.26675    1.000
    O51      O        0.25867    0.03499    0.59771    1.000
    O52      O        0.33861    0.05458    0.51277    1.000
    O53      O        0.17302    0.80721    0.59710    1.000
    O54      O        0.16041    0.75702    0.48841    1.000
    C73      C        0.27144    0.90600    0.29431    1.000
    C74      C        0.26224    0.90579    0.37818    1.000
    C75      C        0.22804    0.85584    0.41352    1.000
    H25      H        0.21340    0.82030    0.38560    1.000
    C76      C        0.21558    0.85838    0.48956    1.000
    C77      C        0.23740    0.91170    0.53101    1.000
    H26      H        0.22890    0.91380    0.58220    1.000
    C78      C        0.27159    0.96144    0.49651    1.000
    C79      C        0.28432    0.95786    0.41946    1.000
    H27      H        0.30790    0.99100    0.39610    1.000
    C80      C        0.18078    0.80260    0.52771    1.000
    C81      C        0.29150    0.02282    0.53888    1.000
    Co10     Co       0.75775    0.38106    0.65066    1.000
    O55      O        0.73579    0.37099    0.75574    1.000
    O56      O        0.81272    0.44160    0.76675    1.000
    O57      O        0.75867    0.53499    0.09771    1.000
    O58      O        0.83861    0.55458    0.01277    1.000
    O59      O        0.67302    0.30721    0.09710    1.000
    O60      O        0.66041    0.25702    0.98841    1.000
    C82      C        0.77144    0.40600    0.79431    1.000
    C83      C        0.76224    0.40579    0.87818    1.000
    C84      C        0.72804    0.35584    0.91352    1.000
    H28      H        0.71340    0.32030    0.88560    1.000
    C85      C        0.71558    0.35838    0.98956    1.000
    C86      C        0.73740    0.41170    0.03101    1.000
    H29      H        0.72890    0.41380    0.08220    1.000
    C87      C        0.77159    0.46144    0.99651    1.000
    C88      C        0.78432    0.45786    0.91946    1.000
    H30      H        0.80790    0.49100    0.89610    1.000
    C89      C        0.68078    0.30260    0.02771    1.000
    C90      C        0.79150    0.52282    0.03888    1.000
    Co11     Co       0.74225    0.11894    0.15066    1.000
    O61      O        0.76421    0.12901    0.25574    1.000
    O62      O        0.68728    0.05840    0.26675    1.000
    O63      O        0.74133    0.96501    0.59771    1.000
    O64      O        0.66139    0.94542    0.51277    1.000
    O65      O        0.82698    0.19279    0.59710    1.000
    O66      O        0.83959    0.24298    0.48841    1.000
    C91      C        0.72856    0.09400    0.29431    1.000
    C92      C        0.73776    0.09421    0.37818    1.000
    C93      C        0.77196    0.14416    0.41352    1.000
    H31      H        0.78660    0.17970    0.38560    1.000
    C94      C        0.78442    0.14162    0.48956    1.000
    C95      C        0.76260    0.08830    0.53101    1.000
    H32      H        0.77110    0.08620    0.58220    1.000
    C96      C        0.72841    0.03856    0.49651    1.000
    C97      C        0.71568    0.04214    0.41946    1.000
    H33      H        0.69210    0.00900    0.39610    1.000
    C98      C        0.81922    0.19740    0.52771    1.000
    C99      C        0.70850    0.97718    0.53888    1.000
    Co12     Co       0.24225    0.61894    0.65066    1.000
    O67      O        0.26421    0.62901    0.75574    1.000
    O68      O        0.18728    0.55840    0.76675    1.000
    O69      O        0.24133    0.46501    0.09771    1.000
    O70      O        0.16139    0.44542    0.01277    1.000
    O71      O        0.32698    0.69279    0.09710    1.000
    O72      O        0.33959    0.74298    0.98841    1.000
    C100     C        0.22856    0.59400    0.79431    1.000
    C101     C        0.23776    0.59421    0.87818    1.000
    C102     C        0.27196    0.64416    0.91352    1.000
    H34      H        0.28660    0.67970    0.88560    1.000
    C103     C        0.28442    0.64162    0.98956    1.000
    C104     C        0.26260    0.58830    0.03101    1.000
    H35      H        0.27110    0.58620    0.08220    1.000
    C105     C        0.22841    0.53856    0.99651    1.000
    C106     C        0.21568    0.54214    0.91946    1.000
    H36      H        0.19210    0.50900    0.89610    1.000
    C107     C        0.31922    0.69740    0.02771    1.000
    C108     C        0.20850    0.47718    0.03888    1.000
    Co13     Co       0.88106    0.74225    0.15066    1.000
    O73      O        0.87099    0.76421    0.25574    1.000
    O74      O        0.94160    0.68728    0.26675    1.000
    O75      O        0.03499    0.74133    0.59771    1.000
    O76      O        0.05458    0.66139    0.51277    1.000
    O77      O        0.80721    0.82698    0.59710    1.000
    O78      O        0.75702    0.83959    0.48841    1.000
    C109     C        0.90600    0.72856    0.29431    1.000
    C110     C        0.90579    0.73776    0.37818    1.000
    C111     C        0.85584    0.77196    0.41352    1.000
    H37      H        0.82030    0.78660    0.38560    1.000
    C112     C        0.85838    0.78442    0.48956    1.000
    C113     C        0.91170    0.76260    0.53101    1.000
    H38      H        0.91380    0.77110    0.58220    1.000
    C114     C        0.96144    0.72841    0.49651    1.000
    C115     C        0.95786    0.71568    0.41946    1.000
    H39      H        0.99100    0.69210    0.39610    1.000
    C116     C        0.80260    0.81922    0.52771    1.000
    C117     C        0.02282    0.70850    0.53888    1.000
    Co14     Co       0.38106    0.24225    0.65066    1.000
    O79      O        0.37099    0.26421    0.75574    1.000
    O80      O        0.44160    0.18728    0.76675    1.000
    O81      O        0.53499    0.24133    0.09771    1.000
    O82      O        0.55458    0.16139    0.01277    1.000
    O83      O        0.30721    0.32698    0.09710    1.000
    O84      O        0.25702    0.33959    0.98841    1.000
    C118     C        0.40600    0.22856    0.79431    1.000
    C119     C        0.40579    0.23776    0.87818    1.000
    C120     C        0.35584    0.27196    0.91352    1.000
    H40      H        0.32030    0.28660    0.88560    1.000
    C121     C        0.35838    0.28442    0.98956    1.000
    C122     C        0.41170    0.26260    0.03101    1.000
    H41      H        0.41380    0.27110    0.08220    1.000
    C123     C        0.46144    0.22841    0.99651    1.000
    C124     C        0.45786    0.21568    0.91946    1.000
    H42      H        0.49100    0.19210    0.89610    1.000
    C125     C        0.30260    0.31922    0.02771    1.000
    C126     C        0.52282    0.20850    0.03888    1.000
    Co15     Co       0.11894    0.25775    0.15066    1.000
    O85      O        0.12901    0.23579    0.25574    1.000
    O86      O        0.05840    0.31272    0.26675    1.000
    O87      O        0.96501    0.25867    0.59771    1.000
    O88      O        0.94542    0.33861    0.51277    1.000
    O89      O        0.19279    0.17302    0.59710    1.000
    O90      O        0.24298    0.16041    0.48841    1.000
    C127     C        0.09400    0.27144    0.29431    1.000
    C128     C        0.09421    0.26224    0.37818    1.000
    C129     C        0.14416    0.22804    0.41352    1.000
    H43      H        0.17970    0.21340    0.38560    1.000
    C130     C        0.14162    0.21558    0.48956    1.000
    C131     C        0.08830    0.23740    0.53101    1.000
    H44      H        0.08620    0.22890    0.58220    1.000
    C132     C        0.03856    0.27159    0.49651    1.000
    C133     C        0.04214    0.28432    0.41946    1.000
    H45      H        0.00900    0.30790    0.39610    1.000
    C134     C        0.19740    0.18078    0.52771    1.000
    C135     C        0.97718    0.29150    0.53888    1.000
    Co16     Co       0.61894    0.75775    0.65066    1.000
    O91      O        0.62901    0.73579    0.75574    1.000
    O92      O        0.55840    0.81272    0.76675    1.000
    O93      O        0.46501    0.75867    0.09771    1.000
    O94      O        0.44542    0.83861    0.01277    1.000
    O95      O        0.69279    0.67302    0.09710    1.000
    O96      O        0.74298    0.66041    0.98841    1.000
    C136     C        0.59400    0.77144    0.79431    1.000
    C137     C        0.59421    0.76224    0.87818    1.000
    C138     C        0.64416    0.72804    0.91352    1.000
    H46      H        0.67970    0.71340    0.88560    1.000
    C139     C        0.64162    0.71558    0.98956    1.000
    C140     C        0.58830    0.73740    0.03101    1.000
    H47      H        0.58620    0.72890    0.08220    1.000
    C141     C        0.53856    0.77159    0.99651    1.000
    C142     C        0.54214    0.78432    0.91946    1.000
    H48      H        0.50900    0.80790    0.89610    1.000
    C143     C        0.69740    0.68078    0.02771    1.000
    C144     C        0.47718    0.79150    0.03888    1.000
    Zn1      Zn       0.34410    0.15590    0.50450    1.000
    O97      O        0.34076    0.15924    0.62375    1.000
    Zn2      Zn       0.65590    0.84410    0.50450    1.000
    O98      O        0.65924    0.84076    0.62375    1.000
    Zn3      Zn       0.15590    0.34410    0.00450    1.000
    O99      O        0.15924    0.34076    0.12375    1.000
    Zn4      Zn       0.84410    0.34410    0.50450    1.000
    O100     O        0.84076    0.34076    0.62375    1.000
    Zn5      Zn       0.15590    0.65590    0.50450    1.000
    O101     O        0.15924    0.65924    0.62375    1.000
    Zn6      Zn       0.34410    0.84410    0.00450    1.000
    O102     O        0.34076    0.84076    0.12375    1.000
    Zn7      Zn       0.65590    0.15590    0.00450    1.000
    O103     O        0.65924    0.15924    0.12375    1.000
    Zn8      Zn       0.84410    0.65590    0.00450    1.000
    O104     O        0.84076    0.65924    0.12375    1.000
