data_functionalizedCrystal
_audit_creation_method	'EQeq! by Chris Wilmer'
_symmetry_space_group_name_H-M	'P1'
_symmetry_Int_Tables_number	1
_symmetry_cell_setting	triclinic
loop_
_symmetry_equiv_pos_as_xyz
  x,y,z
_cell_length_a	5.0986
_cell_length_b	10.4943
_cell_length_c	12.4457
_cell_angle_alpha	87.614
_cell_angle_beta	87.258
_cell_angle_gamma	89.994
loop_
_atom_site_label
_atom_site_type_symbol
_atom_site_fract_x
_atom_site_fract_y
_atom_site_fract_z
_atom_site_charge
Mof_Zn	Zn	0.21169	0.35799	0.99839	1.22
Mof_Zn	Zn	0.71971	0.14534	0.99755	1.22
Mof_Zn	Zn	0.80521	0.3941	0.39234	1.245
Mof_P 	P 	0.2482	0.11324	0.86211	0.53
Mof_P 	P 	0.7119	0.39338	0.1382	0.552
Mof_P 	P 	0.2978	0.32839	0.52299	0.581
Mof_O 	O 	0.4215	0.3996	0.1162	-0.492
Mof_O 	O 	0.8394	0.525	0.1225	-0.496
Mof_O 	O 	0.3698	0.1969	0.9486	-0.634
Mof_O 	O 	0.854	0.3061	0.0544	-0.624
Mof_O 	O 	0.3376	0.9769	0.8861	-0.481
Mof_O 	O 	0.9505	0.1275	0.8736	-0.477
Mof_O 	O 	0.5893	0.3052	0.5027	-0.422
Mof_O 	O 	0.2517	0.4247	0.6092	-0.457
Mof_O 	O 	0.7507	0.3354	0.2498	-0.428
Mof_O 	O 	0.1709	0.364	0.4187	-0.467
Mof_O 	O 	0.3536	0.1575	0.7526	-0.255
Mof_O 	O 	0.1691	0.2016	0.5694	-0.451
Mof_H 	H 	0.2351	0.1803	0.6262	0.335
Mof_Zn	Zn	0.78831	0.64201	0.00161	1.221
Mof_Zn	Zn	0.28029	0.85466	0.00245	1.221
Mof_Zn	Zn	0.19479	0.6059	0.60766	1.245
Mof_P 	P 	0.7518	0.88676	0.13789	0.53
Mof_P 	P 	0.2881	0.60662	0.8618	0.552
Mof_P 	P 	0.7022	0.67161	0.47701	0.581
Mof_O 	O 	0.5785	0.6004	0.8838	-0.492
Mof_O 	O 	0.1606	0.475	0.8775	-0.496
Mof_O 	O 	0.6302	0.8031	0.0514	-0.634
Mof_O 	O 	0.146	0.6939	0.9456	-0.624
Mof_O 	O 	0.6624	0.0231	0.1139	-0.481
Mof_O 	O 	0.0495	0.8725	0.1264	-0.477
Mof_O 	O 	0.4107	0.6948	0.4973	-0.422
Mof_O 	O 	0.7483	0.5753	0.3908	-0.457
Mof_O 	O 	0.2493	0.6646	0.7502	-0.428
Mof_O 	O 	0.8291	0.636	0.5813	-0.467
Mof_O 	O 	0.6464	0.8425	0.2474	-0.255
Mof_O 	O 	0.8309	0.7984	0.4306	-0.451
Mof_H 	H 	0.7649	0.8197	0.3738	0.335
_end
