data_functionalizedCrystal
_audit_creation_method	'EQeq! by Chris Wilmer'
_symmetry_space_group_name_H-M	'P1'
_symmetry_Int_Tables_number	1
_symmetry_cell_setting	triclinic
loop_
_symmetry_equiv_pos_as_xyz
  x,y,z
_cell_length_a	13.897
_cell_length_b	26.89
_cell_length_c	7.607
_cell_angle_alpha	90
_cell_angle_beta	90
_cell_angle_gamma	88.88
loop_
_atom_site_label
_atom_site_type_symbol
_atom_site_fract_x
_atom_site_fract_y
_atom_site_fract_z
_atom_site_charge
Mof_Cd	Cd	0.2878	0.13476	0.87896	0.363
Mof_N 	N 	0.2665	0.0787	0.0927	-0.082
Mof_N 	N 	0.2568	0.077	0.6568	-0.077
Mof_N 	N 	0.3309	0.1988	0.0888	-0.067
Mof_N 	N 	0.1316	0.1676	0.8718	-0.075
Mof_N 	N 	0.3253	0.1918	0.6516	-0.114
Mof_N 	N 	0.4545	0.1219	0.8308	-0.129
Mof_C 	C 	0.2586	0.0482	0.1987	-0.259
Mof_C 	C 	0.2554	0.0483	0.5474	-0.261
Mof_C 	C 	0.3948	0.2181	0.1523	-0.22
Mof_C 	C 	0.0813	0.1985	0.8263	-0.25
Mof_C 	C 	0.428	0.1895	0.626	-0.022
Mof_C 	C 	0.4849	0.1555	0.692	0.037
Mof_C 	C 	0.5921	0.1552	0.653	-0.031
Mof_Cd	Cd	0.2878	0.63476	0.37896	0.37
Mof_N 	N 	0.2665	0.5787	0.5927	-0.08
Mof_N 	N 	0.2568	0.577	0.1568	-0.075
Mof_N 	N 	0.3309	0.6988	0.5888	-0.066
Mof_N 	N 	0.1316	0.6676	0.3718	-0.073
Mof_N 	N 	0.3253	0.6918	0.1516	-0.113
Mof_N 	N 	0.4545	0.6219	0.3308	-0.125
Mof_C 	C 	0.2586	0.5482	0.6987	-0.239
Mof_C 	C 	0.2554	0.5483	0.0474	-0.239
Mof_C 	C 	0.3948	0.7181	0.6523	-0.219
Mof_C 	C 	0.0813	0.6985	0.3263	-0.249
Mof_C 	C 	0.428	0.6895	0.126	-0.022
Mof_C 	C 	0.4849	0.6555	0.192	0.038
Mof_C 	C 	0.5921	0.6552	0.153	-0.029
Mof_Cd	Cd	0.2122	0.86524	0.87896	0.373
Mof_N 	N 	0.2335	0.9213	0.0927	-0.083
Mof_N 	N 	0.2432	0.923	0.6568	-0.076
Mof_N 	N 	0.1691	0.8012	0.0888	-0.064
Mof_N 	N 	0.3684	0.8324	0.8718	-0.069
Mof_N 	N 	0.1747	0.8082	0.6516	-0.116
Mof_N 	N 	0.0455	0.8781	0.8308	-0.132
Mof_C 	C 	0.2414	0.9518	0.1987	-0.203
Mof_C 	C 	0.2446	0.9517	0.5474	-0.205
Mof_C 	C 	0.1052	0.7819	0.1523	-0.241
Mof_C 	C 	0.4187	0.8015	0.8263	-0.218
Mof_C 	C 	0.072	0.8105	0.626	-0.025
Mof_C 	C 	0.0151	0.8445	0.692	-0.034
Mof_C 	C 	0.9079	0.8448	0.653	0.045
Mof_Cd	Cd	0.2122	0.36524	0.37896	0.368
Mof_N 	N 	0.2335	0.4213	0.5927	-0.081
Mof_N 	N 	0.2432	0.423	0.1568	-0.074
Mof_N 	N 	0.1691	0.3012	0.5888	-0.064
Mof_N 	N 	0.3684	0.3324	0.3718	-0.07
Mof_N 	N 	0.1747	0.3082	0.1516	-0.116
Mof_N 	N 	0.0455	0.3781	0.3308	-0.137
Mof_C 	C 	0.2414	0.4518	0.6987	-0.24
Mof_C 	C 	0.2446	0.4517	0.0474	-0.24
Mof_C 	C 	0.1052	0.2819	0.6523	-0.243
Mof_C 	C 	0.4187	0.3015	0.3263	-0.219
Mof_C 	C 	0.072	0.3105	0.126	-0.024
Mof_C 	C 	0.0151	0.3445	0.192	-0.033
Mof_C 	C 	0.9079	0.3448	0.153	0.039
Mof_Cd	Cd	0.7122	0.86524	0.12104	0.385
Mof_N 	N 	0.7335	0.9213	0.9073	-0.078
Mof_N 	N 	0.7432	0.923	0.3432	-0.072
Mof_N 	N 	0.6691	0.8012	0.9112	-0.065
Mof_N 	N 	0.8684	0.8324	0.1282	-0.071
Mof_N 	N 	0.6747	0.8082	0.3484	-0.113
Mof_N 	N 	0.5455	0.8781	0.1692	-0.121
Mof_C 	C 	0.7414	0.9518	0.8013	-0.188
Mof_C 	C 	0.7446	0.9517	0.4526	-0.191
Mof_C 	C 	0.6052	0.7819	0.8477	-0.218
Mof_C 	C 	0.9187	0.8015	0.1737	-0.169
Mof_C 	C 	0.572	0.8105	0.374	-0.022
Mof_C 	C 	0.5151	0.8445	0.308	0.04
Mof_C 	C 	0.4079	0.8448	0.347	-0.026
Mof_Cd	Cd	0.7122	0.36524	0.62104	0.38
Mof_N 	N 	0.7335	0.4213	0.4073	-0.076
Mof_N 	N 	0.7432	0.423	0.8432	-0.07
Mof_N 	N 	0.6691	0.3012	0.4112	-0.065
Mof_N 	N 	0.8684	0.3324	0.6282	-0.072
Mof_N 	N 	0.6747	0.3082	0.8484	-0.113
Mof_N 	N 	0.5455	0.3781	0.6692	-0.125
Mof_C 	C 	0.7414	0.4518	0.3013	-0.224
Mof_C 	C 	0.7446	0.4517	0.9526	-0.226
Mof_C 	C 	0.6052	0.2819	0.3477	-0.219
Mof_C 	C 	0.9187	0.3015	0.6737	-0.168
Mof_C 	C 	0.572	0.3105	0.874	-0.022
Mof_C 	C 	0.5151	0.3445	0.808	0.038
Mof_C 	C 	0.4079	0.3448	0.847	-0.03
Mof_Cd	Cd	0.7878	0.13476	0.12104	0.375
Mof_N 	N 	0.7665	0.0787	0.9073	-0.076
Mof_N 	N 	0.7568	0.077	0.3432	-0.072
Mof_N 	N 	0.8309	0.1988	0.9112	-0.071
Mof_N 	N 	0.6316	0.1676	0.1282	-0.072
Mof_N 	N 	0.8253	0.1918	0.3484	-0.111
Mof_N 	N 	0.9545	0.1219	0.1692	-0.118
Mof_C 	C 	0.7586	0.0482	0.8013	-0.244
Mof_C 	C 	0.7554	0.0483	0.4526	-0.247
Mof_C 	C 	0.8948	0.2181	0.8477	-0.177
Mof_C 	C 	0.5813	0.1985	0.1737	-0.219
Mof_C 	C 	0.928	0.1895	0.374	-0.016
Mof_C 	C 	0.9849	0.1555	0.308	0.109
Mof_C 	C 	0.0921	0.1552	0.347	-0.099
Mof_Cd	Cd	0.7878	0.63476	0.62104	0.382
Mof_N 	N 	0.7665	0.5787	0.4073	-0.076
Mof_N 	N 	0.7568	0.577	0.8432	-0.071
Mof_N 	N 	0.8309	0.6988	0.4112	-0.071
Mof_N 	N 	0.6316	0.6676	0.6282	-0.071
Mof_N 	N 	0.8253	0.6918	0.8484	-0.111
Mof_N 	N 	0.9545	0.6219	0.6692	-0.113
Mof_C 	C 	0.7586	0.5482	0.3013	-0.223
Mof_C 	C 	0.7554	0.5483	0.9526	-0.225
Mof_C 	C 	0.8948	0.7181	0.3477	-0.178
Mof_C 	C 	0.5813	0.6985	0.6737	-0.218
Mof_C 	C 	0.928	0.6895	0.874	-0.016
Mof_C 	C 	0.9849	0.6555	0.808	0.112
Mof_C 	C 	0.0921	0.6552	0.847	-0.099
Mof_Ni	Ni	0.25	0	0.3726	1.037
Mof_Ni	Ni	0.25	0.5	0.8726	1.061
Mof_Ni	Ni	0.75	0	0.6274	1.041
Mof_Ni	Ni	0.75	0.5	0.1274	1.065
Mof_Ni	Ni	0.5	0.25	0.25	1.067
Mof_Ni	Ni	-3.21867e-18	0.75	0.25	1.035
Mof_Ni	Ni	0.5	0.75	0.75	1.067
Mof_Ni	Ni	1.5942e-18	0.25	0.75	1.034
_end
