data_functionalizedCrystal
_audit_creation_method	'EQeq! by Chris Wilmer'
_symmetry_space_group_name_H-M	'P1'
_symmetry_Int_Tables_number	1
_symmetry_cell_setting	triclinic
loop_
_symmetry_equiv_pos_as_xyz
  x,y,z
_cell_length_a	27.92
_cell_length_b	27.92
_cell_length_c	30.6693
_cell_angle_alpha	62.9235
_cell_angle_beta	62.9235
_cell_angle_gamma	89.9999
loop_
_atom_site_label
_atom_site_type_symbol
_atom_site_fract_x
_atom_site_fract_y
_atom_site_fract_z
_atom_site_charge
Mof_Tb	Tb	0.09405	0.4546	0.49026	1.999
Mof_Tb	Tb	0.91569	0.05514	0.49026	2
Mof_Tb	Tb	0.45459	0.91568	0.99027	1.996
Mof_Tb	Tb	0.05515	0.09406	0.99025	1.995
Mof_Tb	Tb	0.90595	0.5454	0.50974	1.998
Mof_Tb	Tb	0.08431	0.94486	0.50974	1.999
Mof_Tb	Tb	0.54541	0.08432	0.00973	1.996
Mof_Tb	Tb	0.94485	0.90594	0.00975	1.995
Mof_C 	C 	0.2057	0.56	0.4176	0.47
Mof_C 	C 	0.2248	0.6227	0.3894	-0.143
Mof_C 	C 	0.23166	0.64676	0.41788	0.189
Mof_C 	C 	0.2479	0.7028	0.3932	0.122
Mof_C 	C 	0.25946	0.73976	0.33688	-0.016
Mof_C 	C 	0.25485	0.71585	0.3075	0.137
Mof_C 	C 	0.237	0.658	0.3344	0.19
Mof_C 	C 	0.27513	0.80123	0.31114	0.131
Mof_C 	C 	0.1504	0.9062	0.4378	0.408
Mof_C 	C 	0.18284	0.88034	0.40332	-0.126
Mof_C 	C 	0.24017	0.89137	0.37706	0.188
Mof_C 	C 	0.26955	0.86645	0.3481	0.127
Mof_C 	C 	0.24279	0.82679	0.34382	-0.015
Mof_C 	C 	0.18475	0.81575	0.3711	0.13
Mof_C 	C 	0.15604	0.84314	0.39932	0.186
Mof_C 	C 	0.4582	0.9518	0.0834	0.596
Mof_C 	C 	0.41042	0.91102	0.14256	-0.223
Mof_C 	C 	0.35786	0.91996	0.15988	0.214
Mof_C 	C 	0.3131	0.8837	0.2132	0.116
Mof_C 	C 	0.32054	0.83744	0.25312	-0.008
Mof_C 	C 	0.37533	0.82903	0.23414	0.113
Mof_C 	C 	0.41888	0.86558	0.18024	0.212
Mof_C 	C 	0.8767	0.0224	0.4176	0.471
Mof_C 	C 	0.8858	0.9879	0.3894	-0.144
Mof_C 	C 	0.85046	0.93536	0.41788	0.19
Mof_C 	C 	0.8589	0.904	0.3932	0.122
Mof_C 	C 	0.90366	0.92336	0.33688	-0.016
Mof_C 	C 	0.93765	0.97665	0.3075	0.136
Mof_C 	C 	0.9286	0.0076	0.3344	0.19
Mof_C 	C 	0.91373	0.88763	0.31114	0.131
Mof_C 	C 	0.9118	0.656	0.4378	0.408
Mof_C 	C 	0.91384	0.71634	0.40332	-0.126
Mof_C 	C 	0.88277	0.73157	0.37706	0.188
Mof_C 	C 	0.88235	0.78545	0.3481	0.127
Mof_C 	C 	0.91339	0.82939	0.34382	-0.015
Mof_C 	C 	0.94415	0.81315	0.3711	0.13
Mof_C 	C 	0.94464	0.75754	0.39932	0.185
Mof_C 	C 	0.9584	0.9648	0.0834	0.596
Mof_C 	C 	0.94702	0.94642	0.14256	-0.223
Mof_C 	C 	0.98226	0.92016	0.15988	0.212
Mof_C 	C 	0.9737	0.9031	0.2132	0.114
Mof_C 	C 	0.92634	0.90944	0.25312	-0.007
Mof_C 	C 	0.89053	0.93683	0.23414	0.113
Mof_C 	C 	0.90088	0.95418	0.18024	0.211
Mof_C 	C 	0.56	0.8767	0.9176	0.47
Mof_C 	C 	0.6227	0.8858	0.8894	-0.143
Mof_C 	C 	0.64676	0.85046	0.91788	0.189
Mof_C 	C 	0.7028	0.8589	0.8932	0.122
Mof_C 	C 	0.73976	0.90366	0.83688	-0.016
Mof_C 	C 	0.71585	0.93765	0.8075	0.137
Mof_C 	C 	0.658	0.9286	0.8344	0.19
Mof_C 	C 	0.80123	0.91373	0.81114	0.131
Mof_C 	C 	0.9062	0.9118	0.9378	0.408
Mof_C 	C 	0.88034	0.91384	0.90332	-0.126
Mof_C 	C 	0.89137	0.88277	0.87706	0.188
Mof_C 	C 	0.86645	0.88235	0.8481	0.127
Mof_C 	C 	0.82679	0.91339	0.84382	-0.015
Mof_C 	C 	0.81575	0.94415	0.8711	0.13
Mof_C 	C 	0.84314	0.94464	0.89932	0.185
Mof_C 	C 	0.9518	0.9584	0.5834	0.596
Mof_C 	C 	0.91102	0.94702	0.64256	-0.223
Mof_C 	C 	0.91996	0.98226	0.65988	0.213
Mof_C 	C 	0.8837	0.9737	0.7132	0.115
Mof_C 	C 	0.83744	0.92634	0.75312	-0.008
Mof_C 	C 	0.82903	0.89053	0.73414	0.113
Mof_C 	C 	0.86558	0.90088	0.68024	0.212
Mof_C 	C 	0.0224	0.2057	0.9176	0.466
Mof_C 	C 	0.9879	0.2248	0.8894	-0.136
Mof_C 	C 	0.93536	0.23166	0.91788	0.187
Mof_C 	C 	0.904	0.2479	0.8932	0.124
Mof_C 	C 	0.92336	0.25946	0.83688	-0.018
Mof_C 	C 	0.97665	0.25485	0.8075	0.143
Mof_C 	C 	0.0076	0.237	0.8344	0.182
Mof_C 	C 	0.88763	0.27513	0.81114	0.132
Mof_C 	C 	0.656	0.1504	0.9378	0.408
Mof_C 	C 	0.71634	0.18284	0.90332	-0.126
Mof_C 	C 	0.73157	0.24017	0.87706	0.188
Mof_C 	C 	0.78545	0.26955	0.8481	0.127
Mof_C 	C 	0.82939	0.24279	0.84382	-0.015
Mof_C 	C 	0.81315	0.18475	0.8711	0.13
Mof_C 	C 	0.75754	0.15604	0.89932	0.185
Mof_C 	C 	0.9648	0.4582	0.5834	0.597
Mof_C 	C 	0.94642	0.41042	0.64256	-0.223
Mof_C 	C 	0.92016	0.35786	0.65988	0.214
Mof_C 	C 	0.9031	0.3131	0.7132	0.116
Mof_C 	C 	0.90944	0.32054	0.75312	-0.008
Mof_C 	C 	0.93683	0.37533	0.73414	0.113
Mof_C 	C 	0.95418	0.41888	0.68024	0.212
Mof_C 	C 	0.7943	0.44	0.5824	0.47
Mof_C 	C 	0.7752	0.3773	0.6106	-0.143
Mof_C 	C 	0.76834	0.35324	0.58212	0.189
Mof_C 	C 	0.7521	0.2972	0.6068	0.122
Mof_C 	C 	0.74054	0.26024	0.66312	-0.016
Mof_C 	C 	0.74515	0.28415	0.6925	0.137
Mof_C 	C 	0.763	0.342	0.6656	0.19
Mof_C 	C 	0.72487	0.19877	0.68886	0.131
Mof_C 	C 	0.8496	0.0938	0.5622	0.408
Mof_C 	C 	0.81716	0.11966	0.59668	-0.126
Mof_C 	C 	0.75983	0.10863	0.62294	0.188
Mof_C 	C 	0.73045	0.13355	0.6519	0.127
Mof_C 	C 	0.75721	0.17321	0.65618	-0.015
Mof_C 	C 	0.81525	0.18425	0.6289	0.13
Mof_C 	C 	0.84396	0.15686	0.60068	0.186
Mof_C 	C 	0.5418	0.0482	0.9166	0.596
Mof_C 	C 	0.58958	0.08898	0.85744	-0.223
Mof_C 	C 	0.64214	0.08004	0.84012	0.214
Mof_C 	C 	0.6869	0.1163	0.7868	0.116
Mof_C 	C 	0.67946	0.16256	0.74688	-0.008
Mof_C 	C 	0.62467	0.17097	0.76586	0.113
Mof_C 	C 	0.58112	0.13442	0.81976	0.212
Mof_C 	C 	0.1233	0.9776	0.5824	0.471
Mof_C 	C 	0.1142	0.0121	0.6106	-0.144
Mof_C 	C 	0.14954	0.06464	0.58212	0.19
Mof_C 	C 	0.1411	0.096	0.6068	0.122
Mof_C 	C 	0.09634	0.07664	0.66312	-0.016
Mof_C 	C 	0.06235	0.02335	0.6925	0.136
Mof_C 	C 	0.0714	0.9924	0.6656	0.19
Mof_C 	C 	0.08627	0.11237	0.68886	0.131
Mof_C 	C 	0.0882	0.344	0.5622	0.408
Mof_C 	C 	0.08616	0.28366	0.59668	-0.126
Mof_C 	C 	0.11723	0.26843	0.62294	0.188
Mof_C 	C 	0.11765	0.21455	0.6519	0.127
Mof_C 	C 	0.08661	0.17061	0.65618	-0.015
Mof_C 	C 	0.05585	0.18685	0.6289	0.13
Mof_C 	C 	0.05536	0.24246	0.60068	0.185
Mof_C 	C 	0.0416	0.0352	0.9166	0.596
Mof_C 	C 	0.05298	0.05358	0.85744	-0.223
Mof_C 	C 	0.01774	0.07984	0.84012	0.212
Mof_C 	C 	0.0263	0.0969	0.7868	0.114
Mof_C 	C 	0.07366	0.09056	0.74688	-0.007
Mof_C 	C 	0.10947	0.06317	0.76586	0.113
Mof_C 	C 	0.09912	0.04582	0.81976	0.211
Mof_C 	C 	0.44	0.1233	0.0824	0.47
Mof_C 	C 	0.3773	0.1142	0.1106	-0.143
Mof_C 	C 	0.35324	0.14954	0.08212	0.189
Mof_C 	C 	0.2972	0.1411	0.1068	0.122
Mof_C 	C 	0.26024	0.09634	0.16312	-0.016
Mof_C 	C 	0.28415	0.06235	0.1925	0.137
Mof_C 	C 	0.342	0.0714	0.1656	0.19
Mof_C 	C 	0.19877	0.08627	0.18886	0.131
Mof_C 	C 	0.0938	0.0882	0.0622	0.408
Mof_C 	C 	0.11966	0.08616	0.09668	-0.126
Mof_C 	C 	0.10863	0.11723	0.12294	0.188
Mof_C 	C 	0.13355	0.11765	0.1519	0.127
Mof_C 	C 	0.17321	0.08661	0.15618	-0.015
Mof_C 	C 	0.18425	0.05585	0.1289	0.13
Mof_C 	C 	0.15686	0.05536	0.10068	0.185
Mof_C 	C 	0.0482	0.0416	0.4166	0.596
Mof_C 	C 	0.08898	0.05298	0.35744	-0.223
Mof_C 	C 	0.08004	0.01774	0.34012	0.213
Mof_C 	C 	0.1163	0.0263	0.2868	0.115
Mof_C 	C 	0.16256	0.07366	0.24688	-0.008
Mof_C 	C 	0.17097	0.10947	0.26586	0.113
Mof_C 	C 	0.13442	0.09912	0.31976	0.212
Mof_C 	C 	0.9776	0.7943	0.0824	0.466
Mof_C 	C 	0.0121	0.7752	0.1106	-0.136
Mof_C 	C 	0.06464	0.76834	0.08212	0.187
Mof_C 	C 	0.096	0.7521	0.1068	0.124
Mof_C 	C 	0.07664	0.74054	0.16312	-0.018
Mof_C 	C 	0.02335	0.74515	0.1925	0.143
Mof_C 	C 	0.9924	0.763	0.1656	0.182
Mof_C 	C 	0.11237	0.72487	0.18886	0.132
Mof_C 	C 	0.344	0.8496	0.0622	0.408
Mof_C 	C 	0.28366	0.81716	0.09668	-0.126
Mof_C 	C 	0.26843	0.75983	0.12294	0.188
Mof_C 	C 	0.21455	0.73045	0.1519	0.127
Mof_C 	C 	0.17061	0.75721	0.15618	-0.015
Mof_C 	C 	0.18685	0.81525	0.1289	0.13
Mof_C 	C 	0.24246	0.84396	0.10068	0.185
Mof_C 	C 	0.0352	0.5418	0.4166	0.597
Mof_C 	C 	0.05358	0.58958	0.35744	-0.223
Mof_C 	C 	0.07984	0.64214	0.34012	0.214
Mof_C 	C 	0.0969	0.6869	0.2868	0.116
Mof_C 	C 	0.09056	0.67946	0.24688	-0.008
Mof_C 	C 	0.06317	0.62467	0.26586	0.113
Mof_C 	C 	0.04582	0.58112	0.31976	0.212
Mof_Cl	Cl	0.21887	0.60287	0.48608	-0.213
Mof_Cl	Cl	0.25877	0.72954	0.43014	-0.19
Mof_Cl	Cl	0.26552	0.75655	0.2404	-0.21
Mof_Cl	Cl	0.22861	0.62921	0.29784	-0.219
Mof_Cl	Cl	0.27466	0.93882	0.38246	-0.205
Mof_Cl	Cl	0.34116	0.87949	0.32038	-0.181
Mof_Cl	Cl	0.14838	0.77054	0.36576	-0.163
Mof_Cl	Cl	0.08389	0.82881	0.42994	-0.202
Mof_Cl	Cl	0.34733	0.97797	0.11378	-0.243
Mof_Cl	Cl	0.24746	0.89211	0.23068	-0.16
Mof_Cl	Cl	0.38819	0.77486	0.28072	-0.187
Mof_Cl	Cl	0.48494	0.85623	0.15792	-0.245
Mof_Cl	Cl	0.79505	0.91105	0.48608	-0.213
Mof_Cl	Cl	0.81109	0.84032	0.43014	-0.19
Mof_Cl	Cl	0.99408	0.00305	0.2404	-0.211
Mof_Cl	Cl	0.97355	0.07295	0.29784	-0.22
Mof_Cl	Cl	0.84288	0.67872	0.38246	-0.206
Mof_Cl	Cl	0.83846	0.80013	0.32038	-0.181
Mof_Cl	Cl	0.98586	0.8637	0.36576	-0.164
Mof_Cl	Cl	0.98617	0.74125	0.42994	-0.203
Mof_Cl	Cl	0.03889	0.90825	0.11378	-0.24
Mof_Cl	Cl	0.02186	0.87721	0.23068	-0.158
Mof_Cl	Cl	0.83109	0.94442	0.28072	-0.187
Mof_Cl	Cl	0.85714	0.98585	0.15792	-0.246
Mof_Cl	Cl	0.60287	0.79505	0.98608	-0.212
Mof_Cl	Cl	0.72954	0.81109	0.93014	-0.189
Mof_Cl	Cl	0.75655	0.99408	0.7404	-0.21
Mof_Cl	Cl	0.62921	0.97355	0.79784	-0.22
Mof_Cl	Cl	0.93882	0.84288	0.88246	-0.205
Mof_Cl	Cl	0.87949	0.83846	0.82038	-0.181
Mof_Cl	Cl	0.77054	0.98586	0.86576	-0.163
Mof_Cl	Cl	0.82881	0.98617	0.92994	-0.202
Mof_Cl	Cl	0.97797	0.03889	0.61378	-0.242
Mof_Cl	Cl	0.89211	0.02186	0.73068	-0.159
Mof_Cl	Cl	0.77486	0.83109	0.78072	-0.187
Mof_Cl	Cl	0.85623	0.85714	0.65792	-0.246
Mof_Cl	Cl	0.91105	0.21887	0.98608	-0.21
Mof_Cl	Cl	0.84032	0.25877	0.93014	-0.189
Mof_Cl	Cl	0.00305	0.26552	0.7404	-0.213
Mof_Cl	Cl	0.07295	0.22861	0.79784	-0.219
Mof_Cl	Cl	0.67872	0.27466	0.88246	-0.205
Mof_Cl	Cl	0.80013	0.34116	0.82038	-0.181
Mof_Cl	Cl	0.8637	0.14838	0.86576	-0.162
Mof_Cl	Cl	0.74125	0.08389	0.92994	-0.202
Mof_Cl	Cl	0.90825	0.34733	0.61378	-0.243
Mof_Cl	Cl	0.87721	0.24746	0.73068	-0.16
Mof_Cl	Cl	0.94442	0.38819	0.78072	-0.187
Mof_Cl	Cl	0.98585	0.48494	0.65792	-0.245
Mof_Cl	Cl	0.78113	0.39713	0.51392	-0.213
Mof_Cl	Cl	0.74123	0.27046	0.56986	-0.19
Mof_Cl	Cl	0.73448	0.24345	0.7596	-0.21
Mof_Cl	Cl	0.77139	0.37079	0.70216	-0.219
Mof_Cl	Cl	0.72534	0.06118	0.61754	-0.205
Mof_Cl	Cl	0.65884	0.12051	0.67962	-0.181
Mof_Cl	Cl	0.85162	0.22946	0.63424	-0.163
Mof_Cl	Cl	0.91611	0.17119	0.57006	-0.202
Mof_Cl	Cl	0.65267	0.02203	0.88622	-0.243
Mof_Cl	Cl	0.75254	0.10789	0.76932	-0.16
Mof_Cl	Cl	0.61181	0.22514	0.71928	-0.187
Mof_Cl	Cl	0.51506	0.14377	0.84208	-0.245
Mof_Cl	Cl	0.20495	0.08895	0.51392	-0.213
Mof_Cl	Cl	0.18891	0.15968	0.56986	-0.19
Mof_Cl	Cl	0.00592	0.99695	0.7596	-0.211
Mof_Cl	Cl	0.02645	0.92705	0.70216	-0.22
Mof_Cl	Cl	0.15712	0.32128	0.61754	-0.206
Mof_Cl	Cl	0.16154	0.19987	0.67962	-0.181
Mof_Cl	Cl	0.01414	0.1363	0.63424	-0.164
Mof_Cl	Cl	0.01383	0.25875	0.57006	-0.203
Mof_Cl	Cl	0.96111	0.09175	0.88622	-0.24
Mof_Cl	Cl	0.97814	0.12279	0.76932	-0.158
Mof_Cl	Cl	0.16891	0.05558	0.71928	-0.187
Mof_Cl	Cl	0.14286	0.01415	0.84208	-0.246
Mof_Cl	Cl	0.39713	0.20495	0.01392	-0.212
Mof_Cl	Cl	0.27046	0.18891	0.06986	-0.189
Mof_Cl	Cl	0.24345	0.00592	0.2596	-0.21
Mof_Cl	Cl	0.37079	0.02645	0.20216	-0.22
Mof_Cl	Cl	0.06118	0.15712	0.11754	-0.205
Mof_Cl	Cl	0.12051	0.16154	0.17962	-0.181
Mof_Cl	Cl	0.22946	0.01414	0.13424	-0.163
Mof_Cl	Cl	0.17119	0.01383	0.07006	-0.202
Mof_Cl	Cl	0.02203	0.96111	0.38622	-0.242
Mof_Cl	Cl	0.10789	0.97814	0.26932	-0.159
Mof_Cl	Cl	0.22514	0.16891	0.21928	-0.187
Mof_Cl	Cl	0.14377	0.14286	0.34208	-0.246
Mof_Cl	Cl	0.08895	0.78113	0.01392	-0.21
Mof_Cl	Cl	0.15968	0.74123	0.06986	-0.189
Mof_Cl	Cl	0.99695	0.73448	0.2596	-0.213
Mof_Cl	Cl	0.92705	0.77139	0.20216	-0.219
Mof_Cl	Cl	0.32128	0.72534	0.11754	-0.205
Mof_Cl	Cl	0.19987	0.65884	0.17962	-0.181
Mof_Cl	Cl	0.1363	0.85162	0.13424	-0.162
Mof_Cl	Cl	0.25875	0.91611	0.07006	-0.202
Mof_Cl	Cl	0.09175	0.65267	0.38622	-0.243
Mof_Cl	Cl	0.12279	0.75254	0.26932	-0.16
Mof_Cl	Cl	0.05558	0.61181	0.21928	-0.187
Mof_Cl	Cl	0.01415	0.51506	0.34208	-0.245
Mof_O 	O 	0.15425	0.53935	0.4455	-0.483
Mof_O 	O 	0.24256	0.53566	0.41128	-0.241
Mof_O 	O 	0.12963	0.94343	0.41794	-0.379
Mof_O 	O 	0.14359	0.88769	0.48582	-0.438
Mof_O 	O 	0.48194	0.99434	0.07672	-0.497
Mof_O 	O 	0.4704	0.93904	0.04632	-0.538
Mof_O 	O 	0.90025	0.01515	0.4455	-0.483
Mof_O 	O 	0.84616	0.05306	0.41128	-0.241
Mof_O 	O 	0.95243	0.63863	0.41794	-0.38
Mof_O 	O 	0.87059	0.62649	0.48582	-0.438
Mof_O 	O 	0.94134	0.92894	0.07672	-0.497
Mof_O 	O 	0.98328	0.01464	0.04632	-0.539
Mof_O 	O 	0.53935	0.90025	0.9455	-0.482
Mof_O 	O 	0.53566	0.84616	0.91128	-0.241
Mof_O 	O 	0.94343	0.95243	0.91794	-0.378
Mof_O 	O 	0.88769	0.87059	0.98582	-0.436
Mof_O 	O 	0.99434	0.94134	0.57672	-0.498
Mof_O 	O 	0.93904	0.98328	0.54632	-0.539
Mof_O 	O 	0.01515	0.15425	0.9455	-0.482
Mof_O 	O 	0.05306	0.24256	0.91128	-0.241
Mof_O 	O 	0.63863	0.12963	0.91794	-0.379
Mof_O 	O 	0.62649	0.14359	0.98582	-0.437
Mof_O 	O 	0.92894	0.48194	0.57672	-0.497
Mof_O 	O 	0.01464	0.4704	0.54632	-0.54
Mof_O 	O 	0.84575	0.46065	0.5545	-0.483
Mof_O 	O 	0.75744	0.46434	0.58872	-0.241
Mof_O 	O 	0.87037	0.05657	0.58206	-0.379
Mof_O 	O 	0.85641	0.11231	0.51418	-0.438
Mof_O 	O 	0.51806	0.00566	0.92328	-0.497
Mof_O 	O 	0.5296	0.06096	0.95368	-0.538
Mof_O 	O 	0.09975	0.98485	0.5545	-0.483
Mof_O 	O 	0.15384	0.94694	0.58872	-0.241
Mof_O 	O 	0.04757	0.36137	0.58206	-0.38
Mof_O 	O 	0.12941	0.37351	0.51418	-0.438
Mof_O 	O 	0.05866	0.07106	0.92328	-0.497
Mof_O 	O 	0.01672	0.98536	0.95368	-0.539
Mof_O 	O 	0.46065	0.09975	0.0545	-0.482
Mof_O 	O 	0.46434	0.15384	0.08872	-0.241
Mof_O 	O 	0.05657	0.04757	0.08206	-0.378
Mof_O 	O 	0.11231	0.12941	0.01418	-0.436
Mof_O 	O 	0.00566	0.05866	0.42328	-0.498
Mof_O 	O 	0.06096	0.01672	0.45368	-0.539
Mof_O 	O 	0.98485	0.84575	0.0545	-0.482
Mof_O 	O 	0.94694	0.75744	0.08872	-0.241
Mof_O 	O 	0.36137	0.87037	0.08206	-0.379
Mof_O 	O 	0.37351	0.85641	0.01418	-0.437
Mof_O 	O 	0.07106	0.51806	0.42328	-0.497
Mof_O 	O 	0.98536	0.5296	0.45368	-0.54
_end
