data_functionalizedCrystal
_audit_creation_method	'EQeq! by Chris Wilmer'
_symmetry_space_group_name_H-M	'P1'
_symmetry_Int_Tables_number	1
_symmetry_cell_setting	triclinic
loop_
_symmetry_equiv_pos_as_xyz
  x,y,z
_cell_length_a	14.0563
_cell_length_b	14.0563
_cell_length_c	14.0563
_cell_angle_alpha	90
_cell_angle_beta	90
_cell_angle_gamma	90
loop_
_atom_site_label
_atom_site_type_symbol
_atom_site_fract_x
_atom_site_fract_y
_atom_site_fract_z
_atom_site_charge
Mof_O 	O 	0.76405	0.27206	0.36247	-1.502
Mof_O 	O 	0.90284	0.27724	0.23452	-1.5
Mof_C 	C 	0.7994	0.2661	0.5263	-1.124
Mof_H 	H 	0.8373	0.3119	0.5625	0.3
Mof_H 	H 	0.8088	0.2022	0.5525	0.306
Mof_H 	H 	0.7319	0.2832	0.5305	0.329
Mof_C 	C 	0.8299	0.26741	0.42436	0.986
Mof_C 	C 	0.9269	0.2636	0.39931	-0.868
Mof_C 	C 	0.95929	0.26973	0.3043	0.989
Mof_C 	C 	0.0632	0.2678	0.2813	-1.117
Mof_H 	H 	0.1001	0.2685	0.3404	0.299
Mof_H 	H 	0.0796	0.3237	0.243	0.322
Mof_H 	H 	0.078	0.2099	0.2453	0.316
Mof_C 	C 	0.9949	0.2626	0.4745	0.281
Mof_N 	N 	0.04734	0.2634	0.53684	-0.294
Mof_O 	O 	0.73595	0.72794	0.86247	-1.501
Mof_O 	O 	0.59716	0.72276	0.73452	-1.499
Mof_C 	C 	0.7006	0.7339	0.0263	-1.123
Mof_H 	H 	0.6627	0.6881	0.0625	0.3
Mof_H 	H 	0.6912	0.7978	0.0525	0.306
Mof_H 	H 	0.7681	0.7168	0.0305	0.329
Mof_C 	C 	0.6701	0.73259	0.92436	0.986
Mof_C 	C 	0.5731	0.7364	0.89931	-0.868
Mof_C 	C 	0.54071	0.73027	0.8043	0.99
Mof_C 	C 	0.4368	0.7322	0.7813	-1.119
Mof_H 	H 	0.3999	0.7315	0.8404	0.299
Mof_H 	H 	0.4204	0.6763	0.743	0.322
Mof_H 	H 	0.422	0.7901	0.7453	0.316
Mof_C 	C 	0.5051	0.7374	0.9745	0.282
Mof_N 	N 	0.45266	0.7366	0.03684	-0.295
Mof_O 	O 	0.23595	0.77206	0.13753	-1.502
Mof_O 	O 	0.09716	0.77724	0.26548	-1.499
Mof_C 	C 	0.2006	0.7661	0.9737	-1.124
Mof_H 	H 	0.1627	0.8119	0.9375	0.3
Mof_H 	H 	0.1912	0.7022	0.9475	0.306
Mof_H 	H 	0.2681	0.7832	0.9695	0.33
Mof_C 	C 	0.1701	0.76741	0.07564	0.987
Mof_C 	C 	0.0731	0.7636	0.10069	-0.869
Mof_C 	C 	0.04071	0.76973	0.1957	0.991
Mof_C 	C 	0.9368	0.7678	0.2187	-1.12
Mof_H 	H 	0.8999	0.7685	0.1596	0.299
Mof_H 	H 	0.9204	0.8237	0.257	0.323
Mof_H 	H 	0.922	0.7099	0.2547	0.317
Mof_C 	C 	0.0051	0.7626	0.0255	0.283
Mof_N 	N 	0.95266	0.7634	0.96316	-0.296
Mof_O 	O 	0.26405	0.22794	0.63753	-1.502
Mof_O 	O 	0.40284	0.22276	0.76548	-1.499
Mof_C 	C 	0.2994	0.2339	0.4737	-1.123
Mof_H 	H 	0.3373	0.1881	0.4375	0.3
Mof_H 	H 	0.3088	0.2978	0.4475	0.306
Mof_H 	H 	0.2319	0.2168	0.4695	0.33
Mof_C 	C 	0.3299	0.23259	0.57564	0.987
Mof_C 	C 	0.4269	0.2364	0.60069	-0.868
Mof_C 	C 	0.45929	0.23027	0.6957	0.99
Mof_C 	C 	0.5632	0.2322	0.7187	-1.119
Mof_H 	H 	0.6001	0.2315	0.6596	0.299
Mof_H 	H 	0.5796	0.1763	0.757	0.322
Mof_H 	H 	0.578	0.2901	0.7547	0.316
Mof_C 	C 	0.4949	0.2374	0.5255	0.282
Mof_N 	N 	0.54734	0.2366	0.46316	-0.295
Mof_O 	O 	0.36247	0.76405	0.27206	-1.501
Mof_O 	O 	0.23452	0.90284	0.27724	-1.499
Mof_C 	C 	0.5263	0.7994	0.2661	-1.123
Mof_H 	H 	0.5625	0.8373	0.3119	0.3
Mof_H 	H 	0.5525	0.8088	0.2022	0.306
Mof_H 	H 	0.5305	0.7319	0.2832	0.329
Mof_C 	C 	0.42436	0.8299	0.26741	0.986
Mof_C 	C 	0.39931	0.9269	0.2636	-0.868
Mof_C 	C 	0.3043	0.95929	0.26973	0.989
Mof_C 	C 	0.2813	0.0632	0.2678	-1.117
Mof_H 	H 	0.3404	0.1001	0.2685	0.299
Mof_H 	H 	0.243	0.0796	0.3237	0.322
Mof_H 	H 	0.2453	0.078	0.2099	0.316
Mof_C 	C 	0.4745	0.9949	0.2626	0.281
Mof_N 	N 	0.53684	0.04734	0.2634	-0.294
Mof_O 	O 	0.86247	0.73595	0.72794	-1.501
Mof_O 	O 	0.73452	0.59716	0.72276	-1.499
Mof_C 	C 	0.0263	0.7006	0.7339	-1.123
Mof_H 	H 	0.0625	0.6627	0.6881	0.3
Mof_H 	H 	0.0525	0.6912	0.7978	0.306
Mof_H 	H 	0.0305	0.7681	0.7168	0.329
Mof_C 	C 	0.92436	0.6701	0.73259	0.986
Mof_C 	C 	0.89931	0.5731	0.7364	-0.868
Mof_C 	C 	0.8043	0.54071	0.73027	0.99
Mof_C 	C 	0.7813	0.4368	0.7322	-1.119
Mof_H 	H 	0.8404	0.3999	0.7315	0.299
Mof_H 	H 	0.743	0.4204	0.6763	0.322
Mof_H 	H 	0.7453	0.422	0.7901	0.316
Mof_C 	C 	0.9745	0.5051	0.7374	0.282
Mof_N 	N 	0.03684	0.45266	0.7366	-0.295
Mof_O 	O 	0.13753	0.23595	0.77206	-1.502
Mof_O 	O 	0.26548	0.09716	0.77724	-1.499
Mof_C 	C 	0.9737	0.2006	0.7661	-1.124
Mof_H 	H 	0.9375	0.1627	0.8119	0.3
Mof_H 	H 	0.9475	0.1912	0.7022	0.306
Mof_H 	H 	0.9695	0.2681	0.7832	0.33
Mof_C 	C 	0.07564	0.1701	0.76741	0.987
Mof_C 	C 	0.10069	0.0731	0.7636	-0.869
Mof_C 	C 	0.1957	0.04071	0.76973	0.991
Mof_C 	C 	0.2187	0.9368	0.7678	-1.12
Mof_H 	H 	0.1596	0.8999	0.7685	0.299
Mof_H 	H 	0.257	0.9204	0.8237	0.323
Mof_H 	H 	0.2547	0.922	0.7099	0.317
Mof_C 	C 	0.0255	0.0051	0.7626	0.283
Mof_N 	N 	0.96316	0.95266	0.7634	-0.296
Mof_O 	O 	0.63753	0.26405	0.22794	-1.502
Mof_O 	O 	0.76548	0.40284	0.22276	-1.499
Mof_C 	C 	0.4737	0.2994	0.2339	-1.123
Mof_H 	H 	0.4375	0.3373	0.1881	0.3
Mof_H 	H 	0.4475	0.3088	0.2978	0.306
Mof_H 	H 	0.4695	0.2319	0.2168	0.33
Mof_C 	C 	0.57564	0.3299	0.23259	0.987
Mof_C 	C 	0.60069	0.4269	0.2364	-0.868
Mof_C 	C 	0.6957	0.45929	0.23027	0.99
Mof_C 	C 	0.7187	0.5632	0.2322	-1.119
Mof_H 	H 	0.6596	0.6001	0.2315	0.299
Mof_H 	H 	0.757	0.5796	0.1763	0.322
Mof_H 	H 	0.7547	0.578	0.2901	0.316
Mof_C 	C 	0.5255	0.4949	0.2374	0.282
Mof_N 	N 	0.46316	0.54734	0.2366	-0.295
Mof_O 	O 	0.27206	0.36247	0.76405	-1.501
Mof_O 	O 	0.27724	0.23452	0.90284	-1.499
Mof_C 	C 	0.2661	0.5263	0.7994	-1.123
Mof_H 	H 	0.3119	0.5625	0.8373	0.3
Mof_H 	H 	0.2022	0.5525	0.8088	0.306
Mof_H 	H 	0.2832	0.5305	0.7319	0.329
Mof_C 	C 	0.26741	0.42436	0.8299	0.986
Mof_C 	C 	0.2636	0.39931	0.9269	-0.868
Mof_C 	C 	0.26973	0.3043	0.95929	0.989
Mof_C 	C 	0.2678	0.2813	0.0632	-1.117
Mof_H 	H 	0.2685	0.3404	0.1001	0.299
Mof_H 	H 	0.3237	0.243	0.0796	0.322
Mof_H 	H 	0.2099	0.2453	0.078	0.316
Mof_C 	C 	0.2626	0.4745	0.9949	0.281
Mof_N 	N 	0.2634	0.53684	0.04734	-0.294
Mof_O 	O 	0.72794	0.86247	0.73595	-1.501
Mof_O 	O 	0.72276	0.73452	0.59716	-1.499
Mof_C 	C 	0.7339	0.0263	0.7006	-1.123
Mof_H 	H 	0.6881	0.0625	0.6627	0.3
Mof_H 	H 	0.7978	0.0525	0.6912	0.306
Mof_H 	H 	0.7168	0.0305	0.7681	0.329
Mof_C 	C 	0.73259	0.92436	0.6701	0.986
Mof_C 	C 	0.7364	0.89931	0.5731	-0.868
Mof_C 	C 	0.73027	0.8043	0.54071	0.99
Mof_C 	C 	0.7322	0.7813	0.4368	-1.119
Mof_H 	H 	0.7315	0.8404	0.3999	0.299
Mof_H 	H 	0.6763	0.743	0.4204	0.322
Mof_H 	H 	0.7901	0.7453	0.422	0.316
Mof_C 	C 	0.7374	0.9745	0.5051	0.282
Mof_N 	N 	0.7366	0.03684	0.45266	-0.295
Mof_O 	O 	0.77206	0.13753	0.23595	-1.502
Mof_O 	O 	0.77724	0.26548	0.09716	-1.499
Mof_C 	C 	0.7661	0.9737	0.2006	-1.124
Mof_H 	H 	0.8119	0.9375	0.1627	0.3
Mof_H 	H 	0.7022	0.9475	0.1912	0.306
Mof_H 	H 	0.7832	0.9695	0.2681	0.33
Mof_C 	C 	0.76741	0.07564	0.1701	0.987
Mof_C 	C 	0.7636	0.10069	0.0731	-0.869
Mof_C 	C 	0.76973	0.1957	0.04071	0.991
Mof_C 	C 	0.7678	0.2187	0.9368	-1.12
Mof_H 	H 	0.7685	0.1596	0.8999	0.299
Mof_H 	H 	0.8237	0.257	0.9204	0.323
Mof_H 	H 	0.7099	0.2547	0.922	0.317
Mof_C 	C 	0.7626	0.0255	0.0051	0.283
Mof_N 	N 	0.7634	0.96316	0.95266	-0.296
Mof_O 	O 	0.22794	0.63753	0.26405	-1.502
Mof_O 	O 	0.22276	0.76548	0.40284	-1.499
Mof_C 	C 	0.2339	0.4737	0.2994	-1.123
Mof_H 	H 	0.1881	0.4375	0.3373	0.3
Mof_H 	H 	0.2978	0.4475	0.3088	0.306
Mof_H 	H 	0.2168	0.4695	0.2319	0.33
Mof_C 	C 	0.23259	0.57564	0.3299	0.987
Mof_C 	C 	0.2364	0.60069	0.4269	-0.868
Mof_C 	C 	0.23027	0.6957	0.45929	0.99
Mof_C 	C 	0.2322	0.7187	0.5632	-1.119
Mof_H 	H 	0.2315	0.6596	0.6001	0.299
Mof_H 	H 	0.1763	0.757	0.5796	0.322
Mof_H 	H 	0.2901	0.7547	0.578	0.316
Mof_C 	C 	0.2374	0.5255	0.4949	0.282
Mof_N 	N 	0.2366	0.46316	0.54734	-0.295
Mof_Ag	Ag	0.1259	0.3741	0.6259	0.589
Mof_Ag	Ag	0.3741	0.6259	0.1259	0.589
Mof_Ag	Ag	0.8741	0.8741	0.8741	0.588
Mof_Ag	Ag	0.6259	0.1259	0.3741	0.589
Mof_Al	Al	0.77064	0.27064	0.22936	6.235
Mof_Al	Al	0.72936	0.72936	0.72936	6.234
Mof_Al	Al	0.22936	0.77064	0.27064	6.235
Mof_Al	Al	0.27064	0.22936	0.77064	6.235
_end
