data_functionalizedCrystal
_audit_creation_method	'EQeq! by Chris Wilmer'
_symmetry_space_group_name_H-M	'P1'
_symmetry_Int_Tables_number	1
_symmetry_cell_setting	triclinic
loop_
_symmetry_equiv_pos_as_xyz
  x,y,z
_cell_length_a	13.0584
_cell_length_b	13.0584
_cell_length_c	53.731
_cell_angle_alpha	90
_cell_angle_beta	90
_cell_angle_gamma	90
loop_
_atom_site_label
_atom_site_type_symbol
_atom_site_fract_x
_atom_site_fract_y
_atom_site_fract_z
_atom_site_charge
Mof_Zn	Zn	0.15764	0.12635	0.88462	1.188
Mof_Zn	Zn	0.32566	0.05892	0.68485	1.189
Mof_Zn	Zn	0.84236	0.87365	0.38462	1.188
Mof_Zn	Zn	0.67434	0.94108	0.18485	1.189
Mof_Zn	Zn	0.37365	0.65764	0.13462	1.188
Mof_Zn	Zn	0.44108	0.82566	0.93485	1.19
Mof_Zn	Zn	0.62635	0.34236	0.63462	1.188
Mof_Zn	Zn	0.55892	0.17434	0.43485	1.19
Mof_Zn	Zn	0.34236	0.62635	0.36538	1.188
Mof_Zn	Zn	0.17434	0.55892	0.56515	1.19
Mof_Zn	Zn	0.65764	0.37365	0.86538	1.188
Mof_Zn	Zn	0.82566	0.44108	0.06515	1.19
Mof_Zn	Zn	0.12635	0.15764	0.11538	1.188
Mof_Zn	Zn	0.05892	0.32566	0.31515	1.189
Mof_Zn	Zn	0.87365	0.84236	0.61538	1.188
Mof_Zn	Zn	0.94108	0.67434	0.81515	1.189
Mof_B 	B 	0.2628	0.5309	0.8719	0.906
Mof_B 	B 	0.7372	0.4691	0.3719	0.906
Mof_B 	B 	0.9691	0.7628	0.1219	0.892
Mof_B 	B 	0.0309	0.2372	0.6219	0.892
Mof_B 	B 	0.2372	0.0309	0.3781	0.892
Mof_B 	B 	0.7628	0.9691	0.8781	0.892
Mof_B 	B 	0.5309	0.2628	0.1281	0.906
Mof_B 	B 	0.4691	0.7372	0.6281	0.906
Mof_H 	H 	0.0604	0.5442	0.8523	-0.05
Mof_H 	H 	0.3138	0.702	0.8385	0.005
Mof_H 	H 	0.175	0.7712	0.8133	0.029
Mof_H 	H 	0.2784	0.3152	0.8706	-0.034
Mof_H 	H 	0.0154	0.3201	0.9025	0.025
Mof_H 	H 	0.0586	0.4938	0.8956	0.005
Mof_H 	H 	0.4638	0.4782	0.8872	-0.034
Mof_H 	H 	0.3216	0.4565	0.8228	0.001
Mof_H 	H 	0.4868	0.3829	0.8181	0.02
Mof_H 	H 	0.339	0.9641	0.8895	-0.047
Mof_H 	H 	0.3224	0.0038	0.961	0.026
Mof_H 	H 	0.2125	0.1258	0.9414	-0.002
Mof_H 	H 	0.3582	0.7225	0.884	-0.061
Mof_H 	H 	0.3563	0.6092	0.9516	0.029
Mof_H 	H 	0.2673	0.4918	0.9248	0.003
Mof_H 	H 	0.3552	0.1869	0.8039	0.047
Mof_H 	H 	0.3604	0.1609	0.7618	0.045
Mof_H 	H 	0.1316	0.9622	0.7666	0.066
Mof_H 	H 	0.1247	0.985	0.8101	0.056
Mof_H 	H 	0.9396	0.4558	0.3523	-0.05
Mof_H 	H 	0.6862	0.298	0.3385	0.005
Mof_H 	H 	0.825	0.2288	0.3133	0.029
Mof_H 	H 	0.7216	0.6848	0.3706	-0.034
Mof_H 	H 	0.9846	0.6799	0.4025	0.025
Mof_H 	H 	0.9414	0.5062	0.3956	0.005
Mof_H 	H 	0.5362	0.5218	0.3872	-0.034
Mof_H 	H 	0.6784	0.5435	0.3228	0.001
Mof_H 	H 	0.5132	0.6171	0.3181	0.02
Mof_H 	H 	0.661	0.0359	0.3895	-0.047
Mof_H 	H 	0.6776	0.9962	0.461	0.026
Mof_H 	H 	0.7875	0.8742	0.4414	-0.002
Mof_H 	H 	0.6418	0.2775	0.384	-0.061
Mof_H 	H 	0.6437	0.3908	0.4516	0.029
Mof_H 	H 	0.7327	0.5082	0.4248	0.003
Mof_H 	H 	0.6448	0.8131	0.3039	0.047
Mof_H 	H 	0.6396	0.8391	0.2618	0.045
Mof_H 	H 	0.8684	0.0378	0.2666	0.066
Mof_H 	H 	0.8753	0.015	0.3101	0.056
Mof_H 	H 	0.9558	0.5604	0.1023	-0.052
Mof_H 	H 	0.798	0.8138	0.0885	0.003
Mof_H 	H 	0.7288	0.675	0.0633	0.028
Mof_H 	H 	0.1848	0.7784	0.1206	-0.034
Mof_H 	H 	0.1799	0.5154	0.1525	0.023
Mof_H 	H 	0.0062	0.5586	0.1456	0.006
Mof_H 	H 	0.0218	0.9638	0.1372	-0.032
Mof_H 	H 	0.0435	0.8216	0.0728	0.002
Mof_H 	H 	0.1171	0.9868	0.0681	0.02
Mof_H 	H 	0.5359	0.839	0.1395	-0.05
Mof_H 	H 	0.4962	0.8224	0.211	0.026
Mof_H 	H 	0.3742	0.7125	0.1914	-0.005
Mof_H 	H 	0.7775	0.8582	0.134	-0.061
Mof_H 	H 	0.8908	0.8563	0.2016	0.026
Mof_H 	H 	0.0082	0.7673	0.1748	0.009
Mof_H 	H 	0.3131	0.8552	0.0539	0.048
Mof_H 	H 	0.3391	0.8604	0.0118	0.043
Mof_H 	H 	0.5378	0.6316	0.0166	0.061
Mof_H 	H 	0.515	0.6247	0.0601	0.056
Mof_H 	H 	0.0442	0.4396	0.6023	-0.052
Mof_H 	H 	0.202	0.1862	0.5885	0.003
Mof_H 	H 	0.2712	0.325	0.5633	0.028
Mof_H 	H 	0.8152	0.2216	0.6206	-0.034
Mof_H 	H 	0.8201	0.4846	0.6525	0.023
Mof_H 	H 	0.9938	0.4414	0.6456	0.006
Mof_H 	H 	0.9782	0.0362	0.6372	-0.032
Mof_H 	H 	0.9565	0.1784	0.5728	0.002
Mof_H 	H 	0.8829	0.0132	0.5681	0.02
Mof_H 	H 	0.4641	0.161	0.6395	-0.05
Mof_H 	H 	0.5038	0.1776	0.711	0.026
Mof_H 	H 	0.6258	0.2875	0.6914	-0.005
Mof_H 	H 	0.2225	0.1418	0.634	-0.061
Mof_H 	H 	0.1092	0.1437	0.7016	0.026
Mof_H 	H 	0.9918	0.2327	0.6748	0.009
Mof_H 	H 	0.6869	0.1448	0.5539	0.048
Mof_H 	H 	0.6609	0.1396	0.5118	0.043
Mof_H 	H 	0.4622	0.3684	0.5166	0.061
Mof_H 	H 	0.485	0.3753	0.5601	0.056
Mof_H 	H 	0.4396	0.0442	0.3977	-0.052
Mof_H 	H 	0.1862	0.202	0.4115	0.003
Mof_H 	H 	0.325	0.2712	0.4367	0.028
Mof_H 	H 	0.2216	0.8152	0.3794	-0.034
Mof_H 	H 	0.4846	0.8201	0.3475	0.023
Mof_H 	H 	0.4414	0.9938	0.3544	0.006
Mof_H 	H 	0.0362	0.9782	0.3628	-0.032
Mof_H 	H 	0.1784	0.9565	0.4272	0.002
Mof_H 	H 	0.0132	0.8829	0.4319	0.02
Mof_H 	H 	0.161	0.4641	0.3605	-0.05
Mof_H 	H 	0.1776	0.5038	0.289	0.026
Mof_H 	H 	0.2875	0.6258	0.3086	-0.005
Mof_H 	H 	0.1418	0.2225	0.366	-0.061
Mof_H 	H 	0.1437	0.1092	0.2984	0.026
Mof_H 	H 	0.2327	0.9918	0.3252	0.009
Mof_H 	H 	0.1448	0.6869	0.4461	0.048
Mof_H 	H 	0.1396	0.6609	0.4882	0.043
Mof_H 	H 	0.3684	0.4622	0.4834	0.061
Mof_H 	H 	0.3753	0.485	0.4399	0.056
Mof_H 	H 	0.5604	0.9558	0.8977	-0.052
Mof_H 	H 	0.8138	0.798	0.9115	0.003
Mof_H 	H 	0.675	0.7288	0.9367	0.028
Mof_H 	H 	0.7784	0.1848	0.8794	-0.034
Mof_H 	H 	0.5154	0.1799	0.8475	0.023
Mof_H 	H 	0.5586	0.0062	0.8544	0.006
Mof_H 	H 	0.9638	0.0218	0.8628	-0.032
Mof_H 	H 	0.8216	0.0435	0.9272	0.002
Mof_H 	H 	0.9868	0.1171	0.9319	0.02
Mof_H 	H 	0.839	0.5359	0.8605	-0.05
Mof_H 	H 	0.8224	0.4962	0.789	0.026
Mof_H 	H 	0.7125	0.3742	0.8086	-0.005
Mof_H 	H 	0.8582	0.7775	0.866	-0.061
Mof_H 	H 	0.8563	0.8908	0.7984	0.026
Mof_H 	H 	0.7673	0.0082	0.8252	0.009
Mof_H 	H 	0.8552	0.3131	0.9461	0.048
Mof_H 	H 	0.8604	0.3391	0.9882	0.043
Mof_H 	H 	0.6316	0.5378	0.9834	0.061
Mof_H 	H 	0.6247	0.515	0.9399	0.056
Mof_H 	H 	0.5442	0.0604	0.1477	-0.05
Mof_H 	H 	0.702	0.3138	0.1615	0.005
Mof_H 	H 	0.7712	0.175	0.1867	0.029
Mof_H 	H 	0.3152	0.2784	0.1294	-0.034
Mof_H 	H 	0.3201	0.0154	0.0975	0.025
Mof_H 	H 	0.4938	0.0586	0.1044	0.005
Mof_H 	H 	0.4782	0.4638	0.1128	-0.034
Mof_H 	H 	0.4565	0.3216	0.1772	0.001
Mof_H 	H 	0.3829	0.4868	0.1819	0.02
Mof_H 	H 	0.9641	0.339	0.1105	-0.047
Mof_H 	H 	0.0038	0.3224	0.039	0.026
Mof_H 	H 	0.1258	0.2125	0.0586	-0.002
Mof_H 	H 	0.7225	0.3582	0.116	-0.061
Mof_H 	H 	0.6092	0.3563	0.0484	0.029
Mof_H 	H 	0.4918	0.2673	0.0752	0.003
Mof_H 	H 	0.1869	0.3552	0.1961	0.047
Mof_H 	H 	0.1609	0.3604	0.2382	0.045
Mof_H 	H 	0.9622	0.1316	0.2334	0.066
Mof_H 	H 	0.985	0.1247	0.1899	0.056
Mof_H 	H 	0.4558	0.9396	0.6477	-0.05
Mof_H 	H 	0.298	0.6862	0.6615	0.005
Mof_H 	H 	0.2288	0.825	0.6867	0.029
Mof_H 	H 	0.6848	0.7216	0.6294	-0.034
Mof_H 	H 	0.6799	0.9846	0.5975	0.025
Mof_H 	H 	0.5062	0.9414	0.6044	0.005
Mof_H 	H 	0.5218	0.5362	0.6128	-0.034
Mof_H 	H 	0.5435	0.6784	0.6772	0.001
Mof_H 	H 	0.6171	0.5132	0.6819	0.02
Mof_H 	H 	0.0359	0.661	0.6105	-0.047
Mof_H 	H 	0.9962	0.6776	0.539	0.026
Mof_H 	H 	0.8742	0.7875	0.5586	-0.002
Mof_H 	H 	0.2775	0.6418	0.616	-0.061
Mof_H 	H 	0.3908	0.6437	0.5484	0.029
Mof_H 	H 	0.5082	0.7327	0.5752	0.003
Mof_H 	H 	0.8131	0.6448	0.6961	0.047
Mof_H 	H 	0.8391	0.6396	0.7382	0.045
Mof_H 	H 	0.0378	0.8684	0.7334	0.066
Mof_H 	H 	0.015	0.8753	0.6899	0.056
Mof_C 	C 	0.1066	0.591	0.8456	0.122
Mof_C 	C 	0.2464	0.679	0.8382	0.027
Mof_C 	C 	0.1699	0.7159	0.8241	-0.01
Mof_C 	C 	0.218	0.3394	0.8776	0.129
Mof_C 	C 	0.0754	0.3424	0.8949	-0.004
Mof_C 	C 	0.0984	0.4375	0.8912	0.035
Mof_C 	C 	0.4498	0.4649	0.8706	0.125
Mof_C 	C 	0.3713	0.453	0.8351	0.051
Mof_C 	C 	0.4614	0.4121	0.8326	-0.032
Mof_C 	C 	0.3212	0.9885	0.9052	0.106
Mof_C 	C 	0.3126	0.01	0.944	-0.015
Mof_C 	C 	0.2518	0.077	0.9332	0.007
Mof_C 	C 	0.3446	0.6796	0.8974	0.143
Mof_C 	C 	0.3443	0.6178	0.9347	-0.028
Mof_C 	C 	0.296	0.5537	0.9198	0.044
Mof_C 	C 	0.2302	0.1109	0.8387	0.279
Mof_C 	C 	0.2371	0.0935	0.8112	-0.052
Mof_C 	C 	0.309	0.1419	0.7966	-0.034
Mof_C 	C 	0.3137	0.1247	0.7715	-0.021
Mof_C 	C 	0.2491	0.0533	0.7604	-0.068
Mof_C 	C 	0.1779	0.0062	0.7743	-0.027
Mof_C 	C 	0.1712	0.0216	0.8005	-0.03
Mof_C 	C 	0.2566	0.0311	0.7327	0.329
Mof_C 	C 	0.8934	0.409	0.3456	0.122
Mof_C 	C 	0.7536	0.321	0.3382	0.027
Mof_C 	C 	0.8301	0.2841	0.3241	-0.01
Mof_C 	C 	0.782	0.6606	0.3776	0.129
Mof_C 	C 	0.9246	0.6576	0.3949	-0.004
Mof_C 	C 	0.9016	0.5625	0.3912	0.035
Mof_C 	C 	0.5502	0.5351	0.3706	0.125
Mof_C 	C 	0.6287	0.547	0.3351	0.051
Mof_C 	C 	0.5386	0.5879	0.3326	-0.032
Mof_C 	C 	0.6788	0.0115	0.4052	0.106
Mof_C 	C 	0.6874	0.99	0.444	-0.015
Mof_C 	C 	0.7482	0.923	0.4332	0.007
Mof_C 	C 	0.6554	0.3204	0.3974	0.143
Mof_C 	C 	0.6557	0.3822	0.4347	-0.028
Mof_C 	C 	0.704	0.4463	0.4198	0.044
Mof_C 	C 	0.7698	0.8891	0.3387	0.279
Mof_C 	C 	0.7629	0.9065	0.3112	-0.052
Mof_C 	C 	0.691	0.8581	0.2966	-0.034
Mof_C 	C 	0.6863	0.8753	0.2715	-0.021
Mof_C 	C 	0.7509	0.9467	0.2604	-0.068
Mof_C 	C 	0.8221	0.9938	0.2743	-0.027
Mof_C 	C 	0.8288	0.9784	0.3005	-0.03
Mof_C 	C 	0.7434	0.9689	0.2327	0.329
Mof_C 	C 	0.909	0.6066	0.0956	0.12
Mof_C 	C 	0.821	0.7464	0.0882	0.025
Mof_C 	C 	0.7841	0.6699	0.0741	-0.011
Mof_C 	C 	0.1606	0.718	0.1276	0.128
Mof_C 	C 	0.1576	0.5754	0.1449	-0.004
Mof_C 	C 	0.0625	0.5984	0.1412	0.034
Mof_C 	C 	0.0351	0.9498	0.1206	0.119
Mof_C 	C 	0.047	0.8713	0.0851	0.054
Mof_C 	C 	0.0879	0.9614	0.0826	-0.038
Mof_C 	C 	0.5115	0.8212	0.1552	0.112
Mof_C 	C 	0.49	0.8126	0.194	-0.024
Mof_C 	C 	0.423	0.7518	0.1832	0.009
Mof_C 	C 	0.8204	0.8446	0.1474	0.141
Mof_C 	C 	0.8822	0.8443	0.1847	-0.023
Mof_C 	C 	0.9463	0.796	0.1698	0.032
Mof_C 	C 	0.3891	0.7302	0.0887	0.279
Mof_C 	C 	0.4065	0.7371	0.0612	-0.05
Mof_C 	C 	0.3581	0.809	0.0466	-0.038
Mof_C 	C 	0.3753	0.8137	0.0215	-0.017
Mof_C 	C 	0.4467	0.7491	0.0104	-0.074
Mof_C 	C 	0.4938	0.6779	0.0243	-0.018
Mof_C 	C 	0.4784	0.6712	0.0505	-0.035
Mof_C 	C 	0.4689	0.7566	0.9827	0.337
Mof_C 	C 	0.091	0.3934	0.5956	0.12
Mof_C 	C 	0.179	0.2536	0.5882	0.025
Mof_C 	C 	0.2159	0.3301	0.5741	-0.011
Mof_C 	C 	0.8394	0.282	0.6276	0.128
Mof_C 	C 	0.8424	0.4246	0.6449	-0.004
Mof_C 	C 	0.9375	0.4016	0.6412	0.034
Mof_C 	C 	0.9649	0.0502	0.6206	0.119
Mof_C 	C 	0.953	0.1287	0.5851	0.054
Mof_C 	C 	0.9121	0.0386	0.5826	-0.038
Mof_C 	C 	0.4885	0.1788	0.6552	0.112
Mof_C 	C 	0.51	0.1874	0.694	-0.024
Mof_C 	C 	0.577	0.2482	0.6832	0.009
Mof_C 	C 	0.1796	0.1554	0.6474	0.141
Mof_C 	C 	0.1178	0.1557	0.6847	-0.023
Mof_C 	C 	0.0537	0.204	0.6698	0.032
Mof_C 	C 	0.6109	0.2698	0.5887	0.279
Mof_C 	C 	0.5935	0.2629	0.5612	-0.05
Mof_C 	C 	0.6419	0.191	0.5466	-0.038
Mof_C 	C 	0.6247	0.1863	0.5215	-0.017
Mof_C 	C 	0.5533	0.2509	0.5104	-0.074
Mof_C 	C 	0.5062	0.3221	0.5243	-0.018
Mof_C 	C 	0.5216	0.3288	0.5505	-0.035
Mof_C 	C 	0.5311	0.2434	0.4827	0.337
Mof_C 	C 	0.3934	0.091	0.4044	0.12
Mof_C 	C 	0.2536	0.179	0.4118	0.025
Mof_C 	C 	0.3301	0.2159	0.4259	-0.011
Mof_C 	C 	0.282	0.8394	0.3724	0.128
Mof_C 	C 	0.4246	0.8424	0.3551	-0.004
Mof_C 	C 	0.4016	0.9375	0.3588	0.034
Mof_C 	C 	0.0502	0.9649	0.3794	0.119
Mof_C 	C 	0.1287	0.953	0.4149	0.054
Mof_C 	C 	0.0386	0.9121	0.4174	-0.038
Mof_C 	C 	0.1788	0.4885	0.3448	0.112
Mof_C 	C 	0.1874	0.51	0.306	-0.024
Mof_C 	C 	0.2482	0.577	0.3168	0.009
Mof_C 	C 	0.1554	0.1796	0.3526	0.141
Mof_C 	C 	0.1557	0.1178	0.3153	-0.023
Mof_C 	C 	0.204	0.0537	0.3302	0.032
Mof_C 	C 	0.2698	0.6109	0.4113	0.279
Mof_C 	C 	0.2629	0.5935	0.4388	-0.05
Mof_C 	C 	0.191	0.6419	0.4534	-0.038
Mof_C 	C 	0.1863	0.6247	0.4785	-0.017
Mof_C 	C 	0.2509	0.5533	0.4896	-0.074
Mof_C 	C 	0.3221	0.5062	0.4757	-0.018
Mof_C 	C 	0.3288	0.5216	0.4495	-0.035
Mof_C 	C 	0.2434	0.5311	0.5173	0.337
Mof_C 	C 	0.6066	0.909	0.9044	0.12
Mof_C 	C 	0.7464	0.821	0.9118	0.025
Mof_C 	C 	0.6699	0.7841	0.9259	-0.011
Mof_C 	C 	0.718	0.1606	0.8724	0.128
Mof_C 	C 	0.5754	0.1576	0.8551	-0.004
Mof_C 	C 	0.5984	0.0625	0.8588	0.034
Mof_C 	C 	0.9498	0.0351	0.8794	0.119
Mof_C 	C 	0.8713	0.047	0.9149	0.054
Mof_C 	C 	0.9614	0.0879	0.9174	-0.038
Mof_C 	C 	0.8212	0.5115	0.8448	0.112
Mof_C 	C 	0.8126	0.49	0.806	-0.024
Mof_C 	C 	0.7518	0.423	0.8168	0.009
Mof_C 	C 	0.8446	0.8204	0.8526	0.141
Mof_C 	C 	0.8443	0.8822	0.8153	-0.023
Mof_C 	C 	0.796	0.9463	0.8302	0.032
Mof_C 	C 	0.7302	0.3891	0.9113	0.279
Mof_C 	C 	0.7371	0.4065	0.9388	-0.05
Mof_C 	C 	0.809	0.3581	0.9534	-0.038
Mof_C 	C 	0.8137	0.3753	0.9785	-0.017
Mof_C 	C 	0.7491	0.4467	0.9896	-0.074
Mof_C 	C 	0.6779	0.4938	0.9757	-0.018
Mof_C 	C 	0.6712	0.4784	0.9495	-0.035
Mof_C 	C 	0.7566	0.4689	0.0173	0.337
Mof_C 	C 	0.591	0.1066	0.1544	0.122
Mof_C 	C 	0.679	0.2464	0.1618	0.027
Mof_C 	C 	0.7159	0.1699	0.1759	-0.01
Mof_C 	C 	0.3394	0.218	0.1224	0.129
Mof_C 	C 	0.3424	0.0754	0.1051	-0.004
Mof_C 	C 	0.4375	0.0984	0.1088	0.035
Mof_C 	C 	0.4649	0.4498	0.1294	0.125
Mof_C 	C 	0.453	0.3713	0.1649	0.051
Mof_C 	C 	0.4121	0.4614	0.1674	-0.032
Mof_C 	C 	0.9885	0.3212	0.0948	0.106
Mof_C 	C 	0.01	0.3126	0.056	-0.015
Mof_C 	C 	0.077	0.2518	0.0668	0.007
Mof_C 	C 	0.6796	0.3446	0.1026	0.143
Mof_C 	C 	0.6178	0.3443	0.0653	-0.028
Mof_C 	C 	0.5537	0.296	0.0802	0.044
Mof_C 	C 	0.1109	0.2302	0.1613	0.279
Mof_C 	C 	0.0935	0.2371	0.1888	-0.052
Mof_C 	C 	0.1419	0.309	0.2034	-0.034
Mof_C 	C 	0.1247	0.3137	0.2285	-0.021
Mof_C 	C 	0.0533	0.2491	0.2396	-0.068
Mof_C 	C 	0.0062	0.1779	0.2257	-0.027
Mof_C 	C 	0.0216	0.1712	0.1995	-0.03
Mof_C 	C 	0.0311	0.2566	0.2673	0.329
Mof_C 	C 	0.409	0.8934	0.6544	0.122
Mof_C 	C 	0.321	0.7536	0.6618	0.027
Mof_C 	C 	0.2841	0.8301	0.6759	-0.01
Mof_C 	C 	0.6606	0.782	0.6224	0.129
Mof_C 	C 	0.6576	0.9246	0.6051	-0.004
Mof_C 	C 	0.5625	0.9016	0.6088	0.035
Mof_C 	C 	0.5351	0.5502	0.6294	0.125
Mof_C 	C 	0.547	0.6287	0.6649	0.051
Mof_C 	C 	0.5879	0.5386	0.6674	-0.032
Mof_C 	C 	0.0115	0.6788	0.5948	0.106
Mof_C 	C 	0.99	0.6874	0.556	-0.015
Mof_C 	C 	0.923	0.7482	0.5668	0.007
Mof_C 	C 	0.3204	0.6554	0.6026	0.143
Mof_C 	C 	0.3822	0.6557	0.5653	-0.028
Mof_C 	C 	0.4463	0.704	0.5802	0.044
Mof_C 	C 	0.8891	0.7698	0.6613	0.279
Mof_C 	C 	0.9065	0.7629	0.6888	-0.052
Mof_C 	C 	0.8581	0.691	0.7034	-0.034
Mof_C 	C 	0.8753	0.6863	0.7285	-0.021
Mof_C 	C 	0.9467	0.7509	0.7396	-0.068
Mof_C 	C 	0.9938	0.8221	0.7257	-0.027
Mof_C 	C 	0.9784	0.8288	0.6995	-0.03
Mof_C 	C 	0.9689	0.7434	0.7673	0.329
Mof_N 	N 	0.2043	0.5985	0.85218	-0.295
Mof_N 	N 	0.0836	0.6599	0.82817	-0.282
Mof_N 	N 	0.194	0.4403	0.87964	-0.305
Mof_N 	N 	0.1471	0.2812	0.8865	-0.281
Mof_N 	N 	0.3607	0.4905	0.85919	-0.306
Mof_N 	N 	0.5145	0.4189	0.85533	-0.271
Mof_N 	N 	0.3597	0.9503	0.92608	-0.281
Mof_N 	N 	0.2556	0.0638	0.90849	-0.286
Mof_N 	N 	0.2941	0.5911	0.89555	-0.31
Mof_N 	N 	0.373	0.6992	0.92045	-0.279
Mof_N 	N 	0.7957	0.4015	0.35218	-0.295
Mof_N 	N 	0.9164	0.3401	0.32817	-0.282
Mof_N 	N 	0.806	0.5597	0.37964	-0.305
Mof_N 	N 	0.8529	0.7188	0.3865	-0.281
Mof_N 	N 	0.6393	0.5095	0.35919	-0.306
Mof_N 	N 	0.4855	0.5811	0.35533	-0.271
Mof_N 	N 	0.6403	0.0497	0.42608	-0.281
Mof_N 	N 	0.7444	0.9362	0.40849	-0.286
Mof_N 	N 	0.7059	0.4089	0.39555	-0.31
Mof_N 	N 	0.627	0.3008	0.42045	-0.279
Mof_N 	N 	0.9015	0.7043	0.10218	-0.294
Mof_N 	N 	0.8401	0.5836	0.07817	-0.284
Mof_N 	N 	0.0597	0.694	0.12964	-0.3
Mof_N 	N 	0.2188	0.6471	0.1365	-0.281
Mof_N 	N 	0.0095	0.8607	0.10919	-0.3
Mof_N 	N 	0.0811	0.0145	0.10533	-0.265
Mof_N 	N 	0.5497	0.8597	0.17608	-0.279
Mof_N 	N 	0.4362	0.7556	0.15849	-0.29
Mof_N 	N 	0.9089	0.7941	0.14555	-0.307
Mof_N 	N 	0.8008	0.873	0.17045	-0.28
Mof_N 	N 	0.0985	0.2957	0.60218	-0.294
Mof_N 	N 	0.1599	0.4164	0.57817	-0.284
Mof_N 	N 	0.9403	0.306	0.62964	-0.3
Mof_N 	N 	0.7812	0.3529	0.6365	-0.281
Mof_N 	N 	0.9905	0.1393	0.60919	-0.3
Mof_N 	N 	0.9189	0.9855	0.60533	-0.265
Mof_N 	N 	0.4503	0.1403	0.67608	-0.279
Mof_N 	N 	0.5638	0.2444	0.65849	-0.29
Mof_N 	N 	0.0911	0.2059	0.64555	-0.307
Mof_N 	N 	0.1992	0.127	0.67045	-0.28
Mof_N 	N 	0.2957	0.0985	0.39782	-0.294
Mof_N 	N 	0.4164	0.1599	0.42183	-0.284
Mof_N 	N 	0.306	0.9403	0.37036	-0.3
Mof_N 	N 	0.3529	0.7812	0.3635	-0.281
Mof_N 	N 	0.1393	0.9905	0.39081	-0.3
Mof_N 	N 	0.9855	0.9189	0.39467	-0.265
Mof_N 	N 	0.1403	0.4503	0.32392	-0.279
Mof_N 	N 	0.2444	0.5638	0.34151	-0.29
Mof_N 	N 	0.2059	0.0911	0.35445	-0.307
Mof_N 	N 	0.127	0.1992	0.32955	-0.28
Mof_N 	N 	0.7043	0.9015	0.89782	-0.294
Mof_N 	N 	0.5836	0.8401	0.92183	-0.284
Mof_N 	N 	0.694	0.0597	0.87036	-0.3
Mof_N 	N 	0.6471	0.2188	0.8635	-0.281
Mof_N 	N 	0.8607	0.0095	0.89081	-0.3
Mof_N 	N 	0.0145	0.0811	0.89467	-0.265
Mof_N 	N 	0.8597	0.5497	0.82392	-0.279
Mof_N 	N 	0.7556	0.4362	0.84151	-0.29
Mof_N 	N 	0.7941	0.9089	0.85445	-0.307
Mof_N 	N 	0.873	0.8008	0.82955	-0.28
Mof_N 	N 	0.5985	0.2043	0.14782	-0.295
Mof_N 	N 	0.6599	0.0836	0.17183	-0.282
Mof_N 	N 	0.4403	0.194	0.12036	-0.305
Mof_N 	N 	0.2812	0.1471	0.1135	-0.281
Mof_N 	N 	0.4905	0.3607	0.14081	-0.306
Mof_N 	N 	0.4189	0.5145	0.14467	-0.271
Mof_N 	N 	0.9503	0.3597	0.07392	-0.281
Mof_N 	N 	0.0638	0.2556	0.09151	-0.286
Mof_N 	N 	0.5911	0.2941	0.10445	-0.31
Mof_N 	N 	0.6992	0.373	0.07955	-0.279
Mof_N 	N 	0.4015	0.7957	0.64782	-0.295
Mof_N 	N 	0.3401	0.9164	0.67183	-0.282
Mof_N 	N 	0.5597	0.806	0.62036	-0.305
Mof_N 	N 	0.7188	0.8529	0.6135	-0.281
Mof_N 	N 	0.5095	0.6393	0.64081	-0.306
Mof_N 	N 	0.5811	0.4855	0.64467	-0.271
Mof_N 	N 	0.0497	0.6403	0.57392	-0.281
Mof_N 	N 	0.9362	0.7444	0.59151	-0.286
Mof_N 	N 	0.4089	0.7059	0.60445	-0.31
Mof_N 	N 	0.3008	0.627	0.57955	-0.279
Mof_O 	O 	0.324	0.0822	0.72031	-0.472
Mof_O 	O 	0.2003	0.9703	0.72297	-0.327
Mof_O 	O 	0.1526	0.0739	0.85011	-0.45
Mof_O 	O 	0.3025	0.1596	0.84944	-0.323
Mof_O 	O 	0.676	0.9178	0.22031	-0.472
Mof_O 	O 	0.7997	0.0297	0.22297	-0.327
Mof_O 	O 	0.8474	0.9261	0.35011	-0.45
Mof_O 	O 	0.6975	0.8404	0.34944	-0.323
Mof_O 	O 	0.4178	0.824	0.97031	-0.475
Mof_O 	O 	0.5297	0.7003	0.97297	-0.333
Mof_O 	O 	0.4261	0.6526	0.10011	-0.452
Mof_O 	O 	0.3404	0.8025	0.09944	-0.325
Mof_O 	O 	0.5822	0.176	0.47031	-0.475
Mof_O 	O 	0.4703	0.2997	0.47297	-0.333
Mof_O 	O 	0.5739	0.3474	0.60011	-0.452
Mof_O 	O 	0.6596	0.1975	0.59944	-0.325
Mof_O 	O 	0.176	0.5822	0.52969	-0.475
Mof_O 	O 	0.2997	0.4703	0.52703	-0.333
Mof_O 	O 	0.3474	0.5739	0.39989	-0.452
Mof_O 	O 	0.1975	0.6596	0.40056	-0.325
Mof_O 	O 	0.824	0.4178	0.02969	-0.475
Mof_O 	O 	0.7003	0.5297	0.02703	-0.333
Mof_O 	O 	0.6526	0.4261	0.89989	-0.452
Mof_O 	O 	0.8025	0.3404	0.90056	-0.325
Mof_O 	O 	0.0822	0.324	0.27969	-0.472
Mof_O 	O 	0.9703	0.2003	0.27703	-0.327
Mof_O 	O 	0.0739	0.1526	0.14989	-0.45
Mof_O 	O 	0.1596	0.3025	0.15056	-0.323
Mof_O 	O 	0.9178	0.676	0.77969	-0.472
Mof_O 	O 	0.0297	0.7997	0.77703	-0.327
Mof_O 	O 	0.9261	0.8474	0.64989	-0.45
Mof_O 	O 	0.8404	0.6975	0.65056	-0.323
_end
