# CIF file generated by openbabel 3.1.0, see https://openbabel.org
data_I
_chemical_name_common 'MUFJED_clean'
_cell_length_a 7.7664
_cell_length_b 8.261
_cell_length_c 17.3239
_cell_angle_alpha 90
_cell_angle_beta 90
_cell_angle_gamma 108.056
_space_group_name_H-M_alt 'P 1'
_space_group_name_Hall 'P 1'
loop_
    _symmetry_equiv_pos_as_xyz
    x,y,z
loop_
    _atom_site_label
    _atom_site_type_symbol
    _atom_site_fract_x
    _atom_site_fract_y
    _atom_site_fract_z
    _atom_site_occupancy
    Er1      Er       0.74966    0.77484    0.97763    1.000
    Er2      Er       0.75034    0.22516    0.47763    1.000
    Er3      Er       0.25034    0.22516    0.02237    1.000
    Er4      Er       0.24966    0.77484    0.52237    1.000
    H1       H        0.16360    0.87080    0.28740    1.000
    H2       H        0.33640    0.12920    0.78740    1.000
    H3       H        0.83640    0.12920    0.71260    1.000
    H4       H        0.66360    0.87080    0.21260    1.000
    C1       C        0.98200    0.56000    0.37150    1.000
    C2       C        0.98700    0.62300    0.29140    1.000
    C3       C        0.08500    0.78000    0.26070    1.000
    C4       C        0.04500    0.77400    0.18320    1.000
    C5       C        0.09100    0.89800    0.11920    1.000
    C6       C        0.57200    0.06200    0.02600    1.000
    C7       C        0.51800    0.44000    0.87150    1.000
    C8       C        0.51300    0.37700    0.79140    1.000
    C9       C        0.41500    0.22000    0.76070    1.000
    C10      C        0.45500    0.22600    0.68320    1.000
    C11      C        0.40900    0.10200    0.61920    1.000
    C12      C        0.92800    0.93800    0.52600    1.000
    C13      C        0.01800    0.44000    0.62850    1.000
    C14      C        0.01300    0.37700    0.70860    1.000
    C15      C        0.91500    0.22000    0.73930    1.000
    C16      C        0.95500    0.22600    0.81680    1.000
    C17      C        0.90900    0.10200    0.88080    1.000
    C18      C        0.42800    0.93800    0.97400    1.000
    C19      C        0.48200    0.56000    0.12850    1.000
    C20      C        0.48700    0.62300    0.20860    1.000
    C21      C        0.58500    0.78000    0.23930    1.000
    C22      C        0.54500    0.77400    0.31680    1.000
    C23      C        0.59100    0.89800    0.38080    1.000
    C24      C        0.07200    0.06200    0.47400    1.000
    N1       N        0.92100    0.61500    0.16870    1.000
    N2       N        0.89200    0.52780    0.23460    1.000
    N3       N        0.57900    0.38500    0.66870    1.000
    N4       N        0.60800    0.47220    0.73460    1.000
    N5       N        0.07900    0.38500    0.83130    1.000
    N6       N        0.10800    0.47220    0.76540    1.000
    N7       N        0.42100    0.61500    0.33130    1.000
    N8       N        0.39200    0.52780    0.26540    1.000
    O1       O        0.07250    0.65360    0.42120    1.000
    O2       O        0.87450    0.40770    0.38140    1.000
    O3       O        0.22860    0.02590    0.12480    1.000
    O4       O        0.98960    0.86760    0.06060    1.000
    O5       O        0.70610    0.01390    0.04240    1.000
    O6       O        0.45240    0.80140    0.95450    1.000
    O7       O        0.42750    0.34640    0.92120    1.000
    O8       O        0.62550    0.59230    0.88140    1.000
    O9       O        0.27140    0.97410    0.62480    1.000
    O10      O        0.51040    0.13240    0.56060    1.000
    O11      O        0.79390    0.98610    0.54240    1.000
    O12      O        0.04760    0.19860    0.45450    1.000
    O13      O        0.92750    0.34640    0.57880    1.000
    O14      O        0.12550    0.59230    0.61860    1.000
    O15      O        0.77140    0.97410    0.87520    1.000
    O16      O        0.01040    0.13240    0.93940    1.000
    O17      O        0.29390    0.98610    0.95760    1.000
    O18      O        0.54760    0.19860    0.04550    1.000
    O19      O        0.57250    0.65360    0.07880    1.000
    O20      O        0.37450    0.40770    0.11860    1.000
    O21      O        0.72860    0.02590    0.37520    1.000
    O22      O        0.48960    0.86760    0.43940    1.000
    O23      O        0.20610    0.01390    0.45760    1.000
    O24      O        0.95240    0.80140    0.54550    1.000
