# CIF file generated by openbabel 3.1.0, see https://openbabel.org
data_I
_chemical_name_common 'image0'
_cell_length_a 8.4557
_cell_length_b 9.2844
_cell_length_c 13.8599
_cell_angle_alpha 81.114
_cell_angle_beta 83.642
_cell_angle_gamma 72.626
_space_group_name_H-M_alt 'P 1'
_space_group_name_Hall 'P 1'
loop_
    _symmetry_equiv_pos_as_xyz
    x,y,z
loop_
    _atom_site_label
    _atom_site_type_symbol
    _atom_site_fract_x
    _atom_site_fract_y
    _atom_site_fract_z
    _atom_site_occupancy
    Zn1      Zn       0.29367    0.91830    0.51946    1.000
    Zn2      Zn       0.74556    0.49370    0.97301    1.000
    Zn3      Zn       0.63779    0.88788    0.12587    1.000
    P1       P        0.58114    0.21710    0.01996    1.000
    P2       P        0.58470    0.86461    0.36397    1.000
    P3       P        0.90460    0.56629    0.14874    1.000
    P4       P        0.01690    0.20793    0.42267    1.000
    O1       O        0.16680    0.07030    0.42380    1.000
    O2       O        0.47180    0.79920    0.43960    1.000
    O3       O        0.59670    0.01800    0.38370    1.000
    O4       O        0.85970    0.17900    0.39680    1.000
    O5       O        0.81410    0.47670    0.10350    1.000
    O6       O        0.09110    0.49800    0.13490    1.000
    O7       O        0.70980    0.29650    0.97000    1.000
    O8       O        0.43520    0.32860    0.06970    1.000
    O9       O        0.66420    0.09180    0.10180    1.000
    O10      O        0.85000    0.73620    0.11260    1.000
    O11      O        0.53110    0.14430    0.94190    1.000
    O12      O        0.53060    0.87570    0.26140    1.000
    O13      O        0.76780    0.75380    0.36950    1.000
    H1       H        0.76900    0.66940    0.35800    1.000
    O14      O        0.85760    0.54430    0.26220    1.000
    H2       H        0.88470    0.45330    0.28290    1.000
    O15      O        0.05790    0.33360    0.34930    1.000
    O16      O        0.97650    0.25970    0.52760    1.000
    H3       H        0.05620    0.28120    0.54380    1.000
    Zn4      Zn       0.70633    0.08170    0.48054    1.000
    Zn5      Zn       0.25444    0.50630    0.02699    1.000
    Zn6      Zn       0.36221    0.11212    0.87413    1.000
    P5       P        0.41886    0.78290    0.98004    1.000
    P6       P        0.41530    0.13539    0.63603    1.000
    P7       P        0.09540    0.43371    0.85126    1.000
    P8       P        0.98310    0.79207    0.57733    1.000
    O17      O        0.83320    0.92970    0.57620    1.000
    O18      O        0.52820    0.20080    0.56040    1.000
    O19      O        0.40330    0.98200    0.61630    1.000
    O20      O        0.14030    0.82100    0.60320    1.000
    O21      O        0.18590    0.52330    0.89650    1.000
    O22      O        0.90890    0.50200    0.86510    1.000
    O23      O        0.29020    0.70350    0.03000    1.000
    O24      O        0.56480    0.67140    0.93030    1.000
    O25      O        0.33580    0.90820    0.89820    1.000
    O26      O        0.15000    0.26380    0.88740    1.000
    O27      O        0.46890    0.85570    0.05810    1.000
    O28      O        0.46940    0.12430    0.73860    1.000
    O29      O        0.23220    0.24620    0.63050    1.000
    H4       H        0.23100    0.33060    0.64200    1.000
    O30      O        0.14240    0.45570    0.73780    1.000
    H5       H        0.11530    0.54670    0.71710    1.000
    O31      O        0.94210    0.66640    0.65070    1.000
    O32      O        0.02350    0.74030    0.47240    1.000
    H6       H        0.94380    0.71880    0.45620    1.000
