data_functionalizedCrystal
_audit_creation_method	'EQeq! by Chris Wilmer'
_symmetry_space_group_name_H-M	'P1'
_symmetry_Int_Tables_number	1
_symmetry_cell_setting	triclinic
loop_
_symmetry_equiv_pos_as_xyz
  x,y,z
_cell_length_a	7.1269
_cell_length_b	14.6724
_cell_length_c	15.0027
_cell_angle_alpha	90
_cell_angle_beta	90
_cell_angle_gamma	90
loop_
_atom_site_label
_atom_site_type_symbol
_atom_site_fract_x
_atom_site_fract_y
_atom_site_fract_z
_atom_site_charge
Mof_Ba	Ba	0.92728	0.19412	0.43903	1.705
Mof_Ba	Ba	0.57272	0.80588	0.93903	1.712
Mof_Ba	Ba	0.07272	0.69412	0.06097	1.711
Mof_Ba	Ba	0.42728	0.30588	0.56097	1.714
Mof_H 	H 	0.8571	0.6122	0.6981	0.035
Mof_H 	H 	0.9308	0.4981	0.5972	0.001
Mof_H 	H 	0.8703	0.2317	0.7603	0.055
Mof_H 	H 	0.8297	0.1979	0.9069	0.013
Mof_H 	H 	0.7961	0.3133	0.0121	0.036
Mof_H 	H 	0.7932	0.4623	0.9688	0.036
Mof_H 	H 	0.6429	0.3878	0.1981	0.034
Mof_H 	H 	0.5692	0.5019	0.0972	0.001
Mof_H 	H 	0.6297	0.7683	0.2603	0.056
Mof_H 	H 	0.6703	0.8021	0.4069	0.015
Mof_H 	H 	0.7039	0.6867	0.5121	0.034
Mof_H 	H 	0.7068	0.5377	0.4688	0.036
Mof_H 	H 	0.1429	0.1122	0.8019	0.034
Mof_H 	H 	0.0692	0.9981	0.9028	0.001
Mof_H 	H 	0.1297	0.7317	0.7397	0.055
Mof_H 	H 	0.1703	0.6979	0.5931	0.014
Mof_H 	H 	0.2039	0.8133	0.4879	0.034
Mof_H 	H 	0.2068	0.9623	0.5312	0.036
Mof_H 	H 	0.3571	0.8878	0.3019	0.034
Mof_H 	H 	0.4308	0.0019	0.4028	0.001
Mof_H 	H 	0.3703	0.2683	0.2397	0.056
Mof_H 	H 	0.3297	0.3021	0.0931	0.014
Mof_H 	H 	0.2961	0.1867	0.9879	0.036
Mof_H 	H 	0.2932	0.0377	0.0312	0.036
Mof_C 	C 	0.916	0.3228	0.60898	0.387
Mof_C 	C 	0.8944	0.3934	0.681	-0.189
Mof_C 	C 	0.8593	0.3703	0.7711	0.041
Mof_C 	C 	0.8332	0.4411	0.8352	0.009
Mof_C 	C 	0.8285	0.5341	0.8047	-0.128
Mof_C 	C 	0.861	0.5521	0.7176	-0.042
Mof_C 	C 	0.9005	0.4829	0.6557	-0.011
Mof_C 	C 	0.8558	0.2787	0.8013	-0.118
Mof_C 	C 	0.8318	0.2585	0.8887	-0.012
Mof_C 	C 	0.8101	0.328	0.9521	-0.063
Mof_C 	C 	0.8094	0.4168	0.9263	-0.072
Mof_C 	C 	0.7812	0.6147	0.8639	0.401
Mof_C 	C 	0.584	0.6772	0.10898	0.39
Mof_C 	C 	0.6056	0.6066	0.181	-0.188
Mof_C 	C 	0.6407	0.6297	0.2711	0.041
Mof_C 	C 	0.6668	0.5589	0.3352	0.01
Mof_C 	C 	0.6715	0.4659	0.3047	-0.128
Mof_C 	C 	0.639	0.4479	0.2176	-0.041
Mof_C 	C 	0.5995	0.5171	0.1557	-0.01
Mof_C 	C 	0.6442	0.7213	0.3013	-0.117
Mof_C 	C 	0.6682	0.7415	0.3887	-0.014
Mof_C 	C 	0.6899	0.672	0.4521	-0.06
Mof_C 	C 	0.6906	0.5832	0.4263	-0.074
Mof_C 	C 	0.7188	0.3853	0.3639	0.401
Mof_C 	C 	0.084	0.8228	0.89102	0.387
Mof_C 	C 	0.1056	0.8934	0.819	-0.187
Mof_C 	C 	0.1407	0.8703	0.7289	0.04
Mof_C 	C 	0.1668	0.9411	0.6648	0.008
Mof_C 	C 	0.1715	0.0341	0.6953	-0.128
Mof_C 	C 	0.139	0.0521	0.7824	-0.037
Mof_C 	C 	0.0995	0.9829	0.8443	-0.016
Mof_C 	C 	0.1442	0.7787	0.6987	-0.117
Mof_C 	C 	0.1682	0.7585	0.6113	-0.014
Mof_C 	C 	0.1899	0.828	0.5479	-0.061
Mof_C 	C 	0.1906	0.9168	0.5737	-0.073
Mof_C 	C 	0.2188	0.1147	0.6361	0.401
Mof_C 	C 	0.416	0.1772	0.39102	0.39
Mof_C 	C 	0.3944	0.1066	0.319	-0.189
Mof_C 	C 	0.3593	0.1297	0.2289	0.042
Mof_C 	C 	0.3332	0.0589	0.1648	0.008
Mof_C 	C 	0.3285	0.9659	0.1953	-0.128
Mof_C 	C 	0.361	0.9479	0.2824	-0.041
Mof_C 	C 	0.4005	0.0171	0.3443	-0.011
Mof_C 	C 	0.3558	0.2213	0.1987	-0.118
Mof_C 	C 	0.3318	0.2415	0.1113	-0.012
Mof_C 	C 	0.3101	0.172	0.0479	-0.063
Mof_C 	C 	0.3094	0.0832	0.0737	-0.072
Mof_C 	C 	0.2812	0.8853	0.1361	0.4
Mof_O 	O 	0.7927	0.26184	0.60229	-0.549
Mof_O 	O 	0.0537	0.33161	0.55639	-0.56
Mof_O 	O 	0.6847	0.6755	0.8299	-0.478
Mof_O 	O 	0.8449	0.6162	0.9425	-0.504
Mof_O 	O 	0.7073	0.73816	0.10229	-0.548
Mof_O 	O 	0.4463	0.66839	0.05639	-0.562
Mof_O 	O 	0.8153	0.3245	0.3299	-0.479
Mof_O 	O 	0.6551	0.3838	0.4425	-0.504
Mof_O 	O 	0.2073	0.76184	0.89771	-0.549
Mof_O 	O 	0.9463	0.83161	0.94361	-0.561
Mof_O 	O 	0.3153	0.1755	0.6701	-0.478
Mof_O 	O 	0.1551	0.1162	0.5575	-0.502
Mof_O 	O 	0.2927	0.23816	0.39771	-0.548
Mof_O 	O 	0.5537	0.16839	0.44361	-0.563
Mof_O 	O 	0.1847	0.8245	0.1701	-0.479
Mof_O 	O 	0.3449	0.8838	0.0575	-0.503
_end
