# CIF file generated by openbabel 3.1.0, see https://openbabel.org
data_I
_chemical_name_common 'VATXEU_clean'
_cell_length_a 12.728
_cell_length_b 19.177
_cell_length_c 19.177
_cell_angle_alpha 120
_cell_angle_beta 90
_cell_angle_gamma 90
_space_group_name_H-M_alt 'P 1'
_space_group_name_Hall 'P 1'
loop_
    _symmetry_equiv_pos_as_xyz
    x,y,z
loop_
    _atom_site_label
    _atom_site_type_symbol
    _atom_site_fract_x
    _atom_site_fract_y
    _atom_site_fract_z
    _atom_site_occupancy
    U1       U        0.50000    0.66695    0.00000    1.000
    U2       U        0.50000    0.33305    0.33305    1.000
    U3       U        0.50000    0.00000    0.66695    1.000
    U4       U        0.00000    0.33305    0.00000    1.000
    U5       U        0.00000    0.66695    0.66695    1.000
    U6       U        0.00000    0.00000    0.33305    1.000
    U7       U        0.50000    0.33305    0.00000    1.000
    U8       U        0.50000    0.66695    0.66695    1.000
    U9       U        0.50000    0.00000    0.33305    1.000
    U10      U        0.00000    0.66695    0.00000    1.000
    U11      U        0.00000    0.33305    0.33305    1.000
    U12      U        0.00000    0.00000    0.66695    1.000
    C1       C        0.25000    0.67250    0.04490    1.000
    C2       C        0.25000    0.68680    0.97500    1.000
    C3       C        0.25000    0.37240    0.32750    1.000
    C4       C        0.25000    0.28820    0.31320    1.000
    C5       C        0.25000    0.95510    0.62760    1.000
    C6       C        0.25000    0.02500    0.71180    1.000
    C7       C        0.75000    0.32750    0.95510    1.000
    C8       C        0.75000    0.31320    0.02500    1.000
    C9       C        0.75000    0.62760    0.67250    1.000
    C10      C        0.75000    0.71180    0.68680    1.000
    C11      C        0.75000    0.04490    0.37240    1.000
    C12      C        0.75000    0.97500    0.28820    1.000
    C13      C        0.75000    0.62760    0.95510    1.000
    C14      C        0.75000    0.71180    0.02500    1.000
    C15      C        0.75000    0.04490    0.67250    1.000
    C16      C        0.75000    0.97500    0.68680    1.000
    C17      C        0.75000    0.32750    0.37240    1.000
    C18      C        0.75000    0.31320    0.28820    1.000
    C19      C        0.25000    0.37240    0.04490    1.000
    C20      C        0.25000    0.28820    0.97500    1.000
    C21      C        0.25000    0.95510    0.32750    1.000
    C22      C        0.25000    0.02500    0.31320    1.000
    C23      C        0.25000    0.67250    0.62760    1.000
    C24      C        0.25000    0.68680    0.71180    1.000
    C25      C        0.47000    0.85230    0.14770    1.000
    C26      C        0.50600    0.80865    0.19135    1.000
    C27      C        0.47000    0.29540    0.14770    1.000
    C28      C        0.50600    0.38270    0.19135    1.000
    C29      C        0.47000    0.85230    0.70460    1.000
    C30      C        0.50600    0.80865    0.61730    1.000
    C31      C        0.97000    0.14770    0.85230    1.000
    C32      C        0.00600    0.19135    0.80865    1.000
    C33      C        0.97000    0.70460    0.85230    1.000
    C34      C        0.00600    0.61730    0.80865    1.000
    C35      C        0.97000    0.14770    0.29540    1.000
    C36      C        0.00600    0.19135    0.38270    1.000
    C37      C        0.53000    0.70460    0.85230    1.000
    C38      C        0.49400    0.61730    0.80865    1.000
    C39      C        0.53000    0.14770    0.85230    1.000
    C40      C        0.49400    0.19135    0.80865    1.000
    C41      C        0.53000    0.14770    0.29540    1.000
    C42      C        0.49400    0.19135    0.38270    1.000
    C43      C        0.03000    0.29540    0.14770    1.000
    C44      C        0.99400    0.38270    0.19135    1.000
    C45      C        0.03000    0.85230    0.14770    1.000
    C46      C        0.99400    0.80865    0.19135    1.000
    C47      C        0.03000    0.85230    0.70460    1.000
    C48      C        0.99400    0.80865    0.61730    1.000
    C49      C        0.54050    0.51630    0.03260    1.000
    C50      C        0.54050    0.51630    0.48370    1.000
    C51      C        0.54050    0.96740    0.48370    1.000
    C52      C        0.04050    0.48370    0.96740    1.000
    C53      C        0.04050    0.48370    0.51630    1.000
    C54      C        0.04050    0.03260    0.51630    1.000
    C55      C        0.45950    0.48370    0.96740    1.000
    C56      C        0.45950    0.03260    0.51630    1.000
    C57      C        0.45950    0.48370    0.51630    1.000
    C58      C        0.95950    0.51630    0.03260    1.000
    C59      C        0.95950    0.96740    0.48370    1.000
    C60      C        0.95950    0.51630    0.48370    1.000
    O1       O        0.33920    0.67200    0.07370    1.000
    O2       O        0.52170    0.73410    0.14980    1.000
    O3       O        0.45690    0.81050    0.07290    1.000
    O4       O        0.57860    0.58700    0.05370    1.000
    O5       O        0.33700    0.69470    0.95120    1.000
    O6       O        0.33920    0.40170    0.32800    1.000
    O7       O        0.52170    0.41570    0.26590    1.000
    O8       O        0.45690    0.26240    0.18950    1.000
    O9       O        0.57860    0.46670    0.41300    1.000
    O10      O        0.33700    0.25650    0.30530    1.000
    O11      O        0.33920    0.92630    0.59830    1.000
    O12      O        0.52170    0.85020    0.58430    1.000
    O13      O        0.45690    0.92710    0.73760    1.000
    O14      O        0.57860    0.94630    0.53330    1.000
    O15      O        0.33700    0.04880    0.74350    1.000
    O16      O        0.83920    0.32800    0.92630    1.000
    O17      O        0.02170    0.26590    0.85020    1.000
    O18      O        0.95690    0.18950    0.92710    1.000
    O19      O        0.07860    0.41300    0.94630    1.000
    O20      O        0.83700    0.30530    0.04880    1.000
    O21      O        0.83920    0.59830    0.67200    1.000
    O22      O        0.02170    0.58430    0.73410    1.000
    O23      O        0.95690    0.73760    0.81050    1.000
    O24      O        0.07860    0.53330    0.58700    1.000
    O25      O        0.83700    0.74350    0.69470    1.000
    O26      O        0.83920    0.07370    0.40170    1.000
    O27      O        0.02170    0.14980    0.41570    1.000
    O28      O        0.95690    0.07290    0.26240    1.000
    O29      O        0.07860    0.05370    0.46670    1.000
    O30      O        0.83700    0.95120    0.25650    1.000
    O31      O        0.66080    0.59830    0.92630    1.000
    O32      O        0.47830    0.58430    0.85020    1.000
    O33      O        0.54310    0.73760    0.92710    1.000
    O34      O        0.42140    0.53330    0.94630    1.000
    O35      O        0.66300    0.74350    0.04880    1.000
    O36      O        0.66080    0.07370    0.67200    1.000
    O37      O        0.47830    0.14980    0.73410    1.000
    O38      O        0.54310    0.07290    0.81050    1.000
    O39      O        0.42140    0.05370    0.58700    1.000
    O40      O        0.66300    0.95120    0.69470    1.000
    O41      O        0.66080    0.32800    0.40170    1.000
    O42      O        0.47830    0.26590    0.41570    1.000
    O43      O        0.54310    0.18950    0.26240    1.000
    O44      O        0.42140    0.41300    0.46670    1.000
    O45      O        0.66300    0.30530    0.25650    1.000
    O46      O        0.16080    0.40170    0.07370    1.000
    O47      O        0.97830    0.41570    0.14980    1.000
    O48      O        0.04310    0.26240    0.07290    1.000
    O49      O        0.92140    0.46670    0.05370    1.000
    O50      O        0.16300    0.25650    0.95120    1.000
    O51      O        0.16080    0.92630    0.32800    1.000
    O52      O        0.97830    0.85020    0.26590    1.000
    O53      O        0.04310    0.92710    0.18950    1.000
    O54      O        0.92140    0.94630    0.41300    1.000
    O55      O        0.16300    0.04880    0.30530    1.000
    O56      O        0.16080    0.67200    0.59830    1.000
    O57      O        0.97830    0.73410    0.58430    1.000
    O58      O        0.04310    0.81050    0.73760    1.000
    O59      O        0.92140    0.58700    0.53330    1.000
    O60      O        0.16300    0.69470    0.74350    1.000
    O61      O        0.66080    0.32800    0.92630    1.000
    O62      O        0.47830    0.26590    0.85020    1.000
    O63      O        0.54310    0.18950    0.92710    1.000
    O64      O        0.42140    0.41300    0.94630    1.000
    O65      O        0.66300    0.30530    0.04880    1.000
    O66      O        0.66080    0.59830    0.67200    1.000
    O67      O        0.47830    0.58430    0.73410    1.000
    O68      O        0.54310    0.73760    0.81050    1.000
    O69      O        0.42140    0.53330    0.58700    1.000
    O70      O        0.66300    0.74350    0.69470    1.000
    O71      O        0.66080    0.07370    0.40170    1.000
    O72      O        0.47830    0.14980    0.41570    1.000
    O73      O        0.54310    0.07290    0.26240    1.000
    O74      O        0.42140    0.05370    0.46670    1.000
    O75      O        0.66300    0.95120    0.25650    1.000
    O76      O        0.16080    0.67200    0.07370    1.000
    O77      O        0.97830    0.73410    0.14980    1.000
    O78      O        0.04310    0.81050    0.07290    1.000
    O79      O        0.92140    0.58700    0.05370    1.000
    O80      O        0.16300    0.69470    0.95120    1.000
    O81      O        0.16080    0.40170    0.32800    1.000
    O82      O        0.97830    0.41570    0.26590    1.000
    O83      O        0.04310    0.26240    0.18950    1.000
    O84      O        0.92140    0.46670    0.41300    1.000
    O85      O        0.16300    0.25650    0.30530    1.000
    O86      O        0.16080    0.92630    0.59830    1.000
    O87      O        0.97830    0.85020    0.58430    1.000
    O88      O        0.04310    0.92710    0.73760    1.000
    O89      O        0.92140    0.94630    0.53330    1.000
    O90      O        0.16300    0.04880    0.74350    1.000
    O91      O        0.33920    0.40170    0.07370    1.000
    O92      O        0.52170    0.41570    0.14980    1.000
    O93      O        0.45690    0.26240    0.07290    1.000
    O94      O        0.57860    0.46670    0.05370    1.000
    O95      O        0.33700    0.25650    0.95120    1.000
    O96      O        0.33920    0.92630    0.32800    1.000
    O97      O        0.52170    0.85020    0.26590    1.000
    O98      O        0.45690    0.92710    0.18950    1.000
    O99      O        0.57860    0.94630    0.41300    1.000
    O100     O        0.33700    0.04880    0.30530    1.000
    O101     O        0.33920    0.67200    0.59830    1.000
    O102     O        0.52170    0.73410    0.58430    1.000
    O103     O        0.45690    0.81050    0.73760    1.000
    O104     O        0.57860    0.58700    0.53330    1.000
    O105     O        0.33700    0.69470    0.74350    1.000
    O106     O        0.83920    0.59830    0.92630    1.000
    O107     O        0.02170    0.58430    0.85020    1.000
    O108     O        0.95690    0.73760    0.92710    1.000
    O109     O        0.07860    0.53330    0.94630    1.000
    O110     O        0.83700    0.74350    0.04880    1.000
    O111     O        0.83920    0.07370    0.67200    1.000
    O112     O        0.02170    0.14980    0.73410    1.000
    O113     O        0.95690    0.07290    0.81050    1.000
    O114     O        0.07860    0.05370    0.58700    1.000
    O115     O        0.83700    0.95120    0.69470    1.000
    O116     O        0.83920    0.32800    0.40170    1.000
    O117     O        0.02170    0.26590    0.41570    1.000
    O118     O        0.95690    0.18950    0.26240    1.000
    O119     O        0.07860    0.41300    0.46670    1.000
    O120     O        0.83700    0.30530    0.25650    1.000
