# CIF file generated by openbabel 3.1.0, see https://openbabel.org
data_I
_chemical_name_common 'image0'
_cell_length_a 17.857
_cell_length_b 19.72
_cell_length_c 7.923
_cell_angle_alpha 90
_cell_angle_beta 106.571
_cell_angle_gamma 90
_space_group_name_H-M_alt 'P 1'
_space_group_name_Hall 'P 1'
loop_
    _symmetry_equiv_pos_as_xyz
    x,y,z
loop_
    _atom_site_label
    _atom_site_type_symbol
    _atom_site_fract_x
    _atom_site_fract_y
    _atom_site_fract_z
    _atom_site_occupancy
    C1       C        0.11480    0.25840    0.49640    1.000
    H1       H        0.06620    0.25260    0.41450    1.000
    C2       C        0.15520    0.21040    0.60630    1.000
    H2       H        0.13970    0.16570    0.61270    1.000
    C3       C        0.22310    0.30440    0.65240    1.000
    H3       H        0.26290    0.33570    0.69640    1.000
    C4       C        0.28350    0.20770    0.84370    1.000
    C5       C        0.27090    0.14220    0.89550    1.000
    H4       H        0.22510    0.11870    0.84170    1.000
    C6       C        0.33000    0.11310    0.03160    1.000
    H5       H        0.32250    0.06970    0.06960    1.000
    C7       C        0.39790    0.14570    0.11040    1.000
    C8       C        0.40940    0.21030    0.05300    1.000
    H6       H        0.45620    0.23280    0.10400    1.000
    C9       C        0.35270    0.24140    0.92210    1.000
    H7       H        0.36080    0.28500    0.88590    1.000
    C10      C        0.46010    0.11280    0.25250    1.000
    Cu1      Cu       0.12805    0.40777    0.42454    1.000
    N1       N        0.15790    0.31742    0.52640    1.000
    N2       N        0.22390    0.23960    0.70820    1.000
    O1       O        0.53004    0.13027    0.27650    1.000
    O2       O        0.43725    0.06743    0.34160    1.000
    O3       O        0.23218    0.43915    0.53600    1.000
    C11      C        0.61480    0.75840    0.49640    1.000
    H8       H        0.56620    0.75260    0.41450    1.000
    C12      C        0.65520    0.71040    0.60630    1.000
    H9       H        0.63970    0.66570    0.61270    1.000
    C13      C        0.72310    0.80440    0.65240    1.000
    H10      H        0.76290    0.83570    0.69640    1.000
    C14      C        0.78350    0.70770    0.84370    1.000
    C15      C        0.77090    0.64220    0.89550    1.000
    H11      H        0.72510    0.61870    0.84170    1.000
    C16      C        0.83000    0.61310    0.03160    1.000
    H12      H        0.82250    0.56970    0.06960    1.000
    C17      C        0.89790    0.64570    0.11040    1.000
    C18      C        0.90940    0.71030    0.05300    1.000
    H13      H        0.95620    0.73280    0.10400    1.000
    C19      C        0.85270    0.74140    0.92210    1.000
    H14      H        0.86080    0.78500    0.88590    1.000
    C20      C        0.96010    0.61280    0.25250    1.000
    Cu2      Cu       0.62805    0.90777    0.42454    1.000
    N3       N        0.65790    0.81742    0.52640    1.000
    N4       N        0.72390    0.73960    0.70820    1.000
    O4       O        0.03004    0.63027    0.27650    1.000
    O5       O        0.93725    0.56743    0.34160    1.000
    O6       O        0.73218    0.93915    0.53600    1.000
    C21      C        0.88520    0.25840    0.50360    1.000
    H15      H        0.93380    0.25260    0.58550    1.000
    C22      C        0.84480    0.21040    0.39370    1.000
    H16      H        0.86030    0.16570    0.38730    1.000
    C23      C        0.77690    0.30440    0.34760    1.000
    H17      H        0.73710    0.33570    0.30360    1.000
    C24      C        0.71650    0.20770    0.15630    1.000
    C25      C        0.72910    0.14220    0.10450    1.000
    H18      H        0.77490    0.11870    0.15830    1.000
    C26      C        0.67000    0.11310    0.96840    1.000
    H19      H        0.67750    0.06970    0.93040    1.000
    C27      C        0.60210    0.14570    0.88960    1.000
    C28      C        0.59060    0.21030    0.94700    1.000
    H20      H        0.54380    0.23280    0.89600    1.000
    C29      C        0.64730    0.24140    0.07790    1.000
    H21      H        0.63920    0.28500    0.11410    1.000
    C30      C        0.53990    0.11280    0.74750    1.000
    Cu3      Cu       0.87195    0.40777    0.57546    1.000
    N5       N        0.84210    0.31742    0.47360    1.000
    N6       N        0.77610    0.23960    0.29180    1.000
    O7       O        0.46996    0.13027    0.72350    1.000
    O8       O        0.56275    0.06743    0.65840    1.000
    O9       O        0.76782    0.43915    0.46400    1.000
    C31      C        0.38520    0.75840    0.50360    1.000
    H22      H        0.43380    0.75260    0.58550    1.000
    C32      C        0.34480    0.71040    0.39370    1.000
    H23      H        0.36030    0.66570    0.38730    1.000
    C33      C        0.27690    0.80440    0.34760    1.000
    H24      H        0.23710    0.83570    0.30360    1.000
    C34      C        0.21650    0.70770    0.15630    1.000
    C35      C        0.22910    0.64220    0.10450    1.000
    H25      H        0.27490    0.61870    0.15830    1.000
    C36      C        0.17000    0.61310    0.96840    1.000
    H26      H        0.17750    0.56970    0.93040    1.000
    C37      C        0.10210    0.64570    0.88960    1.000
    C38      C        0.09060    0.71030    0.94700    1.000
    H27      H        0.04380    0.73280    0.89600    1.000
    C39      C        0.14730    0.74140    0.07790    1.000
    H28      H        0.13920    0.78500    0.11410    1.000
    C40      C        0.03990    0.61280    0.74750    1.000
    Cu4      Cu       0.37195    0.90777    0.57546    1.000
    N7       N        0.34210    0.81742    0.47360    1.000
    N8       N        0.27610    0.73960    0.29180    1.000
    O10      O        0.96996    0.63027    0.72350    1.000
    O11      O        0.06275    0.56743    0.65840    1.000
    O12      O        0.26782    0.93915    0.46400    1.000
    C41      C        0.88520    0.74160    0.50360    1.000
    H29      H        0.93380    0.74740    0.58550    1.000
    C42      C        0.84480    0.78960    0.39370    1.000
    H30      H        0.86030    0.83430    0.38730    1.000
    C43      C        0.77690    0.69560    0.34760    1.000
    H31      H        0.73710    0.66430    0.30360    1.000
    C44      C        0.71650    0.79230    0.15630    1.000
    C45      C        0.72910    0.85780    0.10450    1.000
    H32      H        0.77490    0.88130    0.15830    1.000
    C46      C        0.67000    0.88690    0.96840    1.000
    H33      H        0.67750    0.93030    0.93040    1.000
    C47      C        0.60210    0.85430    0.88960    1.000
    C48      C        0.59060    0.78970    0.94700    1.000
    H34      H        0.54380    0.76720    0.89600    1.000
    C49      C        0.64730    0.75860    0.07790    1.000
    H35      H        0.63920    0.71500    0.11410    1.000
    C50      C        0.53990    0.88720    0.74750    1.000
    Cu5      Cu       0.87195    0.59223    0.57546    1.000
    N9       N        0.84210    0.68258    0.47360    1.000
    N10      N        0.77610    0.76040    0.29180    1.000
    O13      O        0.46996    0.86973    0.72350    1.000
    O14      O        0.56275    0.93257    0.65840    1.000
    O15      O        0.76782    0.56085    0.46400    1.000
    C51      C        0.38520    0.24160    0.50360    1.000
    H36      H        0.43380    0.24740    0.58550    1.000
    C52      C        0.34480    0.28960    0.39370    1.000
    H37      H        0.36030    0.33430    0.38730    1.000
    C53      C        0.27690    0.19560    0.34760    1.000
    H38      H        0.23710    0.16430    0.30360    1.000
    C54      C        0.21650    0.29230    0.15630    1.000
    C55      C        0.22910    0.35780    0.10450    1.000
    H39      H        0.27490    0.38130    0.15830    1.000
    C56      C        0.17000    0.38690    0.96840    1.000
    H40      H        0.17750    0.43030    0.93040    1.000
    C57      C        0.10210    0.35430    0.88960    1.000
    C58      C        0.09060    0.28970    0.94700    1.000
    H41      H        0.04380    0.26720    0.89600    1.000
    C59      C        0.14730    0.25860    0.07790    1.000
    H42      H        0.13920    0.21500    0.11410    1.000
    C60      C        0.03990    0.38720    0.74750    1.000
    Cu6      Cu       0.37195    0.09223    0.57546    1.000
    N11      N        0.34210    0.18258    0.47360    1.000
    N12      N        0.27610    0.26040    0.29180    1.000
    O16      O        0.96996    0.36973    0.72350    1.000
    O17      O        0.06275    0.43257    0.65840    1.000
    O18      O        0.26782    0.06085    0.46400    1.000
    C61      C        0.11480    0.74160    0.49640    1.000
    H43      H        0.06620    0.74740    0.41450    1.000
    C62      C        0.15520    0.78960    0.60630    1.000
    H44      H        0.13970    0.83430    0.61270    1.000
    C63      C        0.22310    0.69560    0.65240    1.000
    H45      H        0.26290    0.66430    0.69640    1.000
    C64      C        0.28350    0.79230    0.84370    1.000
    C65      C        0.27090    0.85780    0.89550    1.000
    H46      H        0.22510    0.88130    0.84170    1.000
    C66      C        0.33000    0.88690    0.03160    1.000
    H47      H        0.32250    0.93030    0.06960    1.000
    C67      C        0.39790    0.85430    0.11040    1.000
    C68      C        0.40940    0.78970    0.05300    1.000
    H48      H        0.45620    0.76720    0.10400    1.000
    C69      C        0.35270    0.75860    0.92210    1.000
    H49      H        0.36080    0.71500    0.88590    1.000
    C70      C        0.46010    0.88720    0.25250    1.000
    Cu7      Cu       0.12805    0.59223    0.42454    1.000
    N13      N        0.15790    0.68258    0.52640    1.000
    N14      N        0.22390    0.76040    0.70820    1.000
    O19      O        0.53004    0.86973    0.27650    1.000
    O20      O        0.43725    0.93257    0.34160    1.000
    O21      O        0.23218    0.56085    0.53600    1.000
    C71      C        0.61480    0.24160    0.49640    1.000
    H50      H        0.56620    0.24740    0.41450    1.000
    C72      C        0.65520    0.28960    0.60630    1.000
    H51      H        0.63970    0.33430    0.61270    1.000
    C73      C        0.72310    0.19560    0.65240    1.000
    H52      H        0.76290    0.16430    0.69640    1.000
    C74      C        0.78350    0.29230    0.84370    1.000
    C75      C        0.77090    0.35780    0.89550    1.000
    H53      H        0.72510    0.38130    0.84170    1.000
    C76      C        0.83000    0.38690    0.03160    1.000
    H54      H        0.82250    0.43030    0.06960    1.000
    C77      C        0.89790    0.35430    0.11040    1.000
    C78      C        0.90940    0.28970    0.05300    1.000
    H55      H        0.95620    0.26720    0.10400    1.000
    C79      C        0.85270    0.25860    0.92210    1.000
    H56      H        0.86080    0.21500    0.88590    1.000
    C80      C        0.96010    0.38720    0.25250    1.000
    Cu8      Cu       0.62805    0.09223    0.42454    1.000
    N15      N        0.65790    0.18258    0.52640    1.000
    N16      N        0.72390    0.26040    0.70820    1.000
    O22      O        0.03004    0.36973    0.27650    1.000
    O23      O        0.93725    0.43257    0.34160    1.000
    O24      O        0.73218    0.06085    0.53600    1.000
    Cu9      Cu       0.50000    0.00000    0.50000    1.000
    Cu10     Cu       0.00000    0.50000    0.50000    1.000
    N17      N        0.41230    0.00000    0.68610    1.000
    N18      N        0.44600    0.00000    0.85440    1.000
    N19      N        0.91230    0.50000    0.68610    1.000
    N20      N        0.94600    0.50000    0.85440    1.000
    N21      N        0.58770    0.00000    0.31390    1.000
    N22      N        0.55400    0.00000    0.14560    1.000
    N23      N        0.08770    0.50000    0.31390    1.000
    N24      N        0.05400    0.50000    0.14560    1.000
    N25      N        0.02000    0.50000    0.98680    1.000
    N26      N        0.52000    0.00000    0.98680    1.000
    N27      N        0.98000    0.50000    0.01320    1.000
    N28      N        0.48000    0.00000    0.01320    1.000
    O25      O        0.27150    0.50000    0.31310    1.000
    O26      O        0.35060    0.50000    0.61820    1.000
    S1       S        0.27235    0.50000    0.50120    1.000
    O27      O        0.77150    0.00000    0.31310    1.000
    O28      O        0.85060    0.00000    0.61820    1.000
    S2       S        0.77235    0.00000    0.50120    1.000
    O29      O        0.72850    0.50000    0.68690    1.000
    O30      O        0.64940    0.50000    0.38180    1.000
    S3       S        0.72765    0.50000    0.49880    1.000
    O31      O        0.22850    0.00000    0.68690    1.000
    O32      O        0.14940    0.00000    0.38180    1.000
    S4       S        0.22765    0.00000    0.49880    1.000
