data_functionalizedCrystal
_audit_creation_method	'EQeq! by Chris Wilmer'
_symmetry_space_group_name_H-M	'P1'
_symmetry_Int_Tables_number	1
_symmetry_cell_setting	triclinic
loop_
_symmetry_equiv_pos_as_xyz
  x,y,z
_cell_length_a	24.9856
_cell_length_b	21.9719
_cell_length_c	13.483
_cell_angle_alpha	90
_cell_angle_beta	90
_cell_angle_gamma	90
loop_
_atom_site_label
_atom_site_type_symbol
_atom_site_fract_x
_atom_site_fract_y
_atom_site_fract_z
_atom_site_charge
Mof_Yb	Yb	0.03149	0.32798	0.50086	1.291
Mof_Ru	Ru	0.87128	0.3482	0.7794	1.012
Mof_Ru	Ru	0.64833	0.29875	0.77681	1.017
Mof_C 	C 	0.75754	0.3361	0.8303	0.079
Mof_C 	C 	0.7965	0.391	0.954	0.01
Mof_H 	H 	0.8272	0.4076	0.9854	0.051
Mof_C 	C 	0.74698	0.3994	0.9962	0.081
Mof_H 	H 	0.7433	0.4221	0.0558	-0.043
Mof_C 	C 	0.76376	0.3022	0.7362	0.08
Mof_C 	C 	0.8176	0.2671	0.6133	0.122
Mof_H 	H 	0.852	0.2623	0.5843	-0.028
Mof_C 	C 	0.774	0.2417	0.567	-0.18
Mof_H 	H 	0.778	0.2192	0.5072	0.095
Mof_C 	C 	0.8492	0.4254	0.7053	-0.159
Mof_C 	C 	0.9177	0.3977	0.8672	-0.17
Mof_C 	C 	0.9309	0.3359	0.6854	-0.168
Mof_C 	C 	0.8977	0.2729	0.8511	-0.153
Mof_C 	C 	0.7026	0.3745	0.9506	0.014
Mof_H 	H 	0.6681	0.3805	0.9787	0.055
Mof_C 	C 	0.724	0.2496	0.6097	0.115
Mof_H 	H 	0.6932	0.2334	0.5778	-0.009
Mof_C 	C 	0.63927	0.3789	0.7033	-0.182
Mof_C 	C 	0.1014	0.2435	0.682	-0.186
Mof_C 	C 	0.915	0.3195	0.3602	-0.177
Mof_C 	C 	0.6556	0.2174	0.8494	-0.158
Mof_N 	N 	0.80226	0.35954	0.8687	-0.21
Mof_N 	N 	0.81306	0.29818	0.6977	-0.237
Mof_N 	N 	0.8371	0.4693	0.6641	-0.046
Mof_N 	N 	0.94328	0.4271	0.9197	-0.114
Mof_N 	N 	0.96649	0.3286	0.6313	-0.148
Mof_N 	N 	0.9163	0.232	0.891	-0.155
Mof_N 	N 	0.70772	0.34151	0.866	-0.207
Mof_N 	N 	0.71855	0.27995	0.696	-0.234
Mof_N 	N 	0.6341	0.4249	0.6635	-0.079
Mof_N 	N 	0.0764	0.2726	0.6256	-0.168
Mof_N 	N 	0.9514	0.3293	0.4083	-0.176
Mof_N 	N 	0.6581	0.1714	0.8881	-0.05
Mof_O 	O 	0.105	0.3834	0.5402	-0.163
Mof_O 	O 	0.8754	0.1378	0.9962	0.019
Mof_O 	O 	0.0028	0.4303	0.5233	-0.205
Mof_O 	O 	0.9592	0.0815	0.0879	-0.162
Mof_Yb	Yb	0.03149	0.82798	0.00086	1.148
Mof_Ru	Ru	0.87128	0.8482	0.2794	0.999
Mof_Ru	Ru	0.64833	0.79875	0.27681	1.004
Mof_C 	C 	0.75754	0.8361	0.3303	0.08
Mof_C 	C 	0.7965	0.891	0.454	0.112
Mof_H 	H 	0.8272	0.9076	0.4854	-0.011
Mof_C 	C 	0.74698	0.8994	0.4962	-0.169
Mof_H 	H 	0.7433	0.9221	0.5558	0.101
Mof_C 	C 	0.76376	0.8022	0.2362	0.072
Mof_C 	C 	0.8176	0.7671	0.1133	0.108
Mof_H 	H 	0.852	0.7623	0.0843	-0.043
Mof_C 	C 	0.774	0.7417	0.067	-0.189
Mof_H 	H 	0.778	0.7192	0.0072	0.066
Mof_C 	C 	0.8492	0.9254	0.2053	-0.166
Mof_C 	C 	0.9177	0.8977	0.3672	-0.178
Mof_C 	C 	0.9309	0.8359	0.1854	-0.181
Mof_C 	C 	0.8977	0.7729	0.3511	-0.166
Mof_C 	C 	0.7026	0.8745	0.4506	0.112
Mof_H 	H 	0.6681	0.8805	0.4787	-0.009
Mof_C 	C 	0.724	0.7496	0.1097	0.103
Mof_H 	H 	0.6932	0.7334	0.0778	-0.027
Mof_C 	C 	0.63927	0.8789	0.2033	-0.195
Mof_C 	C 	0.1014	0.7435	0.182	-0.199
Mof_C 	C 	0.915	0.8195	0.8602	-0.162
Mof_C 	C 	0.6556	0.7174	0.3494	-0.178
Mof_N 	N 	0.80226	0.85954	0.3687	-0.234
Mof_N 	N 	0.81306	0.79818	0.1977	-0.238
Mof_N 	N 	0.8371	0.9693	0.1641	-0.051
Mof_N 	N 	0.94328	0.9271	0.4197	-0.143
Mof_N 	N 	0.96649	0.8286	0.1313	-0.147
Mof_N 	N 	0.9163	0.732	0.391	-0.187
Mof_N 	N 	0.70772	0.84151	0.366	-0.231
Mof_N 	N 	0.71855	0.77995	0.196	-0.235
Mof_N 	N 	0.6341	0.9249	0.1635	-0.091
Mof_N 	N 	0.0764	0.7726	0.1256	-0.169
Mof_N 	N 	0.9514	0.8293	0.9083	-0.132
Mof_N 	N 	0.6581	0.6714	0.3881	-0.07
Mof_O 	O 	0.105	0.8834	0.0402	-0.293
Mof_O 	O 	0.8754	0.6378	0.4962	-0.149
Mof_O 	O 	0.0028	0.9303	0.0233	-0.214
Mof_O 	O 	0.9592	0.5815	0.5879	-0.169
Mof_Yb	Yb	0.96851	0.67202	0.50086	1.36
Mof_Ru	Ru	0.12872	0.6518	0.7794	1.009
Mof_Ru	Ru	0.35167	0.70125	0.77681	1.019
Mof_C 	C 	0.24246	0.6639	0.8303	0.079
Mof_C 	C 	0.2035	0.609	0.954	0.01
Mof_H 	H 	0.1728	0.5924	0.9854	0.05
Mof_C 	C 	0.25302	0.6006	0.9962	0.081
Mof_H 	H 	0.2567	0.5779	0.0558	-0.043
Mof_C 	C 	0.23624	0.6978	0.7362	0.082
Mof_C 	C 	0.1824	0.7329	0.6133	0.125
Mof_H 	H 	0.148	0.7377	0.5843	-0.03
Mof_C 	C 	0.226	0.7583	0.567	-0.18
Mof_H 	H 	0.222	0.7808	0.5072	0.099
Mof_C 	C 	0.1508	0.5746	0.7053	-0.163
Mof_C 	C 	0.0823	0.6023	0.8672	-0.178
Mof_C 	C 	0.0691	0.6641	0.6854	-0.175
Mof_C 	C 	0.1023	0.7271	0.8511	-0.157
Mof_C 	C 	0.2974	0.6255	0.9506	0.013
Mof_H 	H 	0.3319	0.6195	0.9787	0.055
Mof_C 	C 	0.276	0.7504	0.6097	0.118
Mof_H 	H 	0.3068	0.7666	0.5778	-0.007
Mof_C 	C 	0.36073	0.6211	0.7033	-0.183
Mof_C 	C 	0.8986	0.7565	0.682	-0.177
Mof_C 	C 	0.085	0.6805	0.3602	-0.183
Mof_C 	C 	0.3444	0.7826	0.8494	-0.155
Mof_N 	N 	0.19774	0.64046	0.8687	-0.21
Mof_N 	N 	0.18694	0.70182	0.6977	-0.237
Mof_N 	N 	0.1629	0.5307	0.6641	-0.048
Mof_N 	N 	0.05672	0.5729	0.9197	-0.123
Mof_N 	N 	0.03351	0.6714	0.6313	-0.171
Mof_N 	N 	0.0837	0.768	0.891	-0.153
Mof_N 	N 	0.29228	0.65849	0.866	-0.207
Mof_N 	N 	0.28145	0.72005	0.696	-0.234
Mof_N 	N 	0.3659	0.5751	0.6635	-0.079
Mof_N 	N 	0.9236	0.7274	0.6256	-0.166
Mof_N 	N 	0.0486	0.6707	0.4083	-0.197
Mof_N 	N 	0.3419	0.8286	0.8881	-0.041
Mof_O 	O 	0.895	0.6166	0.5402	-0.165
Mof_O 	O 	0.1246	0.8622	0.9962	0.026
Mof_O 	O 	0.9972	0.5697	0.5233	-0.184
Mof_O 	O 	0.0408	0.9185	0.0879	-0.155
Mof_Yb	Yb	0.96851	0.17202	0.00086	1.206
Mof_Ru	Ru	0.12872	0.1518	0.2794	0.994
Mof_Ru	Ru	0.35167	0.20125	0.27681	1.002
Mof_C 	C 	0.24246	0.1639	0.3303	0.078
Mof_C 	C 	0.2035	0.109	0.454	0.109
Mof_H 	H 	0.1728	0.0924	0.4854	-0.017
Mof_C 	C 	0.25302	0.1006	0.4962	-0.172
Mof_H 	H 	0.2567	0.0779	0.5558	0.094
Mof_C 	C 	0.23624	0.1978	0.2362	0.071
Mof_C 	C 	0.1824	0.2329	0.1133	0.108
Mof_H 	H 	0.148	0.2377	0.0843	-0.047
Mof_C 	C 	0.226	0.2583	0.067	-0.19
Mof_H 	H 	0.222	0.2808	0.0072	0.065
Mof_C 	C 	0.1508	0.0746	0.2053	-0.178
Mof_C 	C 	0.0823	0.1023	0.3672	-0.192
Mof_C 	C 	0.0691	0.1641	0.1854	-0.192
Mof_C 	C 	0.1023	0.2271	0.3511	-0.172
Mof_C 	C 	0.2974	0.1255	0.4506	0.108
Mof_H 	H 	0.3319	0.1195	0.4787	-0.012
Mof_C 	C 	0.276	0.2504	0.1097	0.103
Mof_H 	H 	0.3068	0.2666	0.0778	-0.027
Mof_C 	C 	0.36073	0.1211	0.2033	-0.2
Mof_C 	C 	0.8986	0.2565	0.182	-0.194
Mof_C 	C 	0.085	0.1805	0.8602	-0.171
Mof_C 	C 	0.3444	0.2826	0.3494	-0.177
Mof_N 	N 	0.19774	0.14046	0.3687	-0.235
Mof_N 	N 	0.18694	0.20182	0.1977	-0.238
Mof_N 	N 	0.1629	0.0307	0.1641	-0.068
Mof_N 	N 	0.05672	0.0729	0.4197	-0.166
Mof_N 	N 	0.03351	0.1714	0.1313	-0.171
Mof_N 	N 	0.0837	0.268	0.391	-0.187
Mof_N 	N 	0.29228	0.15849	0.366	-0.232
Mof_N 	N 	0.28145	0.22005	0.196	-0.235
Mof_N 	N 	0.3659	0.0751	0.1635	-0.101
Mof_N 	N 	0.9236	0.2274	0.1256	-0.168
Mof_N 	N 	0.0486	0.1707	0.9083	-0.154
Mof_N 	N 	0.3419	0.3286	0.3881	-0.07
Mof_O 	O 	0.895	0.1166	0.0402	-0.305
Mof_O 	O 	0.1246	0.3622	0.4962	-0.148
Mof_O 	O 	0.9972	0.0697	0.0233	-0.21
Mof_O 	O 	0.0408	0.4185	0.5879	-0.175
Mof_Yb	Yb	0.53149	0.17202	0.50086	1.319
Mof_Ru	Ru	0.37128	0.1518	0.7794	1.008
Mof_Ru	Ru	0.14833	0.20125	0.77681	1.016
Mof_C 	C 	0.25754	0.1639	0.8303	0.078
Mof_C 	C 	0.2965	0.109	0.954	0.008
Mof_H 	H 	0.3272	0.0924	0.9854	0.048
Mof_C 	C 	0.24698	0.1006	0.9962	0.08
Mof_H 	H 	0.2433	0.0779	0.0558	-0.046
Mof_C 	C 	0.26376	0.1978	0.7362	0.081
Mof_C 	C 	0.3176	0.2329	0.6133	0.123
Mof_H 	H 	0.352	0.2377	0.5843	-0.03
Mof_C 	C 	0.274	0.2583	0.567	-0.18
Mof_H 	H 	0.278	0.2808	0.5072	0.097
Mof_C 	C 	0.3492	0.0746	0.7053	-0.165
Mof_C 	C 	0.4177	0.1023	0.8672	-0.177
Mof_C 	C 	0.4309	0.1641	0.6854	-0.173
Mof_C 	C 	0.3977	0.2271	0.8511	-0.155
Mof_C 	C 	0.2026	0.1255	0.9506	0.012
Mof_H 	H 	0.1681	0.1195	0.9787	0.053
Mof_C 	C 	0.224	0.2504	0.6097	0.116
Mof_H 	H 	0.1932	0.2666	0.5778	-0.008
Mof_C 	C 	0.13927	0.1211	0.7033	-0.186
Mof_C 	C 	0.6014	0.2565	0.682	-0.183
Mof_C 	C 	0.415	0.1805	0.3602	-0.182
Mof_C 	C 	0.1556	0.2826	0.8494	-0.158
Mof_N 	N 	0.30226	0.14046	0.8687	-0.21
Mof_N 	N 	0.31306	0.20182	0.6977	-0.237
Mof_N 	N 	0.3371	0.0307	0.6641	-0.054
Mof_N 	N 	0.44328	0.0729	0.9197	-0.123
Mof_N 	N 	0.46649	0.1714	0.6313	-0.16
Mof_N 	N 	0.4163	0.268	0.891	-0.154
Mof_N 	N 	0.20772	0.15849	0.866	-0.207
Mof_N 	N 	0.21855	0.22005	0.696	-0.234
Mof_N 	N 	0.1341	0.0751	0.6635	-0.083
Mof_N 	N 	0.5764	0.2274	0.6256	-0.167
Mof_N 	N 	0.4514	0.1707	0.4083	-0.188
Mof_N 	N 	0.1581	0.3286	0.8881	-0.048
Mof_O 	O 	0.605	0.1166	0.5402	-0.169
Mof_O 	O 	0.3754	0.3622	0.9962	0.024
Mof_O 	O 	0.5028	0.0697	0.5233	-0.203
Mof_O 	O 	0.4592	0.4185	0.0879	-0.16
Mof_Yb	Yb	0.53149	0.67202	0.00086	1.174
Mof_Ru	Ru	0.37128	0.6518	0.2794	0.995
Mof_Ru	Ru	0.14833	0.70125	0.27681	1.003
Mof_C 	C 	0.25754	0.6639	0.3303	0.079
Mof_C 	C 	0.2965	0.609	0.454	0.111
Mof_H 	H 	0.3272	0.5924	0.4854	-0.016
Mof_C 	C 	0.24698	0.6006	0.4962	-0.172
Mof_H 	H 	0.2433	0.5779	0.5558	0.097
Mof_C 	C 	0.26376	0.6978	0.2362	0.072
Mof_C 	C 	0.3176	0.7329	0.1133	0.109
Mof_H 	H 	0.352	0.7377	0.0843	-0.044
Mof_C 	C 	0.274	0.7583	0.067	-0.188
Mof_H 	H 	0.278	0.7808	0.0072	0.068
Mof_C 	C 	0.3492	0.5746	0.2053	-0.173
Mof_C 	C 	0.4177	0.6023	0.3672	-0.185
Mof_C 	C 	0.4309	0.6641	0.1854	-0.187
Mof_C 	C 	0.3977	0.7271	0.3511	-0.168
Mof_C 	C 	0.2026	0.6255	0.4506	0.11
Mof_H 	H 	0.1681	0.6195	0.4787	-0.012
Mof_C 	C 	0.224	0.7504	0.1097	0.104
Mof_H 	H 	0.1932	0.7666	0.0778	-0.025
Mof_C 	C 	0.13927	0.6211	0.2033	-0.199
Mof_C 	C 	0.6014	0.7565	0.182	-0.196
Mof_C 	C 	0.415	0.6805	0.8602	-0.167
Mof_C 	C 	0.1556	0.7826	0.3494	-0.176
Mof_N 	N 	0.30226	0.64046	0.3687	-0.235
Mof_N 	N 	0.31306	0.70182	0.1977	-0.238
Mof_N 	N 	0.3371	0.5307	0.1641	-0.06
Mof_N 	N 	0.44328	0.5729	0.4197	-0.167
Mof_N 	N 	0.46649	0.6714	0.1313	-0.159
Mof_N 	N 	0.4163	0.768	0.391	-0.186
Mof_N 	N 	0.20772	0.65849	0.366	-0.232
Mof_N 	N 	0.21855	0.72005	0.196	-0.235
Mof_N 	N 	0.1341	0.5751	0.1635	-0.099
Mof_N 	N 	0.5764	0.7274	0.1256	-0.168
Mof_N 	N 	0.4514	0.6707	0.9083	-0.143
Mof_N 	N 	0.1581	0.8286	0.3881	-0.065
Mof_O 	O 	0.605	0.6166	0.0402	-0.3
Mof_O 	O 	0.3754	0.8622	0.4962	-0.145
Mof_O 	O 	0.5028	0.5697	0.0233	-0.214
Mof_O 	O 	0.4592	0.9185	0.5879	-0.165
Mof_Yb	Yb	0.46851	0.82798	0.50086	1.327
Mof_Ru	Ru	0.62872	0.8482	0.7794	1.011
Mof_Ru	Ru	0.85167	0.79875	0.77681	1.02
Mof_C 	C 	0.74246	0.8361	0.8303	0.08
Mof_C 	C 	0.7035	0.891	0.954	0.014
Mof_H 	H 	0.6728	0.9076	0.9854	0.052
Mof_C 	C 	0.75302	0.8994	0.9962	0.078
Mof_H 	H 	0.7567	0.9221	0.0558	-0.037
Mof_C 	C 	0.73624	0.8022	0.7362	0.081
Mof_C 	C 	0.6824	0.7671	0.6133	0.124
Mof_H 	H 	0.648	0.7623	0.5843	-0.03
Mof_C 	C 	0.726	0.7417	0.567	-0.181
Mof_H 	H 	0.722	0.7192	0.5072	0.097
Mof_C 	C 	0.6508	0.9254	0.7053	-0.157
Mof_C 	C 	0.5823	0.8977	0.8672	-0.171
Mof_C 	C 	0.5691	0.8359	0.6854	-0.17
Mof_C 	C 	0.6023	0.7729	0.8511	-0.156
Mof_C 	C 	0.7974	0.8745	0.9506	0.017
Mof_H 	H 	0.8319	0.8805	0.9787	0.056
Mof_C 	C 	0.776	0.7496	0.6097	0.117
Mof_H 	H 	0.8068	0.7334	0.5778	-0.008
Mof_C 	C 	0.86073	0.8789	0.7033	-0.177
Mof_C 	C 	0.3986	0.7435	0.682	-0.182
Mof_C 	C 	0.585	0.8195	0.3602	-0.179
Mof_C 	C 	0.8444	0.7174	0.8494	-0.156
Mof_N 	N 	0.69774	0.85954	0.8687	-0.21
Mof_N 	N 	0.68694	0.79818	0.6977	-0.237
Mof_N 	N 	0.6629	0.9693	0.6641	-0.039
Mof_N 	N 	0.55672	0.9271	0.9197	-0.111
Mof_N 	N 	0.53351	0.8286	0.6313	-0.16
Mof_N 	N 	0.5837	0.732	0.891	-0.154
Mof_N 	N 	0.79228	0.84151	0.866	-0.207
Mof_N 	N 	0.78145	0.77995	0.696	-0.234
Mof_N 	N 	0.8659	0.9249	0.6635	-0.069
Mof_N 	N 	0.4236	0.7726	0.6256	-0.167
Mof_N 	N 	0.5486	0.8293	0.4083	-0.186
Mof_N 	N 	0.8419	0.6714	0.8881	-0.045
Mof_O 	O 	0.395	0.8834	0.5402	-0.159
Mof_O 	O 	0.6246	0.6378	0.9962	0.023
Mof_O 	O 	0.4972	0.9303	0.5233	-0.186
Mof_O 	O 	0.5408	0.5815	0.0879	-0.16
Mof_Yb	Yb	0.46851	0.32798	0.00086	1.171
Mof_Ru	Ru	0.62872	0.3482	0.2794	0.995
Mof_Ru	Ru	0.85167	0.29875	0.27681	1.004
Mof_C 	C 	0.74246	0.3361	0.3303	0.079
Mof_C 	C 	0.7035	0.391	0.454	0.111
Mof_H 	H 	0.6728	0.4076	0.4854	-0.015
Mof_C 	C 	0.75302	0.3994	0.4962	-0.171
Mof_H 	H 	0.7567	0.4221	0.5558	0.098
Mof_C 	C 	0.73624	0.3022	0.2362	0.071
Mof_C 	C 	0.6824	0.2671	0.1133	0.107
Mof_H 	H 	0.648	0.2623	0.0843	-0.046
Mof_C 	C 	0.726	0.2417	0.067	-0.19
Mof_H 	H 	0.722	0.2192	0.0072	0.064
Mof_C 	C 	0.6508	0.4254	0.2053	-0.173
Mof_C 	C 	0.5823	0.3977	0.3672	-0.185
Mof_C 	C 	0.5691	0.3359	0.1854	-0.187
Mof_C 	C 	0.6023	0.2729	0.3511	-0.17
Mof_C 	C 	0.7974	0.3745	0.4506	0.11
Mof_H 	H 	0.8319	0.3805	0.4787	-0.01
Mof_C 	C 	0.776	0.2496	0.1097	0.102
Mof_H 	H 	0.8068	0.2334	0.0778	-0.028
Mof_C 	C 	0.86073	0.3789	0.2033	-0.195
Mof_C 	C 	0.3986	0.2435	0.182	-0.198
Mof_C 	C 	0.585	0.3195	0.8602	-0.168
Mof_C 	C 	0.8444	0.2174	0.3494	-0.177
Mof_N 	N 	0.69774	0.35954	0.3687	-0.235
Mof_N 	N 	0.68694	0.29818	0.1977	-0.238
Mof_N 	N 	0.6629	0.4693	0.1641	-0.06
Mof_N 	N 	0.55672	0.4271	0.4197	-0.167
Mof_N 	N 	0.53351	0.3286	0.1313	-0.159
Mof_N 	N 	0.5837	0.232	0.391	-0.188
Mof_N 	N 	0.79228	0.34151	0.366	-0.232
Mof_N 	N 	0.78145	0.27995	0.196	-0.236
Mof_N 	N 	0.8659	0.4249	0.1635	-0.095
Mof_N 	N 	0.4236	0.2726	0.1256	-0.169
Mof_N 	N 	0.5486	0.3293	0.9083	-0.143
Mof_N 	N 	0.8419	0.1714	0.3881	-0.072
Mof_O 	O 	0.395	0.3834	0.0402	-0.301
Mof_O 	O 	0.6246	0.1378	0.4962	-0.152
Mof_O 	O 	0.4972	0.4303	0.0233	-0.214
Mof_O 	O 	0.5408	0.0815	0.5879	-0.178
Mof_Yb	Yb	-1.63399e-33	0.5	0.00063	0.627
Mof_Yb	Yb	-2.39749e-33	0	0.50063	0.754
Mof_Yb	Yb	0.5	-3.33048e-36	0.00063	0.614
Mof_Yb	Yb	0.5	0.5	0.50063	0.838
_end
