data_functionalizedCrystal
_audit_creation_method	'EQeq! by Chris Wilmer'
_symmetry_space_group_name_H-M	'P1'
_symmetry_Int_Tables_number	1
_symmetry_cell_setting	triclinic
loop_
_symmetry_equiv_pos_as_xyz
  x,y,z
_cell_length_a	13.532
_cell_length_b	14.661
_cell_length_c	16.931
_cell_angle_alpha	90
_cell_angle_beta	90
_cell_angle_gamma	90
loop_
_atom_site_label
_atom_site_type_symbol
_atom_site_fract_x
_atom_site_fract_y
_atom_site_fract_z
_atom_site_charge
Mof_Fe	Fe	0.77467	0.89314	0.28086	0.746
Mof_Fe	Fe	0.22533	0.10686	0.28086	0.725
Mof_Fe	Fe	0.72533	0.39314	0.21914	0.74
Mof_Fe	Fe	0.27467	0.60686	0.21914	0.739
Mof_Fe	Fe	0.22533	0.10686	0.71914	0.735
Mof_Fe	Fe	0.77467	0.89314	0.71914	0.753
Mof_Fe	Fe	0.27467	0.60686	0.78086	0.739
Mof_Fe	Fe	0.72533	0.39314	0.78086	0.74
Mof_Ni	Ni	-0	0	-0	1.201
Mof_Ni	Ni	0.5	0.5	0.5	1.193
Mof_Ni	Ni	0.73853	0.59176	0.5	1.244
Mof_Ni	Ni	0.26147	0.40824	0.5	1.243
Mof_Ni	Ni	0.76147	0.09176	-0	1.248
Mof_Ni	Ni	0.23853	0.90824	-0	1.257
Mof_H 	H 	0.8791	0.729	0.3024	0.097
Mof_H 	H 	0.9348	0.818	0.1955	0.094
Mof_H 	H 	0.91	0.567	0.465	1.744
Mof_H 	H 	0.6506	0.8925	0.1471	0.093
Mof_H 	H 	0.082	0.853	0.037	0.433
Mof_H 	H 	0.5947	0.8017	0.2529	0.095
Mof_H 	H 	0.735	0.9008	0.4373	0.075
Mof_H 	H 	0.6137	0.9813	0.3468	0.077
Mof_H 	H 	0.7121	0.0656	0.2422	0.091
Mof_H 	H 	0.8942	0.0372	0.2681	0.076
Mof_H 	H 	0.9083	0.9353	0.3886	0.074
Mof_H 	H 	0.1209	0.271	0.3024	0.092
Mof_H 	H 	0.0652	0.182	0.1955	0.079
Mof_H 	H 	0.09	0.433	0.465	1.722
Mof_H 	H 	0.3494	0.1075	0.1471	0.085
Mof_H 	H 	0.918	0.147	0.037	0.442
Mof_H 	H 	0.4053	0.1983	0.2529	0.095
Mof_H 	H 	0.265	0.0992	0.4373	0.059
Mof_H 	H 	0.3863	0.0187	0.3468	0.086
Mof_H 	H 	0.2879	0.9344	0.2422	0.084
Mof_H 	H 	0.1058	0.9628	0.2681	0.063
Mof_H 	H 	0.0917	0.0647	0.3886	0.078
Mof_H 	H 	0.6209	0.229	0.1976	0.1
Mof_H 	H 	0.5652	0.318	0.3045	0.082
Mof_H 	H 	0.59	0.067	0.035	1.28
Mof_H 	H 	0.8494	0.3925	0.3529	0.076
Mof_H 	H 	0.418	0.353	0.463	0.51
Mof_H 	H 	0.9053	0.3017	0.2471	0.104
Mof_H 	H 	0.765	0.4008	0.0627	0.101
Mof_H 	H 	0.8863	0.4813	0.1532	0.095
Mof_H 	H 	0.7879	0.5656	0.2578	0.089
Mof_H 	H 	0.6058	0.5372	0.2319	0.073
Mof_H 	H 	0.5917	0.4353	0.1114	0.091
Mof_H 	H 	0.3791	0.771	0.1976	0.1
Mof_H 	H 	0.4348	0.682	0.3045	0.083
Mof_H 	H 	0.41	0.933	0.035	1.289
Mof_H 	H 	0.1506	0.6075	0.3529	0.07
Mof_H 	H 	0.582	0.647	0.463	0.51
Mof_H 	H 	0.0947	0.6983	0.2471	0.092
Mof_H 	H 	0.235	0.5992	0.0627	0.099
Mof_H 	H 	0.1137	0.5187	0.1532	0.086
Mof_H 	H 	0.2121	0.4344	0.2578	0.089
Mof_H 	H 	0.3942	0.4628	0.2319	0.073
Mof_H 	H 	0.4083	0.5647	0.1114	0.091
Mof_H 	H 	0.1209	0.271	0.6976	0.095
Mof_H 	H 	0.0652	0.182	0.8045	0.073
Mof_H 	H 	0.09	0.433	0.535	1.722
Mof_H 	H 	0.3494	0.1075	0.8529	0.065
Mof_H 	H 	0.918	0.147	0.963	0.334
Mof_H 	H 	0.4053	0.1983	0.7471	0.095
Mof_H 	H 	0.265	0.0992	0.5627	0.06
Mof_H 	H 	0.3863	0.0187	0.6532	0.086
Mof_H 	H 	0.2879	0.9344	0.7578	0.084
Mof_H 	H 	0.1058	0.9628	0.7319	0.065
Mof_H 	H 	0.0917	0.0647	0.6114	0.077
Mof_H 	H 	0.8791	0.729	0.6976	0.099
Mof_H 	H 	0.9348	0.818	0.8045	0.085
Mof_H 	H 	0.91	0.567	0.535	1.744
Mof_H 	H 	0.6506	0.8925	0.8529	0.071
Mof_H 	H 	0.082	0.853	0.963	0.326
Mof_H 	H 	0.5947	0.8017	0.7471	0.095
Mof_H 	H 	0.735	0.9008	0.5627	0.074
Mof_H 	H 	0.6137	0.9813	0.6532	0.078
Mof_H 	H 	0.7121	0.0656	0.7578	0.091
Mof_H 	H 	0.8942	0.0372	0.7319	0.077
Mof_H 	H 	0.9083	0.9353	0.6114	0.075
Mof_H 	H 	0.3791	0.771	0.8024	0.087
Mof_H 	H 	0.4348	0.682	0.6955	0.083
Mof_H 	H 	0.41	0.933	0.965	1.168
Mof_H 	H 	0.1506	0.6075	0.6471	0.072
Mof_H 	H 	0.582	0.647	0.537	0.51
Mof_H 	H 	0.0947	0.6983	0.7529	0.086
Mof_H 	H 	0.235	0.5992	0.9373	0.033
Mof_H 	H 	0.1137	0.5187	0.8468	0.069
Mof_H 	H 	0.2121	0.4344	0.7422	0.086
Mof_H 	H 	0.3942	0.4628	0.7681	0.069
Mof_H 	H 	0.4083	0.5647	0.8886	0.057
Mof_H 	H 	0.6209	0.229	0.8024	0.087
Mof_H 	H 	0.5652	0.318	0.6955	0.082
Mof_H 	H 	0.59	0.067	0.965	1.164
Mof_H 	H 	0.8494	0.3925	0.6471	0.077
Mof_H 	H 	0.418	0.353	0.537	0.51
Mof_H 	H 	0.9053	0.3017	0.7529	0.096
Mof_H 	H 	0.765	0.4008	0.9373	0.034
Mof_H 	H 	0.8863	0.4813	0.8468	0.077
Mof_H 	H 	0.7879	0.5656	0.7422	0.086
Mof_H 	H 	0.6058	0.5372	0.7681	0.069
Mof_H 	H 	0.5917	0.4353	0.8886	0.058
Mof_C 	C 	0.7319	0.7581	0.28944	-0.105
Mof_C 	C 	0.833	0.7625	0.27153	-0.117
Mof_C 	C 	0.8664	0.8162	0.20809	-0.088
Mof_C 	C 	0.7983	0.8674	0.1633	-0.133
Mof_C 	C 	0.6968	0.8605	0.179	-0.081
Mof_C 	C 	0.6634	0.8061	0.2421	-0.116
Mof_C 	C 	0.6946	0.7097	0.3629	0.318
Mof_C 	C 	0.8327	0.9389	0.1042	0.409
Mof_C 	C 	0.7516	0.9375	0.393	-0.127
Mof_C 	C 	0.6837	0.9825	0.3423	-0.078
Mof_C 	C 	0.7388	0.0297	0.2837	-0.125
Mof_C 	C 	0.8407	0.0138	0.2982	-0.142
Mof_C 	C 	0.8486	0.9568	0.3657	-0.108
Mof_C 	C 	0.2681	0.2419	0.28944	-0.101
Mof_C 	C 	0.167	0.2375	0.27153	-0.121
Mof_C 	C 	0.1336	0.1838	0.20809	-0.082
Mof_C 	C 	0.2017	0.1326	0.1633	-0.146
Mof_C 	C 	0.3032	0.1395	0.179	-0.075
Mof_C 	C 	0.3366	0.1939	0.2421	-0.119
Mof_C 	C 	0.3054	0.2903	0.3629	0.317
Mof_C 	C 	0.1673	0.0611	0.1042	0.415
Mof_C 	C 	0.2484	0.0625	0.393	-0.089
Mof_C 	C 	0.3163	0.0175	0.3423	-0.136
Mof_C 	C 	0.2612	0.9703	0.2837	-0.083
Mof_C 	C 	0.1593	0.9862	0.2982	-0.099
Mof_C 	C 	0.1514	0.0432	0.3657	-0.166
Mof_C 	C 	0.7681	0.2581	0.21056	-0.097
Mof_C 	C 	0.667	0.2625	0.22847	-0.127
Mof_C 	C 	0.6336	0.3162	0.29191	-0.082
Mof_C 	C 	0.7017	0.3674	0.3367	-0.155
Mof_C 	C 	0.8032	0.3605	0.321	-0.073
Mof_C 	C 	0.8366	0.3061	0.2579	-0.128
Mof_C 	C 	0.8054	0.2097	0.1371	0.317
Mof_C 	C 	0.6673	0.4389	0.3958	0.407
Mof_C 	C 	0.7484	0.4375	0.107	-0.102
Mof_C 	C 	0.8163	0.4825	0.1577	-0.096
Mof_C 	C 	0.7612	0.5297	0.2163	-0.1
Mof_C 	C 	0.6593	0.5138	0.2018	-0.118
Mof_C 	C 	0.6514	0.4568	0.1343	-0.125
Mof_C 	C 	0.2319	0.7419	0.21056	-0.101
Mof_C 	C 	0.333	0.7375	0.22847	-0.124
Mof_C 	C 	0.3664	0.6838	0.29191	-0.083
Mof_C 	C 	0.2983	0.6326	0.3367	-0.154
Mof_C 	C 	0.1968	0.6395	0.321	-0.076
Mof_C 	C 	0.1634	0.6939	0.2579	-0.126
Mof_C 	C 	0.1946	0.7903	0.1371	0.321
Mof_C 	C 	0.3327	0.5611	0.3958	0.406
Mof_C 	C 	0.2516	0.5625	0.107	-0.105
Mof_C 	C 	0.1837	0.5175	0.1577	-0.095
Mof_C 	C 	0.2388	0.4703	0.2163	-0.103
Mof_C 	C 	0.3407	0.4862	0.2018	-0.117
Mof_C 	C 	0.3486	0.5432	0.1343	-0.125
Mof_C 	C 	0.2681	0.2419	0.71056	-0.1
Mof_C 	C 	0.167	0.2375	0.72847	-0.131
Mof_C 	C 	0.1336	0.1838	0.79191	-0.081
Mof_C 	C 	0.2017	0.1326	0.8367	-0.172
Mof_C 	C 	0.3032	0.1395	0.821	-0.074
Mof_C 	C 	0.3366	0.1939	0.7579	-0.133
Mof_C 	C 	0.3054	0.2903	0.6371	0.315
Mof_C 	C 	0.1673	0.0611	0.8958	0.414
Mof_C 	C 	0.2484	0.0625	0.607	-0.093
Mof_C 	C 	0.3163	0.0175	0.6577	-0.132
Mof_C 	C 	0.2612	0.9703	0.7163	-0.085
Mof_C 	C 	0.1593	0.9862	0.7018	-0.102
Mof_C 	C 	0.1514	0.0432	0.6343	-0.163
Mof_C 	C 	0.7319	0.7581	0.71056	-0.103
Mof_C 	C 	0.833	0.7625	0.72847	-0.129
Mof_C 	C 	0.8664	0.8162	0.79191	-0.086
Mof_C 	C 	0.7983	0.8674	0.8367	-0.164
Mof_C 	C 	0.6968	0.8605	0.821	-0.079
Mof_C 	C 	0.6634	0.8061	0.7579	-0.131
Mof_C 	C 	0.6946	0.7097	0.6371	0.316
Mof_C 	C 	0.8327	0.9389	0.8958	0.409
Mof_C 	C 	0.7516	0.9375	0.607	-0.125
Mof_C 	C 	0.6837	0.9825	0.6577	-0.083
Mof_C 	C 	0.7388	0.0297	0.7163	-0.122
Mof_C 	C 	0.8407	0.0138	0.7018	-0.139
Mof_C 	C 	0.8486	0.9568	0.6343	-0.112
Mof_C 	C 	0.2319	0.7419	0.78944	-0.115
Mof_C 	C 	0.333	0.7375	0.77153	-0.117
Mof_C 	C 	0.3664	0.6838	0.70809	-0.09
Mof_C 	C 	0.2983	0.6326	0.6633	-0.15
Mof_C 	C 	0.1968	0.6395	0.679	-0.081
Mof_C 	C 	0.1634	0.6939	0.7421	-0.118
Mof_C 	C 	0.1946	0.7903	0.8629	0.332
Mof_C 	C 	0.3327	0.5611	0.6042	0.405
Mof_C 	C 	0.2516	0.5625	0.893	-0.116
Mof_C 	C 	0.1837	0.5175	0.8423	-0.116
Mof_C 	C 	0.2388	0.4703	0.7837	-0.107
Mof_C 	C 	0.3407	0.4862	0.7982	-0.125
Mof_C 	C 	0.3486	0.5432	0.8657	-0.147
Mof_C 	C 	0.7681	0.2581	0.78944	-0.112
Mof_C 	C 	0.667	0.2625	0.77153	-0.119
Mof_C 	C 	0.6336	0.3162	0.70809	-0.089
Mof_C 	C 	0.7017	0.3674	0.6633	-0.151
Mof_C 	C 	0.8032	0.3605	0.679	-0.078
Mof_C 	C 	0.8366	0.3061	0.7421	-0.12
Mof_C 	C 	0.8054	0.2097	0.8629	0.328
Mof_C 	C 	0.6673	0.4389	0.6042	0.405
Mof_C 	C 	0.7484	0.4375	0.893	-0.114
Mof_C 	C 	0.8163	0.4825	0.8423	-0.118
Mof_C 	C 	0.7612	0.5297	0.7837	-0.104
Mof_C 	C 	0.6593	0.5138	0.7982	-0.126
Mof_C 	C 	0.6514	0.4568	0.8657	-0.148
Mof_O 	O 	0.60385	0.6993	0.36855	-0.32
Mof_O 	O 	0.75896	0.68541	0.41162	-0.33
Mof_O 	O 	0.92089	0.93533	0.08533	-0.377
Mof_O 	O 	0.7683	0.99373	0.08315	-0.395
Mof_O 	O 	0.39615	0.3007	0.36855	-0.32
Mof_O 	O 	0.24104	0.31459	0.41162	-0.332
Mof_O 	O 	0.07911	0.06467	0.08533	-0.407
Mof_O 	O 	0.2317	0.00627	0.08315	-0.419
Mof_O 	O 	0.89615	0.1993	0.13145	-0.297
Mof_O 	O 	0.74104	0.18541	0.08838	-0.329
Mof_O 	O 	0.57911	0.43533	0.41467	-0.405
Mof_O 	O 	0.7317	0.49373	0.41685	-0.42
Mof_O 	O 	0.10385	0.8007	0.13145	-0.307
Mof_O 	O 	0.25896	0.81459	0.08838	-0.327
Mof_O 	O 	0.42089	0.56467	0.41467	-0.405
Mof_O 	O 	0.2683	0.50627	0.41685	-0.421
Mof_O 	O 	0.39615	0.3007	0.63145	-0.321
Mof_O 	O 	0.24104	0.31459	0.58838	-0.332
Mof_O 	O 	0.07911	0.06467	0.91467	-0.463
Mof_O 	O 	0.2317	0.00627	0.91685	-0.478
Mof_O 	O 	0.60385	0.6993	0.63145	-0.321
Mof_O 	O 	0.75896	0.68541	0.58838	-0.329
Mof_O 	O 	0.92089	0.93533	0.91467	-0.442
Mof_O 	O 	0.7683	0.99373	0.91685	-0.462
Mof_O 	O 	0.10385	0.8007	0.86855	-0.332
Mof_O 	O 	0.25896	0.81459	0.91162	-0.396
Mof_O 	O 	0.42089	0.56467	0.58533	-0.405
Mof_O 	O 	0.2683	0.50627	0.58315	-0.421
Mof_O 	O 	0.89615	0.1993	0.86855	-0.323
Mof_O 	O 	0.74104	0.18541	0.91162	-0.397
Mof_O 	O 	0.57911	0.43533	0.58533	-0.405
Mof_O 	O 	0.7317	0.49373	0.58315	-0.419
Mof_O 	O 	0.8899	0.5853	0.5	-3.456
Mof_O 	O 	0.1101	0.4147	0.5	-3.428
Mof_O 	O 	0.6101	0.0853	-0	-2.432
Mof_O 	O 	0.3899	0.9147	-0	-2.43
Mof_O 	O 	0.0877	0.88708	-0	-0.912
Mof_O 	O 	0.9123	0.11292	-0	-0.922
Mof_O 	O 	0.4123	0.38708	0.5	-1.184
Mof_O 	O 	0.5877	0.61292	0.5	-1.184
Mof_N 	N 	0.5	0	0.8136	0.065
Mof_O 	O 	0.4733	0.9307	0.7773	-0.15
Mof_O 	O 	0.5267	0.0693	0.7773	-0.162
Mof_O 	O 	0.5	-7.51523e-33	0.8876	-0.342
Mof_N 	N 	-4.2952e-33	0.5	0.6864	0.07
Mof_O 	O 	0.0267	0.4307	0.7227	-0.171
Mof_O 	O 	0.9733	0.5693	0.7227	-0.15
Mof_O 	O 	2.87288e-33	0.5	0.6124	-0.401
Mof_N 	N 	0.5	0	0.1864	0.058
Mof_O 	O 	0.5267	0.0693	0.2227	-0.157
Mof_O 	O 	0.4733	0.9307	0.2227	-0.142
Mof_O 	O 	0.5	-1.87881e-33	0.1124	-0.309
Mof_N 	N 	1.47115e-33	0.5	0.3136	0.067
Mof_O 	O 	0.9733	0.5693	0.2773	-0.141
Mof_O 	O 	0.0267	0.4307	0.2773	-0.165
Mof_O 	O 	-5.69693e-33	0.5	0.3876	-0.401
_end
