# CIF file generated by openbabel 3.1.0, see https://openbabel.org
data_I
_chemical_name_common 'image0'
_cell_length_a 10.1034
_cell_length_b 25.155
_cell_length_c 9.104
_cell_angle_alpha 90
_cell_angle_beta 90
_cell_angle_gamma 90
_space_group_name_H-M_alt 'P 1'
_space_group_name_Hall 'P 1'
loop_
    _symmetry_equiv_pos_as_xyz
    x,y,z
loop_
    _atom_site_label
    _atom_site_type_symbol
    _atom_site_fract_x
    _atom_site_fract_y
    _atom_site_fract_z
    _atom_site_occupancy
    Zn1      Zn       0.15762    0.55301    0.12094    1.000
    P1       P        0.10956    0.68070    0.09736    1.000
    H1       H        0.00050    0.68790    0.03650    1.000
    P2       P        0.43152    0.52763    0.28455    1.000
    H2       H        0.50150    0.57100    0.29030    1.000
    O1       O        0.10960    0.72294    0.21670    1.000
    O2       O        0.19820    0.69087    0.96770    1.000
    O3       O        0.12140    0.62590    0.15910    1.000
    O4       O        0.33870    0.53275    0.15550    1.000
    O5       O        0.52890    0.48252    0.25080    1.000
    O6       O        0.36210    0.52068    0.42970    1.000
    Zn2      Zn       0.34238    0.94699    0.12094    1.000
    P3       P        0.39044    0.81930    0.09736    1.000
    H3       H        0.49950    0.81210    0.03650    1.000
    P4       P        0.06848    0.97237    0.28455    1.000
    H4       H        0.99850    0.92900    0.29030    1.000
    O7       O        0.39040    0.77706    0.21670    1.000
    O8       O        0.30180    0.80913    0.96770    1.000
    O9       O        0.37860    0.87410    0.15910    1.000
    O10      O        0.16130    0.96725    0.15550    1.000
    O11      O        0.97110    0.01748    0.25080    1.000
    O12      O        0.13790    0.97932    0.42970    1.000
    Zn3      Zn       0.84238    0.05301    0.37906    1.000
    P5       P        0.89044    0.18070    0.40264    1.000
    H5       H        0.99950    0.18790    0.46350    1.000
    P6       P        0.56848    0.02763    0.21545    1.000
    H6       H        0.49850    0.07100    0.20970    1.000
    O13      O        0.89040    0.22294    0.28330    1.000
    O14      O        0.80180    0.19087    0.53230    1.000
    O15      O        0.87860    0.12590    0.34090    1.000
    O16      O        0.66130    0.03275    0.34450    1.000
    O17      O        0.47110    0.98252    0.24920    1.000
    O18      O        0.63790    0.02068    0.07030    1.000
    Zn4      Zn       0.65762    0.44699    0.37906    1.000
    P7       P        0.60956    0.31930    0.40264    1.000
    H7       H        0.50050    0.31210    0.46350    1.000
    P8       P        0.93152    0.47237    0.21545    1.000
    H8       H        0.00150    0.42900    0.20970    1.000
    O19      O        0.60960    0.27706    0.28330    1.000
    O20      O        0.69820    0.30913    0.53230    1.000
    O21      O        0.62140    0.37410    0.34090    1.000
    O22      O        0.83870    0.46725    0.34450    1.000
    O23      O        0.02890    0.51748    0.24920    1.000
    O24      O        0.86210    0.47932    0.07030    1.000
    Zn5      Zn       0.84238    0.44699    0.87906    1.000
    P9       P        0.89044    0.31930    0.90264    1.000
    H9       H        0.99950    0.31210    0.96350    1.000
    P10      P        0.56848    0.47237    0.71545    1.000
    H10      H        0.49850    0.42900    0.70970    1.000
    O25      O        0.89040    0.27706    0.78330    1.000
    O26      O        0.80180    0.30913    0.03230    1.000
    O27      O        0.87860    0.37410    0.84090    1.000
    O28      O        0.66130    0.46725    0.84450    1.000
    O29      O        0.47110    0.51748    0.74920    1.000
    O30      O        0.63790    0.47932    0.57030    1.000
    Zn6      Zn       0.65762    0.05301    0.87906    1.000
    P11      P        0.60956    0.18070    0.90264    1.000
    H11      H        0.50050    0.18790    0.96350    1.000
    P12      P        0.93152    0.02763    0.71545    1.000
    H12      H        0.00150    0.07100    0.70970    1.000
    O31      O        0.60960    0.22294    0.78330    1.000
    O32      O        0.69820    0.19087    0.03230    1.000
    O33      O        0.62140    0.12590    0.84090    1.000
    O34      O        0.83870    0.03275    0.84450    1.000
    O35      O        0.02890    0.98252    0.74920    1.000
    O36      O        0.86210    0.02068    0.57030    1.000
    Zn7      Zn       0.15762    0.94699    0.62094    1.000
    P13      P        0.10956    0.81930    0.59736    1.000
    H13      H        0.00050    0.81210    0.53650    1.000
    P14      P        0.43152    0.97237    0.78455    1.000
    H14      H        0.50150    0.92900    0.79030    1.000
    O37      O        0.10960    0.77706    0.71670    1.000
    O38      O        0.19820    0.80913    0.46770    1.000
    O39      O        0.12140    0.87410    0.65910    1.000
    O40      O        0.33870    0.96725    0.65550    1.000
    O41      O        0.52890    0.01748    0.75080    1.000
    O42      O        0.36210    0.97932    0.92970    1.000
    Zn8      Zn       0.34238    0.55301    0.62094    1.000
    P15      P        0.39044    0.68070    0.59736    1.000
    H15      H        0.49950    0.68790    0.53650    1.000
    P16      P        0.06848    0.52763    0.78455    1.000
    H16      H        0.99850    0.57100    0.79030    1.000
    O43      O        0.39040    0.72294    0.71670    1.000
    O44      O        0.30180    0.69087    0.46770    1.000
    O45      O        0.37860    0.62590    0.65910    1.000
    O46      O        0.16130    0.53275    0.65550    1.000
    O47      O        0.97110    0.48252    0.75080    1.000
    O48      O        0.13790    0.52068    0.92970    1.000
    Zn9      Zn       0.25000    0.75000    0.34437    1.000
    Zn10     Zn       0.75000    0.25000    0.15563    1.000
    Zn11     Zn       0.75000    0.25000    0.65563    1.000
    Zn12     Zn       0.25000    0.75000    0.84437    1.000
