data_functionalizedCrystal
_audit_creation_method	'EQeq! by Chris Wilmer'
_symmetry_space_group_name_H-M	'P1'
_symmetry_Int_Tables_number	1
_symmetry_cell_setting	triclinic
loop_
_symmetry_equiv_pos_as_xyz
  x,y,z
_cell_length_a	15.8635
_cell_length_b	15.8635
_cell_length_c	21.463
_cell_angle_alpha	90
_cell_angle_beta	90
_cell_angle_gamma	90
loop_
_atom_site_label
_atom_site_type_symbol
_atom_site_fract_x
_atom_site_fract_y
_atom_site_fract_z
_atom_site_charge
Mof_C 	C 	0.6407	0.589	0.6409	0.072
Mof_H 	H 	0.6116	0.5388	0.652	0.013
Mof_C 	C 	0.7021	0.6182	0.6809	-0.129
Mof_H 	H 	0.7148	0.5881	0.718	0.075
Mof_C 	C 	0.7457	0.6921	0.6665	0.063
Mof_C 	C 	0.7173	0.7354	0.6138	-0.13
Mof_H 	H 	0.7404	0.7891	0.6041	0.07
Mof_C 	C 	0.6567	0.7014	0.5762	0.07
Mof_H 	H 	0.64	0.732	0.5402	0.008
Mof_C 	C 	0.8183	0.7225	0.7037	0.018
Mof_C 	C 	0.8356	0.6924	0.7629	-0.079
Mof_H 	H 	0.7994	0.6516	0.7812	0.058
Mof_C 	C 	0.9045	0.7209	0.7956	-0.002
Mof_H 	H 	0.9155	0.6994	0.8362	0.029
Mof_C 	C 	0.9591	0.7816	0.7696	-0.075
Mof_H 	H 	0.0071	0.8009	0.7919	0.063
Mof_C 	C 	0.9409	0.8124	0.7106	0.016
Mof_C 	C 	0.8719	0.7837	0.6783	-0.079
Mof_H 	H 	0.8602	0.8058	0.638	0.056
Mof_C 	C 	0.9962	0.8747	0.68	0.094
Mof_C 	C 	0.0927	0.9259	0.6173	0.092
Mof_C 	C 	0.1624	0.9345	0.5731	0.021
Mof_C 	C 	0.1659	0.0065	0.5367	-0.079
Mof_H 	H 	0.1224	0.0475	0.5393	0.06
Mof_C 	C 	0.2324	0.0183	0.4971	0.004
Mof_H 	H 	0.2354	0.0684	0.473	0.024
Mof_C 	C 	0.2947	0.9588	0.4916	-0.078
Mof_H 	H 	0.339	0.9669	0.4624	0.054
Mof_C 	C 	0.2932	0.8866	0.5286	0.018
Mof_C 	C 	0.2262	0.8751	0.5686	-0.082
Mof_H 	H 	0.2236	0.8256	0.5934	0.062
Mof_C 	C 	0.3594	0.8195	0.5219	0.067
Mof_C 	C 	0.4068	0.8116	0.4678	-0.132
Mof_H 	H 	0.4008	0.8512	0.435	0.072
Mof_C 	C 	0.463	0.745	0.4624	0.073
Mof_H 	H 	0.4943	0.7399	0.4248	0.009
Mof_C 	C 	0.4314	0.6977	0.5594	0.075
Mof_H 	H 	0.4393	0.658	0.5921	0.014
Mof_C 	C 	0.3746	0.7627	0.5687	-0.131
Mof_H 	H 	0.3461	0.7679	0.6074	0.071
Mof_N 	N 	0.6194	0.6267	0.5877	-0.152
Mof_N 	N 	0.9936	0.9565	0.6831	-0.116
Mof_N 	N 	0.0544	0.9895	0.6441	-0.102
Mof_N 	N 	0.0574	0.8528	0.63884	-0.108
Mof_N 	N 	0.0763	0.7704	0.6178	-0.211
Mof_H 	H 	0.1022	0.7414	0.6489	0.11
Mof_H 	H 	0.0276	0.7438	0.6072	0.111
Mof_N 	N 	0.4757	0.6877	0.507	-0.15
Mof_C 	C 	0.3593	0.411	0.1409	0.073
Mof_H 	H 	0.3884	0.4612	0.152	0.015
Mof_C 	C 	0.2979	0.3818	0.1809	-0.129
Mof_H 	H 	0.2852	0.4119	0.218	0.075
Mof_C 	C 	0.2543	0.3079	0.1665	0.063
Mof_C 	C 	0.2827	0.2646	0.1138	-0.13
Mof_H 	H 	0.2596	0.2109	0.1041	0.069
Mof_C 	C 	0.3433	0.2986	0.0762	0.069
Mof_H 	H 	0.36	0.268	0.0402	0.006
Mof_C 	C 	0.1817	0.2775	0.2037	0.017
Mof_C 	C 	0.1644	0.3076	0.2629	-0.079
Mof_H 	H 	0.2006	0.3484	0.2812	0.058
Mof_C 	C 	0.0955	0.2791	0.2956	-0.002
Mof_H 	H 	0.0845	0.3006	0.3362	0.029
Mof_C 	C 	0.0409	0.2184	0.2696	-0.074
Mof_H 	H 	0.9929	0.1991	0.2919	0.062
Mof_C 	C 	0.0591	0.1876	0.2106	0.016
Mof_C 	C 	0.1281	0.2163	0.1783	-0.079
Mof_H 	H 	0.1398	0.1942	0.138	0.055
Mof_C 	C 	0.0038	0.1253	0.18	0.094
Mof_C 	C 	0.9073	0.0741	0.1173	0.09
Mof_C 	C 	0.8376	0.0655	0.0731	0.026
Mof_C 	C 	0.8341	0.9935	0.0367	-0.094
Mof_H 	H 	0.8776	0.9525	0.0393	0.063
Mof_C 	C 	0.7676	0.9817	0.9971	0.018
Mof_H 	H 	0.7646	0.9316	0.973	0.021
Mof_C 	C 	0.7053	0.0412	0.9916	-0.078
Mof_H 	H 	0.661	0.0331	0.9624	0.055
Mof_C 	C 	0.7068	0.1134	0.0286	0.016
Mof_C 	C 	0.7738	0.1249	0.0686	-0.086
Mof_H 	H 	0.7764	0.1744	0.0934	0.063
Mof_C 	C 	0.6406	0.1805	0.0219	0.058
Mof_C 	C 	0.5932	0.1884	0.9678	-0.123
Mof_H 	H 	0.5992	0.1488	0.935	0.07
Mof_C 	C 	0.537	0.255	0.9624	0.076
Mof_H 	H 	0.5057	0.2601	0.9248	0.009
Mof_C 	C 	0.5686	0.3023	0.0594	0.072
Mof_H 	H 	0.5607	0.342	0.0921	0.015
Mof_C 	C 	0.6254	0.2373	0.0687	-0.127
Mof_H 	H 	0.6539	0.2321	0.1074	0.069
Mof_N 	N 	0.3806	0.3733	0.0877	-0.152
Mof_N 	N 	0.0064	0.0435	0.1831	-0.116
Mof_N 	N 	0.9456	0.0105	0.1441	-0.101
Mof_N 	N 	0.9426	0.1472	0.13884	-0.108
Mof_N 	N 	0.9237	0.2296	0.1178	-0.211
Mof_H 	H 	0.8978	0.2586	0.1489	0.11
Mof_H 	H 	0.9724	0.2562	0.1072	0.111
Mof_N 	N 	0.5243	0.3123	0.007	-0.153
Mof_C 	C 	0.911	0.1407	0.8909	0.071
Mof_H 	H 	0.9612	0.1116	0.902	0.015
Mof_C 	C 	0.8818	0.2021	0.9309	-0.123
Mof_H 	H 	0.9119	0.2148	0.968	0.075
Mof_C 	C 	0.8079	0.2457	0.9165	0.056
Mof_C 	C 	0.7646	0.2173	0.8638	-0.125
Mof_H 	H 	0.7109	0.2404	0.8541	0.068
Mof_C 	C 	0.7986	0.1567	0.8262	0.067
Mof_H 	H 	0.768	0.14	0.7902	0.009
Mof_C 	C 	0.7775	0.3183	0.9537	0.037
Mof_C 	C 	0.8076	0.3356	0.0129	-0.102
Mof_H 	H 	0.8484	0.2994	0.0312	0.064
Mof_C 	C 	0.7791	0.4045	0.0456	0.016
Mof_H 	H 	0.8006	0.4155	0.0862	0.022
Mof_C 	C 	0.7184	0.4591	0.0196	-0.098
Mof_H 	H 	0.6991	0.5071	0.0419	0.069
Mof_C 	C 	0.6876	0.4409	0.9606	0.035
Mof_C 	C 	0.7163	0.3719	0.9283	-0.093
Mof_H 	H 	0.6942	0.3602	0.888	0.061
Mof_C 	C 	0.6253	0.4962	0.93	0.09
Mof_C 	C 	0.5741	0.5927	0.8673	0.092
Mof_C 	C 	0.5655	0.6624	0.8231	0.022
Mof_C 	C 	0.4935	0.6659	0.7867	-0.08
Mof_H 	H 	0.4525	0.6224	0.7893	0.06
Mof_C 	C 	0.4817	0.7324	0.7471	0.004
Mof_H 	H 	0.4316	0.7354	0.723	0.024
Mof_C 	C 	0.5412	0.7947	0.7416	-0.078
Mof_H 	H 	0.5331	0.839	0.7124	0.054
Mof_C 	C 	0.6134	0.7932	0.7786	0.018
Mof_C 	C 	0.6249	0.7262	0.8186	-0.082
Mof_H 	H 	0.6744	0.7236	0.8434	0.063
Mof_C 	C 	0.6805	0.8594	0.7719	0.067
Mof_C 	C 	0.6884	0.9068	0.7178	-0.132
Mof_H 	H 	0.6488	0.9008	0.685	0.072
Mof_C 	C 	0.755	0.963	0.7124	0.073
Mof_H 	H 	0.7601	0.9943	0.6748	0.009
Mof_C 	C 	0.8023	0.9314	0.8094	0.075
Mof_H 	H 	0.842	0.9393	0.8421	0.014
Mof_C 	C 	0.7373	0.8746	0.8187	-0.131
Mof_H 	H 	0.7321	0.8461	0.8574	0.071
Mof_N 	N 	0.8733	0.1194	0.8377	-0.151
Mof_N 	N 	0.5435	0.4936	0.9331	-0.114
Mof_N 	N 	0.5105	0.5544	0.8941	-0.101
Mof_N 	N 	0.6472	0.5574	0.88884	-0.106
Mof_N 	N 	0.7296	0.5763	0.8678	-0.211
Mof_H 	H 	0.7586	0.6022	0.8989	0.112
Mof_H 	H 	0.7562	0.5276	0.8572	0.112
Mof_N 	N 	0.8123	0.9757	0.757	-0.15
Mof_C 	C 	0.089	0.8593	0.3909	0.073
Mof_H 	H 	0.0388	0.8884	0.402	0.014
Mof_C 	C 	0.1182	0.7979	0.4309	-0.128
Mof_H 	H 	0.0881	0.7852	0.468	0.075
Mof_C 	C 	0.1921	0.7543	0.4165	0.063
Mof_C 	C 	0.2354	0.7827	0.3638	-0.129
Mof_H 	H 	0.2891	0.7596	0.3541	0.07
Mof_C 	C 	0.2014	0.8433	0.3262	0.069
Mof_H 	H 	0.232	0.86	0.2902	0.008
Mof_C 	C 	0.2225	0.6817	0.4537	0.018
Mof_C 	C 	0.1924	0.6644	0.5129	-0.079
Mof_H 	H 	0.1516	0.7006	0.5312	0.058
Mof_C 	C 	0.2209	0.5955	0.5456	-0.001
Mof_H 	H 	0.1994	0.5845	0.5862	0.028
Mof_C 	C 	0.2816	0.5409	0.5196	-0.076
Mof_H 	H 	0.3009	0.4929	0.5419	0.063
Mof_C 	C 	0.3124	0.5591	0.4606	0.017
Mof_C 	C 	0.2837	0.6281	0.4283	-0.079
Mof_H 	H 	0.3058	0.6398	0.388	0.056
Mof_C 	C 	0.3747	0.5038	0.43	0.094
Mof_C 	C 	0.4259	0.4073	0.3673	0.092
Mof_C 	C 	0.4345	0.3376	0.3231	0.022
Mof_C 	C 	0.5065	0.3341	0.2867	-0.08
Mof_H 	H 	0.5475	0.3776	0.2893	0.06
Mof_C 	C 	0.5183	0.2676	0.2471	0.003
Mof_H 	H 	0.5684	0.2646	0.223	0.024
Mof_C 	C 	0.4588	0.2053	0.2416	-0.078
Mof_H 	H 	0.4669	0.161	0.2124	0.054
Mof_C 	C 	0.3866	0.2068	0.2786	0.018
Mof_C 	C 	0.3751	0.2738	0.3186	-0.082
Mof_H 	H 	0.3256	0.2764	0.3434	0.062
Mof_C 	C 	0.3195	0.1406	0.2719	0.067
Mof_C 	C 	0.3116	0.0932	0.2178	-0.132
Mof_H 	H 	0.3512	0.0992	0.185	0.072
Mof_C 	C 	0.245	0.037	0.2124	0.072
Mof_H 	H 	0.2399	0.0057	0.1748	0.009
Mof_C 	C 	0.1977	0.0686	0.3094	0.075
Mof_H 	H 	0.158	0.0607	0.3421	0.014
Mof_C 	C 	0.2627	0.1254	0.3187	-0.131
Mof_H 	H 	0.2679	0.1539	0.3574	0.071
Mof_N 	N 	0.1267	0.8806	0.3377	-0.152
Mof_N 	N 	0.4565	0.5064	0.4331	-0.117
Mof_N 	N 	0.4895	0.4456	0.3941	-0.101
Mof_N 	N 	0.3528	0.4426	0.38884	-0.108
Mof_N 	N 	0.2704	0.4237	0.3678	-0.211
Mof_H 	H 	0.2414	0.3978	0.3989	0.11
Mof_H 	H 	0.2438	0.4724	0.3572	0.112
Mof_N 	N 	0.1877	0.0243	0.257	-0.15
Mof_C 	C 	0.8593	0.089	0.6091	0.073
Mof_H 	H 	0.8884	0.0388	0.598	0.014
Mof_C 	C 	0.7979	0.1182	0.5691	-0.128
Mof_H 	H 	0.7852	0.0881	0.532	0.075
Mof_C 	C 	0.7543	0.1921	0.5835	0.063
Mof_C 	C 	0.7827	0.2354	0.6362	-0.129
Mof_H 	H 	0.7596	0.2891	0.6459	0.07
Mof_C 	C 	0.8433	0.2014	0.6738	0.069
Mof_H 	H 	0.86	0.232	0.7098	0.008
Mof_C 	C 	0.6817	0.2225	0.5463	0.018
Mof_C 	C 	0.6644	0.1924	0.4871	-0.079
Mof_H 	H 	0.7006	0.1516	0.4688	0.058
Mof_C 	C 	0.5955	0.2209	0.4544	-0.001
Mof_H 	H 	0.5845	0.1994	0.4138	0.028
Mof_C 	C 	0.5409	0.2816	0.4804	-0.076
Mof_H 	H 	0.4929	0.3009	0.4581	0.063
Mof_C 	C 	0.5591	0.3124	0.5394	0.017
Mof_C 	C 	0.6281	0.2837	0.5717	-0.079
Mof_H 	H 	0.6398	0.3058	0.612	0.056
Mof_C 	C 	0.5038	0.3747	0.57	0.094
Mof_C 	C 	0.4073	0.4259	0.6327	0.092
Mof_C 	C 	0.3376	0.4345	0.6769	0.022
Mof_C 	C 	0.3341	0.5065	0.7133	-0.08
Mof_H 	H 	0.3776	0.5475	0.7107	0.06
Mof_C 	C 	0.2676	0.5183	0.7529	0.004
Mof_H 	H 	0.2646	0.5684	0.777	0.024
Mof_C 	C 	0.2053	0.4588	0.7584	-0.078
Mof_H 	H 	0.161	0.4669	0.7876	0.054
Mof_C 	C 	0.2068	0.3866	0.7214	0.018
Mof_C 	C 	0.2738	0.3751	0.6814	-0.083
Mof_H 	H 	0.2764	0.3256	0.6566	0.062
Mof_C 	C 	0.1406	0.3195	0.7281	0.067
Mof_C 	C 	0.0932	0.3116	0.7822	-0.132
Mof_H 	H 	0.0992	0.3512	0.815	0.073
Mof_C 	C 	0.037	0.245	0.7876	0.073
Mof_H 	H 	0.0057	0.2399	0.8252	0.009
Mof_C 	C 	0.0686	0.1977	0.6906	0.075
Mof_H 	H 	0.0607	0.158	0.6579	0.014
Mof_C 	C 	0.1254	0.2627	0.6813	-0.131
Mof_H 	H 	0.1539	0.2679	0.6426	0.071
Mof_N 	N 	0.8806	0.1267	0.6623	-0.152
Mof_N 	N 	0.5064	0.4565	0.5669	-0.117
Mof_N 	N 	0.4456	0.4895	0.6059	-0.101
Mof_N 	N 	0.4426	0.3528	0.61116	-0.108
Mof_N 	N 	0.4237	0.2704	0.6322	-0.211
Mof_H 	H 	0.3978	0.2414	0.6011	0.11
Mof_H 	H 	0.4724	0.2438	0.6428	0.112
Mof_N 	N 	0.0243	0.1877	0.743	-0.149
Mof_C 	C 	0.1407	0.911	0.1091	0.075
Mof_H 	H 	0.1116	0.9612	0.098	0.013
Mof_C 	C 	0.2021	0.8818	0.0691	-0.134
Mof_H 	H 	0.2148	0.9119	0.032	0.074
Mof_C 	C 	0.2457	0.8079	0.0835	0.07
Mof_C 	C 	0.2173	0.7646	0.1362	-0.134
Mof_H 	H 	0.2404	0.7109	0.1459	0.072
Mof_C 	C 	0.1567	0.7986	0.1738	0.072
Mof_H 	H 	0.14	0.768	0.2098	0.007
Mof_C 	C 	0.3183	0.7775	0.0463	-0.002
Mof_C 	C 	0.3356	0.8076	0.9871	-0.055
Mof_H 	H 	0.2994	0.8484	0.9688	0.052
Mof_C 	C 	0.4045	0.7791	0.9544	-0.02
Mof_H 	H 	0.4155	0.8006	0.9138	0.035
Mof_C 	C 	0.4591	0.7184	0.9804	-0.053
Mof_H 	H 	0.5071	0.6991	0.9581	0.057
Mof_C 	C 	0.4409	0.6876	0.0394	-0.003
Mof_C 	C 	0.3719	0.7163	0.0717	-0.064
Mof_H 	H 	0.3602	0.6942	0.112	0.051
Mof_C 	C 	0.4962	0.6253	0.07	0.098
Mof_C 	C 	0.5927	0.5741	0.1327	0.091
Mof_C 	C 	0.6624	0.5655	0.1769	0.022
Mof_C 	C 	0.6659	0.4935	0.2133	-0.08
Mof_H 	H 	0.6224	0.4525	0.2107	0.06
Mof_C 	C 	0.7324	0.4817	0.2529	0.003
Mof_H 	H 	0.7354	0.4316	0.277	0.024
Mof_C 	C 	0.7947	0.5412	0.2584	-0.078
Mof_H 	H 	0.839	0.5331	0.2876	0.054
Mof_C 	C 	0.7932	0.6134	0.2214	0.018
Mof_C 	C 	0.7262	0.6249	0.1814	-0.082
Mof_H 	H 	0.7236	0.6744	0.1566	0.062
Mof_C 	C 	0.8594	0.6805	0.2281	0.067
Mof_C 	C 	0.9068	0.6884	0.2822	-0.131
Mof_H 	H 	0.9008	0.6488	0.315	0.072
Mof_C 	C 	0.963	0.755	0.2876	0.073
Mof_H 	H 	0.9943	0.7601	0.3252	0.009
Mof_C 	C 	0.9314	0.8023	0.1906	0.075
Mof_H 	H 	0.9393	0.842	0.1579	0.014
Mof_C 	C 	0.8746	0.7373	0.1813	-0.13
Mof_H 	H 	0.8461	0.7321	0.1426	0.07
Mof_N 	N 	0.1194	0.8733	0.1623	-0.153
Mof_N 	N 	0.4936	0.5435	0.0669	-0.118
Mof_N 	N 	0.5544	0.5105	0.1059	-0.101
Mof_N 	N 	0.5574	0.6472	0.11116	-0.109
Mof_N 	N 	0.5763	0.7296	0.1322	-0.21
Mof_H 	H 	0.6022	0.7586	0.1011	0.109
Mof_H 	H 	0.5276	0.7562	0.1428	0.111
Mof_N 	N 	0.9757	0.8123	0.243	-0.149
Mof_C 	C 	0.589	0.6407	0.3591	0.073
Mof_H 	H 	0.5388	0.6116	0.348	0.014
Mof_C 	C 	0.6182	0.7021	0.3191	-0.128
Mof_H 	H 	0.5881	0.7148	0.282	0.075
Mof_C 	C 	0.6921	0.7457	0.3335	0.063
Mof_C 	C 	0.7354	0.7173	0.3862	-0.129
Mof_H 	H 	0.7891	0.7404	0.3959	0.07
Mof_C 	C 	0.7014	0.6567	0.4238	0.07
Mof_H 	H 	0.732	0.64	0.4598	0.008
Mof_C 	C 	0.7225	0.8183	0.2963	0.018
Mof_C 	C 	0.6924	0.8356	0.2371	-0.079
Mof_H 	H 	0.6516	0.7994	0.2188	0.058
Mof_C 	C 	0.7209	0.9045	0.2044	-0.002
Mof_H 	H 	0.6994	0.9155	0.1638	0.028
Mof_C 	C 	0.7816	0.9591	0.2304	-0.075
Mof_H 	H 	0.8009	0.0071	0.2081	0.062
Mof_C 	C 	0.8124	0.9409	0.2894	0.016
Mof_C 	C 	0.7837	0.8719	0.3217	-0.079
Mof_H 	H 	0.8058	0.8602	0.362	0.056
Mof_C 	C 	0.8747	0.9962	0.32	0.094
Mof_C 	C 	0.9259	0.0927	0.3827	0.092
Mof_C 	C 	0.9345	0.1624	0.4269	0.021
Mof_C 	C 	0.0065	0.1659	0.4633	-0.079
Mof_H 	H 	0.0475	0.1224	0.4607	0.06
Mof_C 	C 	0.0183	0.2324	0.5029	0.004
Mof_H 	H 	0.0684	0.2354	0.527	0.024
Mof_C 	C 	0.9588	0.2947	0.5084	-0.079
Mof_H 	H 	0.9669	0.339	0.5376	0.054
Mof_C 	C 	0.8866	0.2932	0.4714	0.018
Mof_C 	C 	0.8751	0.2262	0.4314	-0.082
Mof_H 	H 	0.8256	0.2236	0.4066	0.062
Mof_C 	C 	0.8195	0.3594	0.4781	0.067
Mof_C 	C 	0.8116	0.4068	0.5322	-0.132
Mof_H 	H 	0.8512	0.4008	0.565	0.072
Mof_C 	C 	0.745	0.463	0.5376	0.073
Mof_H 	H 	0.7399	0.4943	0.5752	0.009
Mof_C 	C 	0.6977	0.4314	0.4406	0.075
Mof_H 	H 	0.658	0.4393	0.4079	0.014
Mof_C 	C 	0.7627	0.3746	0.4313	-0.131
Mof_H 	H 	0.7679	0.3461	0.3926	0.071
Mof_N 	N 	0.6267	0.6194	0.4123	-0.152
Mof_N 	N 	0.9565	0.9936	0.3169	-0.116
Mof_N 	N 	0.9895	0.0544	0.3559	-0.102
Mof_N 	N 	0.8528	0.0574	0.36116	-0.108
Mof_N 	N 	0.7704	0.0763	0.3822	-0.211
Mof_H 	H 	0.7414	0.1022	0.3511	0.11
Mof_H 	H 	0.7438	0.0276	0.3928	0.111
Mof_N 	N 	0.6877	0.4757	0.493	-0.15
Mof_C 	C 	0.411	0.3593	0.8591	0.073
Mof_H 	H 	0.4612	0.3884	0.848	0.015
Mof_C 	C 	0.3818	0.2979	0.8191	-0.128
Mof_H 	H 	0.4119	0.2852	0.782	0.075
Mof_C 	C 	0.3079	0.2543	0.8335	0.063
Mof_C 	C 	0.2646	0.2827	0.8862	-0.129
Mof_H 	H 	0.2109	0.2596	0.8959	0.071
Mof_C 	C 	0.2986	0.3433	0.9238	0.07
Mof_H 	H 	0.268	0.36	0.9598	0.01
Mof_C 	C 	0.2775	0.1817	0.7963	0.018
Mof_C 	C 	0.3076	0.1644	0.7371	-0.079
Mof_H 	H 	0.3484	0.2006	0.7188	0.058
Mof_C 	C 	0.2791	0.0955	0.7044	-0.002
Mof_H 	H 	0.3006	0.0845	0.6638	0.029
Mof_C 	C 	0.2184	0.0409	0.7304	-0.075
Mof_H 	H 	0.1991	0.9929	0.7081	0.062
Mof_C 	C 	0.1876	0.0591	0.7894	0.016
Mof_C 	C 	0.2163	0.1281	0.8217	-0.079
Mof_H 	H 	0.1942	0.1398	0.862	0.056
Mof_C 	C 	0.1253	0.0038	0.82	0.094
Mof_C 	C 	0.0741	0.9073	0.8827	0.093
Mof_C 	C 	0.0655	0.8376	0.9269	0.02
Mof_C 	C 	0.9935	0.8341	0.9633	-0.07
Mof_H 	H 	0.9525	0.8776	0.9607	0.058
Mof_C 	C 	0.9817	0.7676	0.0029	-0.004
Mof_H 	H 	0.9316	0.7646	0.027	0.025
Mof_C 	C 	0.0412	0.7053	0.0084	-0.085
Mof_H 	H 	0.0331	0.661	0.0376	0.055
Mof_C 	C 	0.1134	0.7068	0.9714	0.023
Mof_C 	C 	0.1249	0.7738	0.9314	-0.082
Mof_H 	H 	0.1744	0.7764	0.9066	0.062
Mof_C 	C 	0.1805	0.6406	0.9781	0.075
Mof_C 	C 	0.1884	0.5932	0.0322	-0.14
Mof_H 	H 	0.1488	0.5992	0.065	0.074
Mof_C 	C 	0.255	0.537	0.0376	0.068
Mof_H 	H 	0.2601	0.5057	0.0752	0.01
Mof_C 	C 	0.3023	0.5686	0.9406	0.077
Mof_H 	H 	0.342	0.5607	0.9079	0.013
Mof_C 	C 	0.2373	0.6254	0.9313	-0.133
Mof_H 	H 	0.2321	0.6539	0.8926	0.072
Mof_N 	N 	0.3733	0.3806	0.9123	-0.15
Mof_N 	N 	0.0435	0.0064	0.8169	-0.116
Mof_N 	N 	0.0105	0.9456	0.8559	-0.102
Mof_N 	N 	0.1472	0.9426	0.86116	-0.108
Mof_N 	N 	0.2296	0.9237	0.8822	-0.21
Mof_H 	H 	0.2586	0.8978	0.8511	0.11
Mof_H 	H 	0.2562	0.9724	0.8928	0.112
Mof_N 	N 	0.3123	0.5243	0.993	-0.145
Mof_Cd	Cd	0.94063	0.05937	0.75	0.381
Mof_Cd	Cd	0.05937	0.94063	0.25	0.381
Mof_Cd	Cd	0.44063	0.44063	-0	0.375
Mof_Cd	Cd	0.55937	0.55937	0.5	0.382
_end
