data_functionalizedCrystal
_audit_creation_method	'EQeq! by Chris Wilmer'
_symmetry_space_group_name_H-M	'P1'
_symmetry_Int_Tables_number	1
_symmetry_cell_setting	triclinic
loop_
_symmetry_equiv_pos_as_xyz
  x,y,z
_cell_length_a	7.7092
_cell_length_b	9.1132
_cell_length_c	12.2839
_cell_angle_alpha	90
_cell_angle_beta	90
_cell_angle_gamma	90
loop_
_atom_site_label
_atom_site_type_symbol
_atom_site_fract_x
_atom_site_fract_y
_atom_site_fract_z
_atom_site_charge
Mof_O 	O 	0.758	0.632	0.4387	-0.508
Mof_O 	O 	0.0787	0.6463	0.3441	-0.521
Mof_C 	C 	0.5124	0.7108	0.3403	-0.758
Mof_H 	H 	0.4529	0.6637	0.4015	0.26
Mof_H 	H 	0.4715	0.6679	0.2718	0.227
Mof_H 	H 	0.4875	0.8163	0.3408	0.233
Mof_C 	C 	0.7058	0.687	0.3508	0.467
Mof_C 	C 	0.8179	0.7252	0.2637	-0.262
Mof_C 	C 	0.0013	0.7035	0.2661	0.301
Mof_C 	C 	0.1069	0.7578	0.17	-0.578
Mof_H 	H 	0.2105	0.8089	0.1966	0.172
Mof_H 	H 	0.0367	0.8255	0.1265	0.127
Mof_H 	H 	0.1419	0.6741	0.125	0.143
Mof_C 	C 	0.7411	0.799	0.1732	0.156
Mof_N 	N 	0.6761	0.8552	0.1011	-0.218
Mof_O 	O 	0.242	0.368	0.4387	-0.605
Mof_O 	O 	0.9213	0.3537	0.3441	-0.549
Mof_C 	C 	0.4876	0.2892	0.3403	-0.867
Mof_H 	H 	0.5471	0.3363	0.4015	0.293
Mof_H 	H 	0.5285	0.3321	0.2718	0.259
Mof_H 	H 	0.5125	0.1837	0.3408	0.249
Mof_C 	C 	0.2942	0.313	0.3508	0.588
Mof_C 	C 	0.1821	0.2748	0.2637	-0.622
Mof_C 	C 	0.9987	0.2965	0.2661	0.72
Mof_C 	C 	0.8931	0.2422	0.17	-0.944
Mof_H 	H 	0.7895	0.1911	0.1966	0.278
Mof_H 	H 	0.9633	0.1745	0.1265	0.311
Mof_H 	H 	0.8581	0.3259	0.125	0.289
Mof_C 	C 	0.2589	0.201	0.1732	0.181
Mof_N 	N 	0.3239	0.1448	0.1011	-0.274
Mof_O 	O 	0.242	0.632	0.5613	-0.607
Mof_O 	O 	0.9213	0.6463	0.6559	-0.552
Mof_C 	C 	0.4876	0.7108	0.6597	-0.904
Mof_H 	H 	0.5471	0.6637	0.5985	0.307
Mof_H 	H 	0.5285	0.6679	0.7282	0.276
Mof_H 	H 	0.5125	0.8163	0.6592	0.277
Mof_C 	C 	0.2942	0.687	0.6492	0.611
Mof_C 	C 	0.1821	0.7252	0.7363	-0.631
Mof_C 	C 	0.9987	0.7035	0.7339	0.755
Mof_C 	C 	0.8931	0.7578	0.83	-1.018
Mof_H 	H 	0.7895	0.8089	0.8034	0.319
Mof_H 	H 	0.9633	0.8255	0.8735	0.361
Mof_H 	H 	0.8581	0.6741	0.875	0.33
Mof_C 	C 	0.2589	0.799	0.8268	0.207
Mof_N 	N 	0.3239	0.8552	0.8989	-0.237
Mof_O 	O 	0.758	0.368	0.5613	-0.509
Mof_O 	O 	0.0787	0.3537	0.6559	-0.525
Mof_C 	C 	0.5124	0.2892	0.6597	-0.74
Mof_H 	H 	0.4529	0.3363	0.5985	0.252
Mof_H 	H 	0.4715	0.3321	0.7282	0.225
Mof_H 	H 	0.4875	0.1837	0.6592	0.212
Mof_C 	C 	0.7058	0.313	0.6492	0.456
Mof_C 	C 	0.8179	0.2748	0.7363	-0.262
Mof_C 	C 	0.0013	0.2965	0.7339	0.299
Mof_C 	C 	0.1069	0.2422	0.83	-0.587
Mof_H 	H 	0.2105	0.1911	0.8034	0.167
Mof_H 	H 	0.0367	0.1745	0.8735	0.13
Mof_H 	H 	0.1419	0.3259	0.875	0.162
Mof_C 	C 	0.7411	0.201	0.8268	0.151
Mof_N 	N 	0.6761	0.1448	0.8989	-0.213
Mof_Eu	Eu	-4.32547e-33	0.5	0.5	2.326
Mof_Ag	Ag	0.5	0	-0	0.414
_end
