# CIF file generated by openbabel 3.1.0, see https://openbabel.org
data_I
_chemical_name_common 'image0'
_cell_length_a 7.491
_cell_length_b 15.386
_cell_length_c 11.226
_cell_angle_alpha 90
_cell_angle_beta 90
_cell_angle_gamma 90
_space_group_name_H-M_alt 'P 1'
_space_group_name_Hall 'P 1'
loop_
    _symmetry_equiv_pos_as_xyz
    x,y,z
loop_
    _atom_site_label
    _atom_site_type_symbol
    _atom_site_fract_x
    _atom_site_fract_y
    _atom_site_fract_z
    _atom_site_occupancy
    Mn1      Mn       0.47669    0.21766    0.35745    1.000
    C1       C        0.64710    0.39409    0.27430    1.000
    C2       C        0.76120    0.65513    0.01140    1.000
    C3       C        0.59090    0.48003    0.22030    1.000
    C4       C        0.42740    0.51596    0.25540    1.000
    H1       H        0.35470    0.48530    0.30780    1.000
    C5       C        0.37140    0.59640    0.21350    1.000
    C6       C        0.48310    0.64110    0.13550    1.000
    H2       H        0.44890    0.69560    0.10820    1.000
    C7       C        0.64440    0.60612    0.09730    1.000
    C8       C        0.69880    0.52525    0.14070    1.000
    H3       H        0.80720    0.50170    0.11650    1.000
    C9       C        0.19410    0.63420    0.25240    1.000
    H4       H        0.13610    0.59450    0.30580    1.000
    H5       H        0.12000    0.64340    0.18380    1.000
    H6       H        0.21390    0.68850    0.29220    1.000
    O1       O        0.52520    0.34916    0.31940    1.000
    O2       O        0.81030    0.37599    0.27240    1.000
    O3       O        0.71440    0.73122    0.97970    1.000
    O4       O        0.90370    0.62206    0.97580    1.000
    Mn2      Mn       0.52331    0.78234    0.85745    1.000
    C10      C        0.35290    0.60591    0.77430    1.000
    C11      C        0.23880    0.34487    0.51140    1.000
    C12      C        0.40910    0.51997    0.72030    1.000
    C13      C        0.57260    0.48404    0.75540    1.000
    H7       H        0.64530    0.51470    0.80780    1.000
    C14      C        0.62860    0.40360    0.71350    1.000
    C15      C        0.51690    0.35890    0.63550    1.000
    H8       H        0.55110    0.30440    0.60820    1.000
    C16      C        0.35560    0.39388    0.59730    1.000
    C17      C        0.30120    0.47475    0.64070    1.000
    H9       H        0.19280    0.49830    0.61650    1.000
    C18      C        0.80590    0.36580    0.75240    1.000
    H10      H        0.86390    0.40550    0.80580    1.000
    H11      H        0.88000    0.35660    0.68380    1.000
    H12      H        0.78610    0.31150    0.79220    1.000
    O5       O        0.47480    0.65084    0.81940    1.000
    O6       O        0.18970    0.62401    0.77240    1.000
    O7       O        0.28560    0.26878    0.47970    1.000
    O8       O        0.09630    0.37794    0.47580    1.000
    Mn3      Mn       0.97669    0.28234    0.35745    1.000
    C19      C        0.14710    0.10591    0.27430    1.000
    C20      C        0.26120    0.84487    0.01140    1.000
    C21      C        0.09090    0.01997    0.22030    1.000
    C22      C        0.92740    0.98404    0.25540    1.000
    H13      H        0.85470    0.01470    0.30780    1.000
    C23      C        0.87140    0.90360    0.21350    1.000
    C24      C        0.98310    0.85890    0.13550    1.000
    H14      H        0.94890    0.80440    0.10820    1.000
    C25      C        0.14440    0.89388    0.09730    1.000
    C26      C        0.19880    0.97475    0.14070    1.000
    H15      H        0.30720    0.99830    0.11650    1.000
    C27      C        0.69410    0.86580    0.25240    1.000
    H16      H        0.63610    0.90550    0.30580    1.000
    H17      H        0.62000    0.85660    0.18380    1.000
    H18      H        0.71390    0.81150    0.29220    1.000
    O9       O        0.02520    0.15084    0.31940    1.000
    O10      O        0.31030    0.12401    0.27240    1.000
    O11      O        0.21440    0.76878    0.97970    1.000
    O12      O        0.40370    0.87794    0.97580    1.000
    Mn4      Mn       0.02331    0.71766    0.85745    1.000
    C28      C        0.85290    0.89409    0.77430    1.000
    C29      C        0.73880    0.15513    0.51140    1.000
    C30      C        0.90910    0.98003    0.72030    1.000
    C31      C        0.07260    0.01596    0.75540    1.000
    H19      H        0.14530    0.98530    0.80780    1.000
    C32      C        0.12860    0.09640    0.71350    1.000
    C33      C        0.01690    0.14110    0.63550    1.000
    H20      H        0.05110    0.19560    0.60820    1.000
    C34      C        0.85560    0.10612    0.59730    1.000
    C35      C        0.80120    0.02525    0.64070    1.000
    H21      H        0.69280    0.00170    0.61650    1.000
    C36      C        0.30590    0.13420    0.75240    1.000
    H22      H        0.36390    0.09450    0.80580    1.000
    H23      H        0.38000    0.14340    0.68380    1.000
    H24      H        0.28610    0.18850    0.79220    1.000
    O13      O        0.97480    0.84916    0.81940    1.000
    O14      O        0.68970    0.87599    0.77240    1.000
    O15      O        0.78560    0.23122    0.47970    1.000
    O16      O        0.59630    0.12206    0.47580    1.000
