data_functionalizedCrystal
_audit_creation_method	'EQeq! by Chris Wilmer'
_symmetry_space_group_name_H-M	'P1'
_symmetry_Int_Tables_number	1
_symmetry_cell_setting	triclinic
loop_
_symmetry_equiv_pos_as_xyz
  x,y,z
_cell_length_a	10.224
_cell_length_b	11.723
_cell_length_c	12.227
_cell_angle_alpha	65.98
_cell_angle_beta	71.305
_cell_angle_gamma	84.622
loop_
_atom_site_label
_atom_site_type_symbol
_atom_site_fract_x
_atom_site_fract_y
_atom_site_fract_z
_atom_site_charge
Mof_Mn	Mn	1.68268e-17	0.5	0.5	0.867
Mof_Mn	Mn	0.5	0.5	0.5	0.925
Mof_H 	H 	0.8752	0.8184	0.4373	0.128
Mof_H 	H 	0.5943	0.8303	0.529	0.039
Mof_H 	H 	0.9108	0.0059	0.4299	0.092
Mof_H 	H 	0.9293	0.1834	0.4654	0.028
Mof_H 	H 	0.5298	0.1615	0.6387	0.02
Mof_H 	H 	0.5135	0.9766	0.6163	0.083
Mof_H 	H 	0.9341	0.4103	0.3109	0.074
Mof_H 	H 	0.0223	0.4083	0.112	0.04
Mof_H 	H 	0.3783	0.5525	0.079	0.07
Mof_H 	H 	0.2842	0.5394	0.2823	0.017
Mof_H 	H 	0.3982	0.6417	0.8702	0.085
Mof_H 	H 	0.4931	0.646	0.673	0
Mof_H 	H 	0.2566	0.3618	0.758	0.005
Mof_H 	H 	0.1564	0.35	0.9564	0.08
Mof_H 	H 	0.1248	0.1816	0.5627	0.107
Mof_H 	H 	0.4057	0.1697	0.471	0.041
Mof_H 	H 	0.0892	0.9941	0.5701	0.069
Mof_H 	H 	0.0707	0.8166	0.5346	-0.002
Mof_H 	H 	0.4702	0.8385	0.3613	0.022
Mof_H 	H 	0.4865	0.0234	0.3837	0.082
Mof_H 	H 	0.0659	0.5897	0.6891	-0.065
Mof_H 	H 	0.9777	0.5917	0.888	0.119
Mof_H 	H 	0.6217	0.4475	0.921	0.09
Mof_H 	H 	0.7158	0.4606	0.7177	0.007
Mof_H 	H 	0.6018	0.3583	0.1298	0.078
Mof_H 	H 	0.5069	0.354	0.327	0.004
Mof_H 	H 	0.7434	0.6382	0.242	0.017
Mof_H 	H 	0.8436	0.65	0.0436	0.088
Mof_C 	C 	0.7507	0.6791	0.4445	0.417
Mof_C 	C 	0.7833	0.7933	0.4601	-0.225
Mof_C 	C 	0.6852	0.8587	0.5051	0.003
Mof_C 	C 	0.707	0.9725	0.5208	0.085
Mof_C 	C 	0.8329	0.0352	0.4739	-0.14
Mof_C 	C 	0.8426	0.1446	0.4931	0.069
Mof_C 	C 	0.7299	0.1963	0.5508	-0.146
Mof_C 	C 	0.6087	0.1317	0.5966	0.073
Mof_C 	C 	0.5989	0.0194	0.5819	-0.151
Mof_C 	C 	0.746	0.3139	0.5691	0.384
Mof_C 	C 	0.025	0.4387	0.2639	-0.032
Mof_C 	C 	0.0769	0.4389	0.1429	-0.077
Mof_C 	C 	0.21	0.485	0.0701	0.017
Mof_C 	C 	0.2874	0.5226	0.1241	-0.113
Mof_C 	C 	0.2292	0.5158	0.2468	0.067
Mof_C 	C 	0.2683	0.4932	0.9388	0.077
Mof_C 	C 	0.3683	0.5827	0.8497	-0.163
Mof_C 	C 	0.4241	0.5855	0.7307	0.095
Mof_C 	C 	0.2858	0.4194	0.7806	0.098
Mof_C 	C 	0.2257	0.4108	0.9005	-0.163
Mof_C 	C 	0.2493	0.3209	0.5555	0.416
Mof_C 	C 	0.2167	0.2067	0.5399	-0.226
Mof_C 	C 	0.3148	0.1413	0.4949	-0.002
Mof_C 	C 	0.293	0.0275	0.4792	0.076
Mof_C 	C 	0.1671	0.9648	0.5261	-0.147
Mof_C 	C 	0.1574	0.8554	0.5069	0.068
Mof_C 	C 	0.2701	0.8037	0.4492	-0.156
Mof_C 	C 	0.3913	0.8683	0.4034	0.072
Mof_C 	C 	0.4011	0.9806	0.4181	-0.147
Mof_C 	C 	0.254	0.6861	0.4309	0.392
Mof_C 	C 	0.975	0.5613	0.7361	0.209
Mof_C 	C 	0.9231	0.5611	0.8571	-0.203
Mof_C 	C 	0.79	0.515	0.9299	0.096
Mof_C 	C 	0.7126	0.4774	0.8759	-0.165
Mof_C 	C 	0.7708	0.4842	0.7532	0.107
Mof_C 	C 	0.7317	0.5068	0.0612	0.05
Mof_C 	C 	0.6317	0.4173	0.1503	-0.138
Mof_C 	C 	0.5759	0.4145	0.2693	0.086
Mof_C 	C 	0.7142	0.5806	0.2194	0.09
Mof_C 	C 	0.7743	0.5892	0.0995	-0.136
Mof_N 	N 	0.0998	0.4774	0.315	-0.169
Mof_N 	N 	0.3844	0.5051	0.6931	-0.189
Mof_N 	N 	0.9002	0.5226	0.685	-0.196
Mof_N 	N 	0.6156	0.4949	0.3069	-0.185
Mof_O 	O 	0.8512	0.6154	0.4145	-0.359
Mof_O 	O 	0.6282	0.6592	0.457	-0.384
Mof_O 	O 	0.8673	0.3392	0.5616	-0.347
Mof_O 	O 	0.642	0.375	0.592	-0.369
Mof_O 	O 	0.1488	0.3846	0.5855	-0.388
Mof_O 	O 	0.3718	0.3408	0.543	-0.386
Mof_O 	O 	0.1327	0.6608	0.4384	-0.381
Mof_O 	O 	0.358	0.625	0.408	-0.374
_end
