# CIF file generated by openbabel 3.1.0, see https://openbabel.org
data_I
_chemical_name_common 'image0'
_cell_length_a 19.46
_cell_length_b 24.2
_cell_length_c 13.81
_cell_angle_alpha 90
_cell_angle_beta 121.17
_cell_angle_gamma 90
_space_group_name_H-M_alt 'P 1'
_space_group_name_Hall 'P 1'
loop_
    _symmetry_equiv_pos_as_xyz
    x,y,z
loop_
    _atom_site_label
    _atom_site_type_symbol
    _atom_site_fract_x
    _atom_site_fract_y
    _atom_site_fract_z
    _atom_site_occupancy
    Cd1      Cd       0.83253    0.89061    0.54518    1.000
    C1       C        0.76270    0.77330    0.92890    1.000
    N1       N        0.80630    0.79140    0.03490    1.000
    N2       N        0.70750    0.73350    0.88890    1.000
    N3       N        0.80870    0.84750    0.68530    1.000
    C2       C        0.83990    0.87010    0.78620    1.000
    H1       H        0.87150    0.90260    0.80340    1.000
    C3       C        0.82660    0.84620    0.87110    1.000
    H2       H        0.85020    0.86220    0.94430    1.000
    C4       C        0.77830    0.79900    0.84360    1.000
    C5       C        0.74480    0.77840    0.73490    1.000
    H3       H        0.71000    0.74730    0.71150    1.000
    C6       C        0.76260    0.80360    0.66130    1.000
    H4       H        0.73990    0.78820    0.58770    1.000
    N4       N        0.04800    0.58770    0.53180    1.000
    N5       N        0.00350    0.63040    0.52600    1.000
    C7       C        0.03040    0.68120    0.51870    1.000
    N6       N        0.09230    0.69050    0.50690    1.000
    N7       N        0.13600    0.64740    0.51180    1.000
    C8       C        0.11400    0.59810    0.52800    1.000
    N8       N        0.90060    0.81840    0.53190    1.000
    C9       C        0.93750    0.81990    0.47370    1.000
    H5       H        0.93450    0.85340    0.43590    1.000
    C10      C        0.97910    0.77750    0.46360    1.000
    H6       H        0.00410    0.78130    0.42040    1.000
    C11      C        0.98370    0.72800    0.51960    1.000
    C12      C        0.94720    0.72580    0.58240    1.000
    H7       H        0.95060    0.69330    0.62300    1.000
    C13      C        0.90590    0.77090    0.58600    1.000
    H8       H        0.88010    0.76850    0.62830    1.000
    N9       N        0.75630    0.96250    0.54250    1.000
    C14      C        0.78020    0.01390    0.54550    1.000
    H9       H        0.82870    0.02000    0.54630    1.000
    C15      C        0.73810    0.05910    0.54760    1.000
    H10      H        0.75960    0.09530    0.55650    1.000
    C16      C        0.16370    0.55100    0.53660    1.000
    C17      C        0.13710    0.49690    0.53200    1.000
    H11      H        0.08780    0.48970    0.52830    1.000
    C18      C        0.68490    0.95370    0.53320    1.000
    H12      H        0.66640    0.91680    0.52720    1.000
    O1       O        0.93360    0.94640    0.69200    1.000
    O2       O        0.95160    0.94520    0.65420    1.000
    Cd2      Cd       0.33253    0.39061    0.54518    1.000
    C19      C        0.26270    0.27330    0.92890    1.000
    N10      N        0.30630    0.29140    0.03490    1.000
    N11      N        0.20750    0.23350    0.88890    1.000
    N12      N        0.30870    0.34750    0.68530    1.000
    C20      C        0.33990    0.37010    0.78620    1.000
    H13      H        0.37150    0.40260    0.80340    1.000
    C21      C        0.32660    0.34620    0.87110    1.000
    H14      H        0.35020    0.36220    0.94430    1.000
    C22      C        0.27830    0.29900    0.84360    1.000
    C23      C        0.24480    0.27840    0.73490    1.000
    H15      H        0.21000    0.24730    0.71150    1.000
    C24      C        0.26260    0.30360    0.66130    1.000
    H16      H        0.23990    0.28820    0.58770    1.000
    N13      N        0.54800    0.08770    0.53180    1.000
    N14      N        0.50350    0.13040    0.52600    1.000
    C25      C        0.53040    0.18120    0.51870    1.000
    N15      N        0.59230    0.19050    0.50690    1.000
    N16      N        0.63600    0.14740    0.51180    1.000
    C26      C        0.61400    0.09810    0.52800    1.000
    N17      N        0.40060    0.31840    0.53190    1.000
    C27      C        0.43750    0.31990    0.47370    1.000
    H17      H        0.43450    0.35340    0.43590    1.000
    C28      C        0.47910    0.27750    0.46360    1.000
    H18      H        0.50410    0.28130    0.42040    1.000
    C29      C        0.48370    0.22800    0.51960    1.000
    C30      C        0.44720    0.22580    0.58240    1.000
    H19      H        0.45060    0.19330    0.62300    1.000
    C31      C        0.40590    0.27090    0.58600    1.000
    H20      H        0.38010    0.26850    0.62830    1.000
    N18      N        0.25630    0.46250    0.54250    1.000
    C32      C        0.28020    0.51390    0.54550    1.000
    H21      H        0.32870    0.52000    0.54630    1.000
    C33      C        0.23810    0.55910    0.54760    1.000
    H22      H        0.25960    0.59530    0.55650    1.000
    C34      C        0.66370    0.05100    0.53660    1.000
    C35      C        0.63710    0.99690    0.53200    1.000
    H23      H        0.58780    0.98970    0.52830    1.000
    C36      C        0.18490    0.45370    0.53320    1.000
    H24      H        0.16640    0.41680    0.52720    1.000
    O3       O        0.43360    0.44640    0.69200    1.000
    O4       O        0.45160    0.44520    0.65420    1.000
    Cd3      Cd       0.16747    0.89061    0.95482    1.000
    C37      C        0.23730    0.77330    0.57110    1.000
    N19      N        0.19370    0.79140    0.46510    1.000
    N20      N        0.29250    0.73350    0.61110    1.000
    N21      N        0.19130    0.84750    0.81470    1.000
    C38      C        0.16010    0.87010    0.71380    1.000
    H25      H        0.12850    0.90260    0.69660    1.000
    C39      C        0.17340    0.84620    0.62890    1.000
    H26      H        0.14980    0.86220    0.55570    1.000
    C40      C        0.22170    0.79900    0.65640    1.000
    C41      C        0.25520    0.77840    0.76510    1.000
    H27      H        0.29000    0.74730    0.78850    1.000
    C42      C        0.23740    0.80360    0.83870    1.000
    H28      H        0.26010    0.78820    0.91230    1.000
    N22      N        0.95200    0.58770    0.96820    1.000
    N23      N        0.99650    0.63040    0.97400    1.000
    C43      C        0.96960    0.68120    0.98130    1.000
    N24      N        0.90770    0.69050    0.99310    1.000
    N25      N        0.86400    0.64740    0.98820    1.000
    C44      C        0.88600    0.59810    0.97200    1.000
    N26      N        0.09940    0.81840    0.96810    1.000
    C45      C        0.06250    0.81990    0.02630    1.000
    H29      H        0.06550    0.85340    0.06410    1.000
    C46      C        0.02090    0.77750    0.03640    1.000
    H30      H        0.99590    0.78130    0.07960    1.000
    C47      C        0.01630    0.72800    0.98040    1.000
    C48      C        0.05280    0.72580    0.91760    1.000
    H31      H        0.04940    0.69330    0.87700    1.000
    C49      C        0.09410    0.77090    0.91400    1.000
    H32      H        0.11990    0.76850    0.87170    1.000
    N27      N        0.24370    0.96250    0.95750    1.000
    C50      C        0.21980    0.01390    0.95450    1.000
    H33      H        0.17130    0.02000    0.95370    1.000
    C51      C        0.26190    0.05910    0.95240    1.000
    H34      H        0.24040    0.09530    0.94350    1.000
    C52      C        0.83630    0.55100    0.96340    1.000
    C53      C        0.86290    0.49690    0.96800    1.000
    H35      H        0.91220    0.48970    0.97170    1.000
    C54      C        0.31510    0.95370    0.96680    1.000
    H36      H        0.33360    0.91680    0.97280    1.000
    O5       O        0.06640    0.94640    0.80800    1.000
    O6       O        0.04840    0.94520    0.84580    1.000
    Cd4      Cd       0.66747    0.39061    0.95482    1.000
    C55      C        0.73730    0.27330    0.57110    1.000
    N28      N        0.69370    0.29140    0.46510    1.000
    N29      N        0.79250    0.23350    0.61110    1.000
    N30      N        0.69130    0.34750    0.81470    1.000
    C56      C        0.66010    0.37010    0.71380    1.000
    H37      H        0.62850    0.40260    0.69660    1.000
    C57      C        0.67340    0.34620    0.62890    1.000
    H38      H        0.64980    0.36220    0.55570    1.000
    C58      C        0.72170    0.29900    0.65640    1.000
    C59      C        0.75520    0.27840    0.76510    1.000
    H39      H        0.79000    0.24730    0.78850    1.000
    C60      C        0.73740    0.30360    0.83870    1.000
    H40      H        0.76010    0.28820    0.91230    1.000
    N31      N        0.45200    0.08770    0.96820    1.000
    N32      N        0.49650    0.13040    0.97400    1.000
    C61      C        0.46960    0.18120    0.98130    1.000
    N33      N        0.40770    0.19050    0.99310    1.000
    N34      N        0.36400    0.14740    0.98820    1.000
    C62      C        0.38600    0.09810    0.97200    1.000
    N35      N        0.59940    0.31840    0.96810    1.000
    C63      C        0.56250    0.31990    0.02630    1.000
    H41      H        0.56550    0.35340    0.06410    1.000
    C64      C        0.52090    0.27750    0.03640    1.000
    H42      H        0.49590    0.28130    0.07960    1.000
    C65      C        0.51630    0.22800    0.98040    1.000
    C66      C        0.55280    0.22580    0.91760    1.000
    H43      H        0.54940    0.19330    0.87700    1.000
    C67      C        0.59410    0.27090    0.91400    1.000
    H44      H        0.61990    0.26850    0.87170    1.000
    N36      N        0.74370    0.46250    0.95750    1.000
    C68      C        0.71980    0.51390    0.95450    1.000
    H45      H        0.67130    0.52000    0.95370    1.000
    C69      C        0.76190    0.55910    0.95240    1.000
    H46      H        0.74040    0.59530    0.94350    1.000
    C70      C        0.33630    0.05100    0.96340    1.000
    C71      C        0.36290    0.99690    0.96800    1.000
    H47      H        0.41220    0.98970    0.97170    1.000
    C72      C        0.81510    0.45370    0.96680    1.000
    H48      H        0.83360    0.41680    0.97280    1.000
    O7       O        0.56640    0.44640    0.80800    1.000
    O8       O        0.54840    0.44520    0.84580    1.000
    Cd5      Cd       0.16747    0.10939    0.45482    1.000
    C73      C        0.23730    0.22670    0.07110    1.000
    N37      N        0.19370    0.20860    0.96510    1.000
    N38      N        0.29250    0.26650    0.11110    1.000
    N39      N        0.19130    0.15250    0.31470    1.000
    C74      C        0.16010    0.12990    0.21380    1.000
    H49      H        0.12850    0.09740    0.19660    1.000
    C75      C        0.17340    0.15380    0.12890    1.000
    H50      H        0.14980    0.13780    0.05570    1.000
    C76      C        0.22170    0.20100    0.15640    1.000
    C77      C        0.25520    0.22160    0.26510    1.000
    H51      H        0.29000    0.25270    0.28850    1.000
    C78      C        0.23740    0.19640    0.33870    1.000
    H52      H        0.26010    0.21180    0.41230    1.000
    N40      N        0.95200    0.41230    0.46820    1.000
    N41      N        0.99650    0.36960    0.47400    1.000
    C79      C        0.96960    0.31880    0.48130    1.000
    N42      N        0.90770    0.30950    0.49310    1.000
    N43      N        0.86400    0.35260    0.48820    1.000
    C80      C        0.88600    0.40190    0.47200    1.000
    N44      N        0.09940    0.18160    0.46810    1.000
    C81      C        0.06250    0.18010    0.52630    1.000
    H53      H        0.06550    0.14660    0.56410    1.000
    C82      C        0.02090    0.22250    0.53640    1.000
    H54      H        0.99590    0.21870    0.57960    1.000
    C83      C        0.01630    0.27200    0.48040    1.000
    C84      C        0.05280    0.27420    0.41760    1.000
    H55      H        0.04940    0.30670    0.37700    1.000
    C85      C        0.09410    0.22910    0.41400    1.000
    H56      H        0.11990    0.23150    0.37170    1.000
    N45      N        0.24370    0.03750    0.45750    1.000
    C86      C        0.21980    0.98610    0.45450    1.000
    H57      H        0.17130    0.98000    0.45370    1.000
    C87      C        0.26190    0.94090    0.45240    1.000
    H58      H        0.24040    0.90470    0.44350    1.000
    C88      C        0.83630    0.44900    0.46340    1.000
    C89      C        0.86290    0.50310    0.46800    1.000
    H59      H        0.91220    0.51030    0.47170    1.000
    C90      C        0.31510    0.04630    0.46680    1.000
    H60      H        0.33360    0.08320    0.47280    1.000
    O9       O        0.06640    0.05360    0.30800    1.000
    O10      O        0.04840    0.05480    0.34580    1.000
    Cd6      Cd       0.66747    0.60939    0.45482    1.000
    C91      C        0.73730    0.72670    0.07110    1.000
    N46      N        0.69370    0.70860    0.96510    1.000
    N47      N        0.79250    0.76650    0.11110    1.000
    N48      N        0.69130    0.65250    0.31470    1.000
    C92      C        0.66010    0.62990    0.21380    1.000
    H61      H        0.62850    0.59740    0.19660    1.000
    C93      C        0.67340    0.65380    0.12890    1.000
    H62      H        0.64980    0.63780    0.05570    1.000
    C94      C        0.72170    0.70100    0.15640    1.000
    C95      C        0.75520    0.72160    0.26510    1.000
    H63      H        0.79000    0.75270    0.28850    1.000
    C96      C        0.73740    0.69640    0.33870    1.000
    H64      H        0.76010    0.71180    0.41230    1.000
    N49      N        0.45200    0.91230    0.46820    1.000
    N50      N        0.49650    0.86960    0.47400    1.000
    C97      C        0.46960    0.81880    0.48130    1.000
    N51      N        0.40770    0.80950    0.49310    1.000
    N52      N        0.36400    0.85260    0.48820    1.000
    C98      C        0.38600    0.90190    0.47200    1.000
    N53      N        0.59940    0.68160    0.46810    1.000
    C99      C        0.56250    0.68010    0.52630    1.000
    H65      H        0.56550    0.64660    0.56410    1.000
    C100     C        0.52090    0.72250    0.53640    1.000
    H66      H        0.49590    0.71870    0.57960    1.000
    C101     C        0.51630    0.77200    0.48040    1.000
    C102     C        0.55280    0.77420    0.41760    1.000
    H67      H        0.54940    0.80670    0.37700    1.000
    C103     C        0.59410    0.72910    0.41400    1.000
    H68      H        0.61990    0.73150    0.37170    1.000
    N54      N        0.74370    0.53750    0.45750    1.000
    C104     C        0.71980    0.48610    0.45450    1.000
    H69      H        0.67130    0.48000    0.45370    1.000
    C105     C        0.76190    0.44090    0.45240    1.000
    H70      H        0.74040    0.40470    0.44350    1.000
    C106     C        0.33630    0.94900    0.46340    1.000
    C107     C        0.36290    0.00310    0.46800    1.000
    H71      H        0.41220    0.01030    0.47170    1.000
    C108     C        0.81510    0.54630    0.46680    1.000
    H72      H        0.83360    0.58320    0.47280    1.000
    O11      O        0.56640    0.55360    0.30800    1.000
    O12      O        0.54840    0.55480    0.34580    1.000
    Cd7      Cd       0.83253    0.10939    0.04518    1.000
    C109     C        0.76270    0.22670    0.42890    1.000
    N55      N        0.80630    0.20860    0.53490    1.000
    N56      N        0.70750    0.26650    0.38890    1.000
    N57      N        0.80870    0.15250    0.18530    1.000
    C110     C        0.83990    0.12990    0.28620    1.000
    H73      H        0.87150    0.09740    0.30340    1.000
    C111     C        0.82660    0.15380    0.37110    1.000
    H74      H        0.85020    0.13780    0.44430    1.000
    C112     C        0.77830    0.20100    0.34360    1.000
    C113     C        0.74480    0.22160    0.23490    1.000
    H75      H        0.71000    0.25270    0.21150    1.000
    C114     C        0.76260    0.19640    0.16130    1.000
    H76      H        0.73990    0.21180    0.08770    1.000
    N58      N        0.04800    0.41230    0.03180    1.000
    N59      N        0.00350    0.36960    0.02600    1.000
    C115     C        0.03040    0.31880    0.01870    1.000
    N60      N        0.09230    0.30950    0.00690    1.000
    N61      N        0.13600    0.35260    0.01180    1.000
    C116     C        0.11400    0.40190    0.02800    1.000
    N62      N        0.90060    0.18160    0.03190    1.000
    C117     C        0.93750    0.18010    0.97370    1.000
    H77      H        0.93450    0.14660    0.93590    1.000
    C118     C        0.97910    0.22250    0.96360    1.000
    H78      H        0.00410    0.21870    0.92040    1.000
    C119     C        0.98370    0.27200    0.01960    1.000
    C120     C        0.94720    0.27420    0.08240    1.000
    H79      H        0.95060    0.30670    0.12300    1.000
    C121     C        0.90590    0.22910    0.08600    1.000
    H80      H        0.88010    0.23150    0.12830    1.000
    N63      N        0.75630    0.03750    0.04250    1.000
    C122     C        0.78020    0.98610    0.04550    1.000
    H81      H        0.82870    0.98000    0.04630    1.000
    C123     C        0.73810    0.94090    0.04760    1.000
    H82      H        0.75960    0.90470    0.05650    1.000
    C124     C        0.16370    0.44900    0.03660    1.000
    C125     C        0.13710    0.50310    0.03200    1.000
    H83      H        0.08780    0.51030    0.02830    1.000
    C126     C        0.68490    0.04630    0.03320    1.000
    H84      H        0.66640    0.08320    0.02720    1.000
    O13      O        0.93360    0.05360    0.19200    1.000
    O14      O        0.95160    0.05480    0.15420    1.000
    Cd8      Cd       0.33253    0.60939    0.04518    1.000
    C127     C        0.26270    0.72670    0.42890    1.000
    N64      N        0.30630    0.70860    0.53490    1.000
    N65      N        0.20750    0.76650    0.38890    1.000
    N66      N        0.30870    0.65250    0.18530    1.000
    C128     C        0.33990    0.62990    0.28620    1.000
    H85      H        0.37150    0.59740    0.30340    1.000
    C129     C        0.32660    0.65380    0.37110    1.000
    H86      H        0.35020    0.63780    0.44430    1.000
    C130     C        0.27830    0.70100    0.34360    1.000
    C131     C        0.24480    0.72160    0.23490    1.000
    H87      H        0.21000    0.75270    0.21150    1.000
    C132     C        0.26260    0.69640    0.16130    1.000
    H88      H        0.23990    0.71180    0.08770    1.000
    N67      N        0.54800    0.91230    0.03180    1.000
    N68      N        0.50350    0.86960    0.02600    1.000
    C133     C        0.53040    0.81880    0.01870    1.000
    N69      N        0.59230    0.80950    0.00690    1.000
    N70      N        0.63600    0.85260    0.01180    1.000
    C134     C        0.61400    0.90190    0.02800    1.000
    N71      N        0.40060    0.68160    0.03190    1.000
    C135     C        0.43750    0.68010    0.97370    1.000
    H89      H        0.43450    0.64660    0.93590    1.000
    C136     C        0.47910    0.72250    0.96360    1.000
    H90      H        0.50410    0.71870    0.92040    1.000
    C137     C        0.48370    0.77200    0.01960    1.000
    C138     C        0.44720    0.77420    0.08240    1.000
    H91      H        0.45060    0.80670    0.12300    1.000
    C139     C        0.40590    0.72910    0.08600    1.000
    H92      H        0.38010    0.73150    0.12830    1.000
    N72      N        0.25630    0.53750    0.04250    1.000
    C140     C        0.28020    0.48610    0.04550    1.000
    H93      H        0.32870    0.48000    0.04630    1.000
    C141     C        0.23810    0.44090    0.04760    1.000
    H94      H        0.25960    0.40470    0.05650    1.000
    C142     C        0.66370    0.94900    0.03660    1.000
    C143     C        0.63710    0.00310    0.03200    1.000
    H95      H        0.58780    0.01030    0.02830    1.000
    C144     C        0.18490    0.54630    0.03320    1.000
    H96      H        0.16640    0.58320    0.02720    1.000
    O15      O        0.43360    0.55360    0.19200    1.000
    O16      O        0.45160    0.55480    0.15420    1.000
    N73      N        0.00000    0.92370    0.75000    1.000
    O17      O        0.00000    0.87280    0.75000    1.000
    N74      N        0.50000    0.42370    0.75000    1.000
    O18      O        0.50000    0.37280    0.75000    1.000
    N75      N        0.00000    0.07630    0.25000    1.000
    O19      O        0.00000    0.12720    0.25000    1.000
    N76      N        0.50000    0.57630    0.25000    1.000
    O20      O        0.50000    0.62720    0.25000    1.000
