# CIF file generated by openbabel 3.1.0, see https://openbabel.org
data_I
_chemical_name_common 'image0'
_cell_length_a 11.919
_cell_length_b 14.01
_cell_length_c 14.792
_cell_angle_alpha 118.055
_cell_angle_beta 105.125
_cell_angle_gamma 96.417
_space_group_name_H-M_alt 'P 1'
_space_group_name_Hall 'P 1'
loop_
    _symmetry_equiv_pos_as_xyz
    x,y,z
loop_
    _atom_site_label
    _atom_site_type_symbol
    _atom_site_fract_x
    _atom_site_fract_y
    _atom_site_fract_z
    _atom_site_occupancy
    Si1      Si       0.21250    0.46320    0.91140    1.000
    O1       O        0.61860    0.17790    0.60720    1.000
    O2       O        0.46750    0.21640    0.18590    1.000
    O3       O        0.65910    0.26170    0.51930    1.000
    O4       O        0.38470    0.19580    0.46450    1.000
    O5       O        0.46650    0.36990    0.51900    1.000
    O6       O        0.34790    0.28400    0.27750    1.000
    C1       C        0.04570    0.41950    0.83700    1.000
    C2       C        0.37070    0.48630    0.79970    1.000
    H1       H        0.40500    0.55970    0.85900    1.000
    C3       C        0.25230    0.39140    0.98980    1.000
    C4       C        0.27850    0.41720    0.80130    1.000
    C5       C        0.21880    0.41660    0.07980    1.000
    H2       H        0.16910    0.46420    0.09650    1.000
    C6       C        0.27760    0.61880    0.01150    1.000
    C7       C        0.32560    0.31800    0.96580    1.000
    H3       H        0.34820    0.29820    0.90510    1.000
    C8       C        0.99870    0.44530    0.75540    1.000
    H4       H        0.04760    0.49900    0.75180    1.000
    C9       C        0.27430    0.26750    0.62590    1.000
    H5       H        0.24300    0.19300    0.56840    1.000
    C10      C        0.96550    0.34600    0.84440    1.000
    H6       H        0.99220    0.33060    0.89980    1.000
    C11      C        0.36360    0.33820    0.62530    1.000
    C12      C        0.23050    0.30580    0.71110    1.000
    H7       H        0.16830    0.25720    0.70870    1.000
    C13      C        0.80710    0.31500    0.68780    1.000
    C14      C        0.25750    0.37280    0.14590    1.000
    H8       H        0.23340    0.39070    0.20550    1.000
    C15      C        0.36510    0.27410    0.03160    1.000
    H9       H        0.41380    0.22570    0.01470    1.000
    C16      C        0.84710    0.29470    0.77180    1.000
    H10      H        0.79500    0.24680    0.77950    1.000
    C17      C        0.38510    0.65710    0.09910    1.000
    H11      H        0.42390    0.60570    0.10630    1.000
    C18      C        0.88320    0.39270    0.68210    1.000
    H12      H        0.85530    0.40910    0.62750    1.000
    C19      C        0.41300    0.45100    0.71490    1.000
    H13      H        0.47320    0.50020    0.71600    1.000
    C20      C        0.40880    0.30000    0.53090    1.000
    C21      C        0.22280    0.69830    0.00290    1.000
    H14      H        0.15060    0.67550    0.94560    1.000
    C22      C        0.37920    0.84900    0.16810    1.000
    C23      C        0.43530    0.77140    0.17590    1.000
    H15      H        0.50790    0.79560    0.23340    1.000
    C24      C        0.27560    0.80970    0.07890    1.000
    H16      H        0.23960    0.86180    0.06990    1.000
    C25      C        0.33180    0.30260    0.12270    1.000
    C26      C        0.38440    0.26470    0.19960    1.000
    C27      C        0.68480    0.24650    0.59840    1.000
    O7       O        0.37210    0.04790    0.51450    1.000
    O8       O        0.23750    0.96180    0.33030    1.000
    O9       O        0.24090    0.98460    0.48560    1.000
    N1       N        0.17500    0.96200    0.39130    1.000
    O10      O        0.07100    0.93880    0.36200    1.000
    Eu1      Eu       0.50797    0.22523    0.36162    1.000
    Eu2      Eu       0.44517    0.01800    0.47781    1.000
    O11      O        0.48480    0.01460    0.32790    1.000
    O12      O        0.36830    0.04010    0.20340    1.000
    C28      C        0.41400    0.97390    0.23200    1.000
    C29      C        0.44700    0.96500    0.27600    1.000
    O13      O        0.41150    0.03720    0.26180    1.000
    O14      O        0.52610    0.98590    0.36300    1.000
    Si2      Si       0.78750    0.53680    0.08860    1.000
    O15      O        0.38140    0.82210    0.39280    1.000
    O16      O        0.53250    0.78360    0.81410    1.000
    O17      O        0.34090    0.73830    0.48070    1.000
    O18      O        0.61530    0.80420    0.53550    1.000
    O19      O        0.53350    0.63010    0.48100    1.000
    O20      O        0.65210    0.71600    0.72250    1.000
    C30      C        0.95430    0.58050    0.16300    1.000
    C31      C        0.62930    0.51370    0.20030    1.000
    H17      H        0.59500    0.44030    0.14100    1.000
    C32      C        0.74770    0.60860    0.01020    1.000
    C33      C        0.72150    0.58280    0.19870    1.000
    C34      C        0.78120    0.58340    0.92020    1.000
    H18      H        0.83090    0.53580    0.90350    1.000
    C35      C        0.72240    0.38120    0.98850    1.000
    C36      C        0.67440    0.68200    0.03420    1.000
    H19      H        0.65180    0.70180    0.09490    1.000
    C37      C        0.00130    0.55470    0.24460    1.000
    H20      H        0.95240    0.50100    0.24820    1.000
    C38      C        0.72570    0.73250    0.37410    1.000
    H21      H        0.75700    0.80700    0.43160    1.000
    C39      C        0.03450    0.65400    0.15560    1.000
    H22      H        0.00780    0.66940    0.10020    1.000
    C40      C        0.63640    0.66180    0.37470    1.000
    C41      C        0.76950    0.69420    0.28890    1.000
    H23      H        0.83170    0.74280    0.29130    1.000
    C42      C        0.19290    0.68500    0.31220    1.000
    C43      C        0.74250    0.62720    0.85410    1.000
    H24      H        0.76660    0.60930    0.79450    1.000
    C44      C        0.63490    0.72590    0.96840    1.000
    H25      H        0.58620    0.77430    0.98530    1.000
    C45      C        0.15290    0.70530    0.22820    1.000
    H26      H        0.20500    0.75320    0.22050    1.000
    C46      C        0.61490    0.34290    0.90090    1.000
    H27      H        0.57610    0.39430    0.89370    1.000
    C47      C        0.11680    0.60730    0.31790    1.000
    H28      H        0.14470    0.59090    0.37250    1.000
    C48      C        0.58700    0.54900    0.28510    1.000
    H29      H        0.52680    0.49980    0.28400    1.000
    C49      C        0.59120    0.70000    0.46910    1.000
    C50      C        0.77720    0.30170    0.99710    1.000
    H30      H        0.84940    0.32450    0.05440    1.000
    C51      C        0.62080    0.15100    0.83190    1.000
    C52      C        0.56470    0.22860    0.82410    1.000
    H31      H        0.49210    0.20440    0.76660    1.000
    C53      C        0.72440    0.19030    0.92110    1.000
    H32      H        0.76040    0.13820    0.93010    1.000
    C54      C        0.66820    0.69740    0.87730    1.000
    C55      C        0.61560    0.73530    0.80040    1.000
    C56      C        0.31520    0.75350    0.40160    1.000
    O21      O        0.62790    0.95210    0.48550    1.000
    O22      O        0.76250    0.03820    0.66970    1.000
    O23      O        0.75910    0.01540    0.51440    1.000
    N2       N        0.82500    0.03800    0.60870    1.000
    O24      O        0.92900    0.06120    0.63800    1.000
    Eu3      Eu       0.49203    0.77477    0.63838    1.000
    Eu4      Eu       0.55483    0.98200    0.52219    1.000
    O25      O        0.51520    0.98540    0.67210    1.000
    O26      O        0.63170    0.95990    0.79660    1.000
    C57      C        0.58600    0.02610    0.76800    1.000
    C58      C        0.55300    0.03500    0.72400    1.000
    O27      O        0.58850    0.96280    0.73820    1.000
    O28      O        0.47390    0.01410    0.63700    1.000
