# CIF file generated by openbabel 3.1.0, see https://openbabel.org
data_I
_chemical_name_common 'image0'
_cell_length_a 14.867
_cell_length_b 32.323
_cell_length_c 9.1792
_cell_angle_alpha 90
_cell_angle_beta 104.26
_cell_angle_gamma 90
_space_group_name_H-M_alt 'P 1'
_space_group_name_Hall 'P 1'
loop_
    _symmetry_equiv_pos_as_xyz
    x,y,z
loop_
    _atom_site_label
    _atom_site_type_symbol
    _atom_site_fract_x
    _atom_site_fract_y
    _atom_site_fract_z
    _atom_site_occupancy
    Co1      Co       0.19346    0.12484    0.38181    1.000
    C1       C        0.32410    0.16750    0.20900    1.000
    H1       H        0.36880    0.17340    0.29690    1.000
    C2       C        0.19730    0.14890    0.05480    1.000
    H2       H        0.13710    0.13920    0.01730    1.000
    C3       C        0.25580    0.16140    0.96980    1.000
    H3       H        0.24360    0.16180    0.86550    1.000
    C4       C        0.41520    0.19240    0.03430    1.000
    C5       C        0.40310    0.22110    0.92100    1.000
    H4       H        0.34420    0.22670    0.86090    1.000
    C6       C        0.47970    0.24150    0.89790    1.000
    H5       H        0.47140    0.26070    0.82020    1.000
    C7       C        0.56880    0.23470    0.98560    1.000
    C8       C        0.57860    0.20410    0.09380    1.000
    H6       H        0.63760    0.19810    0.15260    1.000
    C9       C        0.50350    0.18210    0.11770    1.000
    H7       H        0.51210    0.16090    0.18810    1.000
    C10      C        0.64880    0.26090    0.96760    1.000
    C11      C        0.64350    0.30250    0.00600    1.000
    H8       H        0.59330    0.31180    0.04080    1.000
    C12      C        0.71280    0.33030    0.99270    1.000
    C13      C        0.78510    0.31470    0.93560    1.000
    H9       H        0.83160    0.33280    0.92500    1.000
    C14      C        0.79140    0.27320    0.89340    1.000
    C15      C        0.72100    0.24660    0.91290    1.000
    H10      H        0.72310    0.21880    0.88830    1.000
    C16      C        0.86630    0.25830    0.82490    1.000
    C17      C        0.89200    0.21650    0.82760    1.000
    H11      H        0.85990    0.19730    0.87120    1.000
    C18      C        0.96380    0.20250    0.76750    1.000
    H12      H        0.98150    0.17490    0.77600    1.000
    C19      C        0.00800    0.23020    0.69530    1.000
    C20      C        0.98530    0.27190    0.69190    1.000
    H13      H        0.01710    0.29080    0.64650    1.000
    C21      C        0.91560    0.28550    0.75590    1.000
    H14      H        0.90120    0.31350    0.75280    1.000
    C22      C        0.07850    0.18020    0.55120    1.000
    H15      H        0.03230    0.16030    0.54130    1.000
    C23      C        0.19900    0.21250    0.53120    1.000
    H16      H        0.25410    0.21890    0.50570    1.000
    C24      C        0.15550    0.23780    0.60990    1.000
    H17      H        0.17380    0.26410    0.64580    1.000
    C25      C        0.71210    0.37390    0.03670    1.000
    C26      C        0.79550    0.39390    0.10910    1.000
    H18      H        0.85130    0.37940    0.13160    1.000
    C27      C        0.79360    0.43550    0.14640    1.000
    H19      H        0.84880    0.44870    0.19310    1.000
    C28      C        0.71110    0.45790    0.11550    1.000
    C29      C        0.62910    0.43740    0.05100    1.000
    H20      H        0.57290    0.45150    0.03370    1.000
    C30      C        0.63040    0.39610    0.01220    1.000
    H21      H        0.57470    0.38290    0.96840    1.000
    C31      C        0.77350    0.52900    0.13870    1.000
    H22      H        0.82460    0.52320    0.10080    1.000
    C32      C        0.67290    0.55970    0.22770    1.000
    H23      H        0.64110    0.58030    0.26520    1.000
    C33      C        0.64620    0.52000    0.21030    1.000
    H24      H        0.59380    0.50830    0.23190    1.000
    C34      C        0.02530    0.10030    0.28830    1.000
    C35      C        0.92530    0.08910    0.22410    1.000
    C36      C        0.88300    0.09360    0.07300    1.000
    H25      H        0.91650    0.10400    0.00790    1.000
    C37      C        0.79020    0.08260    0.01820    1.000
    H26      H        0.76330    0.08560    0.91600    1.000
    C38      C        0.73730    0.06760    0.10720    1.000
    C39      C        0.77750    0.06390    0.25850    1.000
    H27      H        0.74160    0.05580    0.32330    1.000
    C40      C        0.87340    0.07240    0.31670    1.000
    H28      H        0.90150    0.06670    0.41690    1.000
    C41      C        0.58640    0.07500    0.94900    1.000
    C42      C        0.59500    0.11480    0.90930    1.000
    H29      H        0.64700    0.12990    0.95740    1.000
    C43      C        0.52650    0.13340    0.79670    1.000
    H30      H        0.53300    0.16090    0.77130    1.000
    C44      C        0.44780    0.11110    0.72150    1.000
    C45      C        0.44030    0.07010    0.76300    1.000
    H31      H        0.38880    0.05450    0.71580    1.000
    C46      C        0.51140    0.05190    0.87770    1.000
    H32      H        0.50690    0.02430    0.90410    1.000
    C47      C        0.37510    0.13210    0.59500    1.000
    N1       N        0.24140    0.15270    0.20540    1.000
    N2       N        0.33600    0.17330    0.06960    1.000
    N3       N        0.15180    0.17680    0.49480    1.000
    N4       N        0.07930    0.21650    0.62550    1.000
    N5       N        0.75440    0.56600    0.18210    1.000
    N6       N        0.71090    0.50040    0.15510    1.000
    O1       O        0.06880    0.08710    0.41710    1.000
    O2       O        0.06130    0.12370    0.21340    1.000
    O3       O        0.64850    0.05460    0.06180    1.000
    O4       O        0.40090    0.16270    0.53420    1.000
    O5       O        0.29640    0.11470    0.56880    1.000
    Co2      Co       0.80654    0.62484    0.11819    1.000
    C48      C        0.67590    0.66750    0.29100    1.000
    H33      H        0.63120    0.67340    0.20310    1.000
    C49      C        0.80270    0.64890    0.44520    1.000
    H34      H        0.86290    0.63920    0.48270    1.000
    C50      C        0.74420    0.66140    0.53020    1.000
    H35      H        0.75640    0.66180    0.63450    1.000
    C51      C        0.58480    0.69240    0.46570    1.000
    C52      C        0.59690    0.72110    0.57900    1.000
    H36      H        0.65580    0.72670    0.63910    1.000
    C53      C        0.52030    0.74150    0.60210    1.000
    H37      H        0.52860    0.76070    0.67980    1.000
    C54      C        0.43120    0.73470    0.51440    1.000
    C55      C        0.42140    0.70410    0.40620    1.000
    H38      H        0.36240    0.69810    0.34740    1.000
    C56      C        0.49650    0.68210    0.38230    1.000
    H39      H        0.48790    0.66090    0.31190    1.000
    C57      C        0.35120    0.76090    0.53240    1.000
    C58      C        0.35650    0.80250    0.49400    1.000
    H40      H        0.40670    0.81180    0.45920    1.000
    C59      C        0.28720    0.83030    0.50730    1.000
    C60      C        0.21490    0.81470    0.56440    1.000
    H41      H        0.16840    0.83280    0.57500    1.000
    C61      C        0.20860    0.77320    0.60660    1.000
    C62      C        0.27900    0.74660    0.58710    1.000
    H42      H        0.27690    0.71880    0.61170    1.000
    C63      C        0.13370    0.75830    0.67510    1.000
    C64      C        0.10800    0.71650    0.67240    1.000
    H43      H        0.14010    0.69730    0.62880    1.000
    C65      C        0.03620    0.70250    0.73250    1.000
    H44      H        0.01850    0.67490    0.72400    1.000
    C66      C        0.99200    0.73020    0.80470    1.000
    C67      C        0.01470    0.77190    0.80810    1.000
    H45      H        0.98290    0.79080    0.85350    1.000
    C68      C        0.08440    0.78550    0.74410    1.000
    H46      H        0.09880    0.81350    0.74720    1.000
    C69      C        0.92150    0.68020    0.94880    1.000
    H47      H        0.96770    0.66030    0.95870    1.000
    C70      C        0.80100    0.71250    0.96880    1.000
    H48      H        0.74590    0.71890    0.99430    1.000
    C71      C        0.84450    0.73780    0.89010    1.000
    H49      H        0.82620    0.76410    0.85420    1.000
    C72      C        0.28790    0.87390    0.46330    1.000
    C73      C        0.20450    0.89390    0.39090    1.000
    H50      H        0.14870    0.87940    0.36840    1.000
    C74      C        0.20640    0.93550    0.35360    1.000
    H51      H        0.15120    0.94870    0.30690    1.000
    C75      C        0.28890    0.95790    0.38450    1.000
    C76      C        0.37090    0.93740    0.44900    1.000
    H52      H        0.42710    0.95150    0.46630    1.000
    C77      C        0.36960    0.89610    0.48780    1.000
    H53      H        0.42530    0.88290    0.53160    1.000
    C78      C        0.22650    0.02900    0.36130    1.000
    H54      H        0.17540    0.02320    0.39920    1.000
    C79      C        0.32710    0.05970    0.27230    1.000
    H55      H        0.35890    0.08030    0.23480    1.000
    C80      C        0.35380    0.02000    0.28970    1.000
    H56      H        0.40620    0.00830    0.26810    1.000
    C81      C        0.97470    0.60030    0.21170    1.000
    C82      C        0.07470    0.58910    0.27590    1.000
    C83      C        0.11700    0.59360    0.42700    1.000
    H57      H        0.08350    0.60400    0.49210    1.000
    C84      C        0.20980    0.58260    0.48180    1.000
    H58      H        0.23670    0.58560    0.58400    1.000
    C85      C        0.26270    0.56760    0.39280    1.000
    C86      C        0.22250    0.56390    0.24150    1.000
    H59      H        0.25840    0.55580    0.17670    1.000
    C87      C        0.12660    0.57240    0.18330    1.000
    H60      H        0.09850    0.56670    0.08310    1.000
    C88      C        0.41360    0.57500    0.55100    1.000
    C89      C        0.40500    0.61480    0.59070    1.000
    H61      H        0.35300    0.62990    0.54260    1.000
    C90      C        0.47350    0.63340    0.70330    1.000
    H62      H        0.46700    0.66090    0.72870    1.000
    C91      C        0.55220    0.61110    0.77850    1.000
    C92      C        0.55970    0.57010    0.73700    1.000
    H63      H        0.61120    0.55450    0.78420    1.000
    C93      C        0.48860    0.55190    0.62230    1.000
    H64      H        0.49310    0.52430    0.59590    1.000
    C94      C        0.62490    0.63210    0.90500    1.000
    N7       N        0.75860    0.65270    0.29460    1.000
    N8       N        0.66400    0.67330    0.43040    1.000
    N9       N        0.84820    0.67680    0.00520    1.000
    N10      N        0.92070    0.71650    0.87450    1.000
    N11      N        0.24560    0.06600    0.31790    1.000
    N12      N        0.28910    0.00040    0.34490    1.000
    O6       O        0.93120    0.58710    0.08290    1.000
    O7       O        0.93870    0.62370    0.28660    1.000
    O8       O        0.35150    0.55460    0.43820    1.000
    O9       O        0.59910    0.66270    0.96580    1.000
    O10      O        0.70360    0.61470    0.93120    1.000
    Co3      Co       0.80654    0.87516    0.61819    1.000
    C95      C        0.67590    0.83250    0.79100    1.000
    H65      H        0.63120    0.82660    0.70310    1.000
    C96      C        0.80270    0.85110    0.94520    1.000
    H66      H        0.86290    0.86080    0.98270    1.000
    C97      C        0.74420    0.83860    0.03020    1.000
    H67      H        0.75640    0.83820    0.13450    1.000
    C98      C        0.58480    0.80760    0.96570    1.000
    C99      C        0.59690    0.77890    0.07900    1.000
    H68      H        0.65580    0.77330    0.13910    1.000
    C100     C        0.52030    0.75850    0.10210    1.000
    H69      H        0.52860    0.73930    0.17980    1.000
    C101     C        0.43120    0.76530    0.01440    1.000
    C102     C        0.42140    0.79590    0.90620    1.000
    H70      H        0.36240    0.80190    0.84740    1.000
    C103     C        0.49650    0.81790    0.88230    1.000
    H71      H        0.48790    0.83910    0.81190    1.000
    C104     C        0.35120    0.73910    0.03240    1.000
    C105     C        0.35650    0.69750    0.99400    1.000
    H72      H        0.40670    0.68820    0.95920    1.000
    C106     C        0.28720    0.66970    0.00730    1.000
    C107     C        0.21490    0.68530    0.06440    1.000
    H73      H        0.16840    0.66720    0.07500    1.000
    C108     C        0.20860    0.72680    0.10660    1.000
    C109     C        0.27900    0.75340    0.08710    1.000
    H74      H        0.27690    0.78120    0.11170    1.000
    C110     C        0.13370    0.74170    0.17510    1.000
    C111     C        0.10800    0.78350    0.17240    1.000
    H75      H        0.14010    0.80270    0.12880    1.000
    C112     C        0.03620    0.79750    0.23250    1.000
    H76      H        0.01850    0.82510    0.22400    1.000
    C113     C        0.99200    0.76980    0.30470    1.000
    C114     C        0.01470    0.72810    0.30810    1.000
    H77      H        0.98290    0.70920    0.35350    1.000
    C115     C        0.08440    0.71450    0.24410    1.000
    H78      H        0.09880    0.68650    0.24720    1.000
    C116     C        0.92150    0.81980    0.44880    1.000
    H79      H        0.96770    0.83970    0.45870    1.000
    C117     C        0.80100    0.78750    0.46880    1.000
    H80      H        0.74590    0.78110    0.49430    1.000
    C118     C        0.84450    0.76220    0.39010    1.000
    H81      H        0.82620    0.73590    0.35420    1.000
    C119     C        0.28790    0.62610    0.96330    1.000
    C120     C        0.20450    0.60610    0.89090    1.000
    H82      H        0.14870    0.62060    0.86840    1.000
    C121     C        0.20640    0.56450    0.85360    1.000
    H83      H        0.15120    0.55130    0.80690    1.000
    C122     C        0.28890    0.54210    0.88450    1.000
    C123     C        0.37090    0.56260    0.94900    1.000
    H84      H        0.42710    0.54850    0.96630    1.000
    C124     C        0.36960    0.60390    0.98780    1.000
    H85      H        0.42530    0.61710    0.03160    1.000
    C125     C        0.22650    0.47100    0.86130    1.000
    H86      H        0.17540    0.47680    0.89920    1.000
    C126     C        0.32710    0.44030    0.77230    1.000
    H87      H        0.35890    0.41970    0.73480    1.000
    C127     C        0.35380    0.48000    0.78970    1.000
    H88      H        0.40620    0.49170    0.76810    1.000
    C128     C        0.97470    0.89970    0.71170    1.000
    C129     C        0.07470    0.91090    0.77590    1.000
    C130     C        0.11700    0.90640    0.92700    1.000
    H89      H        0.08350    0.89600    0.99210    1.000
    C131     C        0.20980    0.91740    0.98180    1.000
    H90      H        0.23670    0.91440    0.08400    1.000
    C132     C        0.26270    0.93240    0.89280    1.000
    C133     C        0.22250    0.93610    0.74150    1.000
    H91      H        0.25840    0.94420    0.67670    1.000
    C134     C        0.12660    0.92760    0.68330    1.000
    H92      H        0.09850    0.93330    0.58310    1.000
    C135     C        0.41360    0.92500    0.05100    1.000
    C136     C        0.40500    0.88520    0.09070    1.000
    H93      H        0.35300    0.87010    0.04260    1.000
    C137     C        0.47350    0.86660    0.20330    1.000
    H94      H        0.46700    0.83910    0.22870    1.000
    C138     C        0.55220    0.88890    0.27850    1.000
    C139     C        0.55970    0.92990    0.23700    1.000
    H95      H        0.61120    0.94550    0.28420    1.000
    C140     C        0.48860    0.94810    0.12230    1.000
    H96      H        0.49310    0.97570    0.09590    1.000
    C141     C        0.62490    0.86790    0.40500    1.000
    N13      N        0.75860    0.84730    0.79460    1.000
    N14      N        0.66400    0.82670    0.93040    1.000
    N15      N        0.84820    0.82320    0.50520    1.000
    N16      N        0.92070    0.78350    0.37450    1.000
    N17      N        0.24560    0.43400    0.81790    1.000
    N18      N        0.28910    0.49960    0.84490    1.000
    O11      O        0.93120    0.91290    0.58290    1.000
    O12      O        0.93870    0.87630    0.78660    1.000
    O13      O        0.35150    0.94540    0.93820    1.000
    O14      O        0.59910    0.83730    0.46580    1.000
    O15      O        0.70360    0.88530    0.43120    1.000
    Co4      Co       0.19346    0.37516    0.88181    1.000
    C142     C        0.32410    0.33250    0.70900    1.000
    H97      H        0.36880    0.32660    0.79690    1.000
    C143     C        0.19730    0.35110    0.55480    1.000
    H98      H        0.13710    0.36080    0.51730    1.000
    C144     C        0.25580    0.33860    0.46980    1.000
    H99      H        0.24360    0.33820    0.36550    1.000
    C145     C        0.41520    0.30760    0.53430    1.000
    C146     C        0.40310    0.27890    0.42100    1.000
    H100     H        0.34420    0.27330    0.36090    1.000
    C147     C        0.47970    0.25850    0.39790    1.000
    H101     H        0.47140    0.23930    0.32020    1.000
    C148     C        0.56880    0.26530    0.48560    1.000
    C149     C        0.57860    0.29590    0.59380    1.000
    H102     H        0.63760    0.30190    0.65260    1.000
    C150     C        0.50350    0.31790    0.61770    1.000
    H103     H        0.51210    0.33910    0.68810    1.000
    C151     C        0.64880    0.23910    0.46760    1.000
    C152     C        0.64350    0.19750    0.50600    1.000
    H104     H        0.59330    0.18820    0.54080    1.000
    C153     C        0.71280    0.16970    0.49270    1.000
    C154     C        0.78510    0.18530    0.43560    1.000
    H105     H        0.83160    0.16720    0.42500    1.000
    C155     C        0.79140    0.22680    0.39340    1.000
    C156     C        0.72100    0.25340    0.41290    1.000
    H106     H        0.72310    0.28120    0.38830    1.000
    C157     C        0.86630    0.24170    0.32490    1.000
    C158     C        0.89200    0.28350    0.32760    1.000
    H107     H        0.85990    0.30270    0.37120    1.000
    C159     C        0.96380    0.29750    0.26750    1.000
    H108     H        0.98150    0.32510    0.27600    1.000
    C160     C        0.00800    0.26980    0.19530    1.000
    C161     C        0.98530    0.22810    0.19190    1.000
    H109     H        0.01710    0.20920    0.14650    1.000
    C162     C        0.91560    0.21450    0.25590    1.000
    H110     H        0.90120    0.18650    0.25280    1.000
    C163     C        0.07850    0.31980    0.05120    1.000
    H111     H        0.03230    0.33970    0.04130    1.000
    C164     C        0.19900    0.28750    0.03120    1.000
    H112     H        0.25410    0.28110    0.00570    1.000
    C165     C        0.15550    0.26220    0.10990    1.000
    H113     H        0.17380    0.23590    0.14580    1.000
    C166     C        0.71210    0.12610    0.53670    1.000
    C167     C        0.79550    0.10610    0.60910    1.000
    H114     H        0.85130    0.12060    0.63160    1.000
    C168     C        0.79360    0.06450    0.64640    1.000
    H115     H        0.84880    0.05130    0.69310    1.000
    C169     C        0.71110    0.04210    0.61550    1.000
    C170     C        0.62910    0.06260    0.55100    1.000
    H116     H        0.57290    0.04850    0.53370    1.000
    C171     C        0.63040    0.10390    0.51220    1.000
    H117     H        0.57470    0.11710    0.46840    1.000
    C172     C        0.77350    0.97100    0.63870    1.000
    H118     H        0.82460    0.97680    0.60080    1.000
    C173     C        0.67290    0.94030    0.72770    1.000
    H119     H        0.64110    0.91970    0.76520    1.000
    C174     C        0.64620    0.98000    0.71030    1.000
    H120     H        0.59380    0.99170    0.73190    1.000
    C175     C        0.02530    0.39970    0.78830    1.000
    C176     C        0.92530    0.41090    0.72410    1.000
    C177     C        0.88300    0.40640    0.57300    1.000
    H121     H        0.91650    0.39600    0.50790    1.000
    C178     C        0.79020    0.41740    0.51820    1.000
    H122     H        0.76330    0.41440    0.41600    1.000
    C179     C        0.73730    0.43240    0.60720    1.000
    C180     C        0.77750    0.43610    0.75850    1.000
    H123     H        0.74160    0.44420    0.82330    1.000
    C181     C        0.87340    0.42760    0.81670    1.000
    H124     H        0.90150    0.43330    0.91690    1.000
    C182     C        0.58640    0.42500    0.44900    1.000
    C183     C        0.59500    0.38520    0.40930    1.000
    H125     H        0.64700    0.37010    0.45740    1.000
    C184     C        0.52650    0.36660    0.29670    1.000
    H126     H        0.53300    0.33910    0.27130    1.000
    C185     C        0.44780    0.38890    0.22150    1.000
    C186     C        0.44030    0.42990    0.26300    1.000
    H127     H        0.38880    0.44550    0.21580    1.000
    C187     C        0.51140    0.44810    0.37770    1.000
    H128     H        0.50690    0.47570    0.40410    1.000
    C188     C        0.37510    0.36790    0.09500    1.000
    N19      N        0.24140    0.34730    0.70540    1.000
    N20      N        0.33600    0.32670    0.56960    1.000
    N21      N        0.15180    0.32320    0.99480    1.000
    N22      N        0.07930    0.28350    0.12550    1.000
    N23      N        0.75440    0.93400    0.68210    1.000
    N24      N        0.71090    0.99960    0.65510    1.000
    O16      O        0.06880    0.41290    0.91710    1.000
    O17      O        0.06130    0.37630    0.71340    1.000
    O18      O        0.64850    0.44540    0.56180    1.000
    O19      O        0.40090    0.33730    0.03420    1.000
    O20      O        0.29640    0.38530    0.06880    1.000
