data_functionalizedCrystal
_audit_creation_method	'EQeq! by Chris Wilmer'
_symmetry_space_group_name_H-M	'P1'
_symmetry_Int_Tables_number	1
_symmetry_cell_setting	triclinic
loop_
_symmetry_equiv_pos_as_xyz
  x,y,z
_cell_length_a	17.9491
_cell_length_b	16.9797
_cell_length_c	10.3636
_cell_angle_alpha	90
_cell_angle_beta	90
_cell_angle_gamma	90
loop_
_atom_site_label
_atom_site_type_symbol
_atom_site_fract_x
_atom_site_fract_y
_atom_site_fract_z
_atom_site_charge
Mof_Ga	Ga	0.20212	0.23997	0.08722	4.583
Mof_Ga	Ga	0.39846	0.20173	0.11248	4.254
Mof_Ga	Ga	0.2178	0.41602	0.91274	4.338
Mof_P 	P 	0.32371	0.281	0.88277	1.037
Mof_P 	P 	0.27645	0.06934	0.10647	1.131
Mof_P 	P 	0.07577	0.30446	0.90141	1.02
Mof_F 	F 	0.2984	0.24478	0.1701	-1.469
Mof_F 	F 	0.21266	0.35644	0.0819	-1.448
Mof_O 	O 	0.25468	0.23601	0.9254	-1.185
Mof_O 	O 	0.2107	0.126	0.0918	-1.137
Mof_O 	O 	0.10568	0.24977	0.0062	-1.18
Mof_O 	O 	0.34768	0.25254	0.7493	-1.114
Mof_O 	O 	0.3915	0.26793	0.9717	-1.1
Mof_O 	O 	0.30884	0.37001	0.8814	-1.166
Mof_O 	O 	0.35364	0.10646	0.0805	-1.436
Mof_O 	O 	0.07657	0.25927	0.7733	-1.229
Mof_O 	O 	0.99653	0.33184	0.9343	-1.2
Mof_O 	O 	0.27788	0.03119	0.2414	-1.075
Mof_O 	O 	0.26534	0.0065	0.0024	-1.385
Mof_O 	O 	0.12196	0.38112	0.8858	-1.467
Mof_Ga	Ga	0.29788	0.26003	0.58722	4.695
Mof_Ga	Ga	0.10154	0.29827	0.61248	4.329
Mof_Ga	Ga	0.2822	0.08398	0.41274	3.889
Mof_P 	P 	0.17629	0.219	0.38277	1.03
Mof_P 	P 	0.22355	0.43066	0.60647	1.12
Mof_P 	P 	0.42423	0.19554	0.40141	1.063
Mof_F 	F 	0.2016	0.25522	0.6701	-1.491
Mof_F 	F 	0.28734	0.14356	0.5819	-1.417
Mof_O 	O 	0.24532	0.26399	0.4254	-1.216
Mof_O 	O 	0.2893	0.374	0.5918	-1.115
Mof_O 	O 	0.39432	0.25023	0.5062	-1.125
Mof_O 	O 	0.15232	0.24746	0.2493	-1.116
Mof_O 	O 	0.1085	0.23207	0.4717	-1.183
Mof_O 	O 	0.19116	0.12999	0.3814	-1.136
Mof_O 	O 	0.14636	0.39354	0.5805	-1.438
Mof_O 	O 	0.42343	0.24073	0.2733	-1.18
Mof_O 	O 	0.50347	0.16816	0.4343	-1.34
Mof_O 	O 	0.22212	0.46881	0.7414	-1.077
Mof_O 	O 	0.23466	0.4935	0.5024	-1.187
Mof_O 	O 	0.37804	0.11888	0.3858	-1.419
Mof_Ga	Ga	0.79788	0.23997	0.41278	4.709
Mof_Ga	Ga	0.60154	0.20173	0.38752	4.35
Mof_Ga	Ga	0.7822	0.41602	0.58726	4.189
Mof_P 	P 	0.67629	0.281	0.61723	1.042
Mof_P 	P 	0.72355	0.06934	0.39353	1.128
Mof_P 	P 	0.92423	0.30446	0.59859	1.181
Mof_F 	F 	0.7016	0.24478	0.3299	-1.486
Mof_F 	F 	0.78734	0.35644	0.4181	-1.421
Mof_O 	O 	0.74532	0.23601	0.5746	-1.233
Mof_O 	O 	0.7893	0.126	0.4082	-1.119
Mof_O 	O 	0.89432	0.24977	0.4938	-1.119
Mof_O 	O 	0.65232	0.25254	0.7507	-1.131
Mof_O 	O 	0.6085	0.26793	0.5283	-1.152
Mof_O 	O 	0.69116	0.37001	0.6186	-1.157
Mof_O 	O 	0.64636	0.10646	0.4195	-1.452
Mof_O 	O 	0.92343	0.25927	0.7267	-1.205
Mof_O 	O 	0.00347	0.33184	0.5657	-1.438
Mof_O 	O 	0.72212	0.03119	0.2586	-1.051
Mof_O 	O 	0.73466	0.0065	0.4976	-1.314
Mof_O 	O 	0.87804	0.38112	0.6142	-1.444
Mof_Ga	Ga	0.70212	0.26003	0.91278	4.788
Mof_Ga	Ga	0.89846	0.29827	0.88752	4.526
Mof_Ga	Ga	0.7178	0.08398	0.08726	3.75
Mof_P 	P 	0.82371	0.219	0.11723	1.038
Mof_P 	P 	0.77645	0.43066	0.89353	1.122
Mof_P 	P 	0.57577	0.19554	0.09859	1.022
Mof_F 	F 	0.7984	0.25522	0.8299	-1.51
Mof_F 	F 	0.71266	0.14356	0.9181	-1.387
Mof_O 	O 	0.75468	0.26399	0.0746	-1.26
Mof_O 	O 	0.7107	0.374	0.9082	-1.118
Mof_O 	O 	0.60568	0.25023	0.9938	-1.094
Mof_O 	O 	0.84768	0.24746	0.2507	-1.099
Mof_O 	O 	0.8915	0.23207	0.0283	-1.193
Mof_O 	O 	0.80884	0.12999	0.1186	-1.1
Mof_O 	O 	0.85364	0.39354	0.9195	-1.416
Mof_O 	O 	0.57657	0.24073	0.2267	-1.193
Mof_O 	O 	0.49653	0.16816	0.0657	-1.319
Mof_O 	O 	0.77788	0.46881	0.7586	-1.048
Mof_O 	O 	0.76534	0.4935	0.9976	-1.122
Mof_O 	O 	0.62196	0.11888	0.1142	-1.392
Mof_Ga	Ga	0.79788	0.76003	0.91278	4.804
Mof_Ga	Ga	0.60154	0.79827	0.88752	4.508
Mof_Ga	Ga	0.7822	0.58398	0.08726	4.04
Mof_P 	P 	0.67629	0.719	0.11723	1.044
Mof_P 	P 	0.72355	0.93066	0.89353	1.11
Mof_P 	P 	0.92423	0.69554	0.09859	1.138
Mof_F 	F 	0.7016	0.75522	0.8299	-1.512
Mof_F 	F 	0.78734	0.64356	0.9181	-1.393
Mof_O 	O 	0.74532	0.76399	0.0746	-1.262
Mof_O 	O 	0.7893	0.874	0.9082	-1.095
Mof_O 	O 	0.89432	0.75023	0.9938	-1.074
Mof_O 	O 	0.65232	0.74746	0.2507	-1.109
Mof_O 	O 	0.6085	0.73207	0.0283	-1.205
Mof_O 	O 	0.69116	0.62999	0.1186	-1.145
Mof_O 	O 	0.64636	0.89354	0.9195	-1.411
Mof_O 	O 	0.92343	0.74073	0.2267	-1.172
Mof_O 	O 	0.00347	0.66816	0.0657	-1.414
Mof_O 	O 	0.72212	0.96881	0.7586	-1.036
Mof_O 	O 	0.73466	0.9935	0.9976	-0.989
Mof_O 	O 	0.87804	0.61888	0.1142	-1.41
Mof_Ga	Ga	0.70212	0.73997	0.41278	4.709
Mof_Ga	Ga	0.89846	0.70173	0.38752	4.421
Mof_Ga	Ga	0.7178	0.91602	0.58726	4.441
Mof_P 	P 	0.82371	0.781	0.61723	1.05
Mof_P 	P 	0.77645	0.56934	0.39353	1.121
Mof_P 	P 	0.57577	0.80446	0.59859	1.091
Mof_F 	F 	0.7984	0.74478	0.3299	-1.491
Mof_F 	F 	0.71266	0.85644	0.4181	-1.426
Mof_O 	O 	0.75468	0.73601	0.5746	-1.235
Mof_O 	O 	0.7107	0.626	0.4082	-1.118
Mof_O 	O 	0.60568	0.74977	0.4938	-1.132
Mof_O 	O 	0.84768	0.75254	0.7507	-1.103
Mof_O 	O 	0.8915	0.76793	0.5283	-1.123
Mof_O 	O 	0.80884	0.87001	0.6186	-1.167
Mof_O 	O 	0.85364	0.60646	0.4195	-1.425
Mof_O 	O 	0.57657	0.75927	0.7267	-1.224
Mof_O 	O 	0.49653	0.83184	0.5657	-1.321
Mof_O 	O 	0.77788	0.53119	0.2586	-1.038
Mof_O 	O 	0.76534	0.5065	0.4976	-1.185
Mof_O 	O 	0.62196	0.88112	0.6142	-1.487
Mof_Ga	Ga	0.20212	0.76003	0.58722	4.694
Mof_Ga	Ga	0.39846	0.79827	0.61248	4.393
Mof_Ga	Ga	0.2178	0.58398	0.41274	4.148
Mof_P 	P 	0.32371	0.719	0.38277	1.038
Mof_P 	P 	0.27645	0.93066	0.60647	1.113
Mof_P 	P 	0.07577	0.69554	0.40141	0.975
Mof_F 	F 	0.2984	0.75522	0.6701	-1.495
Mof_F 	F 	0.21266	0.64356	0.5819	-1.42
Mof_O 	O 	0.25468	0.76399	0.4254	-1.218
Mof_O 	O 	0.2107	0.874	0.5918	-1.114
Mof_O 	O 	0.10568	0.75023	0.5062	-1.137
Mof_O 	O 	0.34768	0.74746	0.2493	-1.092
Mof_O 	O 	0.3915	0.73207	0.4717	-1.154
Mof_O 	O 	0.30884	0.62999	0.3814	-1.147
Mof_O 	O 	0.35364	0.89354	0.5805	-1.419
Mof_O 	O 	0.07657	0.74073	0.2733	-1.202
Mof_O 	O 	0.99653	0.66816	0.4343	-1.211
Mof_O 	O 	0.27788	0.96881	0.7414	-1.065
Mof_O 	O 	0.26534	0.9935	0.5024	-1.059
Mof_O 	O 	0.12196	0.61888	0.3858	-1.454
Mof_Ga	Ga	0.29788	0.73997	0.08722	4.615
Mof_Ga	Ga	0.10154	0.70173	0.11248	4.26
Mof_Ga	Ga	0.2822	0.91602	0.91274	4.609
Mof_P 	P 	0.17629	0.781	0.88277	1.045
Mof_P 	P 	0.22355	0.56934	0.10647	1.121
Mof_P 	P 	0.42423	0.80446	0.90141	1.129
Mof_F 	F 	0.2016	0.74478	0.1701	-1.474
Mof_F 	F 	0.28734	0.85644	0.0819	-1.451
Mof_O 	O 	0.24532	0.73601	0.9254	-1.194
Mof_O 	O 	0.2893	0.626	0.0918	-1.115
Mof_O 	O 	0.39432	0.74977	0.0062	-1.157
Mof_O 	O 	0.15232	0.75254	0.7493	-1.123
Mof_O 	O 	0.1085	0.76793	0.9717	-1.12
Mof_O 	O 	0.19116	0.87001	0.8814	-1.21
Mof_O 	O 	0.14636	0.60646	0.0805	-1.426
Mof_O 	O 	0.42343	0.75927	0.7733	-1.207
Mof_O 	O 	0.50347	0.83184	0.9343	-1.304
Mof_O 	O 	0.22212	0.53119	0.2414	-1.061
Mof_O 	O 	0.23466	0.5065	0.0024	-1.249
Mof_O 	O 	0.37804	0.88112	0.8858	-1.492
Mof_Rb	Rb	0.5	0	0.5	2.04
Mof_Rb	Rb	-3.99611e-33	0.5	-0	1.73
Mof_Rb	Rb	0.5	0	-0	1.774
Mof_Rb	Rb	-2.91368e-33	0.5	0.5	1.981
_end
