data_functionalizedCrystal
_audit_creation_method	'EQeq! by Chris Wilmer'
_symmetry_space_group_name_H-M	'P1'
_symmetry_Int_Tables_number	1
_symmetry_cell_setting	triclinic
loop_
_symmetry_equiv_pos_as_xyz
  x,y,z
_cell_length_a	10.5751
_cell_length_b	10.5751
_cell_length_c	14.8013
_cell_angle_alpha	90.607
_cell_angle_beta	90.607
_cell_angle_gamma	105.773
loop_
_atom_site_label
_atom_site_type_symbol
_atom_site_fract_x
_atom_site_fract_y
_atom_site_fract_z
_atom_site_charge
Mof_Eu	Eu	0.57287	0.67571	0.55728	2.116
Mof_Eu	Eu	0.82429	0.92713	0.94272	2.089
Mof_Eu	Eu	0.42713	0.32429	0.44272	2.116
Mof_Eu	Eu	0.17571	0.07287	0.05728	2.089
Mof_H 	H 	0.3265	0.9605	0.3401	0.072
Mof_H 	H 	0.199	0.8438	0.3313	0.09
Mof_H 	H 	0.3228	0.6128	0.2485	0.135
Mof_H 	H 	0.2067	0.6409	0.3023	0.129
Mof_H 	H 	0.7859	0.5581	0.287	0.121
Mof_H 	H 	0.6425	0.5539	0.256	0.126
Mof_H 	H 	0.5395	0.1735	0.1599	0.069
Mof_H 	H 	0.6562	0.301	0.1687	0.088
Mof_H 	H 	0.8872	0.1772	0.2515	0.136
Mof_H 	H 	0.8591	0.2933	0.1977	0.131
Mof_H 	H 	0.9419	0.7141	0.213	0.121
Mof_H 	H 	0.9461	0.8575	0.244	0.127
Mof_H 	H 	0.6735	0.0395	0.6599	0.071
Mof_H 	H 	0.801	0.1562	0.6687	0.089
Mof_H 	H 	0.6772	0.3872	0.7515	0.135
Mof_H 	H 	0.7933	0.3591	0.6977	0.129
Mof_H 	H 	0.2141	0.4419	0.713	0.121
Mof_H 	H 	0.3575	0.4461	0.744	0.126
Mof_H 	H 	0.4605	0.8265	0.8401	0.069
Mof_H 	H 	0.3438	0.699	0.8313	0.088
Mof_H 	H 	0.1128	0.8228	0.7485	0.136
Mof_H 	H 	0.1409	0.7067	0.8023	0.131
Mof_H 	H 	0.0581	0.2859	0.787	0.121
Mof_H 	H 	0.0539	0.1425	0.756	0.127
Mof_C 	C 	0.4862	0.8444	0.2691	0.16
Mof_C 	C 	0.2792	0.8886	0.3009	-0.219
Mof_C 	C 	0.2427	0.9459	0.2138	0.348
Mof_C 	C 	0.3015	0.6583	0.301	-0.332
Mof_C 	C 	0.3463	0.5999	0.3856	0.537
Mof_C 	C 	0.7185	0.6045	0.2903	-0.31
Mof_C 	C 	0.6805	0.6145	0.3887	0.488
Mof_C 	C 	0.6556	0.0138	0.2309	0.153
Mof_C 	C 	0.6114	0.2208	0.1991	-0.217
Mof_C 	C 	0.5541	0.2573	0.2862	0.341
Mof_C 	C 	0.8417	0.1985	0.199	-0.335
Mof_C 	C 	0.9001	0.1537	0.1144	0.54
Mof_C 	C 	0.8955	0.7815	0.2097	-0.309
Mof_C 	C 	0.8855	0.8195	0.1113	0.486
Mof_C 	C 	0.5138	0.1556	0.7309	0.16
Mof_C 	C 	0.7208	0.1114	0.6991	-0.219
Mof_C 	C 	0.7573	0.0541	0.7862	0.348
Mof_C 	C 	0.6985	0.3417	0.699	-0.332
Mof_C 	C 	0.6537	0.4001	0.6144	0.537
Mof_C 	C 	0.2815	0.3955	0.7097	-0.31
Mof_C 	C 	0.3195	0.3855	0.6113	0.488
Mof_C 	C 	0.3444	0.9862	0.7691	0.153
Mof_C 	C 	0.3886	0.7792	0.8009	-0.217
Mof_C 	C 	0.4459	0.7427	0.7138	0.341
Mof_C 	C 	0.1583	0.8015	0.801	-0.335
Mof_C 	C 	0.0999	0.8463	0.8856	0.54
Mof_C 	C 	0.1045	0.2185	0.7903	-0.309
Mof_C 	C 	0.1145	0.1805	0.8887	0.486
Mof_C 	C 	0.6857	0.8143	0.25	0.159
Mof_C 	C 	0.3143	0.1857	0.75	0.159
Mof_N 	N 	0.5588	0.7596	0.2692	-0.171
Mof_N 	N 	0.358	0.7984	0.2897	-0.06
Mof_N 	N 	0.7404	0.9412	0.2308	-0.167
Mof_N 	N 	0.7016	0.142	0.2103	-0.059
Mof_N 	N 	0.4412	0.2404	0.7308	-0.171
Mof_N 	N 	0.642	0.2016	0.7103	-0.06
Mof_N 	N 	0.2596	0.0588	0.7692	-0.167
Mof_N 	N 	0.2984	0.858	0.7897	-0.059
Mof_N 	N 	0.5279	0.9721	0.25	-0.169
Mof_N 	N 	0.7671	0.7329	0.25	-0.049
Mof_N 	N 	0.4721	0.0279	0.75	-0.169
Mof_N 	N 	0.2329	0.2671	0.75	-0.049
Mof_O 	O 	0.205	0.0508	0.2199	-0.491
Mof_O 	O 	0.2505	0.8945	0.1377	-0.427
Mof_O 	O 	0.3173	0.4755	0.3847	-0.558
Mof_O 	O 	0.407	0.6764	0.4458	-0.548
Mof_O 	O 	0.5901	0.5229	0.421	-0.651
Mof_O 	O 	0.7378	0.7134	0.4353	-0.516
Mof_O 	O 	0.4492	0.295	0.2801	-0.487
Mof_O 	O 	0.6055	0.2495	0.3623	-0.43
Mof_O 	O 	0.0245	0.1827	0.1153	-0.561
Mof_O 	O 	0.8236	0.093	0.0542	-0.548
Mof_O 	O 	0.9771	0.9099	0.079	-0.639
Mof_O 	O 	0.7866	0.7622	0.0647	-0.508
Mof_O 	O 	0.795	0.9492	0.7801	-0.491
Mof_O 	O 	0.7495	0.1055	0.8623	-0.427
Mof_O 	O 	0.6827	0.5245	0.6153	-0.558
Mof_O 	O 	0.593	0.3236	0.5542	-0.548
Mof_O 	O 	0.4099	0.4771	0.579	-0.651
Mof_O 	O 	0.2622	0.2866	0.5647	-0.516
Mof_O 	O 	0.5508	0.705	0.7199	-0.487
Mof_O 	O 	0.3945	0.7505	0.6377	-0.43
Mof_O 	O 	0.9755	0.8173	0.8847	-0.561
Mof_O 	O 	0.1764	0.907	0.9458	-0.548
Mof_O 	O 	0.0229	0.0901	0.921	-0.639
Mof_O 	O 	0.2134	0.2378	0.9353	-0.508
_end
