# CIF file generated by openbabel 3.1.0, see https://openbabel.org
data_I
_chemical_name_common 'CAYMIZ_clean'
_cell_length_a 8.806
_cell_length_b 15.6031
_cell_length_c 19.2382
_cell_angle_alpha 67.852
_cell_angle_beta 76.7696
_cell_angle_gamma 73.6092
_space_group_name_H-M_alt 'P 1'
_space_group_name_Hall 'P 1'
loop_
    _symmetry_equiv_pos_as_xyz
    x,y,z
loop_
    _atom_site_label
    _atom_site_type_symbol
    _atom_site_fract_x
    _atom_site_fract_y
    _atom_site_fract_z
    _atom_site_occupancy
    Gd1      Gd       0.90772    0.72371    0.78112    1.000
    Gd2      Gd       0.41255    0.77629    0.71888    1.000
    Gd3      Gd       0.09228    0.27629    0.21888    1.000
    Gd4      Gd       0.58745    0.22371    0.28112    1.000
    H1       H        0.93380    0.43820    0.73940    1.000
    H2       H        0.95610    0.34930    0.66230    1.000
    H3       H        0.60100    0.54590    0.55310    1.000
    H4       H        0.59130    0.64030    0.62410    1.000
    H5       H        0.03810    0.37740    0.51300    1.000
    H6       H        0.06190    0.30590    0.42370    1.000
    H7       H        0.59290    0.30060    0.47660    1.000
    H8       H        0.56640    0.37440    0.56560    1.000
    H9       H        0.55560    0.44010    0.81270    1.000
    H10      H        0.63660    0.28920    0.80240    1.000
    H11      H        0.24790    0.33920    0.70280    1.000
    H12      H        0.16390    0.48910    0.71530    1.000
    H13      H        0.11140    0.06180    0.76060    1.000
    H14      H        0.96770    0.15070    0.83770    1.000
    H15      H        0.70000    0.95410    0.94690    1.000
    H16      H        0.85570    0.85970    0.87590    1.000
    H17      H        0.92850    0.12260    0.98700    1.000
    H18      H        0.79150    0.19410    0.07630    1.000
    H19      H        0.37010    0.19940    0.02340    1.000
    H20      H        0.50640    0.12560    0.93440    1.000
    H21      H        0.80840    0.05990    0.68730    1.000
    H22      H        0.72820    0.21080    0.69760    1.000
    H23      H        0.28990    0.16080    0.79720    1.000
    H24      H        0.36830    0.01090    0.78470    1.000
    H25      H        0.06620    0.56180    0.26060    1.000
    H26      H        0.04390    0.65070    0.33770    1.000
    H27      H        0.39900    0.45410    0.44690    1.000
    H28      H        0.40870    0.35970    0.37590    1.000
    H29      H        0.96190    0.62260    0.48700    1.000
    H30      H        0.93810    0.69410    0.57630    1.000
    H31      H        0.40710    0.69940    0.52340    1.000
    H32      H        0.43360    0.62560    0.43440    1.000
    H33      H        0.44440    0.55990    0.18730    1.000
    H34      H        0.36340    0.71080    0.19760    1.000
    H35      H        0.75210    0.66080    0.29720    1.000
    H36      H        0.83610    0.51090    0.28470    1.000
    H37      H        0.88860    0.93820    0.23940    1.000
    H38      H        0.03230    0.84930    0.16230    1.000
    H39      H        0.30000    0.04590    0.05310    1.000
    H40      H        0.14430    0.14030    0.12410    1.000
    H41      H        0.07150    0.87740    0.01300    1.000
    H42      H        0.20850    0.80590    0.92370    1.000
    H43      H        0.62990    0.80060    0.97660    1.000
    H44      H        0.49360    0.87440    0.06560    1.000
    H45      H        0.19160    0.94010    0.31270    1.000
    H46      H        0.27180    0.78920    0.30240    1.000
    H47      H        0.71010    0.83920    0.20280    1.000
    H48      H        0.63170    0.98910    0.21530    1.000
    C1       C        0.76654    0.61142    0.73110    1.000
    C2       C        0.76417    0.54969    0.68757    1.000
    C3       C        0.86932    0.46166    0.69990    1.000
    C4       C        0.88068    0.40790    0.65494    1.000
    C5       C        0.78217    0.43934    0.59912    1.000
    C6       C        0.67212    0.52506    0.58950    1.000
    C7       C        0.66467    0.58081    0.63245    1.000
    C8       C        0.79838    0.38601    0.54683    1.000
    C9       C        0.94664    0.36333    0.50499    1.000
    C10      C        0.96070    0.32051    0.45209    1.000
    C11      C        0.82937    0.29848    0.43978    1.000
    C12      C        0.68285    0.31752    0.48318    1.000
    C13      C        0.66718    0.36133    0.53631    1.000
    C14      C        0.84560    0.25764    0.37856    1.000
    C15      C        0.29634    0.57595    0.77297    1.000
    C16      C        0.35133    0.47904    0.76570    1.000
    C17      C        0.49201    0.41940    0.79098    1.000
    C18      C        0.54028    0.32973    0.78471    1.000
    C19      C        0.44874    0.29832    0.75260    1.000
    C20      C        0.30975    0.35910    0.72600    1.000
    C21      C        0.26022    0.44866    0.73290    1.000
    C22      C        0.10906    0.88858    0.76890    1.000
    C23      C        0.00143    0.95031    0.81243    1.000
    C24      C        0.03088    0.03834    0.80010    1.000
    C25      C        0.94352    0.09210    0.84506    1.000
    C26      C        0.82063    0.06066    0.90088    1.000
    C27      C        0.78668    0.97494    0.91050    1.000
    C28      C        0.87793    0.91919    0.86755    1.000
    C29      C        0.73122    0.11399    0.95317    1.000
    C30      C        0.81496    0.13667    0.99501    1.000
    C31      C        0.73330    0.17949    0.04791    1.000
    C32      C        0.56763    0.20152    0.06022    1.000
    C33      C        0.48355    0.18248    0.01682    1.000
    C34      C        0.56482    0.13867    0.96369    1.000
    C35      C        0.48180    0.24236    0.12144    1.000
    C36      C        0.64526    0.92405    0.72703    1.000
    C37      C        0.59607    0.02096    0.73430    1.000
    C38      C        0.70239    0.08060    0.70902    1.000
    C39      C        0.65472    0.17027    0.71529    1.000
    C40      C        0.49966    0.20168    0.74740    1.000
    C41      C        0.39485    0.14090    0.77400    1.000
    C42      C        0.44178    0.05134    0.76710    1.000
    C43      C        0.23346    0.38858    0.26890    1.000
    C44      C        0.23583    0.45031    0.31243    1.000
    C45      C        0.13068    0.53834    0.30010    1.000
    C46      C        0.11932    0.59210    0.34506    1.000
    C47      C        0.21783    0.56066    0.40088    1.000
    C48      C        0.32788    0.47494    0.41050    1.000
    C49      C        0.33533    0.41919    0.36755    1.000
    C50      C        0.20162    0.61399    0.45317    1.000
    C51      C        0.05336    0.63667    0.49501    1.000
    C52      C        0.03930    0.67949    0.54791    1.000
    C53      C        0.17063    0.70152    0.56022    1.000
    C54      C        0.31715    0.68248    0.51682    1.000
    C55      C        0.33282    0.63867    0.46369    1.000
    C56      C        0.15440    0.74236    0.62144    1.000
    C57      C        0.70366    0.42405    0.22703    1.000
    C58      C        0.64867    0.52096    0.23430    1.000
    C59      C        0.50799    0.58060    0.20902    1.000
    C60      C        0.45972    0.67027    0.21529    1.000
    C61      C        0.55126    0.70168    0.24740    1.000
    C62      C        0.69025    0.64090    0.27400    1.000
    C63      C        0.73978    0.55134    0.26710    1.000
    C64      C        0.89094    0.11142    0.23110    1.000
    C65      C        0.99857    0.04969    0.18757    1.000
    C66      C        0.96912    0.96166    0.19990    1.000
    C67      C        0.05648    0.90790    0.15494    1.000
    C68      C        0.17937    0.93934    0.09912    1.000
    C69      C        0.21332    0.02506    0.08950    1.000
    C70      C        0.12207    0.08081    0.13245    1.000
    C71      C        0.26878    0.88601    0.04683    1.000
    C72      C        0.18504    0.86333    0.00499    1.000
    C73      C        0.26670    0.82051    0.95209    1.000
    C74      C        0.43237    0.79848    0.93978    1.000
    C75      C        0.51645    0.81752    0.98318    1.000
    C76      C        0.43518    0.86133    0.03631    1.000
    C77      C        0.51820    0.75764    0.87856    1.000
    C78      C        0.35474    0.07595    0.27297    1.000
    C79      C        0.40393    0.97904    0.26570    1.000
    C80      C        0.29761    0.91940    0.29098    1.000
    C81      C        0.34528    0.82973    0.28471    1.000
    C82      C        0.50034    0.79832    0.25260    1.000
    C83      C        0.60515    0.85910    0.22600    1.000
    C84      C        0.55822    0.94866    0.23290    1.000
    O1       O        0.85635    0.57886    0.78140    1.000
    O2       O        0.68867    0.69685    0.71289    1.000
    O3       O        0.98471    0.23773    0.34483    1.000
    O4       O        0.72096    0.24712    0.36384    1.000
    O5       O        0.14882    0.61028    0.77768    1.000
    O6       O        0.40117    0.61650    0.77332    1.000
    O7       O        0.21661    0.92114    0.71860    1.000
    O8       O        0.09841    0.80315    0.78711    1.000
    O9       O        0.56727    0.26227    0.15517    1.000
    O10      O        0.33192    0.25288    0.13616    1.000
    O11      O        0.53678    0.88972    0.72232    1.000
    O12      O        0.79099    0.88350    0.72668    1.000
    O13      O        0.14365    0.42114    0.21860    1.000
    O14      O        0.31133    0.30315    0.28711    1.000
    O15      O        0.01529    0.76227    0.65517    1.000
    O16      O        0.27904    0.75288    0.63616    1.000
    O17      O        0.85118    0.38972    0.22232    1.000
    O18      O        0.59883    0.38350    0.22668    1.000
    O19      O        0.78339    0.07886    0.28140    1.000
    O20      O        0.90159    0.19685    0.21289    1.000
    O21      O        0.43273    0.73773    0.84483    1.000
    O22      O        0.66808    0.74712    0.86384    1.000
    O23      O        0.46322    0.11028    0.27768    1.000
    O24      O        0.20901    0.11650    0.27332    1.000
