# CIF file generated by openbabel 3.1.0, see https://openbabel.org
data_I
_chemical_name_common 'KECRAL10_clean'
_cell_length_a 8.548
_cell_length_b 8.695
_cell_length_c 11.3792
_cell_angle_alpha 90
_cell_angle_beta 112.061
_cell_angle_gamma 90
_space_group_name_H-M_alt 'P 1'
_space_group_name_Hall 'P 1'
loop_
    _symmetry_equiv_pos_as_xyz
    x,y,z
loop_
    _atom_site_label
    _atom_site_type_symbol
    _atom_site_fract_x
    _atom_site_fract_y
    _atom_site_fract_z
    _atom_site_occupancy
    Cd1      Cd       0.00000    0.00000    0.00000    1.000
    Cd2      Cd       0.16480    0.50000    0.32960    1.000
    Cd3      Cd       0.83250    0.50000    0.66500    1.000
    C1       C        0.10740    0.70580    0.21480    1.000
    C2       C        0.92580    0.82710    0.85160    1.000
    C3       C        0.10740    0.29420    0.21480    1.000
    C4       C        0.92580    0.17290    0.85160    1.000
    C5       C        0.43090    0.50000    0.44980    1.000
    C6       C        0.01890    0.50000    0.44980    1.000
    N1       N        0.07480    0.81050    0.14960    1.000
    N2       N        0.89180    0.72550    0.78360    1.000
    N3       N        0.07480    0.18950    0.14960    1.000
    N4       N        0.89180    0.27450    0.78360    1.000
    N5       N        0.56560    0.50000    0.52360    1.000
    N6       N        0.95800    0.50000    0.52360    1.000
