data_functionalizedCrystal
_audit_creation_method	'EQeq! by Chris Wilmer'
_symmetry_space_group_name_H-M	'P1'
_symmetry_Int_Tables_number	1
_symmetry_cell_setting	triclinic
loop_
_symmetry_equiv_pos_as_xyz
  x,y,z
_cell_length_a	7.7808
_cell_length_b	10.8529
_cell_length_c	15.2752
_cell_angle_alpha	90
_cell_angle_beta	90
_cell_angle_gamma	90
loop_
_atom_site_label
_atom_site_type_symbol
_atom_site_fract_x
_atom_site_fract_y
_atom_site_fract_z
_atom_site_charge
Mof_Mn	Mn	0.98408	0.29866	0.70584	0.885
Mof_Mn	Mn	0.01592	0.79866	0.29416	0.878
Mof_Mn	Mn	0.48408	0.29866	0.79416	0.888
Mof_Mn	Mn	0.51592	0.79866	0.20584	0.885
Mof_H 	H 	0.89	0.9013	0.5733	0.149
Mof_H 	H 	0.8598	0.9773	0.6531	0.154
Mof_H 	H 	0.2011	0.0239	0.5061	0.034
Mof_H 	H 	0.5811	0.0712	0.6814	0.061
Mof_H 	H 	0.6642	0.8683	0.466	0.056
Mof_H 	H 	0.11	0.4013	0.4267	0.153
Mof_H 	H 	0.1402	0.4773	0.3469	0.162
Mof_H 	H 	0.7989	0.5239	0.4939	0.042
Mof_H 	H 	0.4189	0.5712	0.3186	0.072
Mof_H 	H 	0.3358	0.3683	0.534	0.065
Mof_H 	H 	0.39	0.9013	0.9267	0.147
Mof_H 	H 	0.3598	0.9773	0.8469	0.153
Mof_H 	H 	0.7011	0.0239	0.9939	0.037
Mof_H 	H 	0.0811	0.0712	0.8186	0.06
Mof_H 	H 	0.1642	0.8683	0.034	0.058
Mof_H 	H 	0.61	0.4013	0.0733	0.153
Mof_H 	H 	0.6402	0.4773	0.1531	0.162
Mof_H 	H 	0.2989	0.5239	0.0061	0.04
Mof_H 	H 	0.9189	0.5712	0.1814	0.069
Mof_H 	H 	0.8358	0.3683	0.966	0.057
Mof_C 	C 	0.4227	0.9362	0.47418	-0.112
Mof_C 	C 	0.3134	0.00934	0.52426	0.044
Mof_C 	C 	0.3744	0.06051	0.6021	-0.088
Mof_C 	C 	0.5422	0.038	0.62888	-0.055
Mof_C 	C 	0.6528	0.96666	0.57827	0.094
Mof_C 	C 	0.5917	0.91599	0.50059	-0.063
Mof_C 	C 	0.3616	0.88182	0.38892	0.404
Mof_C 	C 	0.2598	0.13999	0.65698	0.348
Mof_C 	C 	0.5773	0.4362	0.52582	-0.076
Mof_C 	C 	0.6866	0.50934	0.47574	0.002
Mof_C 	C 	0.6256	0.56051	0.3979	-0.064
Mof_C 	C 	0.4578	0.538	0.37112	-0.095
Mof_C 	C 	0.3472	0.46666	0.42173	0.129
Mof_C 	C 	0.4083	0.41599	0.49941	-0.089
Mof_C 	C 	0.6384	0.38182	0.61108	0.394
Mof_C 	C 	0.7402	0.63999	0.34302	0.338
Mof_C 	C 	0.9227	0.9362	0.02582	-0.094
Mof_C 	C 	0.8134	0.00934	0.97574	0.029
Mof_C 	C 	0.8744	0.06051	0.8979	-0.089
Mof_C 	C 	0.0422	0.038	0.87112	-0.047
Mof_C 	C 	0.1528	0.96666	0.92173	0.092
Mof_C 	C 	0.0917	0.91599	0.99941	-0.074
Mof_C 	C 	0.8616	0.88182	0.11108	0.399
Mof_C 	C 	0.7598	0.13999	0.84302	0.348
Mof_C 	C 	0.0773	0.4362	0.97418	-0.085
Mof_C 	C 	0.1866	0.50934	0.02426	0.009
Mof_C 	C 	0.1256	0.56051	0.1021	-0.074
Mof_C 	C 	0.9578	0.538	0.12888	-0.083
Mof_C 	C 	0.8472	0.46666	0.07827	0.121
Mof_C 	C 	0.9083	0.41599	0.00059	-0.073
Mof_C 	C 	0.1384	0.38182	0.88892	0.397
Mof_C 	C 	0.2402	0.63999	0.15698	0.341
Mof_N 	N 	0.8228	0.9457	0.60502	-0.305
Mof_N 	N 	0.1772	0.4457	0.39498	-0.313
Mof_N 	N 	0.3228	0.9457	0.89498	-0.304
Mof_N 	N 	0.6772	0.4457	0.10502	-0.311
Mof_O 	O 	0.1158	0.1708	0.62725	-0.38
Mof_O 	O 	0.3096	0.17178	0.73302	-0.387
Mof_O 	O 	0.4744	0.86179	0.33218	-0.424
Mof_O 	O 	0.20454	0.86248	0.3803	-0.418
Mof_O 	O 	0.8842	0.6708	0.37275	-0.379
Mof_O 	O 	0.6904	0.67178	0.26698	-0.386
Mof_O 	O 	0.5256	0.36179	0.66782	-0.421
Mof_O 	O 	0.79546	0.36248	0.6197	-0.412
Mof_O 	O 	0.6158	0.1708	0.87275	-0.382
Mof_O 	O 	0.8096	0.17178	0.76698	-0.388
Mof_O 	O 	0.9744	0.86179	0.16782	-0.419
Mof_O 	O 	0.70454	0.86248	0.1197	-0.415
Mof_O 	O 	0.3842	0.6708	0.12725	-0.383
Mof_O 	O 	0.1904	0.67178	0.23302	-0.388
Mof_O 	O 	0.0256	0.36179	0.83218	-0.42
Mof_O 	O 	0.29546	0.36248	0.8803	-0.413
_end
