data_functionalizedCrystal
_audit_creation_method	'EQeq! by Chris Wilmer'
_symmetry_space_group_name_H-M	'P1'
_symmetry_Int_Tables_number	1
_symmetry_cell_setting	triclinic
loop_
_symmetry_equiv_pos_as_xyz
  x,y,z
_cell_length_a	16.233
_cell_length_b	11.871
_cell_length_c	17.988
_cell_angle_alpha	90
_cell_angle_beta	103.64
_cell_angle_gamma	90
loop_
_atom_site_label
_atom_site_type_symbol
_atom_site_fract_x
_atom_site_fract_y
_atom_site_fract_z
_atom_site_charge
Mof_Mo	Mo	0.71661	0.64115	0.06756	1.073
Mof_Mo	Mo	0.61756	0.76711	0.96696	1.172
Mof_Mo	Mo	0.61104	0.25555	0.92182	1.168
Mof_Mo	Mo	0.7157	0.34802	0.03696	1.067
Mof_Mo	Mo	0.47969	0.64604	0.80501	1.125
Mof_Mo	Mo	0.47646	0.42944	0.7868	1.118
Mof_Mn	Mn	0.87581	0.50267	0.86551	1
Mof_P 	P 	0.62327	0.83688	0.79026	0.565
Mof_P 	P 	0.88887	0.50735	0.05832	0.556
Mof_P 	P 	0.56122	0.20135	0.7372	0.549
Mof_P 	P 	0.67246	0.52452	0.88604	0.589
Mof_O 	O 	0.6997	0.7607	0.7807	-0.183
Mof_O 	O 	0.7396	0.7454	0.992	-0.493
Mof_O 	O 	0.5924	0.6346	0.0243	-0.635
Mof_O 	O 	0.5918	0.3614	0.0012	-0.631
Mof_O 	O 	0.4646	0.5243	0.8751	-0.607
Mof_O 	O 	0.4862	0.2909	0.8625	-0.484
Mof_O 	O 	0.4854	0.1222	0.7347	-0.271
Mof_O 	O 	0.5178	0.5504	0.7323	-0.501
Mof_O 	O 	0.9019	0.5393	0.9821	-0.334
Mof_O 	O 	0.5286	0.3242	0.7221	-0.386
Mof_O 	O 	0.843	0.3937	0.0607	-0.402
Mof_O 	O 	0.7057	0.4798	0.1146	-0.468
Mof_O 	O 	0.8415	0.5996	0.0915	-0.414
Mof_O 	O 	0.6221	0.1961	0.8184	-0.385
Mof_O 	O 	0.5393	0.7751	0.7603	-0.395
Mof_O 	O 	0.6086	0.1691	0.6774	-0.293
Mof_O 	O 	0.6303	0.9433	0.7482	-0.314
Mof_O 	O 	0.6345	0.8625	0.8761	-0.4
Mof_O 	O 	0.977	0.4971	0.1176	-0.272
Mof_O 	O 	0.7396	0.5401	0.8418	-0.317
Mof_O 	O 	0.4919	0.7554	0.9002	-0.479
Mof_O 	O 	0.7118	0.5101	0.9732	-0.421
Mof_O 	O 	0.7342	0.2738	0.9465	-0.505
Mof_O 	O 	0.6154	0.6314	0.8776	-0.422
Mof_O 	O 	0.6144	0.4234	0.8582	-0.422
Mof_Mo	Mo	0.78339	0.14115	0.43244	1.092
Mof_Mo	Mo	0.88244	0.26711	0.53304	1.143
Mof_Mo	Mo	0.88896	0.75555	0.57818	1.16
Mof_Mo	Mo	0.7843	0.84802	0.46304	1.134
Mof_Mo	Mo	0.02031	0.14604	0.69499	1.055
Mof_Mo	Mo	0.02354	0.92944	0.7132	1.118
Mof_Mn	Mn	0.62419	0.00267	0.63449	0.951
Mof_P 	P 	0.87673	0.33688	0.70974	0.564
Mof_P 	P 	0.61113	0.00735	0.44168	0.546
Mof_P 	P 	0.93878	0.70135	0.7628	0.573
Mof_P 	P 	0.82754	0.02452	0.61396	0.569
Mof_O 	O 	0.8003	0.2607	0.7193	-0.186
Mof_O 	O 	0.7604	0.2454	0.508	-0.513
Mof_O 	O 	0.9076	0.1346	0.4757	-0.61
Mof_O 	O 	0.9082	0.8614	0.4988	-0.6
Mof_O 	O 	0.0354	0.0243	0.6249	-0.62
Mof_O 	O 	0.0138	0.7909	0.6375	-0.499
Mof_O 	O 	0.0146	0.6222	0.7653	-0.29
Mof_O 	O 	0.9822	0.0504	0.7677	-0.484
Mof_O 	O 	0.5981	0.0393	0.5179	-0.367
Mof_O 	O 	0.9714	0.8242	0.7779	-0.365
Mof_O 	O 	0.657	0.8937	0.4393	-0.384
Mof_O 	O 	0.7943	0.9798	0.3854	-0.459
Mof_O 	O 	0.6585	0.0996	0.4085	-0.419
Mof_O 	O 	0.8779	0.6961	0.6816	-0.377
Mof_O 	O 	0.9607	0.2751	0.7397	-0.374
Mof_O 	O 	0.8914	0.6691	0.8226	-0.288
Mof_O 	O 	0.8697	0.4433	0.7518	-0.331
Mof_O 	O 	0.8655	0.3625	0.6239	-0.401
Mof_O 	O 	0.523	0.9971	0.3824	-0.263
Mof_O 	O 	0.7604	0.0401	0.6582	-0.318
Mof_O 	O 	0.0081	0.2554	0.5998	-0.493
Mof_O 	O 	0.7882	0.0101	0.5268	-0.457
Mof_O 	O 	0.7658	0.7738	0.5535	-0.521
Mof_O 	O 	0.8846	0.1314	0.6224	-0.408
Mof_O 	O 	0.8856	0.9234	0.6418	-0.394
Mof_Mo	Mo	0.28339	0.35885	0.93244	1.162
Mof_Mo	Mo	0.38244	0.23289	0.03304	1.064
Mof_Mo	Mo	0.38896	0.74445	0.07818	1.103
Mof_Mo	Mo	0.2843	0.65198	0.96304	1.173
Mof_Mo	Mo	0.52031	0.35396	0.19499	1.118
Mof_Mo	Mo	0.52354	0.57056	0.2132	1.12
Mof_Mn	Mn	0.12419	0.49733	0.13449	0.962
Mof_P 	P 	0.37673	0.16312	0.20974	0.564
Mof_P 	P 	0.11113	0.49265	0.94168	0.605
Mof_P 	P 	0.43878	0.79865	0.2628	0.55
Mof_P 	P 	0.32754	0.47548	0.11396	0.59
Mof_O 	O 	0.3003	0.2393	0.2193	-0.191
Mof_O 	O 	0.2604	0.2546	0.008	-0.53
Mof_O 	O 	0.4076	0.3654	0.9757	-0.598
Mof_O 	O 	0.4082	0.6386	0.9988	-0.599
Mof_O 	O 	0.5354	0.4757	0.1249	-0.613
Mof_O 	O 	0.5138	0.7091	0.1375	-0.482
Mof_O 	O 	0.5146	0.8778	0.2653	-0.259
Mof_O 	O 	0.4822	0.4496	0.2677	-0.501
Mof_O 	O 	0.0981	0.4607	0.0179	-0.393
Mof_O 	O 	0.4714	0.6758	0.2779	-0.386
Mof_O 	O 	0.157	0.6063	0.9393	-0.406
Mof_O 	O 	0.2943	0.5202	0.8854	-0.486
Mof_O 	O 	0.1585	0.4004	0.9085	-0.425
Mof_O 	O 	0.3779	0.8039	0.1816	-0.37
Mof_O 	O 	0.4607	0.2249	0.2397	-0.402
Mof_O 	O 	0.3914	0.8309	0.3226	-0.293
Mof_O 	O 	0.3697	0.0567	0.2518	-0.357
Mof_O 	O 	0.3655	0.1375	0.1239	-0.407
Mof_O 	O 	0.023	0.5029	0.8824	-0.303
Mof_O 	O 	0.2604	0.4599	0.1582	-0.316
Mof_O 	O 	0.5081	0.2446	0.0998	-0.485
Mof_O 	O 	0.2882	0.4899	0.0268	-0.471
Mof_O 	O 	0.2658	0.7262	0.0535	-0.533
Mof_O 	O 	0.3846	0.3686	0.1224	-0.419
Mof_O 	O 	0.3856	0.5766	0.1418	-0.424
Mof_Mo	Mo	0.21661	0.85885	0.56756	1.147
Mof_Mo	Mo	0.11756	0.73289	0.46696	1.088
Mof_Mo	Mo	0.11104	0.24445	0.42182	1.107
Mof_Mo	Mo	0.2157	0.15198	0.53696	1.115
Mof_Mo	Mo	0.97969	0.85396	0.30501	1.182
Mof_Mo	Mo	0.97646	0.07056	0.2868	1.099
Mof_Mn	Mn	0.37581	0.99733	0.36551	1.006
Mof_P 	P 	0.12327	0.66312	0.29026	0.565
Mof_P 	P 	0.38887	0.99265	0.55832	0.622
Mof_P 	P 	0.06122	0.29865	0.2372	0.531
Mof_P 	P 	0.17246	0.97548	0.38604	0.609
Mof_O 	O 	0.1997	0.7393	0.2807	-0.187
Mof_O 	O 	0.2396	0.7546	0.492	-0.514
Mof_O 	O 	0.0924	0.8654	0.5243	-0.612
Mof_O 	O 	0.0918	0.1386	0.5012	-0.619
Mof_O 	O 	0.9646	0.9757	0.3751	-0.585
Mof_O 	O 	0.9862	0.2091	0.3625	-0.465
Mof_O 	O 	0.9854	0.3778	0.2347	-0.247
Mof_O 	O 	0.0178	0.9496	0.2323	-0.51
Mof_O 	O 	0.4019	0.9607	0.4821	-0.368
Mof_O 	O 	0.0286	0.1758	0.2221	-0.401
Mof_O 	O 	0.343	0.1063	0.5607	-0.423
Mof_O 	O 	0.2057	0.0202	0.6146	-0.494
Mof_O 	O 	0.3415	0.9004	0.5915	-0.419
Mof_O 	O 	0.1221	0.3039	0.3184	-0.377
Mof_O 	O 	0.0393	0.7249	0.2603	-0.419
Mof_O 	O 	0.1086	0.3309	0.1774	-0.297
Mof_O 	O 	0.1303	0.5567	0.2482	-0.339
Mof_O 	O 	0.1345	0.6375	0.3761	-0.405
Mof_O 	O 	0.477	0.0029	0.6176	-0.308
Mof_O 	O 	0.2396	0.9599	0.3418	-0.314
Mof_O 	O 	0.9919	0.7446	0.4002	-0.468
Mof_O 	O 	0.2118	0.9899	0.4732	-0.439
Mof_O 	O 	0.2342	0.2262	0.4465	-0.522
Mof_O 	O 	0.1154	0.8686	0.3776	-0.43
Mof_O 	O 	0.1144	0.0766	0.3582	-0.447
Mof_Mn	Mn	0.5	0.5	-0	1.092
Mof_Mn	Mn	1.68747e-17	7.49387e-33	0.5	1.052
_end
