data_functionalizedCrystal
_audit_creation_method	'EQeq! by Chris Wilmer'
_symmetry_space_group_name_H-M	'P1'
_symmetry_Int_Tables_number	1
_symmetry_cell_setting	triclinic
loop_
_symmetry_equiv_pos_as_xyz
  x,y,z
_cell_length_a	10.116
_cell_length_b	10.818
_cell_length_c	13.731
_cell_angle_alpha	79.143
_cell_angle_beta	78.793
_cell_angle_gamma	86.296
loop_
_atom_site_label
_atom_site_type_symbol
_atom_site_fract_x
_atom_site_fract_y
_atom_site_fract_z
_atom_site_charge
Mof_Tb	Tb	0.31899	0.92252	0.29687	1.997
Mof_Tb	Tb	0.68101	0.07748	0.70313	2.009
Mof_Co	Co	-1.96418e-17	0.5	0.5	1.098
Mof_H 	H 	0.3274	0.6696	0.153	0.057
Mof_H 	H 	0.3465	0.3288	0.0766	0.094
Mof_H 	H 	0.2815	0.3604	0.3681	0.016
Mof_H 	H 	0.3457	0.7737	0.8509	0.065
Mof_H 	H 	0.3534	0.8812	0.6899	0.012
Mof_H 	H 	0.3653	0.5718	0.5851	0.017
Mof_H 	H 	0.3569	0.4544	0.7427	0.08
Mof_H 	H 	0.8233	0.9138	0.2814	0.09
Mof_H 	H 	0.0895	0.8388	0.0408	0.151
Mof_H 	H 	0.6952	0.8534	0.0364	0.13
Mof_H 	H 	0.0171	0.8292	0.7159	0.057
Mof_H 	H 	0.0328	0.7491	0.5713	-0.042
Mof_H 	H 	0.014	0.4072	0.723	-0.025
Mof_H 	H 	0.0084	0.4773	0.8708	0.104
Mof_H 	H 	0.3794	0.6458	0.9822	0.139
Mof_H 	H 	0.8813	0.8428	0.8807	0.163
Mof_H 	H 	0.6726	0.3304	0.847	0.066
Mof_H 	H 	0.6535	0.6712	0.9234	0.102
Mof_H 	H 	0.7185	0.6396	0.6319	0.024
Mof_H 	H 	0.6543	0.2263	0.1491	0.066
Mof_H 	H 	0.6466	0.1188	0.3101	0.012
Mof_H 	H 	0.6347	0.4282	0.4149	0.018
Mof_H 	H 	0.6431	0.5456	0.2573	0.08
Mof_H 	H 	0.1767	0.0862	0.7186	0.026
Mof_H 	H 	0.9105	0.1612	0.9592	0.063
Mof_H 	H 	0.3048	0.1466	0.9636	0.092
Mof_H 	H 	0.9829	0.1708	0.2841	0.069
Mof_H 	H 	0.9672	0.2509	0.4287	-0.03
Mof_H 	H 	0.986	0.5928	0.277	-0.011
Mof_H 	H 	0.9916	0.5227	0.1292	0.116
Mof_H 	H 	0.6206	0.3542	0.0178	0.14
Mof_H 	H 	0.1187	0.1572	0.1193	0.149
Mof_C 	C 	0.2984	0.5277	0.2732	-0.138
Mof_C 	C 	0.3217	0.5826	0.1714	-0.05
Mof_C 	C 	0.3364	0.5096	0.0975	0.113
Mof_C 	C 	0.3348	0.3792	0.1257	-0.087
Mof_C 	C 	0.3159	0.3249	0.2263	-0.065
Mof_C 	C 	0.2962	0.3981	0.3004	0.031
Mof_C 	C 	0.3127	0.1849	0.2528	0.324
Mof_C 	C 	0.2673	0.606	0.3538	0.469
Mof_C 	C 	0.3339	0.5178	0.9181	0.222
Mof_C 	C 	0.3479	0.5997	0.8161	0.01
Mof_C 	C 	0.3486	0.7301	0.7982	-0.093
Mof_C 	C 	0.3538	0.7937	0.7009	0.064
Mof_C 	C 	0.3606	0.613	0.6394	0.061
Mof_C 	C 	0.3554	0.5418	0.7341	-0.093
Mof_C 	C 	0.7375	0.8858	0.1681	0.042
Mof_C 	C 	0.8414	0.8961	0.2164	-0.128
Mof_C 	C 	0.9741	0.88	0.1683	0.115
Mof_C 	C 	0.0008	0.8504	0.0727	-0.282
Mof_C 	C 	0.8958	0.8378	0.0242	0.253
Mof_C 	C 	0.7654	0.8581	0.0702	-0.187
Mof_C 	C 	0.5929	0.9019	0.215	0.284
Mof_C 	C 	0.0911	0.8906	0.2176	0.225
Mof_C 	C 	0.0059	0.705	0.9078	0.181
Mof_C 	C 	0.0095	0.6617	0.8097	0.031
Mof_C 	C 	0.017	0.7426	0.7189	-0.126
Mof_C 	C 	0.0246	0.6936	0.6327	0.078
Mof_C 	C 	0.015	0.4934	0.7214	0.078
Mof_C 	C 	0.0106	0.5344	0.8108	-0.126
Mof_C 	C 	0.7016	0.4723	0.7268	-0.124
Mof_C 	C 	0.6783	0.4174	0.8286	-0.056
Mof_C 	C 	0.6636	0.4904	0.9025	0.137
Mof_C 	C 	0.6652	0.6208	0.8743	-0.093
Mof_C 	C 	0.6841	0.6751	0.7737	-0.051
Mof_C 	C 	0.7038	0.6019	0.6996	0.029
Mof_C 	C 	0.6873	0.8151	0.7472	0.326
Mof_C 	C 	0.7327	0.394	0.6462	0.469
Mof_C 	C 	0.6661	0.4822	0.0819	0.224
Mof_C 	C 	0.6521	0.4003	0.1839	0.01
Mof_C 	C 	0.6514	0.2699	0.2018	-0.093
Mof_C 	C 	0.6462	0.2063	0.2991	0.065
Mof_C 	C 	0.6394	0.387	0.3606	0.061
Mof_C 	C 	0.6446	0.4582	0.2659	-0.092
Mof_C 	C 	0.2625	0.1142	0.8319	-0.069
Mof_C 	C 	0.1586	0.1039	0.7836	0.031
Mof_C 	C 	0.0259	0.12	0.8317	-0.143
Mof_C 	C 	0.9992	0.1496	0.9273	0.024
Mof_C 	C 	0.1042	0.1622	0.9758	0.079
Mof_C 	C 	0.2346	0.1419	0.9298	-0.061
Mof_C 	C 	0.4071	0.0981	0.785	0.323
Mof_C 	C 	0.9089	0.1094	0.7824	0.356
Mof_C 	C 	0.9941	0.295	0.0922	0.228
Mof_C 	C 	0.9905	0.3383	0.1903	0.033
Mof_C 	C 	0.983	0.2574	0.2811	-0.114
Mof_C 	C 	0.9754	0.3064	0.3673	0.085
Mof_C 	C 	0.985	0.5066	0.2786	0.087
Mof_C 	C 	0.9894	0.4656	0.1892	-0.116
Mof_N 	N 	0.3537	0.5692	0.996	-0.232
Mof_N 	N 	0.3593	0.7384	0.6218	-0.141
Mof_N 	N 	0.9211	0.8018	0.9274	-0.238
Mof_N 	N 	0.0207	0.5704	0.6321	-0.253
Mof_N 	N 	0.6463	0.4308	0.004	-0.241
Mof_N 	N 	0.6407	0.2616	0.3782	-0.141
Mof_N 	N 	0.0789	0.1982	0.0726	-0.249
Mof_N 	N 	0.9793	0.4296	0.3679	-0.241
Mof_O 	O 	0.1929	0.5644	0.4351	-0.495
Mof_O 	O 	0.3201	0.7126	0.3356	-0.559
Mof_O 	O 	0.3293	0.129	0.3388	-0.464
Mof_O 	O 	0.2939	0.1228	0.1895	-0.44
Mof_O 	O 	0.3079	0.4083	0.926	-0.229
Mof_O 	O 	0.559	0.9011	0.3093	-0.42
Mof_O 	O 	0.5037	0.9159	0.1625	-0.42
Mof_O 	O 	0.0732	0.9052	0.3092	-0.44
Mof_O 	O 	0.2082	0.8854	0.1674	-0.407
Mof_O 	O 	0.0754	0.6487	0.9669	-0.223
Mof_O 	O 	0.8071	0.4356	0.5649	-0.48
Mof_O 	O 	0.6799	0.2874	0.6644	-0.558
Mof_O 	O 	0.6707	0.871	0.6612	-0.458
Mof_O 	O 	0.7061	0.8772	0.8105	-0.434
Mof_O 	O 	0.6921	0.5917	0.074	-0.231
Mof_O 	O 	0.441	0.0989	0.6907	-0.433
Mof_O 	O 	0.4963	0.0841	0.8375	-0.43
Mof_O 	O 	0.9268	0.0948	0.6908	-0.445
Mof_O 	O 	0.7918	0.1146	0.8326	-0.434
Mof_O 	O 	0.9246	0.3513	0.0331	-0.219
_end
