data_functionalizedCrystal
_audit_creation_method	'EQeq! by Chris Wilmer'
_symmetry_space_group_name_H-M	'P1'
_symmetry_Int_Tables_number	1
_symmetry_cell_setting	triclinic
loop_
_symmetry_equiv_pos_as_xyz
  x,y,z
_cell_length_a	10.027
_cell_length_b	18.42
_cell_length_c	20.577
_cell_angle_alpha	89.269
_cell_angle_beta	84.18
_cell_angle_gamma	88.402
loop_
_atom_site_label
_atom_site_type_symbol
_atom_site_fract_x
_atom_site_fract_y
_atom_site_fract_z
_atom_site_charge
Mof_Cd	Cd	0.39173	0.54705	0.95952	0.521
Mof_Cd	Cd	0.60827	0.45295	0.04048	0.521
Mof_Cd	Cd	0.10324	0.04402	0.54326	0.521
Mof_Cd	Cd	0.89676	0.95598	0.45674	0.521
Mof_H 	H 	0.6362	0.8126	0.3112	0.059
Mof_H 	H 	0.6002	0.6116	0.1989	0.042
Mof_H 	H 	0.5763	0.0524	0.5614	0.066
Mof_H 	H 	0.7679	0.1745	0.6818	0.059
Mof_H 	H 	0.1191	0.6795	0.8166	0.057
Mof_H 	H 	0.0917	0.8823	0.701	0.043
Mof_H 	H 	0.4237	0.9476	0.4386	0.065
Mof_H 	H 	0.9083	0.1177	0.299	0.042
Mof_H 	H 	0.7204	0.6711	0.8112	0.058
Mof_H 	H 	0.3044	0.7202	0.1201	0.04
Mof_H 	H 	0.2796	0.3289	0.1888	0.058
Mof_H 	H 	0.9263	0.2022	0.2154	0.081
Mof_H 	H 	0.2054	0.3058	0.3019	0.08
Mof_H 	H 	0.8809	0.3205	0.1834	0.056
Mof_H 	H 	0.5941	0.6959	0.2811	0.081
Mof_H 	H 	0.7946	0.6942	0.6981	0.08
Mof_H 	H 	0.101	0.4479	0.0545	0.069
Mof_H 	H 	0.4059	0.3041	0.7189	0.081
Mof_H 	H 	0.2321	0.8255	0.3182	0.058
Mof_H 	H 	0.3998	0.3884	0.8011	0.041
Mof_H 	H 	0.2927	0.8036	0.2031	0.081
Mof_H 	H 	0.1835	0.2233	0.389	0.041
Mof_H 	H 	0.899	0.5521	0.9455	0.069
Mof_H 	H 	0.8165	0.7767	0.611	0.041
Mof_H 	H 	0.3638	0.1874	0.6888	0.058
Mof_H 	H 	0.7073	0.1964	0.7969	0.081
Mof_H 	H 	0.6956	0.2798	0.8799	0.04
Mof_H 	H 	0.0737	0.7978	0.7846	0.081
Mof_C 	C 	0.6922	0.1088	0.6161	-0.068
Mof_C 	C 	0.9312	0.7367	0.7495	0.074
Mof_C 	C 	0.5377	0.6514	0.1993	0.048
Mof_C 	C 	0.6364	0.2852	0.8468	0.048
Mof_C 	C 	0.4402	0.7582	0.2519	0.074
Mof_C 	C 	0.9046	0.5858	0.9101	0.012
Mof_C 	C 	0.9703	0.3886	0.1155	-0.066
Mof_C 	C 	0.1761	0.9205	0.4161	0.34
Mof_C 	C 	0.0688	0.2633	0.2505	0.074
Mof_C 	C 	0.4649	0.6042	0.0958	0.332
Mof_C 	C 	0.4264	0.9124	0.4051	0.016
Mof_C 	C 	0.5332	0.7009	0.2488	-0.115
Mof_C 	C 	0.4546	0.6575	0.1503	-0.101
Mof_C 	C 	0.9593	0.8368	0.6465	-0.099
Mof_C 	C 	0.9675	0.1569	0.3006	0.048
Mof_C 	C 	0.857	0.7321	0.6985	-0.114
Mof_C 	C 	0.7992	0.6567	0.8306	-0.015
Mof_C 	C 	0.5736	0.0876	0.5949	0.016
Mof_C 	C 	0.4346	0.8117	0.3067	-0.013
Mof_C 	C 	0.5351	0.3958	0.9042	0.332
Mof_C 	C 	0.6542	0.5854	0.9136	0.334
Mof_C 	C 	0.8239	0.0795	0.5839	0.34
Mof_C 	C 	0.4668	0.2991	0.7512	-0.115
Mof_C 	C 	0.5528	0.8329	0.3294	-0.015
Mof_C 	C 	0.8695	0.7813	0.6464	0.044
Mof_C 	C 	0.6436	0.2356	0.7973	-0.115
Mof_C 	C 	0.0349	0.6607	0.8331	-0.013
Mof_C 	C 	0.2099	0.3906	0.1161	-0.066
Mof_C 	C 	0.9757	0.8908	0.5907	0.342
Mof_C 	C 	0.7901	0.6094	0.8839	-0.066
Mof_C 	C 	0.0777	0.3168	0.1947	-0.016
Mof_C 	C 	0.6749	0.9079	0.4029	0.307
Mof_C 	C 	0.1533	0.5855	0.9135	0.324
Mof_C 	C 	0.0204	0.7935	0.7493	-0.113
Mof_C 	C 	0.143	0.2679	0.3015	-0.114
Mof_C 	C 	0.5598	0.2418	0.7481	0.074
Mof_C 	C 	0.0325	0.8431	0.6994	0.048
Mof_C 	C 	0.0243	0.1092	0.4093	0.342
Mof_C 	C 	0.3636	0.7148	0.1532	0.048
Mof_C 	C 	0.3251	0.0921	0.5971	0.307
Mof_C 	C 	0.9796	0.2065	0.2507	-0.113
Mof_C 	C 	0.3078	0.8912	0.3839	-0.068
Mof_C 	C 	0.4472	0.1671	0.6706	-0.015
Mof_C 	C 	0.5654	0.1883	0.6933	-0.013
Mof_C 	C 	0.45	0.1158	0.6209	-0.066
Mof_C 	C 	0.8467	0.4145	0.0865	0.324
Mof_C 	C 	0.4623	0.3486	0.8007	0.048
Mof_C 	C 	0.9223	0.6832	0.8053	-0.016
Mof_C 	C 	0.3129	0.8404	0.3338	-0.015
Mof_C 	C 	0.5454	0.3425	0.8497	-0.101
Mof_C 	C 	0.2008	0.3433	0.1694	-0.015
Mof_C 	C 	0.1305	0.2187	0.3536	0.044
Mof_C 	C 	0.9651	0.3393	0.1669	-0.013
Mof_C 	C 	0.3458	0.4146	0.0864	0.334
Mof_C 	C 	0.0297	0.6114	0.8845	-0.066
Mof_C 	C 	0.0954	0.4142	0.0899	0.012
Mof_C 	C 	0.0407	0.1632	0.3535	-0.099
Mof_C 	C 	0.3564	0.7644	0.2027	-0.115
Mof_C 	C 	0.6871	0.1596	0.6662	-0.015
Mof_C 	C 	0.55	0.8842	0.3791	-0.066
Mof_O 	O 	0.2534	0.6258	0.9069	-0.254
Mof_O 	O 	0.3302	0.0463	0.5552	-0.075
Mof_O 	O 	0.6698	0.9537	0.4448	-0.075
Mof_O 	O 	0.3941	0.6154	0.04979	-0.272
Mof_O 	O 	0.0573	0.9397	0.5971	-0.276
Mof_O 	O 	0.687	0.969	0.4267	-0.173
Mof_O 	O 	0.1831	0.9672	0.4578	-0.28
Mof_O 	O 	0.9427	0.0603	0.4029	-0.276
Mof_O 	O 	0.4528	0.4481	0.89904	-0.27
Mof_O 	O 	0.2261	0.1374	0.596	-0.127
Mof_O 	O 	0.4481	0.3928	0.1089	-0.267
Mof_O 	O 	0.2145	0.1154	0.6249	-0.131
Mof_O 	O 	0.7466	0.3742	0.0931	-0.254
Mof_O 	O 	0.313	0.031	0.5733	-0.173
Mof_O 	O 	0.0908	0.1177	0.45569	-0.28
Mof_O 	O 	0.8401	0.4701	0.0568	-0.265
Mof_O 	O 	0.5472	0.5519	0.10096	-0.27
Mof_O 	O 	0.9289	0.1016	0.6005	-0.274
Mof_O 	O 	0.5519	0.6072	0.8911	-0.267
Mof_O 	O 	0.0711	0.8984	0.3995	-0.274
Mof_O 	O 	0.3495	0.4558	0.03865	-0.285
Mof_O 	O 	0.7855	0.8846	0.3751	-0.131
Mof_O 	O 	0.1599	0.5299	0.9432	-0.265
Mof_O 	O 	0.9092	0.8823	0.54431	-0.28
Mof_O 	O 	0.6059	0.3846	0.95021	-0.272
Mof_O 	O 	0.6505	0.5442	0.96135	-0.285
Mof_O 	O 	0.7739	0.8626	0.404	-0.127
Mof_O 	O 	0.8169	0.0328	0.5422	-0.28
_end
