data_functionalizedCrystal
_audit_creation_method	'EQeq! by Chris Wilmer'
_symmetry_space_group_name_H-M	'P1'
_symmetry_Int_Tables_number	1
_symmetry_cell_setting	triclinic
loop_
_symmetry_equiv_pos_as_xyz
  x,y,z
_cell_length_a	28.528
_cell_length_b	8.426
_cell_length_c	16.159
_cell_angle_alpha	90
_cell_angle_beta	90
_cell_angle_gamma	90
loop_
_atom_site_label
_atom_site_type_symbol
_atom_site_fract_x
_atom_site_fract_y
_atom_site_fract_z
_atom_site_charge
Mof_Zn	Zn	0.12261	0.25865	0.23405	1.233
Mof_O 	O 	0.05331	0.0649	0.4336	-0.45
Mof_O 	O 	0.07547	0.2449	0.3171	-0.471
Mof_O 	O 	0.10473	0.2945	0.46288	-0.458
Mof_O 	O 	0.09382	0.8231	0.62941	-0.435
Mof_O 	O 	0.07814	0.6605	0.5015	-0.452
Mof_O 	O 	0.01282	0.8143	0.56638	-0.436
Mof_P 	P 	0.06586	0.23337	0.40852	0.466
Mof_H 	H 	0.0291	0.323	0.425	-0.074
Mof_P 	P 	0.05834	0.7248	0.58173	0.444
Mof_H 	H 	0.0476	0.599	0.626	-0.07
Mof_Zn	Zn	0.12261	0.75865	0.73405	1.235
Mof_O 	O 	0.05331	0.5649	0.9336	-0.47
Mof_O 	O 	0.07547	0.7449	0.8171	-0.465
Mof_O 	O 	0.10473	0.7945	0.96288	-0.473
Mof_O 	O 	0.09382	0.3231	0.12941	-0.434
Mof_O 	O 	0.07814	0.1605	0.0015	-0.416
Mof_O 	O 	0.01282	0.3143	0.06638	-0.427
Mof_P 	P 	0.06586	0.73337	0.90852	0.468
Mof_H 	H 	0.0291	0.823	0.925	-0.085
Mof_P 	P 	0.05834	0.2248	0.08173	0.442
Mof_H 	H 	0.0476	0.099	0.126	-0.072
Mof_Zn	Zn	0.62261	0.25865	0.73405	1.233
Mof_O 	O 	0.55331	0.0649	0.9336	-0.476
Mof_O 	O 	0.57547	0.2449	0.8171	-0.469
Mof_O 	O 	0.60473	0.2945	0.96288	-0.489
Mof_O 	O 	0.59382	0.8231	0.12941	-0.416
Mof_O 	O 	0.57814	0.6605	0.0015	-0.391
Mof_O 	O 	0.51282	0.8143	0.06638	-0.384
Mof_P 	P 	0.56586	0.23337	0.90852	0.468
Mof_H 	H 	0.5291	0.323	0.925	-0.083
Mof_P 	P 	0.55834	0.7248	0.08173	0.444
Mof_H 	H 	0.5476	0.599	0.126	-0.051
Mof_Zn	Zn	0.62261	0.75865	0.23405	1.237
Mof_O 	O 	0.55331	0.5649	0.4336	-0.42
Mof_O 	O 	0.57547	0.7449	0.3171	-0.452
Mof_O 	O 	0.60473	0.7945	0.46288	-0.435
Mof_O 	O 	0.59382	0.3231	0.62941	-0.444
Mof_O 	O 	0.57814	0.1605	0.5015	-0.462
Mof_O 	O 	0.51282	0.3143	0.56638	-0.434
Mof_P 	P 	0.56586	0.73337	0.40852	0.469
Mof_H 	H 	0.5291	0.823	0.425	-0.048
Mof_P 	P 	0.55834	0.2248	0.58173	0.442
Mof_H 	H 	0.5476	0.099	0.626	-0.072
Mof_Zn	Zn	0.87739	0.74135	0.23405	1.236
Mof_O 	O 	0.94669	0.9351	0.4336	-0.379
Mof_O 	O 	0.92453	0.7551	0.3171	-0.446
Mof_O 	O 	0.89527	0.7055	0.46288	-0.44
Mof_O 	O 	0.90618	0.1769	0.62941	-0.449
Mof_O 	O 	0.92186	0.3395	0.5015	-0.448
Mof_O 	O 	0.98718	0.1857	0.56638	-0.412
Mof_P 	P 	0.93414	0.76663	0.40852	0.469
Mof_H 	H 	0.9709	0.677	0.425	-0.04
Mof_P 	P 	0.94166	0.2752	0.58173	0.442
Mof_H 	H 	0.9524	0.401	0.626	-0.05
Mof_Zn	Zn	0.87739	0.24135	0.73405	1.233
Mof_O 	O 	0.94669	0.4351	0.9336	-0.442
Mof_O 	O 	0.92453	0.2551	0.8171	-0.463
Mof_O 	O 	0.89527	0.2055	0.96288	-0.493
Mof_O 	O 	0.90618	0.6769	0.12941	-0.422
Mof_O 	O 	0.92186	0.8395	0.0015	-0.379
Mof_O 	O 	0.98718	0.6857	0.06638	-0.369
Mof_P 	P 	0.93414	0.26663	0.90852	0.469
Mof_H 	H 	0.9709	0.177	0.925	-0.075
Mof_P 	P 	0.94166	0.7752	0.08173	0.444
Mof_H 	H 	0.9524	0.901	0.126	-0.03
Mof_Zn	Zn	0.37739	0.74135	0.73405	1.234
Mof_O 	O 	0.44669	0.9351	0.9336	-0.436
Mof_O 	O 	0.42453	0.7551	0.8171	-0.46
Mof_O 	O 	0.39527	0.7055	0.96288	-0.478
Mof_O 	O 	0.40618	0.1769	0.12941	-0.44
Mof_O 	O 	0.42186	0.3395	0.0015	-0.403
Mof_O 	O 	0.48718	0.1857	0.06638	-0.412
Mof_P 	P 	0.43414	0.76663	0.90852	0.468
Mof_H 	H 	0.4709	0.677	0.925	-0.079
Mof_P 	P 	0.44166	0.2752	0.08173	0.443
Mof_H 	H 	0.4524	0.401	0.126	-0.05
Mof_Zn	Zn	0.37739	0.24135	0.23405	1.233
Mof_O 	O 	0.44669	0.4351	0.4336	-0.419
Mof_O 	O 	0.42453	0.2551	0.3171	-0.464
Mof_O 	O 	0.39527	0.2055	0.46288	-0.462
Mof_O 	O 	0.40618	0.6769	0.62941	-0.441
Mof_O 	O 	0.42186	0.8395	0.5015	-0.439
Mof_O 	O 	0.48718	0.6857	0.56638	-0.425
Mof_P 	P 	0.43414	0.26663	0.40852	0.468
Mof_H 	H 	0.4709	0.177	0.425	-0.067
Mof_P 	P 	0.44166	0.7752	0.58173	0.445
Mof_H 	H 	0.4524	0.901	0.626	-0.049
Mof_Zn	Zn	0.37261	0.99135	0.48405	1.248
Mof_O 	O 	0.30331	0.1851	0.6836	-0.422
Mof_O 	O 	0.32547	0.0051	0.5671	-0.477
Mof_O 	O 	0.35473	0.9555	0.71288	-0.414
Mof_O 	O 	0.34382	0.4269	0.87941	-0.468
Mof_O 	O 	0.32814	0.5895	0.7515	-0.451
Mof_O 	O 	0.26282	0.4357	0.81638	-0.441
Mof_P 	P 	0.31586	0.01663	0.65852	0.407
Mof_H 	H 	0.2791	0.927	0.675	-0.026
Mof_P 	P 	0.30834	0.5252	0.83173	0.443
Mof_H 	H 	0.2976	0.651	0.876	-0.068
Mof_Zn	Zn	0.37261	0.49135	0.98405	1.207
Mof_O 	O 	0.30331	0.6851	0.1836	-0.401
Mof_O 	O 	0.32547	0.5051	0.0671	-0.418
Mof_O 	O 	0.35473	0.4555	0.21288	-0.443
Mof_O 	O 	0.34382	0.9269	0.37941	-0.402
Mof_O 	O 	0.32814	0.0895	0.2515	-0.451
Mof_O 	O 	0.26282	0.9357	0.31638	-0.387
Mof_P 	P 	0.31586	0.51663	0.15852	0.467
Mof_H 	H 	0.2791	0.427	0.175	-0.053
Mof_P 	P 	0.30834	0.0252	0.33173	0.379
Mof_H 	H 	0.2976	0.151	0.376	-0.057
Mof_Zn	Zn	0.87261	0.99135	0.98405	1.22
Mof_O 	O 	0.80331	0.1851	0.1836	-0.408
Mof_O 	O 	0.82547	0.0051	0.0671	-0.435
Mof_O 	O 	0.85473	0.9555	0.21288	-0.404
Mof_O 	O 	0.84382	0.4269	0.37941	-0.444
Mof_O 	O 	0.82814	0.5895	0.2515	-0.443
Mof_O 	O 	0.76282	0.4357	0.31638	-0.429
Mof_P 	P 	0.81586	0.01663	0.15852	0.405
Mof_H 	H 	0.7791	0.927	0.175	-0.019
Mof_P 	P 	0.80834	0.5252	0.33173	0.443
Mof_H 	H 	0.7976	0.651	0.376	-0.055
Mof_Zn	Zn	0.87261	0.49135	0.48405	1.235
Mof_O 	O 	0.80331	0.6851	0.6836	-0.413
Mof_O 	O 	0.82547	0.5051	0.5671	-0.459
Mof_O 	O 	0.85473	0.4555	0.71288	-0.449
Mof_O 	O 	0.84382	0.9269	0.87941	-0.424
Mof_O 	O 	0.82814	0.0895	0.7515	-0.456
Mof_O 	O 	0.76282	0.9357	0.81638	-0.4
Mof_P 	P 	0.81586	0.51663	0.65852	0.468
Mof_H 	H 	0.7791	0.427	0.675	-0.06
Mof_P 	P 	0.80834	0.0252	0.83173	0.383
Mof_H 	H 	0.7976	0.151	0.876	-0.07
Mof_Zn	Zn	0.12739	0.50865	0.48405	1.234
Mof_O 	O 	0.19669	0.3149	0.6836	-0.431
Mof_O 	O 	0.17453	0.4949	0.5671	-0.46
Mof_O 	O 	0.14527	0.5445	0.71288	-0.456
Mof_O 	O 	0.15618	0.0731	0.87941	-0.502
Mof_O 	O 	0.17186	0.9105	0.7515	-0.448
Mof_O 	O 	0.23718	0.0643	0.81638	-0.478
Mof_P 	P 	0.18414	0.48337	0.65852	0.468
Mof_H 	H 	0.2209	0.573	0.675	-0.057
Mof_P 	P 	0.19166	0.9748	0.83173	0.505
Mof_H 	H 	0.2024	0.849	0.876	-0.073
Mof_Zn	Zn	0.12739	0.00865	0.98405	1.194
Mof_O 	O 	0.19669	0.8149	0.1836	-0.41
Mof_O 	O 	0.17453	0.9949	0.0671	-0.402
Mof_O 	O 	0.14527	0.0445	0.21288	-0.486
Mof_O 	O 	0.15618	0.5731	0.37941	-0.438
Mof_O 	O 	0.17186	0.4105	0.2515	-0.447
Mof_O 	O 	0.23718	0.5643	0.31638	-0.426
Mof_P 	P 	0.18414	0.98337	0.15852	0.53
Mof_H 	H 	0.2209	0.073	0.175	-0.085
Mof_P 	P 	0.19166	0.4748	0.33173	0.444
Mof_H 	H 	0.2024	0.349	0.376	-0.062
Mof_Zn	Zn	0.62739	0.50865	0.98405	1.207
Mof_O 	O 	0.69669	0.3149	0.1836	-0.417
Mof_O 	O 	0.67453	0.4949	0.0671	-0.419
Mof_O 	O 	0.64527	0.5445	0.21288	-0.446
Mof_O 	O 	0.65618	0.0731	0.37941	-0.48
Mof_O 	O 	0.67186	0.9105	0.2515	-0.44
Mof_O 	O 	0.73718	0.0643	0.31638	-0.468
Mof_P 	P 	0.68414	0.48337	0.15852	0.468
Mof_H 	H 	0.7209	0.573	0.175	-0.049
Mof_P 	P 	0.69166	0.9748	0.33173	0.507
Mof_H 	H 	0.7024	0.849	0.376	-0.061
Mof_Zn	Zn	0.62739	0.00865	0.48405	1.221
Mof_O 	O 	0.69669	0.8149	0.6836	-0.422
Mof_O 	O 	0.67453	0.9949	0.5671	-0.442
Mof_O 	O 	0.64527	0.0445	0.71288	-0.49
Mof_O 	O 	0.65618	0.5731	0.87941	-0.458
Mof_O 	O 	0.67186	0.4105	0.7515	-0.453
Mof_O 	O 	0.73718	0.5643	0.81638	-0.437
Mof_P 	P 	0.68414	0.98337	0.65852	0.529
Mof_H 	H 	0.7209	0.073	0.675	-0.09
Mof_P 	P 	0.69166	0.4748	0.83173	0.443
Mof_H 	H 	0.7024	0.349	0.876	-0.075
Mof_Zn	Zn	1.06226e-33	0	0.50018	1.211
Mof_Zn	Zn	1.54023e-33	0.5	0.00018	1.252
Mof_Zn	Zn	0.5	3.17332e-36	0.00018	1.252
Mof_Zn	Zn	0.5	0.5	0.50018	1.239
Mof_Zn	Zn	0.25	0.25	0.75018	1.236
Mof_Zn	Zn	0.25	0.75	0.25018	1.242
Mof_Zn	Zn	0.75	0.25	0.25018	1.238
Mof_Zn	Zn	0.75	0.75	0.75018	1.24
_end
