# CIF file generated by openbabel 3.1.0, see https://openbabel.org
data_I
_chemical_name_common 'image0'
_cell_length_a 20.3378
_cell_length_b 17.6645
_cell_length_c 8.3564
_cell_angle_alpha 90
_cell_angle_beta 96.685
_cell_angle_gamma 90
_space_group_name_H-M_alt 'P 1'
_space_group_name_Hall 'P 1'
loop_
    _symmetry_equiv_pos_as_xyz
    x,y,z
loop_
    _atom_site_label
    _atom_site_type_symbol
    _atom_site_fract_x
    _atom_site_fract_y
    _atom_site_fract_z
    _atom_site_occupancy
    U1       U        0.24428    0.18228    0.29323    1.000
    U2       U        0.17398    0.23192    0.69502    1.000
    O1       O        0.24230    0.29250    0.73840    1.000
    O2       O        0.10640    0.17200    0.65980    1.000
    O3       O        0.33670    0.10500    0.38880    1.000
    O4       O        0.40000    0.05360    0.59390    1.000
    O5       O        0.22030    0.14210    0.88750    1.000
    O6       O        0.30210    0.13880    0.06990    1.000
    O7       O        0.25520    0.16180    0.57220    1.000
    O8       O        0.11020    0.34460    0.60480    1.000
    O9       O        0.05230    0.40670    0.40420    1.000
    O10      O        0.21020    0.26850    0.09290    1.000
    O11      O        0.12150    0.28530    0.91530    1.000
    O12      O        0.16720    0.25800    0.40900    1.000
    C1       C        0.34820    0.08730    0.53510    1.000
    C2       C        0.29540    0.10500    0.64510    1.000
    C3       C        0.33280    0.12830    0.80930    1.000
    H1       H        0.36250    0.08770    0.84880    1.000
    H2       H        0.35950    0.17280    0.79460    1.000
    C4       C        0.28600    0.14550    0.93410    1.000
    C5       C        0.25540    0.03160    0.65900    1.000
    H3       H        0.22750    0.03710    0.74370    1.000
    H4       H        0.28530    0.99000    0.68400    1.000
    H5       H        0.22860    0.02190    0.55910    1.000
    C6       C        0.09000    0.35390    0.45710    1.000
    C7       C        0.11030    0.29700    0.33750    1.000
    C8       C        0.12750    0.33970    0.18600    1.000
    H6       H        0.08870    0.36810    0.14190    1.000
    H7       H        0.16210    0.37600    0.21960    1.000
    C9       C        0.14940    0.29300    0.05590    1.000
    C10      C        0.05310    0.24480    0.29170    1.000
    H8       H        0.05830    0.22100    0.19060    1.000
    H9       H        0.01260    0.27320    0.28170    1.000
    H10      H        0.05190    0.20680    0.37330    1.000
    U3       U        0.19497    0.26539    0.69368    1.000
    O13      O        0.24960    0.33860    0.68500    1.000
    O14      O        0.13950    0.18960    0.70700    1.000
    O15      O        0.15690    0.21980    0.08500    1.000
    O16      O        0.15520    0.32280    0.92500    1.000
    U4       U        0.74428    0.68228    0.29323    1.000
    U5       U        0.67398    0.73192    0.69502    1.000
    O17      O        0.74230    0.79250    0.73840    1.000
    O18      O        0.60640    0.67200    0.65980    1.000
    O19      O        0.83670    0.60500    0.38880    1.000
    O20      O        0.90000    0.55360    0.59390    1.000
    O21      O        0.72030    0.64210    0.88750    1.000
    O22      O        0.80210    0.63880    0.06990    1.000
    O23      O        0.75520    0.66180    0.57220    1.000
    O24      O        0.61020    0.84460    0.60480    1.000
    O25      O        0.55230    0.90670    0.40420    1.000
    O26      O        0.71020    0.76850    0.09290    1.000
    O27      O        0.62150    0.78530    0.91530    1.000
    O28      O        0.66720    0.75800    0.40900    1.000
    C11      C        0.84820    0.58730    0.53510    1.000
    C12      C        0.79540    0.60500    0.64510    1.000
    C13      C        0.83280    0.62830    0.80930    1.000
    H11      H        0.86250    0.58770    0.84880    1.000
    H12      H        0.85950    0.67280    0.79460    1.000
    C14      C        0.78600    0.64550    0.93410    1.000
    C15      C        0.75540    0.53160    0.65900    1.000
    H13      H        0.72750    0.53710    0.74370    1.000
    H14      H        0.78530    0.49000    0.68400    1.000
    H15      H        0.72860    0.52190    0.55910    1.000
    C16      C        0.59000    0.85390    0.45710    1.000
    C17      C        0.61030    0.79700    0.33750    1.000
    C18      C        0.62750    0.83970    0.18600    1.000
    H16      H        0.58870    0.86810    0.14190    1.000
    H17      H        0.66210    0.87600    0.21960    1.000
    C19      C        0.64940    0.79300    0.05590    1.000
    C20      C        0.55310    0.74480    0.29170    1.000
    H18      H        0.55830    0.72100    0.19060    1.000
    H19      H        0.51260    0.77320    0.28170    1.000
    H20      H        0.55190    0.70680    0.37330    1.000
    U6       U        0.69497    0.76539    0.69368    1.000
    O29      O        0.74960    0.83860    0.68500    1.000
    O30      O        0.63950    0.68960    0.70700    1.000
    O31      O        0.65690    0.71980    0.08500    1.000
    O32      O        0.65520    0.82280    0.92500    1.000
    U7       U        0.75572    0.18228    0.70677    1.000
    U8       U        0.82602    0.23192    0.30498    1.000
    O33      O        0.75770    0.29250    0.26160    1.000
    O34      O        0.89360    0.17200    0.34020    1.000
    O35      O        0.66330    0.10500    0.61120    1.000
    O36      O        0.60000    0.05360    0.40610    1.000
    O37      O        0.77970    0.14210    0.11250    1.000
    O38      O        0.69790    0.13880    0.93010    1.000
    O39      O        0.74480    0.16180    0.42780    1.000
    O40      O        0.88980    0.34460    0.39520    1.000
    O41      O        0.94770    0.40670    0.59580    1.000
    O42      O        0.78980    0.26850    0.90710    1.000
    O43      O        0.87850    0.28530    0.08470    1.000
    O44      O        0.83280    0.25800    0.59100    1.000
    C21      C        0.65180    0.08730    0.46490    1.000
    C22      C        0.70460    0.10500    0.35490    1.000
    C23      C        0.66720    0.12830    0.19070    1.000
    H21      H        0.63750    0.08770    0.15120    1.000
    H22      H        0.64050    0.17280    0.20540    1.000
    C24      C        0.71400    0.14550    0.06590    1.000
    C25      C        0.74460    0.03160    0.34100    1.000
    H23      H        0.77250    0.03710    0.25630    1.000
    H24      H        0.71470    0.99000    0.31600    1.000
    H25      H        0.77140    0.02190    0.44090    1.000
    C26      C        0.91000    0.35390    0.54290    1.000
    C27      C        0.88970    0.29700    0.66250    1.000
    C28      C        0.87250    0.33970    0.81400    1.000
    H26      H        0.91130    0.36810    0.85810    1.000
    H27      H        0.83790    0.37600    0.78040    1.000
    C29      C        0.85060    0.29300    0.94410    1.000
    C30      C        0.94690    0.24480    0.70830    1.000
    H28      H        0.94170    0.22100    0.80940    1.000
    H29      H        0.98740    0.27320    0.71830    1.000
    H30      H        0.94810    0.20680    0.62670    1.000
    U9       U        0.80503    0.26539    0.30632    1.000
    O45      O        0.75040    0.33860    0.31500    1.000
    O46      O        0.86050    0.18960    0.29300    1.000
    O47      O        0.84310    0.21980    0.91500    1.000
    O48      O        0.84480    0.32280    0.07500    1.000
    U10      U        0.25572    0.68228    0.70677    1.000
    U11      U        0.32602    0.73192    0.30498    1.000
    O49      O        0.25770    0.79250    0.26160    1.000
    O50      O        0.39360    0.67200    0.34020    1.000
    O51      O        0.16330    0.60500    0.61120    1.000
    O52      O        0.10000    0.55360    0.40610    1.000
    O53      O        0.27970    0.64210    0.11250    1.000
    O54      O        0.19790    0.63880    0.93010    1.000
    O55      O        0.24480    0.66180    0.42780    1.000
    O56      O        0.38980    0.84460    0.39520    1.000
    O57      O        0.44770    0.90670    0.59580    1.000
    O58      O        0.28980    0.76850    0.90710    1.000
    O59      O        0.37850    0.78530    0.08470    1.000
    O60      O        0.33280    0.75800    0.59100    1.000
    C31      C        0.15180    0.58730    0.46490    1.000
    C32      C        0.20460    0.60500    0.35490    1.000
    C33      C        0.16720    0.62830    0.19070    1.000
    H31      H        0.13750    0.58770    0.15120    1.000
    H32      H        0.14050    0.67280    0.20540    1.000
    C34      C        0.21400    0.64550    0.06590    1.000
    C35      C        0.24460    0.53160    0.34100    1.000
    H33      H        0.27250    0.53710    0.25630    1.000
    H34      H        0.21470    0.49000    0.31600    1.000
    H35      H        0.27140    0.52190    0.44090    1.000
    C36      C        0.41000    0.85390    0.54290    1.000
    C37      C        0.38970    0.79700    0.66250    1.000
    C38      C        0.37250    0.83970    0.81400    1.000
    H36      H        0.41130    0.86810    0.85810    1.000
    H37      H        0.33790    0.87600    0.78040    1.000
    C39      C        0.35060    0.79300    0.94410    1.000
    C40      C        0.44690    0.74480    0.70830    1.000
    H38      H        0.44170    0.72100    0.80940    1.000
    H39      H        0.48740    0.77320    0.71830    1.000
    H40      H        0.44810    0.70680    0.62670    1.000
    U12      U        0.30503    0.76539    0.30632    1.000
    O61      O        0.25040    0.83860    0.31500    1.000
    O62      O        0.36050    0.68960    0.29300    1.000
    O63      O        0.34310    0.71980    0.91500    1.000
    O64      O        0.34480    0.82280    0.07500    1.000
    U13      U        0.50000    0.01346    0.50000    1.000
    U14      U        0.00000    0.51346    0.50000    1.000
