data_functionalizedCrystal
_audit_creation_method	'EQeq! by Chris Wilmer'
_symmetry_space_group_name_H-M	'P1'
_symmetry_Int_Tables_number	1
_symmetry_cell_setting	triclinic
loop_
_symmetry_equiv_pos_as_xyz
  x,y,z
_cell_length_a	18.1427
_cell_length_b	18.1427
_cell_length_c	35.41
_cell_angle_alpha	90
_cell_angle_beta	90
_cell_angle_gamma	90
loop_
_atom_site_label
_atom_site_type_symbol
_atom_site_fract_x
_atom_site_fract_y
_atom_site_fract_z
_atom_site_charge
Mof_Cu	Cu	0.50705	0.42679	0.71189	0.904
Mof_Cu	Cu	0.49295	0.57321	0.71189	0.904
Mof_Cu	Cu	0.07321	0.99295	0.21189	0.903
Mof_Cu	Cu	0.92679	0.00705	0.21189	0.904
Mof_H 	H 	0.8256	0.6077	0.5392	0.034
Mof_H 	H 	0.9184	0.6126	0.4938	0.063
Mof_H 	H 	0.9343	0.3908	0.4959	0.065
Mof_H 	H 	0.8415	0.3858	0.5413	0.035
Mof_H 	H 	0.0973	0.6451	0.3699	0.035
Mof_H 	H 	0.0994	0.5502	0.4142	0.066
Mof_H 	H 	0.8908	0.5996	0.4446	0.064
Mof_H 	H 	0.8887	0.6945	0.4003	0.033
Mof_H 	H 	0.6518	0.6121	0.6166	0.038
Mof_H 	H 	0.742	0.6084	0.5698	0.066
Mof_H 	H 	0.7685	0.3904	0.5877	0.067
Mof_H 	H 	0.6783	0.394	0.6345	0.035
Mof_H 	H 	0.883	0.8401	0.3002	0.03
Mof_H 	H 	0.8816	0.7532	0.3486	0.069
Mof_H 	H 	0.1036	0.7419	0.3449	0.069
Mof_H 	H 	0.105	0.8288	0.2965	0.034
Mof_H 	H 	0.1744	0.3923	0.5392	0.033
Mof_H 	H 	0.0816	0.3874	0.4938	0.063
Mof_H 	H 	0.0657	0.6092	0.4959	0.066
Mof_H 	H 	0.1585	0.6142	0.5413	0.034
Mof_H 	H 	0.9027	0.3549	0.3699	0.034
Mof_H 	H 	0.9006	0.4498	0.4142	0.067
Mof_H 	H 	0.1092	0.4004	0.4446	0.065
Mof_H 	H 	0.1113	0.3055	0.4003	0.033
Mof_H 	H 	0.3482	0.3879	0.6166	0.038
Mof_H 	H 	0.258	0.3916	0.5698	0.066
Mof_H 	H 	0.2315	0.6096	0.5877	0.067
Mof_H 	H 	0.3217	0.606	0.6345	0.035
Mof_H 	H 	0.117	0.1599	0.3002	0.03
Mof_H 	H 	0.1184	0.2468	0.3486	0.069
Mof_H 	H 	0.8964	0.2581	0.3449	0.069
Mof_H 	H 	0.895	0.1712	0.2965	0.035
Mof_H 	H 	0.8923	0.6744	0.0392	0.034
Mof_H 	H 	0.8874	0.5816	0.9938	0.061
Mof_H 	H 	0.1092	0.5657	0.9959	0.063
Mof_H 	H 	0.1142	0.6585	0.0413	0.035
Mof_H 	H 	0.8549	0.4027	0.8699	0.034
Mof_H 	H 	0.9498	0.4006	0.9142	0.066
Mof_H 	H 	0.9004	0.6092	0.9446	0.064
Mof_H 	H 	0.8055	0.6113	0.9003	0.033
Mof_H 	H 	0.8879	0.8482	0.1166	0.037
Mof_H 	H 	0.8916	0.758	0.0698	0.067
Mof_H 	H 	0.1096	0.7315	0.0877	0.068
Mof_H 	H 	0.106	0.8217	0.1345	0.033
Mof_H 	H 	0.6599	0.617	0.8002	0.03
Mof_H 	H 	0.7468	0.6184	0.8486	0.069
Mof_H 	H 	0.7581	0.3964	0.8449	0.069
Mof_H 	H 	0.6712	0.395	0.7965	0.035
Mof_H 	H 	0.1077	0.3256	0.0392	0.031
Mof_H 	H 	0.1126	0.4184	0.9938	0.064
Mof_H 	H 	0.8908	0.4343	0.9959	0.067
Mof_H 	H 	0.8858	0.3415	0.0413	0.033
Mof_H 	H 	0.1451	0.5973	0.8699	0.034
Mof_H 	H 	0.0502	0.5994	0.9142	0.067
Mof_H 	H 	0.0996	0.3908	0.9446	0.065
Mof_H 	H 	0.1945	0.3887	0.9003	0.033
Mof_H 	H 	0.1121	0.1518	0.1166	0.04
Mof_H 	H 	0.1084	0.242	0.0698	0.065
Mof_H 	H 	0.8904	0.2685	0.0877	0.066
Mof_H 	H 	0.894	0.1783	0.1345	0.036
Mof_H 	H 	0.3401	0.383	0.8002	0.03
Mof_H 	H 	0.2532	0.3816	0.8486	0.069
Mof_H 	H 	0.2419	0.6036	0.8449	0.069
Mof_H 	H 	0.3288	0.605	0.7965	0.035
Mof_C 	C 	0.8246	0.4963	0.5446	-0.021
Mof_C 	C 	0.8475	0.5639	0.5304	-0.016
Mof_C 	C 	0.9029	0.5669	0.5034	-0.098
Mof_C 	C 	0.9353	0.5022	0.4904	0.063
Mof_C 	C 	0.9123	0.4345	0.5046	-0.093
Mof_C 	C 	0.857	0.4316	0.5317	-0.017
Mof_C 	C 	0.5978	0.5093	0.6602	0.302
Mof_C 	C 	0.9928	0.679	0.3808	-0.026
Mof_C 	C 	0.0556	0.636	0.3849	-0.015
Mof_C 	C 	0.0569	0.5793	0.4114	-0.092
Mof_C 	C 	0.9953	0.5657	0.4336	0.062
Mof_C 	C 	0.9325	0.6088	0.4295	-0.099
Mof_C 	C 	0.9312	0.6654	0.4031	-0.016
Mof_C 	C 	0.6564	0.5034	0.6301	-0.083
Mof_C 	C 	0.6754	0.5674	0.6108	0.023
Mof_C 	C 	0.7292	0.5652	0.5828	-0.106
Mof_C 	C 	0.764	0.499	0.5742	0.061
Mof_C 	C 	0.745	0.4351	0.5935	-0.108
Mof_C 	C 	0.6912	0.4373	0.6214	0.028
Mof_C 	C 	0.9941	0.8429	0.2937	-0.1
Mof_C 	C 	0.9275	0.8203	0.3092	0.036
Mof_C 	C 	0.9267	0.7684	0.3381	-0.115
Mof_C 	C 	0.9925	0.7391	0.3514	0.065
Mof_C 	C 	0.0591	0.7617	0.3359	-0.112
Mof_C 	C 	0.0599	0.8136	0.307	0.036
Mof_C 	C 	0.9982	0.8974	0.2625	0.303
Mof_C 	C 	0.1754	0.5037	0.5446	-0.021
Mof_C 	C 	0.1525	0.4361	0.5304	-0.015
Mof_C 	C 	0.0971	0.4331	0.5034	-0.099
Mof_C 	C 	0.0647	0.4978	0.4904	0.066
Mof_C 	C 	0.0877	0.5655	0.5046	-0.094
Mof_C 	C 	0.143	0.5684	0.5317	-0.016
Mof_C 	C 	0.4022	0.4907	0.6602	0.303
Mof_C 	C 	0.0072	0.321	0.3808	-0.023
Mof_C 	C 	0.9444	0.364	0.3849	-0.017
Mof_C 	C 	0.9431	0.4207	0.4114	-0.098
Mof_C 	C 	0.0047	0.4343	0.4336	0.068
Mof_C 	C 	0.0675	0.3912	0.4295	-0.101
Mof_C 	C 	0.0688	0.3346	0.4031	-0.015
Mof_C 	C 	0.3436	0.4966	0.6301	-0.083
Mof_C 	C 	0.3246	0.4326	0.6108	0.023
Mof_C 	C 	0.2708	0.4348	0.5828	-0.106
Mof_C 	C 	0.236	0.501	0.5742	0.062
Mof_C 	C 	0.255	0.5649	0.5935	-0.108
Mof_C 	C 	0.3088	0.5627	0.6214	0.028
Mof_C 	C 	0.0059	0.1571	0.2937	-0.096
Mof_C 	C 	0.0725	0.1797	0.3092	0.035
Mof_C 	C 	0.0733	0.2316	0.3381	-0.115
Mof_C 	C 	0.0075	0.2609	0.3514	0.068
Mof_C 	C 	0.9409	0.2383	0.3359	-0.115
Mof_C 	C 	0.9401	0.1864	0.307	0.032
Mof_C 	C 	0.0018	0.1026	0.2625	0.306
Mof_C 	C 	0.0037	0.6754	0.0446	-0.018
Mof_C 	C 	0.9361	0.6525	0.0304	-0.02
Mof_C 	C 	0.9331	0.5971	0.0034	-0.094
Mof_C 	C 	0.9978	0.5647	0.9904	0.059
Mof_C 	C 	0.0655	0.5877	0.0046	-0.088
Mof_C 	C 	0.0684	0.643	0.0317	-0.02
Mof_C 	C 	0.9907	0.9022	0.1602	0.302
Mof_C 	C 	0.821	0.5072	0.8808	-0.024
Mof_C 	C 	0.864	0.4444	0.8849	-0.016
Mof_C 	C 	0.9207	0.4431	0.9114	-0.095
Mof_C 	C 	0.9343	0.5047	0.9336	0.063
Mof_C 	C 	0.8912	0.5675	0.9295	-0.1
Mof_C 	C 	0.8346	0.5688	0.9031	-0.016
Mof_C 	C 	0.9966	0.8436	0.1301	-0.087
Mof_C 	C 	0.9326	0.8246	0.1108	0.026
Mof_C 	C 	0.9348	0.7708	0.0828	-0.11
Mof_C 	C 	0.001	0.736	0.0742	0.064
Mof_C 	C 	0.0649	0.755	0.0935	-0.111
Mof_C 	C 	0.0627	0.8088	0.1214	0.032
Mof_C 	C 	0.6571	0.5059	0.7937	-0.098
Mof_C 	C 	0.6797	0.5725	0.8092	0.035
Mof_C 	C 	0.7316	0.5733	0.8381	-0.115
Mof_C 	C 	0.7609	0.5075	0.8514	0.066
Mof_C 	C 	0.7383	0.4409	0.8359	-0.113
Mof_C 	C 	0.6864	0.4401	0.807	0.034
Mof_C 	C 	0.6026	0.5018	0.7625	0.305
Mof_C 	C 	0.9963	0.3246	0.0446	-0.024
Mof_C 	C 	0.0639	0.3475	0.0304	-0.01
Mof_C 	C 	0.0669	0.4029	0.0034	-0.102
Mof_C 	C 	0.0022	0.4353	0.9904	0.069
Mof_C 	C 	0.9345	0.4123	0.0046	-0.098
Mof_C 	C 	0.9316	0.357	0.0317	-0.014
Mof_C 	C 	0.0093	0.0978	0.1602	0.303
Mof_C 	C 	0.179	0.4928	0.8808	-0.025
Mof_C 	C 	0.136	0.5556	0.8849	-0.015
Mof_C 	C 	0.0793	0.5569	0.9114	-0.095
Mof_C 	C 	0.0657	0.4953	0.9336	0.066
Mof_C 	C 	0.1088	0.4325	0.9295	-0.101
Mof_C 	C 	0.1654	0.4312	0.9031	-0.014
Mof_C 	C 	0.0034	0.1564	0.1301	-0.079
Mof_C 	C 	0.0674	0.1754	0.1108	0.02
Mof_C 	C 	0.0652	0.2292	0.0828	-0.101
Mof_C 	C 	0.999	0.264	0.0742	0.058
Mof_C 	C 	0.9351	0.245	0.0935	-0.105
Mof_C 	C 	0.9373	0.1912	0.1214	0.023
Mof_C 	C 	0.3429	0.4941	0.7937	-0.098
Mof_C 	C 	0.3203	0.4275	0.8092	0.036
Mof_C 	C 	0.2684	0.4267	0.8381	-0.115
Mof_C 	C 	0.2391	0.4925	0.8514	0.067
Mof_C 	C 	0.2617	0.5591	0.8359	-0.114
Mof_C 	C 	0.3136	0.5599	0.807	0.034
Mof_C 	C 	0.3974	0.4982	0.7625	0.305
Mof_C 	C 	-5.28458e-33	0.5	0.4617	-0.084
Mof_C 	C 	-1.02889e-32	0.5	0.9617	-0.084
Mof_O 	O 	0.5778	0.4474	0.6754	-0.406
Mof_O 	O 	0.0624	0.9145	0.2484	-0.378
Mof_O 	O 	0.5697	0.5748	0.6666	-0.354
Mof_O 	O 	0.9384	0.9353	0.2516	-0.391
Mof_O 	O 	0.4222	0.5526	0.6754	-0.406
Mof_O 	O 	0.9376	0.0855	0.2484	-0.38
Mof_O 	O 	0.4303	0.4252	0.6666	-0.354
Mof_O 	O 	0.0616	0.0647	0.2516	-0.39
Mof_O 	O 	0.0526	0.9222	0.1754	-0.405
Mof_O 	O 	0.5855	0.4376	0.7484	-0.379
Mof_O 	O 	0.9252	0.9303	0.1666	-0.355
Mof_O 	O 	0.5647	0.5616	0.7516	-0.391
Mof_O 	O 	0.9474	0.0778	0.1754	-0.406
Mof_O 	O 	0.4145	0.5624	0.7484	-0.379
Mof_O 	O 	0.0748	0.0697	0.1666	-0.353
Mof_O 	O 	0.4353	0.4384	0.7516	-0.39
Mof_Cu	Cu	0.42679	0.49295	0.28811	0.903
Mof_Cu	Cu	0.57321	0.50705	0.28811	0.903
Mof_Cu	Cu	0.99295	0.92679	0.78811	0.902
Mof_Cu	Cu	0.00705	0.07321	0.78811	0.904
Mof_H 	H 	0.6077	0.1744	0.4608	0.033
Mof_H 	H 	0.6126	0.0816	0.5062	0.063
Mof_H 	H 	0.3908	0.0657	0.5041	0.066
Mof_H 	H 	0.3858	0.1585	0.4587	0.034
Mof_H 	H 	0.6451	0.9027	0.6301	0.034
Mof_H 	H 	0.5502	0.9006	0.5858	0.067
Mof_H 	H 	0.5996	0.1092	0.5554	0.065
Mof_H 	H 	0.6945	0.1113	0.5997	0.033
Mof_H 	H 	0.6121	0.3482	0.3834	0.038
Mof_H 	H 	0.6084	0.258	0.4302	0.066
Mof_H 	H 	0.3904	0.2315	0.4123	0.067
Mof_H 	H 	0.394	0.3217	0.3655	0.035
Mof_H 	H 	0.8401	0.117	0.6998	0.03
Mof_H 	H 	0.7532	0.1184	0.6514	0.069
Mof_H 	H 	0.7419	0.8964	0.6551	0.069
Mof_H 	H 	0.8288	0.895	0.7035	0.035
Mof_H 	H 	0.3923	0.8256	0.4608	0.033
Mof_H 	H 	0.3874	0.9184	0.5062	0.062
Mof_H 	H 	0.6092	0.9343	0.5041	0.064
Mof_H 	H 	0.6142	0.8415	0.4587	0.034
Mof_H 	H 	0.3549	0.0973	0.6301	0.034
Mof_H 	H 	0.4498	0.0994	0.5858	0.066
Mof_H 	H 	0.4004	0.8908	0.5554	0.064
Mof_H 	H 	0.3055	0.8887	0.5997	0.033
Mof_H 	H 	0.3879	0.6518	0.3834	0.038
Mof_H 	H 	0.3916	0.742	0.4302	0.066
Mof_H 	H 	0.6096	0.7685	0.4123	0.067
Mof_H 	H 	0.606	0.6783	0.3655	0.035
Mof_H 	H 	0.1599	0.883	0.6998	0.03
Mof_H 	H 	0.2468	0.8816	0.6514	0.069
Mof_H 	H 	0.2581	0.1036	0.6551	0.069
Mof_H 	H 	0.1712	0.105	0.7035	0.035
Mof_H 	H 	0.6744	0.1077	0.9608	0.031
Mof_H 	H 	0.5816	0.1126	0.0062	0.064
Mof_H 	H 	0.5657	0.8908	0.0041	0.067
Mof_H 	H 	0.6585	0.8858	0.9587	0.033
Mof_H 	H 	0.4027	0.1451	0.1301	0.034
Mof_H 	H 	0.4006	0.0502	0.0858	0.067
Mof_H 	H 	0.6092	0.0996	0.0554	0.065
Mof_H 	H 	0.6113	0.1945	0.0997	0.033
Mof_H 	H 	0.8482	0.1121	0.8834	0.039
Mof_H 	H 	0.758	0.1084	0.9302	0.065
Mof_H 	H 	0.7315	0.8904	0.9123	0.066
Mof_H 	H 	0.8217	0.894	0.8655	0.036
Mof_H 	H 	0.617	0.3401	0.1998	0.03
Mof_H 	H 	0.6184	0.2532	0.1514	0.069
Mof_H 	H 	0.3964	0.2419	0.1551	0.069
Mof_H 	H 	0.395	0.3288	0.2035	0.035
Mof_H 	H 	0.3256	0.8923	0.9608	0.034
Mof_H 	H 	0.4184	0.8874	0.0062	0.061
Mof_H 	H 	0.4343	0.1092	0.0041	0.063
Mof_H 	H 	0.3415	0.1142	0.9587	0.035
Mof_H 	H 	0.5973	0.8549	0.1301	0.034
Mof_H 	H 	0.5994	0.9498	0.0858	0.066
Mof_H 	H 	0.3908	0.9004	0.0554	0.064
Mof_H 	H 	0.3887	0.8055	0.0997	0.033
Mof_H 	H 	0.1518	0.8879	0.8834	0.038
Mof_H 	H 	0.242	0.8916	0.9302	0.067
Mof_H 	H 	0.2685	0.1096	0.9123	0.068
Mof_H 	H 	0.1783	0.106	0.8655	0.034
Mof_H 	H 	0.383	0.6599	0.1998	0.03
Mof_H 	H 	0.3816	0.7468	0.1514	0.069
Mof_H 	H 	0.6036	0.7581	0.1551	0.069
Mof_H 	H 	0.605	0.6712	0.2035	0.035
Mof_C 	C 	0.4963	0.1754	0.4554	-0.021
Mof_C 	C 	0.5639	0.1525	0.4696	-0.015
Mof_C 	C 	0.5669	0.0971	0.4966	-0.099
Mof_C 	C 	0.5022	0.0647	0.5096	0.066
Mof_C 	C 	0.4345	0.0877	0.4954	-0.094
Mof_C 	C 	0.4316	0.143	0.4683	-0.016
Mof_C 	C 	0.5093	0.4022	0.3398	0.303
Mof_C 	C 	0.679	0.0072	0.6192	-0.023
Mof_C 	C 	0.636	0.9444	0.6151	-0.017
Mof_C 	C 	0.5793	0.9431	0.5886	-0.098
Mof_C 	C 	0.5657	0.0047	0.5664	0.068
Mof_C 	C 	0.6088	0.0675	0.5705	-0.102
Mof_C 	C 	0.6654	0.0688	0.5969	-0.014
Mof_C 	C 	0.5034	0.3436	0.3699	-0.083
Mof_C 	C 	0.5674	0.3246	0.3892	0.023
Mof_C 	C 	0.5652	0.2708	0.4172	-0.106
Mof_C 	C 	0.499	0.236	0.4258	0.062
Mof_C 	C 	0.4351	0.255	0.4065	-0.108
Mof_C 	C 	0.4373	0.3088	0.3786	0.028
Mof_C 	C 	0.8429	0.0059	0.7063	-0.096
Mof_C 	C 	0.8203	0.0725	0.6908	0.036
Mof_C 	C 	0.7684	0.0733	0.6619	-0.115
Mof_C 	C 	0.7391	0.0075	0.6486	0.068
Mof_C 	C 	0.7617	0.9409	0.6641	-0.116
Mof_C 	C 	0.8136	0.9401	0.693	0.032
Mof_C 	C 	0.8974	0.0018	0.7375	0.306
Mof_C 	C 	0.5037	0.8246	0.4554	-0.021
Mof_C 	C 	0.4361	0.8475	0.4696	-0.016
Mof_C 	C 	0.4331	0.9029	0.4966	-0.098
Mof_C 	C 	0.4978	0.9353	0.5096	0.063
Mof_C 	C 	0.5655	0.9123	0.4954	-0.093
Mof_C 	C 	0.5684	0.857	0.4683	-0.017
Mof_C 	C 	0.4907	0.5978	0.3398	0.302
Mof_C 	C 	0.321	0.9928	0.6192	-0.025
Mof_C 	C 	0.364	0.0556	0.6151	-0.015
Mof_C 	C 	0.4207	0.0569	0.5886	-0.092
Mof_C 	C 	0.4343	0.9953	0.5664	0.062
Mof_C 	C 	0.3912	0.9325	0.5705	-0.099
Mof_C 	C 	0.3346	0.9312	0.5969	-0.016
Mof_C 	C 	0.4966	0.6564	0.3699	-0.083
Mof_C 	C 	0.4326	0.6754	0.3892	0.023
Mof_C 	C 	0.4348	0.7292	0.4172	-0.106
Mof_C 	C 	0.501	0.764	0.4258	0.061
Mof_C 	C 	0.5649	0.745	0.4065	-0.108
Mof_C 	C 	0.5627	0.6912	0.3786	0.028
Mof_C 	C 	0.1571	0.9941	0.7063	-0.099
Mof_C 	C 	0.1797	0.9275	0.6908	0.035
Mof_C 	C 	0.2316	0.9267	0.6619	-0.114
Mof_C 	C 	0.2609	0.9925	0.6486	0.064
Mof_C 	C 	0.2383	0.0591	0.6641	-0.111
Mof_C 	C 	0.1864	0.0599	0.693	0.035
Mof_C 	C 	0.1026	0.9982	0.7375	0.303
Mof_C 	C 	0.6754	0.9963	0.9554	-0.024
Mof_C 	C 	0.6525	0.0639	0.9696	-0.01
Mof_C 	C 	0.5971	0.0669	0.9966	-0.102
Mof_C 	C 	0.5647	0.0022	0.0096	0.07
Mof_C 	C 	0.5877	0.9345	0.9954	-0.099
Mof_C 	C 	0.643	0.9316	0.9683	-0.013
Mof_C 	C 	0.9022	0.0093	0.8398	0.303
Mof_C 	C 	0.5072	0.179	0.1192	-0.025
Mof_C 	C 	0.4444	0.136	0.1151	-0.015
Mof_C 	C 	0.4431	0.0793	0.0886	-0.095
Mof_C 	C 	0.5047	0.0657	0.0664	0.066
Mof_C 	C 	0.5675	0.1088	0.0705	-0.101
Mof_C 	C 	0.5688	0.1654	0.0969	-0.014
Mof_C 	C 	0.8436	0.0034	0.8699	-0.079
Mof_C 	C 	0.8246	0.0674	0.8892	0.02
Mof_C 	C 	0.7708	0.0652	0.9172	-0.101
Mof_C 	C 	0.736	0.999	0.9258	0.058
Mof_C 	C 	0.755	0.9351	0.9065	-0.106
Mof_C 	C 	0.8088	0.9373	0.8786	0.023
Mof_C 	C 	0.5059	0.3429	0.2063	-0.098
Mof_C 	C 	0.5725	0.3203	0.1908	0.036
Mof_C 	C 	0.5733	0.2684	0.1619	-0.115
Mof_C 	C 	0.5075	0.2391	0.1486	0.067
Mof_C 	C 	0.4409	0.2617	0.1641	-0.114
Mof_C 	C 	0.4401	0.3136	0.193	0.034
Mof_C 	C 	0.5018	0.3974	0.2375	0.305
Mof_C 	C 	0.3246	0.0037	0.9554	-0.017
Mof_C 	C 	0.3475	0.9361	0.9696	-0.02
Mof_C 	C 	0.4029	0.9331	0.9966	-0.094
Mof_C 	C 	0.4353	0.9978	0.0096	0.059
Mof_C 	C 	0.4123	0.0655	0.9954	-0.088
Mof_C 	C 	0.357	0.0684	0.9683	-0.02
Mof_C 	C 	0.0978	0.9907	0.8398	0.302
Mof_C 	C 	0.4928	0.821	0.1192	-0.024
Mof_C 	C 	0.5556	0.864	0.1151	-0.016
Mof_C 	C 	0.5569	0.9207	0.0886	-0.095
Mof_C 	C 	0.4953	0.9343	0.0664	0.063
Mof_C 	C 	0.4325	0.8912	0.0705	-0.1
Mof_C 	C 	0.4312	0.8346	0.0969	-0.016
Mof_C 	C 	0.1564	0.9966	0.8699	-0.086
Mof_C 	C 	0.1754	0.9326	0.8892	0.026
Mof_C 	C 	0.2292	0.9348	0.9172	-0.11
Mof_C 	C 	0.264	0.001	0.9258	0.064
Mof_C 	C 	0.245	0.0649	0.9065	-0.111
Mof_C 	C 	0.1912	0.0627	0.8786	0.032
Mof_C 	C 	0.4941	0.6571	0.2063	-0.098
Mof_C 	C 	0.4275	0.6797	0.1908	0.035
Mof_C 	C 	0.4267	0.7316	0.1619	-0.115
Mof_C 	C 	0.4925	0.7609	0.1486	0.066
Mof_C 	C 	0.5591	0.7383	0.1641	-0.113
Mof_C 	C 	0.5599	0.6864	0.193	0.034
Mof_C 	C 	0.4982	0.6026	0.2375	0.305
Mof_C 	C 	0.5	0	0.5383	-0.084
Mof_C 	C 	0.5	5.41453e-34	0.0383	-0.084
Mof_O 	O 	0.4474	0.4222	0.3246	-0.406
Mof_O 	O 	0.9145	0.9376	0.7516	-0.381
Mof_O 	O 	0.5748	0.4303	0.3334	-0.354
Mof_O 	O 	0.9353	0.0616	0.7484	-0.391
Mof_O 	O 	0.5526	0.5778	0.3246	-0.406
Mof_O 	O 	0.0855	0.0624	0.7516	-0.377
Mof_O 	O 	0.4252	0.5697	0.3334	-0.354
Mof_O 	O 	0.0647	0.9384	0.7484	-0.39
Mof_O 	O 	0.9222	0.9474	0.8246	-0.407
Mof_O 	O 	0.4376	0.4145	0.2516	-0.379
Mof_O 	O 	0.9303	0.0748	0.8334	-0.355
Mof_O 	O 	0.5616	0.4353	0.2484	-0.391
Mof_O 	O 	0.0778	0.0526	0.8246	-0.404
Mof_O 	O 	0.5624	0.5855	0.2516	-0.379
Mof_O 	O 	0.0697	0.9252	0.8334	-0.354
Mof_O 	O 	0.4384	0.5647	0.2484	-0.39
_end
