data_functionalizedCrystal
_audit_creation_method	'EQeq! by Chris Wilmer'
_symmetry_space_group_name_H-M	'P1'
_symmetry_Int_Tables_number	1
_symmetry_cell_setting	triclinic
loop_
_symmetry_equiv_pos_as_xyz
  x,y,z
_cell_length_a	19.2343
_cell_length_b	19.2343
_cell_length_c	36.009
_cell_angle_alpha	90
_cell_angle_beta	90
_cell_angle_gamma	120
loop_
_atom_site_label
_atom_site_type_symbol
_atom_site_fract_x
_atom_site_fract_y
_atom_site_fract_z
_atom_site_charge
Mof_H 	H 	0.2822	0.9224	0.9199	0.081
Mof_H 	H 	0.9099	0.555	0.593	0.014
Mof_H 	H 	0.2322	0.9646	0.8829	0.08
Mof_H 	H 	0.6748	0.1423	0.8477	0.039
Mof_C 	C 	0.1019	0.4931	0.39495	0.023
Mof_C 	C 	0.7941	0.0777	0.1354	-0.163
Mof_C 	C 	0.567	0.7213	0.95909	-0.053
Mof_C 	C 	0.90213	0.35763	0.02344	0.382
Mof_C 	C 	0.373	0.5055	0.1407	-0.005
Mof_C 	C 	0.3788	0.1297	0.4292	-0.103
Mof_O 	O 	0.63013	0.11332	0.99128	-0.454
Mof_O 	O 	0.44493	0.40603	0.04242	-0.465
Mof_O 	O 	0.3406	0.79788	0.21003	-0.673
Mof_H 	H 	0.0776	0.3598	0.9199	0.091
Mof_H 	H 	0.445	0.3549	0.593	0.019
Mof_H 	H 	0.8577	0.5325	0.8477	0.042
Mof_H 	H 	0.2459	0.3303	0.8512	0.083
Mof_C 	C 	0.5069	0.6088	0.39495	0.024
Mof_C 	C 	0.9223	0.7164	0.1354	-0.161
Mof_C 	C 	0.2787	0.8457	0.95909	-0.054
Mof_C 	C 	0.64237	0.5445	0.02344	0.381
Mof_C 	C 	0.4945	0.8675	0.1407	-0.005
Mof_C 	C 	0.8703	0.2491	0.4292	-0.102
Mof_O 	O 	0.88668	0.51681	0.99128	-0.454
Mof_O 	O 	0.59397	0.0389	0.04242	-0.465
Mof_O 	O 	0.20212	0.54272	0.21003	-0.673
Mof_H 	H 	0.9365	0.7602	0.3473	0.084
Mof_H 	H 	0.6402	0.7178	0.9199	0.091
Mof_H 	H 	0.6451	0.0901	0.593	0.018
Mof_H 	H 	0.4675	0.3252	0.8477	0.038
Mof_H 	H 	0.6697	0.9156	0.8512	0.084
Mof_C 	C 	0.3912	0.8981	0.39495	0.023
Mof_C 	C 	0.2836	0.2059	0.1354	-0.162
Mof_C 	C 	0.1543	0.433	0.95909	-0.053
Mof_C 	C 	0.4555	0.09787	0.02344	0.381
Mof_C 	C 	0.1325	0.627	0.1407	-0.004
Mof_C 	C 	0.7509	0.6212	0.4292	-0.102
Mof_O 	O 	0.48319	0.36987	0.99128	-0.454
Mof_O 	O 	0.9611	0.55507	0.04242	-0.466
Mof_O 	O 	0.45728	0.6594	0.21003	-0.673
Mof_H 	H 	0.7178	0.0776	0.4199	0.091
Mof_H 	H 	0.0901	0.445	0.093	0.019
Mof_H 	H 	0.3252	0.8577	0.3477	0.038
Mof_H 	H 	0.9156	0.2459	0.3512	0.083
Mof_C 	C 	0.8981	0.5069	0.89495	0.024
Mof_C 	C 	0.433	0.2787	0.45909	-0.052
Mof_C 	C 	0.09787	0.64237	0.52344	0.381
Mof_C 	C 	0.627	0.4945	0.6407	-0.004
Mof_C 	C 	0.6212	0.8703	0.9292	-0.102
Mof_O 	O 	0.36987	0.88668	0.49128	-0.454
Mof_O 	O 	0.55507	0.59397	0.54242	-0.465
Mof_O 	O 	0.6594	0.20212	0.71003	-0.673
Mof_H 	H 	0.1763	0.9365	0.8473	0.085
Mof_H 	H 	0.9224	0.6402	0.4199	0.081
Mof_H 	H 	0.555	0.6451	0.093	0.019
Mof_H 	H 	0.9646	0.7324	0.3829	0.079
Mof_H 	H 	0.1423	0.4675	0.3477	0.039
Mof_C 	C 	0.4931	0.3912	0.89495	0.023
Mof_C 	C 	0.0777	0.2836	0.6354	-0.163
Mof_C 	C 	0.7213	0.1543	0.45909	-0.053
Mof_C 	C 	0.35763	0.4555	0.52344	0.381
Mof_C 	C 	0.5055	0.1325	0.6407	-0.004
Mof_C 	C 	0.1297	0.7509	0.9292	-0.102
Mof_O 	O 	0.11332	0.48319	0.49128	-0.454
Mof_O 	O 	0.40603	0.9611	0.54242	-0.464
Mof_O 	O 	0.79788	0.45728	0.71003	-0.673
Mof_H 	H 	0.3598	0.2822	0.4199	0.091
Mof_H 	H 	0.3549	0.9099	0.093	0.018
Mof_H 	H 	0.5325	0.6748	0.3477	0.042
Mof_H 	H 	0.3303	0.0844	0.3512	0.083
Mof_C 	C 	0.6088	0.1019	0.89495	0.023
Mof_C 	C 	0.7164	0.7941	0.6354	-0.16
Mof_C 	C 	0.8457	0.567	0.45909	-0.054
Mof_C 	C 	0.5445	0.90213	0.52344	0.381
Mof_C 	C 	0.8675	0.373	0.6407	-0.005
Mof_C 	C 	0.2491	0.3788	0.9292	-0.102
Mof_O 	O 	0.51681	0.63013	0.49128	-0.453
Mof_O 	O 	0.0389	0.44493	0.54242	-0.465
Mof_O 	O 	0.54272	0.3406	0.71003	-0.673
Mof_H 	H 	0.9224	0.2822	0.0801	0.09
Mof_H 	H 	0.555	0.9099	0.407	0.019
Mof_H 	H 	0.1423	0.6748	0.1523	0.039
Mof_H 	H 	0.7541	0.0844	0.1488	0.084
Mof_C 	C 	0.4931	0.1019	0.60505	0.024
Mof_C 	C 	0.7213	0.567	0.04091	-0.053
Mof_C 	C 	0.35763	0.90213	0.97656	0.382
Mof_C 	C 	0.5055	0.373	0.8593	-0.004
Mof_C 	C 	0.1297	0.3788	0.5708	-0.102
Mof_O 	O 	0.11332	0.63013	0.00872	-0.454
Mof_O 	O 	0.40603	0.44493	0.95758	-0.465
Mof_O 	O 	0.79788	0.3406	0.78997	-0.673
Mof_H 	H 	0.0635	0.8237	0.6527	0.085
Mof_H 	H 	0.3598	0.0776	0.0801	0.09
Mof_H 	H 	0.3549	0.445	0.407	0.018
Mof_H 	H 	0.5325	0.8577	0.1523	0.039
Mof_H 	H 	0.3303	0.2459	0.1488	0.084
Mof_C 	C 	0.6088	0.5069	0.60505	0.023
Mof_C 	C 	0.7164	0.9223	0.8646	-0.162
Mof_C 	C 	0.8457	0.2787	0.04091	-0.053
Mof_C 	C 	0.5445	0.64237	0.97656	0.381
Mof_C 	C 	0.8675	0.4945	0.8593	-0.004
Mof_C 	C 	0.2491	0.8703	0.5708	-0.102
Mof_O 	O 	0.51681	0.88668	0.00872	-0.454
Mof_O 	O 	0.0389	0.59397	0.95758	-0.463
Mof_O 	O 	0.54272	0.20212	0.78997	-0.673
Mof_H 	H 	0.7178	0.6402	0.0801	0.09
Mof_H 	H 	0.0901	0.6451	0.407	0.016
Mof_H 	H 	0.3252	0.4675	0.1523	0.039
Mof_H 	H 	0.9156	0.6697	0.1488	0.083
Mof_C 	C 	0.8981	0.3912	0.60505	0.023
Mof_C 	C 	0.2059	0.2836	0.8646	-0.16
Mof_C 	C 	0.433	0.1543	0.04091	-0.053
Mof_C 	C 	0.09787	0.4555	0.97656	0.381
Mof_C 	C 	0.627	0.1325	0.8593	-0.005
Mof_C 	C 	0.6212	0.7509	0.5708	-0.103
Mof_O 	O 	0.36987	0.48319	0.00872	-0.454
Mof_O 	O 	0.55507	0.9611	0.95758	-0.465
Mof_O 	O 	0.6594	0.45728	0.78997	-0.673
Mof_H 	H 	0.0776	0.7178	0.5801	0.082
Mof_H 	H 	0.445	0.0901	0.907	0.015
Mof_H 	H 	0.0354	0.7678	0.6171	0.08
Mof_H 	H 	0.8577	0.3252	0.6523	0.039
Mof_C 	C 	0.5069	0.8981	0.10505	0.024
Mof_C 	C 	0.9223	0.2059	0.3646	-0.162
Mof_C 	C 	0.2787	0.433	0.54091	-0.053
Mof_C 	C 	0.64237	0.09787	0.47656	0.381
Mof_C 	C 	0.4945	0.627	0.3593	-0.004
Mof_C 	C 	0.8703	0.6212	0.0708	-0.102
Mof_O 	O 	0.88668	0.36987	0.50872	-0.454
Mof_O 	O 	0.59397	0.55507	0.45758	-0.464
Mof_O 	O 	0.20212	0.6594	0.28997	-0.674
Mof_H 	H 	0.6402	0.9224	0.5801	0.091
Mof_H 	H 	0.6451	0.555	0.907	0.019
Mof_H 	H 	0.4675	0.1423	0.6523	0.042
Mof_H 	H 	0.6697	0.7541	0.6488	0.083
Mof_C 	C 	0.3912	0.4931	0.10505	0.024
Mof_C 	C 	0.2836	0.0777	0.3646	-0.16
Mof_C 	C 	0.1543	0.7213	0.54091	-0.054
Mof_C 	C 	0.4555	0.35763	0.47656	0.381
Mof_C 	C 	0.1325	0.5055	0.3593	-0.004
Mof_C 	C 	0.7509	0.1297	0.0708	-0.102
Mof_O 	O 	0.48319	0.11332	0.50872	-0.453
Mof_O 	O 	0.9611	0.40603	0.45758	-0.466
Mof_O 	O 	0.45728	0.79788	0.28997	-0.673
Mof_H 	H 	0.2822	0.3598	0.5801	0.091
Mof_H 	H 	0.9099	0.3549	0.907	0.018
Mof_H 	H 	0.6748	0.5325	0.6523	0.038
Mof_H 	H 	0.0844	0.3303	0.6488	0.084
Mof_C 	C 	0.1019	0.6088	0.10505	0.023
Mof_C 	C 	0.567	0.8457	0.54091	-0.052
Mof_C 	C 	0.90213	0.5445	0.47656	0.381
Mof_C 	C 	0.373	0.8675	0.3593	-0.004
Mof_C 	C 	0.3788	0.2491	0.0708	-0.102
Mof_O 	O 	0.63013	0.51681	0.50872	-0.454
Mof_O 	O 	0.44493	0.0389	0.45758	-0.465
Mof_O 	O 	0.3406	0.54272	0.28997	-0.673
Mof_H 	H 	0.7602	0.8237	0.6527	0.084
Mof_H 	H 	0.7178	0.0776	0.0801	0.082
Mof_H 	H 	0.0901	0.445	0.407	0.016
Mof_H 	H 	0.7678	0.0354	0.1171	0.081
Mof_H 	H 	0.3252	0.8577	0.1523	0.041
Mof_C 	C 	0.8981	0.5069	0.60505	0.023
Mof_C 	C 	0.2059	0.9223	0.8646	-0.161
Mof_C 	C 	0.433	0.2787	0.04091	-0.054
Mof_C 	C 	0.09787	0.64237	0.97656	0.382
Mof_C 	C 	0.627	0.4945	0.8593	-0.004
Mof_C 	C 	0.6212	0.8703	0.5708	-0.102
Mof_O 	O 	0.36987	0.88668	0.00872	-0.454
Mof_O 	O 	0.55507	0.59397	0.95758	-0.464
Mof_O 	O 	0.6594	0.20212	0.78997	-0.673
Mof_H 	H 	0.9224	0.6402	0.0801	0.082
Mof_H 	H 	0.555	0.6451	0.407	0.019
Mof_H 	H 	0.9646	0.7324	0.1171	0.08
Mof_H 	H 	0.1423	0.4675	0.1523	0.041
Mof_C 	C 	0.4931	0.3912	0.60505	0.024
Mof_C 	C 	0.7213	0.1543	0.04091	-0.054
Mof_C 	C 	0.35763	0.4555	0.97656	0.381
Mof_C 	C 	0.5055	0.1325	0.8593	-0.005
Mof_C 	C 	0.1297	0.7509	0.5708	-0.103
Mof_O 	O 	0.11332	0.48319	0.00872	-0.453
Mof_O 	O 	0.40603	0.9611	0.95758	-0.465
Mof_O 	O 	0.79788	0.45728	0.78997	-0.673
Mof_H 	H 	0.0635	0.2398	0.6527	0.086
Mof_H 	H 	0.3598	0.2822	0.0801	0.082
Mof_H 	H 	0.3549	0.9099	0.407	0.015
Mof_H 	H 	0.2676	0.2322	0.1171	0.081
Mof_H 	H 	0.5325	0.6748	0.1523	0.041
Mof_C 	C 	0.6088	0.1019	0.60505	0.024
Mof_C 	C 	0.8457	0.567	0.04091	-0.054
Mof_C 	C 	0.5445	0.90213	0.97656	0.382
Mof_C 	C 	0.8675	0.373	0.8593	-0.004
Mof_C 	C 	0.2491	0.3788	0.5708	-0.102
Mof_O 	O 	0.51681	0.63013	0.00872	-0.453
Mof_O 	O 	0.0389	0.44493	0.95758	-0.463
Mof_O 	O 	0.54272	0.3406	0.78997	-0.673
Mof_H 	H 	0.2398	0.1763	0.1527	0.086
Mof_H 	H 	0.2822	0.9224	0.5801	0.091
Mof_H 	H 	0.9099	0.555	0.907	0.019
Mof_H 	H 	0.6748	0.1423	0.6523	0.041
Mof_H 	H 	0.0844	0.7541	0.6488	0.083
Mof_C 	C 	0.1019	0.4931	0.10505	0.024
Mof_C 	C 	0.567	0.7213	0.54091	-0.053
Mof_C 	C 	0.90213	0.35763	0.47656	0.381
Mof_C 	C 	0.373	0.5055	0.3593	-0.004
Mof_C 	C 	0.3788	0.1297	0.0708	-0.102
Mof_O 	O 	0.63013	0.11332	0.50872	-0.453
Mof_O 	O 	0.44493	0.40603	0.45758	-0.464
Mof_O 	O 	0.3406	0.79788	0.28997	-0.673
Mof_H 	H 	0.8237	0.0635	0.1527	0.086
Mof_H 	H 	0.0776	0.3598	0.5801	0.082
Mof_H 	H 	0.445	0.3549	0.907	0.015
Mof_H 	H 	0.0354	0.2676	0.6171	0.081
Mof_H 	H 	0.8577	0.5325	0.6523	0.038
Mof_C 	C 	0.5069	0.6088	0.10505	0.024
Mof_C 	C 	0.9223	0.7164	0.3646	-0.159
Mof_C 	C 	0.2787	0.8457	0.54091	-0.053
Mof_C 	C 	0.64237	0.5445	0.47656	0.381
Mof_C 	C 	0.4945	0.8675	0.3593	-0.004
Mof_C 	C 	0.8703	0.2491	0.0708	-0.102
Mof_O 	O 	0.88668	0.51681	0.50872	-0.454
Mof_O 	O 	0.59397	0.0389	0.45758	-0.464
Mof_O 	O 	0.20212	0.54272	0.28997	-0.673
Mof_H 	H 	0.9365	0.7602	0.1527	0.085
Mof_H 	H 	0.6402	0.7178	0.5801	0.082
Mof_H 	H 	0.6451	0.0901	0.907	0.016
Mof_H 	H 	0.7324	0.7678	0.6171	0.079
Mof_H 	H 	0.4675	0.3252	0.6523	0.042
Mof_C 	C 	0.3912	0.8981	0.10505	0.024
Mof_C 	C 	0.1543	0.433	0.54091	-0.054
Mof_C 	C 	0.4555	0.09787	0.47656	0.381
Mof_C 	C 	0.1325	0.627	0.3593	-0.004
Mof_C 	C 	0.7509	0.6212	0.0708	-0.102
Mof_O 	O 	0.48319	0.36987	0.50872	-0.453
Mof_O 	O 	0.9611	0.55507	0.45758	-0.466
Mof_O 	O 	0.45728	0.6594	0.28997	-0.672
Mof_H 	H 	0.0776	0.7178	0.9199	0.091
Mof_H 	H 	0.445	0.0901	0.593	0.019
Mof_H 	H 	0.8577	0.3252	0.8477	0.041
Mof_H 	H 	0.2459	0.9156	0.8512	0.083
Mof_C 	C 	0.5069	0.8981	0.39495	0.024
Mof_C 	C 	0.2787	0.433	0.95909	-0.054
Mof_C 	C 	0.64237	0.09787	0.02344	0.382
Mof_C 	C 	0.4945	0.627	0.1407	-0.004
Mof_C 	C 	0.8703	0.6212	0.4292	-0.103
Mof_O 	O 	0.88668	0.36987	0.99128	-0.454
Mof_O 	O 	0.59397	0.55507	0.04242	-0.464
Mof_O 	O 	0.20212	0.6594	0.21003	-0.673
Mof_H 	H 	0.9365	0.1763	0.3473	0.086
Mof_H 	H 	0.6402	0.9224	0.9199	0.082
Mof_H 	H 	0.6451	0.555	0.593	0.015
Mof_H 	H 	0.7324	0.9646	0.8829	0.081
Mof_H 	H 	0.4675	0.1423	0.8477	0.038
Mof_C 	C 	0.3912	0.4931	0.39495	0.024
Mof_C 	C 	0.1543	0.7213	0.95909	-0.053
Mof_C 	C 	0.4555	0.35763	0.02344	0.381
Mof_C 	C 	0.1325	0.5055	0.1407	-0.003
Mof_C 	C 	0.7509	0.1297	0.4292	-0.102
Mof_O 	O 	0.48319	0.11332	0.99128	-0.454
Mof_O 	O 	0.9611	0.40603	0.04242	-0.465
Mof_O 	O 	0.45728	0.79788	0.21003	-0.673
Mof_H 	H 	0.2398	0.0635	0.3473	0.084
Mof_H 	H 	0.2822	0.3598	0.9199	0.082
Mof_H 	H 	0.9099	0.3549	0.593	0.016
Mof_H 	H 	0.2322	0.2676	0.8829	0.079
Mof_H 	H 	0.6748	0.5325	0.8477	0.042
Mof_C 	C 	0.1019	0.6088	0.39495	0.023
Mof_C 	C 	0.567	0.8457	0.95909	-0.054
Mof_C 	C 	0.90213	0.5445	0.02344	0.382
Mof_C 	C 	0.373	0.8675	0.1407	-0.004
Mof_C 	C 	0.3788	0.2491	0.4292	-0.102
Mof_O 	O 	0.63013	0.51681	0.99128	-0.453
Mof_O 	O 	0.44493	0.0389	0.04242	-0.464
Mof_O 	O 	0.3406	0.54272	0.21003	-0.673
Mof_H 	H 	0.1763	0.2398	0.8473	0.084
Mof_H 	H 	0.9224	0.2822	0.4199	0.082
Mof_H 	H 	0.555	0.9099	0.093	0.016
Mof_H 	H 	0.9646	0.2322	0.3829	0.081
Mof_H 	H 	0.1423	0.6748	0.3477	0.038
Mof_C 	C 	0.4931	0.1019	0.89495	0.023
Mof_C 	C 	0.0777	0.7941	0.6354	-0.161
Mof_C 	C 	0.7213	0.567	0.45909	-0.053
Mof_C 	C 	0.35763	0.90213	0.52344	0.381
Mof_C 	C 	0.5055	0.373	0.6407	-0.004
Mof_C 	C 	0.1297	0.3788	0.9292	-0.102
Mof_O 	O 	0.11332	0.63013	0.49128	-0.454
Mof_O 	O 	0.40603	0.44493	0.54242	-0.464
Mof_O 	O 	0.79788	0.3406	0.71003	-0.673
Mof_H 	H 	0.3598	0.0776	0.4199	0.082
Mof_H 	H 	0.3549	0.445	0.093	0.016
Mof_H 	H 	0.2676	0.0354	0.3829	0.079
Mof_H 	H 	0.5325	0.8577	0.3477	0.042
Mof_C 	C 	0.6088	0.5069	0.89495	0.024
Mof_C 	C 	0.8457	0.2787	0.45909	-0.054
Mof_C 	C 	0.5445	0.64237	0.52344	0.381
Mof_C 	C 	0.8675	0.4945	0.6407	-0.005
Mof_C 	C 	0.2491	0.8703	0.9292	-0.102
Mof_O 	O 	0.51681	0.88668	0.49128	-0.453
Mof_O 	O 	0.0389	0.59397	0.54242	-0.465
Mof_O 	O 	0.54272	0.20212	0.71003	-0.673
Mof_H 	H 	0.7602	0.9365	0.8473	0.086
Mof_H 	H 	0.7178	0.6402	0.4199	0.091
Mof_H 	H 	0.0901	0.6451	0.093	0.016
Mof_H 	H 	0.3252	0.4675	0.3477	0.041
Mof_H 	H 	0.9156	0.6697	0.3512	0.082
Mof_C 	C 	0.8981	0.3912	0.89495	0.024
Mof_C 	C 	0.433	0.1543	0.45909	-0.053
Mof_C 	C 	0.09787	0.4555	0.52344	0.381
Mof_C 	C 	0.627	0.1325	0.6407	-0.003
Mof_C 	C 	0.6212	0.7509	0.9292	-0.102
Mof_O 	O 	0.36987	0.48319	0.49128	-0.453
Mof_O 	O 	0.55507	0.9611	0.54242	-0.464
Mof_O 	O 	0.6594	0.45728	0.71003	-0.673
Mof_Zn	Zn	0.0461	0.52305	0.03449	1.218
Mof_Zn	Zn	0.47695	0.52305	0.03449	1.217
Mof_Zn	Zn	0.47695	0.9539	0.03449	1.217
Mof_Zn	Zn	0.9539	0.47695	0.53449	1.217
Mof_Zn	Zn	0.52305	0.47695	0.53449	1.217
Mof_Zn	Zn	0.52305	0.0461	0.53449	1.217
Mof_Zn	Zn	0.52305	0.0461	0.96551	1.217
Mof_Zn	Zn	0.52305	0.47695	0.96551	1.217
Mof_Zn	Zn	0.9539	0.47695	0.96551	1.217
Mof_Zn	Zn	0.47695	0.9539	0.46551	1.217
Mof_Zn	Zn	0.47695	0.52305	0.46551	1.217
Mof_Zn	Zn	0.0461	0.52305	0.46551	1.217
Mof_Cr	Cr	0.44809	0.72404	0.25	2.106
Mof_Cr	Cr	0.27596	0.72404	0.25	2.104
Mof_Cr	Cr	0.27596	0.55191	0.25	2.105
Mof_Cr	Cr	0.55191	0.27596	0.75	2.105
Mof_Cr	Cr	0.72404	0.27596	0.75	2.105
Mof_Cr	Cr	0.72404	0.44809	0.75	2.105
Mof_H 	H 	0.7643	0.2357	0.9997	0.06
Mof_C 	C 	0.17575	0.82425	0.5875	0.166
Mof_H 	H 	0.7643	0.5286	0.9997	0.061
Mof_C 	C 	0.17575	0.3515	0.5875	0.166
Mof_H 	H 	0.4714	0.2357	0.9997	0.06
Mof_C 	C 	0.6485	0.82425	0.5875	0.166
Mof_H 	H 	0.2357	0.7643	0.4997	0.061
Mof_C 	C 	0.82425	0.17575	0.0875	0.165
Mof_H 	H 	0.2357	0.4714	0.4997	0.061
Mof_C 	C 	0.82425	0.6485	0.0875	0.166
Mof_H 	H 	0.5286	0.7643	0.4997	0.061
Mof_C 	C 	0.3515	0.17575	0.0875	0.165
Mof_H 	H 	0.2357	0.7643	0.0003	0.06
Mof_C 	C 	0.82425	0.17575	0.4125	0.166
Mof_H 	H 	0.5286	0.7643	0.0003	0.061
Mof_C 	C 	0.3515	0.17575	0.4125	0.166
Mof_H 	H 	0.2357	0.4714	0.0003	0.061
Mof_C 	C 	0.82425	0.6485	0.4125	0.166
Mof_H 	H 	0.7643	0.2357	0.5003	0.061
Mof_C 	C 	0.17575	0.82425	0.9125	0.166
Mof_H 	H 	0.4714	0.2357	0.5003	0.061
Mof_C 	C 	0.6485	0.82425	0.9125	0.166
Mof_H 	H 	0.7643	0.5286	0.5003	0.061
Mof_C 	C 	0.17575	0.3515	0.9125	0.166
Mof_C 	C 	0.85214	0.42607	0.84139	-0.136
Mof_C 	C 	0.449	0.2245	0.47635	0.002
Mof_N 	N 	0.91158	0.45579	0.91295	-0.232
Mof_O 	O 	0.3029	0.15145	0.3829	-0.191
Mof_C 	C 	0.57393	0.42607	0.84139	-0.136
Mof_C 	C 	0.7755	0.2245	0.47635	0.002
Mof_N 	N 	0.54421	0.45579	0.91295	-0.232
Mof_O 	O 	0.84855	0.15145	0.3829	-0.19
Mof_C 	C 	0.57393	0.14786	0.84139	-0.137
Mof_C 	C 	0.7755	0.551	0.47635	0.002
Mof_N 	N 	0.54421	0.08842	0.91295	-0.232
Mof_O 	O 	0.84855	0.6971	0.3829	-0.191
Mof_C 	C 	0.14786	0.57393	0.34139	-0.137
Mof_C 	C 	0.551	0.7755	0.97635	0.002
Mof_N 	N 	0.08842	0.54421	0.41295	-0.232
Mof_O 	O 	0.6971	0.84855	0.8829	-0.19
Mof_C 	C 	0.42607	0.57393	0.34139	-0.135
Mof_C 	C 	0.2245	0.7755	0.97635	0.003
Mof_N 	N 	0.45579	0.54421	0.41295	-0.232
Mof_O 	O 	0.15145	0.84855	0.8829	-0.19
Mof_C 	C 	0.42607	0.85214	0.34139	-0.136
Mof_C 	C 	0.2245	0.449	0.97635	0.002
Mof_N 	N 	0.45579	0.91158	0.41295	-0.232
Mof_O 	O 	0.15145	0.3029	0.8829	-0.191
Mof_C 	C 	0.42607	0.85214	0.15861	-0.136
Mof_C 	C 	0.2245	0.449	0.52365	0.002
Mof_N 	N 	0.45579	0.91158	0.08705	-0.232
Mof_O 	O 	0.15145	0.3029	0.6171	-0.19
Mof_C 	C 	0.42607	0.57393	0.15861	-0.136
Mof_C 	C 	0.2245	0.7755	0.52365	0.002
Mof_N 	N 	0.45579	0.54421	0.08705	-0.232
Mof_O 	O 	0.15145	0.84855	0.6171	-0.19
Mof_C 	C 	0.14786	0.57393	0.15861	-0.136
Mof_C 	C 	0.551	0.7755	0.52365	0.002
Mof_N 	N 	0.08842	0.54421	0.08705	-0.232
Mof_O 	O 	0.6971	0.84855	0.6171	-0.191
Mof_C 	C 	0.57393	0.14786	0.65861	-0.136
Mof_C 	C 	0.7755	0.551	0.02365	0.003
Mof_N 	N 	0.54421	0.08842	0.58705	-0.232
Mof_O 	O 	0.84855	0.6971	0.1171	-0.191
Mof_C 	C 	0.57393	0.42607	0.65861	-0.136
Mof_C 	C 	0.7755	0.2245	0.02365	0.003
Mof_N 	N 	0.54421	0.45579	0.58705	-0.232
Mof_O 	O 	0.84855	0.15145	0.1171	-0.19
Mof_C 	C 	0.85214	0.42607	0.65861	-0.137
Mof_C 	C 	0.449	0.2245	0.02365	0.002
Mof_N 	N 	0.91158	0.45579	0.58705	-0.232
Mof_O 	O 	0.3029	0.15145	0.1171	-0.191
Mof_C 	C 	0.40602	0.81204	0.1962	0.57
Mof_C 	C 	0.18796	0.59398	0.1962	0.57
Mof_C 	C 	0.40602	0.59398	0.1962	0.57
Mof_C 	C 	0.59398	0.18796	0.6962	0.57
Mof_C 	C 	0.81204	0.40602	0.6962	0.57
Mof_C 	C 	0.59398	0.40602	0.6962	0.57
Mof_C 	C 	0.81204	0.40602	0.8038	0.57
Mof_C 	C 	0.59398	0.18796	0.8038	0.57
Mof_C 	C 	0.59398	0.40602	0.8038	0.57
Mof_C 	C 	0.18796	0.59398	0.3038	0.57
Mof_C 	C 	0.40602	0.81204	0.3038	0.57
Mof_C 	C 	0.40602	0.59398	0.3038	0.57
Mof_O 	O 	0.33333	0.66667	0.25	-1.15
Mof_O 	O 	0.66667	0.33333	0.75	-1.15
_end
