data_functionalizedCrystal
_audit_creation_method	'EQeq! by Chris Wilmer'
_symmetry_space_group_name_H-M	'P1'
_symmetry_Int_Tables_number	1
_symmetry_cell_setting	triclinic
loop_
_symmetry_equiv_pos_as_xyz
  x,y,z
_cell_length_a	13.8436
_cell_length_b	17.8039
_cell_length_c	17.1476
_cell_angle_alpha	90
_cell_angle_beta	110.268
_cell_angle_gamma	90
loop_
_atom_site_label
_atom_site_type_symbol
_atom_site_fract_x
_atom_site_fract_y
_atom_site_fract_z
_atom_site_charge
Mof_Cu	Cu	0.23929	0.51055	0.43782	0.876
Mof_O 	O 	0.3696	0.4667	0.5015	-0.565
Mof_H 	H 	0.3736	0.4695	0.5592	0.139
Mof_N 	N 	0.1638	0.4164	0.4517	-0.199
Mof_N 	N 	0.0813	0.4128	0.4784	-0.207
Mof_N 	N 	0.1201	0.2986	0.4563	-0.191
Mof_N 	N 	0.89	0.052	0.1422	-0.224
Mof_N 	N 	0.9795	0.0619	0.126	-0.162
Mof_N 	N 	0.0071	0.0899	0.257	-0.201
Mof_N 	N 	0.7869	0.0603	0.953	-0.182
Mof_N 	N 	0.8691	0.051	0.9262	-0.197
Mof_N 	N 	0.7398	0.0957	0.823	-0.185
Mof_N 	N 	0.5748	0.4129	0.568	-0.211
Mof_N 	N 	0.6782	0.4038	0.5845	-0.21
Mof_N 	N 	0.617	0.2989	0.6133	-0.185
Mof_C 	C 	0.186	0.3464	0.4385	0.091
Mof_H 	H 	0.2399	0.3318	0.4194	-0.032
Mof_C 	C 	0.057	0.3426	0.4799	0.103
Mof_H 	H 	0.0017	0.3249	0.4957	-0.033
Mof_C 	C 	0.909	0.0679	0.2206	0.109
Mof_H 	H 	0.8601	0.0644	0.248	-0.048
Mof_C 	C 	0.0474	0.0868	0.1953	0.071
Mof_H 	H 	0.1158	0.1009	0.2015	-0.027
Mof_C 	C 	0.1182	0.2151	0.4471	0.338
Mof_C 	C 	0.2274	0.1845	0.4767	-0.433
Mof_H 	H 	0.263	0.1978	0.5358	0.142
Mof_H 	H 	0.2663	0.2066	0.4436	0.138
Mof_C 	C 	0.2227	0.0991	0.4666	0.326
Mof_H 	H 	0.2945	0.0788	0.4857	-0.09
Mof_C 	C 	0.1687	0.0784	0.375	-0.427
Mof_H 	H 	0.2072	0.0996	0.341	0.129
Mof_H 	H 	0.1662	0.0232	0.3684	0.123
Mof_C 	C 	0.0597	0.1103	0.3461	0.348
Mof_C 	C 	0.0636	0.1955	0.3546	-0.459
Mof_H 	H 	0.9929	0.2164	0.3347	0.164
Mof_H 	H 	0.1019	0.2173	0.3208	0.148
Mof_C 	C 	0.0599	0.1822	0.4995	-0.467
Mof_H 	H 	0.989	0.2026	0.4813	0.162
Mof_H 	H 	0.0949	0.1953	0.5587	0.148
Mof_C 	C 	0.0571	0.0959	0.488	0.354
Mof_H 	H 	0.0184	0.0732	0.5217	-0.113
Mof_C 	C 	0.0016	0.077	0.3972	-0.505
Mof_H 	H 	0.997	0.0219	0.3897	0.16
Mof_H 	H 	0.9308	0.0976	0.3788	0.163
Mof_C 	C 	0.1657	0.0644	0.5181	-0.45
Mof_H 	H 	0.2008	0.0767	0.5775	0.137
Mof_H 	H 	0.1638	0.0091	0.5118	0.13
Mof_C 	C 	0.7113	0.0872	0.8894	0.091
Mof_H 	H 	0.6449	0.0992	0.8905	-0.036
Mof_C 	C 	0.8391	0.0733	0.8478	0.092
Mof_H 	H 	0.881	0.0735	0.8142	-0.026
Mof_C 	C 	0.5396	0.3489	0.587	0.088
Mof_H 	H 	0.4704	0.3396	0.5827	-0.021
Mof_C 	C 	0.7005	0.3346	0.6121	0.101
Mof_H 	H 	0.7674	0.3131	0.6289	-0.023
Mof_C 	C 	0.6701	0.1159	0.7368	0.298
Mof_C 	C 	0.7015	0.0697	0.6754	-0.397
Mof_H 	H 	0.6973	0.0156	0.687	0.115
Mof_H 	H 	0.7735	0.0815	0.6811	0.122
Mof_C 	C 	0.6302	0.0876	0.5875	0.288
Mof_H 	H 	0.6514	0.0568	0.5474	-0.09
Mof_C 	C 	0.6407	0.1713	0.5696	-0.396
Mof_H 	H 	0.7128	0.1828	0.5754	0.129
Mof_H 	H 	0.5959	0.1836	0.5122	0.126
Mof_C 	C 	0.609	0.2172	0.6316	0.297
Mof_C 	C 	0.6803	0.2	0.7206	-0.393
Mof_H 	H 	0.6604	0.2306	0.7608	0.136
Mof_H 	H 	0.7525	0.2121	0.7271	0.135
Mof_C 	C 	0.5593	0.0978	0.7271	-0.397
Mof_H 	H 	0.5533	0.0438	0.7388	0.117
Mof_H 	H 	0.5386	0.1275	0.7676	0.125
Mof_C 	C 	0.4896	0.1158	0.6404	0.285
Mof_H 	H 	0.4169	0.1036	0.6348	-0.078
Mof_C 	C 	0.4976	0.1999	0.6229	-0.391
Mof_H 	H 	0.451	0.2123	0.566	0.128
Mof_H 	H 	0.4771	0.2305	0.6628	0.128
Mof_C 	C 	0.5204	0.0693	0.5767	-0.395
Mof_H 	H 	0.5134	0.015	0.5859	0.114
Mof_H 	H 	0.475	0.0819	0.5195	0.121
Mof_Cu	Cu	0.76071	0.01055	0.06218	0.845
Mof_O 	O 	0.6304	0.9667	0.9985	-0.513
Mof_H 	H 	0.6264	0.9695	0.9408	0.151
Mof_N 	N 	0.8362	0.9164	0.0483	-0.185
Mof_N 	N 	0.9187	0.9128	0.0216	-0.189
Mof_N 	N 	0.8799	0.7986	0.0437	-0.181
Mof_N 	N 	0.11	0.552	0.3578	-0.211
Mof_N 	N 	0.0205	0.5619	0.374	-0.174
Mof_N 	N 	0.9929	0.5899	0.243	-0.169
Mof_N 	N 	0.2131	0.5603	0.547	-0.187
Mof_N 	N 	0.1309	0.551	0.5738	-0.203
Mof_N 	N 	0.2602	0.5957	0.677	-0.186
Mof_N 	N 	0.4252	0.9129	0.932	-0.191
Mof_N 	N 	0.3218	0.9038	0.9155	-0.199
Mof_N 	N 	0.383	0.7989	0.8867	-0.186
Mof_C 	C 	0.814	0.8464	0.0615	0.091
Mof_H 	H 	0.7601	0.8318	0.0806	-0.028
Mof_C 	C 	0.943	0.8426	0.0201	0.104
Mof_H 	H 	0.9983	0.8249	0.0043	-0.02
Mof_C 	C 	0.091	0.5679	0.2794	0.076
Mof_H 	H 	0.1399	0.5644	0.252	-0.03
Mof_C 	C 	0.9526	0.5868	0.3047	0.114
Mof_H 	H 	0.8842	0.6009	0.2985	-0.025
Mof_C 	C 	0.8818	0.7151	0.0529	0.277
Mof_C 	C 	0.7726	0.6845	0.0233	-0.418
Mof_H 	H 	0.737	0.6978	0.9642	0.156
Mof_H 	H 	0.7337	0.7066	0.0564	0.13
Mof_C 	C 	0.7773	0.5991	0.0334	0.238
Mof_H 	H 	0.7055	0.5788	0.0143	-0.068
Mof_C 	C 	0.8313	0.5784	0.125	-0.356
Mof_H 	H 	0.7928	0.5996	0.159	0.118
Mof_H 	H 	0.8338	0.5232	0.1316	0.12
Mof_C 	C 	0.9403	0.6103	0.1539	0.255
Mof_C 	C 	0.9364	0.6955	0.1454	-0.329
Mof_H 	H 	0.0071	0.7164	0.1653	0.104
Mof_H 	H 	0.8981	0.7173	0.1792	0.121
Mof_C 	C 	0.9401	0.6822	0.0005	-0.342
Mof_H 	H 	0.011	0.7026	0.0187	0.096
Mof_H 	H 	0.9051	0.6953	0.9413	0.135
Mof_C 	C 	0.9429	0.5959	0.012	0.155
Mof_H 	H 	0.9816	0.5732	0.9783	-0.015
Mof_C 	C 	0.9984	0.577	0.1028	-0.263
Mof_H 	H 	0.003	0.5219	0.1103	0.081
Mof_H 	H 	0.0692	0.5976	0.1212	0.08
Mof_C 	C 	0.8343	0.5644	0.9819	-0.288
Mof_H 	H 	0.7992	0.5767	0.9225	0.103
Mof_H 	H 	0.8362	0.5091	0.9882	0.115
Mof_C 	C 	0.2887	0.5872	0.6106	0.095
Mof_H 	H 	0.3551	0.5992	0.6095	-0.038
Mof_C 	C 	0.1609	0.5733	0.6522	0.095
Mof_H 	H 	0.119	0.5735	0.6858	-0.024
Mof_C 	C 	0.4604	0.8489	0.913	0.093
Mof_H 	H 	0.5296	0.8396	0.9173	-0.015
Mof_C 	C 	0.2995	0.8346	0.8879	0.106
Mof_H 	H 	0.2326	0.8131	0.8711	-0.022
Mof_C 	C 	0.3299	0.6159	0.7632	0.313
Mof_C 	C 	0.2985	0.5697	0.8246	-0.419
Mof_H 	H 	0.3027	0.5156	0.813	0.137
Mof_H 	H 	0.2265	0.5815	0.8189	0.136
Mof_C 	C 	0.3698	0.5876	0.9125	0.313
Mof_H 	H 	0.3486	0.5568	0.9526	-0.074
Mof_C 	C 	0.3593	0.6713	0.9304	-0.416
Mof_H 	H 	0.2872	0.6828	0.9246	0.141
Mof_H 	H 	0.4041	0.6836	0.9878	0.143
Mof_C 	C 	0.391	0.7172	0.8684	0.31
Mof_C 	C 	0.3197	0.7	0.7794	-0.405
Mof_H 	H 	0.3396	0.7306	0.7392	0.139
Mof_H 	H 	0.2475	0.7121	0.7729	0.138
Mof_C 	C 	0.4407	0.5978	0.7729	-0.416
Mof_H 	H 	0.4467	0.5438	0.7612	0.132
Mof_H 	H 	0.4614	0.6275	0.7324	0.132
Mof_C 	C 	0.5104	0.6158	0.8596	0.307
Mof_H 	H 	0.5831	0.6036	0.8652	-0.077
Mof_C 	C 	0.5024	0.6999	0.8771	-0.409
Mof_H 	H 	0.549	0.7123	0.934	0.14
Mof_H 	H 	0.5229	0.7305	0.8372	0.136
Mof_C 	C 	0.4796	0.5693	0.9233	-0.425
Mof_H 	H 	0.4866	0.515	0.9141	0.145
Mof_H 	H 	0.525	0.5819	0.9805	0.15
Mof_Cu	Cu	0.76071	0.48945	0.56218	0.876
Mof_O 	O 	0.6304	0.5333	0.4985	-0.564
Mof_H 	H 	0.6264	0.5305	0.4408	0.139
Mof_N 	N 	0.8362	0.5836	0.5483	-0.197
Mof_N 	N 	0.9187	0.5872	0.5216	-0.2
Mof_N 	N 	0.8799	0.7014	0.5437	-0.18
Mof_N 	N 	0.11	0.948	0.8578	-0.203
Mof_N 	N 	0.0205	0.9381	0.874	-0.158
Mof_N 	N 	0.9929	0.9101	0.743	-0.173
Mof_N 	N 	0.2131	0.9397	0.047	-0.188
Mof_N 	N 	0.1309	0.949	0.0738	-0.193
Mof_N 	N 	0.2602	0.9043	0.177	-0.187
Mof_N 	N 	0.4252	0.5871	0.432	-0.212
Mof_N 	N 	0.3218	0.5962	0.4155	-0.21
Mof_N 	N 	0.383	0.7011	0.3867	-0.187
Mof_C 	C 	0.814	0.6536	0.5615	0.092
Mof_H 	H 	0.7601	0.6682	0.5806	-0.028
Mof_C 	C 	0.943	0.6574	0.5201	0.106
Mof_H 	H 	0.9983	0.6751	0.5043	-0.017
Mof_C 	C 	0.091	0.9321	0.7794	0.083
Mof_H 	H 	0.1399	0.9356	0.752	-0.023
Mof_C 	C 	0.9526	0.9132	0.8047	0.122
Mof_H 	H 	0.8842	0.8991	0.7985	-0.017
Mof_C 	C 	0.8818	0.7849	0.5529	0.283
Mof_C 	C 	0.7726	0.8155	0.5233	-0.399
Mof_H 	H 	0.737	0.8022	0.4642	0.134
Mof_H 	H 	0.7337	0.7934	0.5564	0.131
Mof_C 	C 	0.7773	0.9009	0.5334	0.299
Mof_H 	H 	0.7055	0.9212	0.5143	-0.067
Mof_C 	C 	0.8313	0.9216	0.625	-0.404
Mof_H 	H 	0.7928	0.9004	0.659	0.14
Mof_H 	H 	0.8338	0.9768	0.6316	0.154
Mof_C 	C 	0.9403	0.8897	0.6539	0.29
Mof_C 	C 	0.9364	0.8045	0.6454	-0.353
Mof_H 	H 	0.0071	0.7836	0.6653	0.112
Mof_H 	H 	0.8981	0.7827	0.6792	0.126
Mof_C 	C 	0.9401	0.8178	0.5005	-0.346
Mof_H 	H 	0.011	0.7974	0.5187	0.107
Mof_H 	H 	0.9051	0.8047	0.4413	0.123
Mof_C 	C 	0.9429	0.9041	0.512	0.262
Mof_H 	H 	0.9816	0.9268	0.4783	-0.047
Mof_C 	C 	0.9984	0.923	0.6028	-0.33
Mof_H 	H 	0.003	0.9781	0.6103	0.117
Mof_H 	H 	0.0692	0.9024	0.6212	0.108
Mof_C 	C 	0.8343	0.9356	0.4819	-0.407
Mof_H 	H 	0.7992	0.9233	0.4225	0.141
Mof_H 	H 	0.8362	0.9909	0.4882	0.154
Mof_C 	C 	0.2887	0.9128	0.1106	0.099
Mof_H 	H 	0.3551	0.9008	0.1095	-0.038
Mof_C 	C 	0.1609	0.9267	0.1522	0.1
Mof_H 	H 	0.119	0.9265	0.1858	-0.015
Mof_C 	C 	0.4604	0.6511	0.413	0.088
Mof_H 	H 	0.5296	0.6604	0.4173	-0.021
Mof_C 	C 	0.2995	0.6654	0.3879	0.102
Mof_H 	H 	0.2326	0.6869	0.3711	-0.024
Mof_C 	C 	0.3299	0.8841	0.2632	0.319
Mof_C 	C 	0.2985	0.9303	0.3246	-0.431
Mof_H 	H 	0.3027	0.9844	0.313	0.156
Mof_H 	H 	0.2265	0.9185	0.3189	0.148
Mof_C 	C 	0.3698	0.9124	0.4125	0.319
Mof_H 	H 	0.3486	0.9432	0.4526	-0.068
Mof_C 	C 	0.3593	0.8287	0.4304	-0.415
Mof_H 	H 	0.2872	0.8172	0.4246	0.14
Mof_H 	H 	0.4041	0.8164	0.4878	0.139
Mof_C 	C 	0.391	0.7828	0.3684	0.308
Mof_C 	C 	0.3197	0.8	0.2794	-0.406
Mof_H 	H 	0.3396	0.7694	0.2392	0.135
Mof_H 	H 	0.2475	0.7879	0.2729	0.137
Mof_C 	C 	0.4407	0.9022	0.2729	-0.424
Mof_H 	H 	0.4467	0.9562	0.2612	0.144
Mof_H 	H 	0.4614	0.8725	0.2324	0.135
Mof_C 	C 	0.5104	0.8842	0.3596	0.312
Mof_H 	H 	0.5831	0.8964	0.3652	-0.077
Mof_C 	C 	0.5024	0.8001	0.3771	-0.408
Mof_H 	H 	0.549	0.7877	0.434	0.135
Mof_H 	H 	0.5229	0.7695	0.3372	0.133
Mof_C 	C 	0.4796	0.9307	0.4233	-0.432
Mof_H 	H 	0.4866	0.985	0.4141	0.156
Mof_H 	H 	0.525	0.9181	0.4805	0.151
Mof_Cu	Cu	0.23929	0.98945	0.93782	0.904
Mof_O 	O 	0.3696	0.0333	0.0015	-0.605
Mof_H 	H 	0.3736	0.0305	0.0592	0.126
Mof_N 	N 	0.1638	0.0836	0.9517	-0.205
Mof_N 	N 	0.0813	0.0872	0.9784	-0.203
Mof_N 	N 	0.1201	0.2014	0.9563	-0.187
Mof_N 	N 	0.89	0.448	0.6422	-0.215
Mof_N 	N 	0.9795	0.4381	0.626	-0.149
Mof_N 	N 	0.0071	0.4101	0.757	-0.204
Mof_N 	N 	0.7869	0.4397	0.453	-0.186
Mof_N 	N 	0.8691	0.449	0.4262	-0.196
Mof_N 	N 	0.7398	0.4043	0.323	-0.185
Mof_N 	N 	0.5748	0.0871	0.068	-0.223
Mof_N 	N 	0.6782	0.0962	0.0845	-0.22
Mof_N 	N 	0.617	0.2011	0.1133	-0.186
Mof_C 	C 	0.186	0.1536	0.9385	0.095
Mof_H 	H 	0.2399	0.1682	0.9194	-0.028
Mof_C 	C 	0.057	0.1574	0.9799	0.108
Mof_H 	H 	0.0017	0.1751	0.9957	-0.022
Mof_C 	C 	0.909	0.4321	0.7206	0.116
Mof_H 	H 	0.8601	0.4356	0.748	-0.041
Mof_C 	C 	0.0474	0.4132	0.6953	0.079
Mof_H 	H 	0.1158	0.3991	0.7015	-0.019
Mof_C 	C 	0.1182	0.2849	0.9471	0.333
Mof_C 	C 	0.2274	0.3155	0.9767	-0.398
Mof_H 	H 	0.263	0.3022	0.0358	0.11
Mof_H 	H 	0.2663	0.2934	0.9436	0.135
Mof_C 	C 	0.2227	0.4009	0.9666	0.39
Mof_H 	H 	0.2945	0.4212	0.9857	-0.088
Mof_C 	C 	0.1687	0.4216	0.875	-0.476
Mof_H 	H 	0.2072	0.4004	0.841	0.151
Mof_H 	H 	0.1662	0.4768	0.8684	0.157
Mof_C 	C 	0.0597	0.3897	0.8461	0.382
Mof_C 	C 	0.0636	0.3045	0.8546	-0.47
Mof_H 	H 	0.9929	0.2836	0.8347	0.164
Mof_H 	H 	0.1019	0.2827	0.8208	0.151
Mof_C 	C 	0.0599	0.3178	0.9995	-0.445
Mof_H 	H 	0.989	0.2974	0.9813	0.163
Mof_H 	H 	0.0949	0.3047	0.0587	0.121
Mof_C 	C 	0.0571	0.4041	0.988	0.475
Mof_H 	H 	0.0184	0.4268	0.0217	-0.157
Mof_C 	C 	0.0016	0.423	0.8972	-0.578
Mof_H 	H 	0.997	0.4781	0.8897	0.2
Mof_H 	H 	0.9308	0.4024	0.8788	0.193
Mof_C 	C 	0.1657	0.4356	0.0181	-0.586
Mof_H 	H 	0.2008	0.4233	0.0775	0.177
Mof_H 	H 	0.1638	0.4909	0.0118	0.171
Mof_C 	C 	0.7113	0.4128	0.3894	0.095
Mof_H 	H 	0.6449	0.4008	0.3905	-0.039
Mof_C 	C 	0.8391	0.4267	0.3478	0.097
Mof_H 	H 	0.881	0.4265	0.3142	-0.018
Mof_C 	C 	0.5396	0.1511	0.087	0.082
Mof_H 	H 	0.4704	0.1604	0.0827	-0.027
Mof_C 	C 	0.7005	0.1654	0.1121	0.097
Mof_H 	H 	0.7674	0.1869	0.1289	-0.024
Mof_C 	C 	0.6701	0.3841	0.2368	0.303
Mof_C 	C 	0.7015	0.4303	0.1754	-0.407
Mof_H 	H 	0.6973	0.4844	0.187	0.133
Mof_H 	H 	0.7735	0.4185	0.1811	0.134
Mof_C 	C 	0.6302	0.4124	0.0875	0.293
Mof_H 	H 	0.6514	0.4432	0.0474	-0.082
Mof_C 	C 	0.6407	0.3287	0.0696	-0.393
Mof_H 	H 	0.7128	0.3172	0.0754	0.128
Mof_H 	H 	0.5959	0.3164	0.0122	0.121
Mof_C 	C 	0.609	0.2828	0.1316	0.292
Mof_C 	C 	0.6803	0.3	0.2206	-0.391
Mof_H 	H 	0.6604	0.2694	0.2608	0.13
Mof_H 	H 	0.7525	0.2879	0.2271	0.134
Mof_C 	C 	0.5593	0.4022	0.2271	-0.401
Mof_H 	H 	0.5533	0.4562	0.2388	0.126
Mof_H 	H 	0.5386	0.3725	0.2676	0.125
Mof_C 	C 	0.4896	0.3842	0.1404	0.285
Mof_H 	H 	0.4169	0.3964	0.1348	-0.079
Mof_C 	C 	0.4976	0.3001	0.1229	-0.386
Mof_H 	H 	0.451	0.2877	0.066	0.121
Mof_H 	H 	0.4771	0.2695	0.1628	0.123
Mof_C 	C 	0.5204	0.4307	0.0767	-0.399
Mof_H 	H 	0.5134	0.485	0.0859	0.123
Mof_H 	H 	0.475	0.4181	0.0195	0.121
Mof_Cu	Cu	0.5	0.5	0.5	0.876
Mof_Cu	Cu	0.5	0	-0	0.839
Mof_Cu	Cu	-0	0	-0	0.818
Mof_Cu	Cu	3.12654e-33	0.5	0.5	0.856
_end
