data_functionalizedCrystal
_audit_creation_method	'EQeq! by Chris Wilmer'
_symmetry_space_group_name_H-M	'P1'
_symmetry_Int_Tables_number	1
_symmetry_cell_setting	triclinic
loop_
_symmetry_equiv_pos_as_xyz
  x,y,z
_cell_length_a	8.854
_cell_length_b	9.815
_cell_length_c	13.474
_cell_angle_alpha	90
_cell_angle_beta	90
_cell_angle_gamma	98.523
loop_
_atom_site_label
_atom_site_type_symbol
_atom_site_fract_x
_atom_site_fract_y
_atom_site_fract_z
_atom_site_charge
Mof_Zn	Zn	0.36299	0.42426	0.64038	1.237
Mof_Zn	Zn	0.63701	0.07574	0.14038	1.236
Mof_Zn	Zn	0.36299	0.92426	0.85962	1.236
Mof_Zn	Zn	0.63701	0.57574	0.35962	1.237
Mof_P 	P 	0.29781	0.50345	0.41859	0.501
Mof_P 	P 	0.70219	0.99655	0.91859	0.492
Mof_P 	P 	0.70219	0.49655	0.58141	0.501
Mof_P 	P 	0.29781	0.00345	0.08141	0.492
Mof_P 	P 	0.77191	0.31714	0.28069	0.461
Mof_P 	P 	0.22809	0.68286	0.71931	0.461
Mof_P 	P 	0.77191	0.81714	0.21931	0.46
Mof_P 	P 	0.22809	0.18286	0.78069	0.46
Mof_H 	H 	0.8711	0.9723	0.7927	0.15
Mof_H 	H 	0.9602	0.0101	0.8919	0.143
Mof_H 	H 	0.06	0.2606	0.3749	-0.003
Mof_H 	H 	0.9876	0.8495	0.3165	0.156
Mof_H 	H 	0.1799	0.2908	0.2892	-0.003
Mof_H 	H 	0.06	0.7606	0.1251	-0
Mof_H 	H 	0.0124	0.6505	0.8165	0.156
Mof_H 	H 	0.94	0.7394	0.6251	-0.003
Mof_H 	H 	0.1289	0.0277	0.2073	0.15
Mof_H 	H 	0.0398	0.9899	0.1081	0.143
Mof_H 	H 	0.0398	0.4899	0.3919	0.146
Mof_H 	H 	0.71	0.3404	0.4878	0.282
Mof_H 	H 	0.0463	0.304	0.718	0.137
Mof_H 	H 	0.9876	0.3495	0.1835	0.156
Mof_H 	H 	0.94	0.2394	0.8749	-0
Mof_H 	H 	0.9537	0.196	0.218	0.137
Mof_H 	H 	0.9602	0.5101	0.6081	0.146
Mof_H 	H 	0.8711	0.4723	0.7073	0.158
Mof_H 	H 	0.29	0.6596	0.5122	0.282
Mof_H 	H 	0.1799	0.7908	0.2108	0
Mof_H 	H 	0.8201	0.2092	0.7892	0
Mof_H 	H 	0.71	0.8404	0.0122	0.288
Mof_H 	H 	0.1289	0.5277	0.2927	0.158
Mof_H 	H 	0.9537	0.696	0.282	0.137
Mof_H 	H 	0.8201	0.7092	0.7108	-0.003
Mof_H 	H 	0.0463	0.804	0.782	0.137
Mof_H 	H 	0.0124	0.1505	0.6835	0.156
Mof_H 	H 	0.29	0.1596	0.9878	0.288
Mof_C 	C 	0.8771	0.5316	0.64939	-0.374
Mof_C 	C 	0.9121	0.182	0.81717	0.164
Mof_C 	C 	0.0404	0.7094	0.7596	-0.38
Mof_C 	C 	0.9596	0.7906	0.2596	-0.377
Mof_C 	C 	0.9121	0.682	0.68283	0.172
Mof_C 	C 	0.1229	0.9684	0.14939	-0.357
Mof_C 	C 	0.9596	0.2906	0.2404	-0.38
Mof_C 	C 	0.8771	0.0316	0.85061	-0.357
Mof_C 	C 	0.1229	0.4684	0.35061	-0.374
Mof_C 	C 	0.0879	0.318	0.31717	0.172
Mof_C 	C 	0.0404	0.2094	0.7404	-0.377
Mof_C 	C 	0.0879	0.818	0.18283	0.164
Mof_O 	O 	0.71037	0.09534	0.00523	-0.461
Mof_O 	O 	0.57383	0.00786	0.84612	-0.423
Mof_O 	O 	0.3142	0.657	0.4536	-0.478
Mof_O 	O 	0.73505	0.74268	0.12103	-0.274
Mof_O 	O 	0.33787	0.24042	0.69717	-0.412
Mof_O 	O 	0.6858	0.843	0.9536	-0.484
Mof_O 	O 	0.66213	0.75958	0.30283	-0.412
Mof_O 	O 	0.26495	0.75732	0.62103	-0.274
Mof_O 	O 	0.33787	0.74042	0.80283	-0.413
Mof_O 	O 	0.57383	0.50786	0.65388	-0.429
Mof_O 	O 	0.42617	0.49214	0.34612	-0.429
Mof_O 	O 	0.42617	0.99214	0.15388	-0.423
Mof_O 	O 	0.26495	0.25732	0.87897	-0.274
Mof_O 	O 	0.28963	0.90466	0.99477	-0.461
Mof_O 	O 	0.3142	0.157	0.0464	-0.484
Mof_O 	O 	0.6858	0.343	0.5464	-0.478
Mof_O 	O 	0.77053	0.47222	0.28751	-0.438
Mof_O 	O 	0.22947	0.02778	0.78751	-0.436
Mof_O 	O 	0.28963	0.40466	0.50523	-0.46
Mof_O 	O 	0.77053	0.97222	0.21249	-0.436
Mof_O 	O 	0.66213	0.25958	0.19717	-0.413
Mof_O 	O 	0.22947	0.52778	0.71249	-0.438
Mof_O 	O 	0.71037	0.59534	0.49477	-0.46
Mof_O 	O 	0.73505	0.24268	0.37897	-0.274
_end
