data_functionalizedCrystal
_audit_creation_method	'EQeq! by Chris Wilmer'
_symmetry_space_group_name_H-M	'P1'
_symmetry_Int_Tables_number	1
_symmetry_cell_setting	triclinic
loop_
_symmetry_equiv_pos_as_xyz
  x,y,z
_cell_length_a	27.316
_cell_length_b	27.316
_cell_length_c	15.0891
_cell_angle_alpha	90
_cell_angle_beta	90
_cell_angle_gamma	120
loop_
_atom_site_label
_atom_site_type_symbol
_atom_site_fract_x
_atom_site_fract_y
_atom_site_fract_z
_atom_site_charge
Mof_S 	S 	0.28777	0.2291	0.05245	-0.293
Mof_O 	O 	0.37124	0.31847	0.19226	-0.393
Mof_O 	O 	0.3381	0.27943	0.32524	-0.481
Mof_C 	C 	0.33953	0.21811	0.19745	-0.132
Mof_C 	C 	0.31639	0.19715	0.11383	0.082
Mof_C 	C 	0.3578	0.18761	0.24514	-0.036
Mof_C 	C 	0.34435	0.26815	0.23467	0.324
Mof_H 	H 	0.37321	0.20306	0.30851	0.037
Mof_S 	S 	0.95444	0.56243	0.38578	-0.27
Mof_O 	O 	0.03791	0.6518	0.52559	-0.411
Mof_O 	O 	0.00477	0.61276	0.65857	-0.486
Mof_C 	C 	0.0062	0.55144	0.53078	-0.207
Mof_C 	C 	0.98306	0.53048	0.44716	0.154
Mof_C 	C 	0.02447	0.52094	0.57847	0.012
Mof_C 	C 	0.01102	0.60148	0.568	0.333
Mof_H 	H 	0.03988	0.53639	0.64184	0.019
Mof_S 	S 	0.6211	0.89577	0.71912	-0.268
Mof_O 	O 	0.70457	0.98514	0.85893	-0.361
Mof_O 	O 	0.67143	0.9461	0.99191	-0.478
Mof_C 	C 	0.67286	0.88478	0.86412	-0.124
Mof_C 	C 	0.64972	0.86382	0.7805	0.079
Mof_C 	C 	0.69113	0.85428	0.91181	-0.037
Mof_C 	C 	0.67768	0.93482	0.90134	0.326
Mof_H 	H 	0.70654	0.86973	0.97518	0.04
Mof_S 	S 	0.7709	0.05867	0.05245	-0.309
Mof_O 	O 	0.68153	0.05277	0.19226	-0.402
Mof_O 	O 	0.72057	0.05867	0.32524	-0.478
Mof_C 	C 	0.78189	0.12142	0.19745	-0.134
Mof_C 	C 	0.80285	0.11924	0.11383	0.087
Mof_C 	C 	0.81239	0.17019	0.24514	-0.034
Mof_C 	C 	0.73185	0.0762	0.23467	0.318
Mof_H 	H 	0.79694	0.17015	0.30851	0.035
Mof_S 	S 	0.43757	0.392	0.38578	-0.287
Mof_O 	O 	0.3482	0.3861	0.52559	-0.394
Mof_O 	O 	0.38724	0.392	0.65857	-0.481
Mof_C 	C 	0.44856	0.45475	0.53078	-0.13
Mof_C 	C 	0.46952	0.45257	0.44716	0.081
Mof_C 	C 	0.47906	0.50352	0.57847	-0.037
Mof_C 	C 	0.39852	0.40953	0.568	0.323
Mof_H 	H 	0.46361	0.50348	0.64184	0.036
Mof_S 	S 	0.10423	0.72534	0.71912	-0.285
Mof_O 	O 	0.01486	0.71944	0.85893	-0.412
Mof_O 	O 	0.0539	0.72534	0.99191	-0.48
Mof_C 	C 	0.11522	0.78809	0.86412	-0.132
Mof_C 	C 	0.13618	0.78591	0.7805	0.08
Mof_C 	C 	0.14572	0.83686	0.91181	-0.034
Mof_C 	C 	0.06518	0.74287	0.90134	0.32
Mof_H 	H 	0.13027	0.83682	0.97518	0.034
Mof_S 	S 	0.94133	0.71223	0.05245	-0.254
Mof_O 	O 	0.94723	0.62876	0.19226	-0.368
Mof_O 	O 	0.94133	0.6619	0.32524	-0.479
Mof_C 	C 	0.87858	0.66047	0.19745	-0.124
Mof_C 	C 	0.88076	0.68361	0.11383	0.075
Mof_C 	C 	0.82981	0.6422	0.24514	-0.039
Mof_C 	C 	0.9238	0.65565	0.23467	0.326
Mof_H 	H 	0.82985	0.62679	0.30851	0.037
Mof_S 	S 	0.608	0.04556	0.38578	-0.274
Mof_O 	O 	0.6139	0.96209	0.52559	-0.374
Mof_O 	O 	0.608	0.99523	0.65857	-0.437
Mof_C 	C 	0.54525	0.9938	0.53078	-0.047
Mof_C 	C 	0.54743	0.01694	0.44716	0.003
Mof_C 	C 	0.49648	0.97553	0.57847	-0.085
Mof_C 	C 	0.59047	0.98898	0.568	0.302
Mof_H 	H 	0.49652	0.96012	0.64184	0.057
Mof_S 	S 	0.27466	0.3789	0.71912	-0.287
Mof_O 	O 	0.28056	0.29543	0.85893	-0.396
Mof_O 	O 	0.27466	0.32857	0.99191	-0.482
Mof_C 	C 	0.21191	0.32714	0.86412	-0.13
Mof_C 	C 	0.21409	0.35028	0.7805	0.078
Mof_C 	C 	0.16314	0.30887	0.91181	-0.043
Mof_C 	C 	0.25713	0.32232	0.90134	0.322
Mof_H 	H 	0.16318	0.29346	0.97518	0.035
Mof_S 	S 	0.2291	0.28777	0.44755	-0.294
Mof_O 	O 	0.31847	0.37124	0.30774	-0.394
Mof_O 	O 	0.27943	0.3381	0.17476	-0.482
Mof_C 	C 	0.21811	0.33953	0.30255	-0.133
Mof_C 	C 	0.19715	0.31639	0.38617	0.081
Mof_C 	C 	0.18761	0.3578	0.25486	-0.037
Mof_C 	C 	0.26815	0.34435	0.26533	0.323
Mof_H 	H 	0.20306	0.37321	0.19149	0.035
Mof_S 	S 	0.89577	0.6211	0.78088	-0.27
Mof_O 	O 	0.98514	0.70457	0.64107	-0.362
Mof_O 	O 	0.9461	0.67143	0.50809	-0.479
Mof_C 	C 	0.88478	0.67286	0.63588	-0.125
Mof_C 	C 	0.86382	0.64972	0.7195	0.079
Mof_C 	C 	0.85428	0.69113	0.58819	-0.037
Mof_C 	C 	0.93482	0.67768	0.59866	0.326
Mof_H 	H 	0.86973	0.70654	0.52482	0.04
Mof_S 	S 	0.56243	0.95444	0.11422	-0.272
Mof_O 	O 	0.6518	0.03791	0.97441	-0.411
Mof_O 	O 	0.61276	0.00477	0.84143	-0.486
Mof_C 	C 	0.55144	0.0062	0.96922	-0.207
Mof_C 	C 	0.53048	0.98306	0.05284	0.153
Mof_C 	C 	0.52094	0.02447	0.92153	0.011
Mof_C 	C 	0.60148	0.01102	0.932	0.333
Mof_H 	H 	0.53639	0.03988	0.85816	0.019
Mof_S 	S 	0.05867	0.7709	0.44755	-0.313
Mof_O 	O 	0.05277	0.68153	0.30774	-0.403
Mof_O 	O 	0.05867	0.72057	0.17476	-0.478
Mof_C 	C 	0.12142	0.78189	0.30255	-0.135
Mof_C 	C 	0.11924	0.80285	0.38617	0.087
Mof_C 	C 	0.17019	0.81239	0.25486	-0.034
Mof_C 	C 	0.0762	0.73185	0.26533	0.318
Mof_H 	H 	0.17015	0.79694	0.19149	0.034
Mof_S 	S 	0.72534	0.10423	0.78088	-0.285
Mof_O 	O 	0.71944	0.01486	0.64107	-0.413
Mof_O 	O 	0.72534	0.0539	0.50809	-0.483
Mof_C 	C 	0.78809	0.11522	0.63588	-0.133
Mof_C 	C 	0.78591	0.13618	0.7195	0.08
Mof_C 	C 	0.83686	0.14572	0.58819	-0.035
Mof_C 	C 	0.74287	0.06518	0.59866	0.321
Mof_H 	H 	0.83682	0.13027	0.52482	0.034
Mof_S 	S 	0.392	0.43757	0.11422	-0.287
Mof_O 	O 	0.3861	0.3482	0.97441	-0.394
Mof_O 	O 	0.392	0.38724	0.84143	-0.481
Mof_C 	C 	0.45475	0.44856	0.96922	-0.131
Mof_C 	C 	0.45257	0.46952	0.05284	0.081
Mof_C 	C 	0.50352	0.47906	0.92153	-0.038
Mof_C 	C 	0.40953	0.39852	0.932	0.323
Mof_H 	H 	0.50348	0.46361	0.85816	0.036
Mof_S 	S 	0.71223	0.94133	0.44755	-0.255
Mof_O 	O 	0.62876	0.94723	0.30774	-0.369
Mof_O 	O 	0.6619	0.94133	0.17476	-0.479
Mof_C 	C 	0.66047	0.87858	0.30255	-0.124
Mof_C 	C 	0.68361	0.88076	0.38617	0.075
Mof_C 	C 	0.6422	0.82981	0.25486	-0.039
Mof_C 	C 	0.65565	0.9238	0.26533	0.326
Mof_H 	H 	0.62679	0.82985	0.19149	0.037
Mof_S 	S 	0.3789	0.27466	0.78088	-0.287
Mof_O 	O 	0.29543	0.28056	0.64107	-0.396
Mof_O 	O 	0.32857	0.27466	0.50809	-0.482
Mof_C 	C 	0.32714	0.21191	0.63588	-0.13
Mof_C 	C 	0.35028	0.21409	0.7195	0.078
Mof_C 	C 	0.30887	0.16314	0.58819	-0.043
Mof_C 	C 	0.32232	0.25713	0.59866	0.322
Mof_H 	H 	0.29346	0.16318	0.52482	0.035
Mof_S 	S 	0.04556	0.608	0.11422	-0.274
Mof_O 	O 	0.96209	0.6139	0.97441	-0.374
Mof_O 	O 	0.99523	0.608	0.84143	-0.439
Mof_C 	C 	0.9938	0.54525	0.96922	-0.049
Mof_C 	C 	0.01694	0.54743	0.05284	0.004
Mof_C 	C 	0.97553	0.49648	0.92153	-0.084
Mof_C 	C 	0.98898	0.59047	0.932	0.302
Mof_H 	H 	0.96012	0.49652	0.85816	0.056
Mof_S 	S 	0.71223	0.7709	0.94755	-0.281
Mof_O 	O 	0.62876	0.68153	0.80774	-0.394
Mof_O 	O 	0.6619	0.72057	0.67476	-0.48
Mof_C 	C 	0.66047	0.78189	0.80255	-0.13
Mof_C 	C 	0.68361	0.80285	0.88617	0.082
Mof_C 	C 	0.6422	0.81239	0.75486	-0.035
Mof_C 	C 	0.65565	0.73185	0.76533	0.324
Mof_H 	H 	0.62679	0.79694	0.69149	0.035
Mof_S 	S 	0.3789	0.10423	0.28088	-0.285
Mof_O 	O 	0.29543	0.01486	0.14107	-0.413
Mof_O 	O 	0.32857	0.0539	0.00809	-0.482
Mof_C 	C 	0.32714	0.11522	0.13588	-0.132
Mof_C 	C 	0.35028	0.13618	0.2195	0.077
Mof_C 	C 	0.30887	0.14572	0.08819	-0.041
Mof_C 	C 	0.32232	0.06518	0.09866	0.319
Mof_H 	H 	0.29346	0.13027	0.02482	0.033
Mof_S 	S 	0.04556	0.43757	0.61422	-0.274
Mof_O 	O 	0.96209	0.3482	0.47441	-0.373
Mof_O 	O 	0.99523	0.38724	0.34143	-0.437
Mof_C 	C 	0.9938	0.44856	0.46922	-0.047
Mof_C 	C 	0.01694	0.46952	0.55284	0.003
Mof_C 	C 	0.97553	0.47906	0.42153	-0.085
Mof_C 	C 	0.98898	0.39852	0.432	0.302
Mof_H 	H 	0.96012	0.46361	0.35816	0.057
Mof_S 	S 	0.2291	0.94133	0.94755	-0.259
Mof_O 	O 	0.31847	0.94723	0.80774	-0.367
Mof_O 	O 	0.27943	0.94133	0.67476	-0.48
Mof_C 	C 	0.21811	0.87858	0.80255	-0.125
Mof_C 	C 	0.19715	0.88076	0.88617	0.075
Mof_C 	C 	0.18761	0.82981	0.75486	-0.039
Mof_C 	C 	0.26815	0.9238	0.76533	0.326
Mof_H 	H 	0.20306	0.82985	0.69149	0.037
Mof_S 	S 	0.89577	0.27466	0.28088	-0.268
Mof_O 	O 	0.98514	0.28056	0.14107	-0.362
Mof_O 	O 	0.9461	0.27466	0.00809	-0.477
Mof_C 	C 	0.88478	0.21191	0.13588	-0.123
Mof_C 	C 	0.86382	0.21409	0.2195	0.076
Mof_C 	C 	0.85428	0.16314	0.08819	-0.042
Mof_C 	C 	0.93482	0.25713	0.09866	0.324
Mof_H 	H 	0.86973	0.16318	0.02482	0.04
Mof_S 	S 	0.56243	0.608	0.61422	-0.287
Mof_O 	O 	0.6518	0.6139	0.47441	-0.395
Mof_O 	O 	0.61276	0.608	0.34143	-0.481
Mof_C 	C 	0.55144	0.54525	0.46922	-0.131
Mof_C 	C 	0.53048	0.54743	0.55284	0.081
Mof_C 	C 	0.52094	0.49648	0.42153	-0.037
Mof_C 	C 	0.60148	0.59047	0.432	0.323
Mof_H 	H 	0.53639	0.49652	0.35816	0.036
Mof_S 	S 	0.05867	0.28777	0.94755	-0.317
Mof_O 	O 	0.05277	0.37124	0.80774	-0.402
Mof_O 	O 	0.05867	0.3381	0.67476	-0.479
Mof_C 	C 	0.12142	0.33953	0.80255	-0.135
Mof_C 	C 	0.11924	0.31639	0.88617	0.086
Mof_C 	C 	0.17019	0.3578	0.75486	-0.037
Mof_C 	C 	0.0762	0.34435	0.76533	0.317
Mof_H 	H 	0.17015	0.37321	0.69149	0.035
Mof_S 	S 	0.72534	0.6211	0.28088	-0.287
Mof_O 	O 	0.71944	0.70457	0.14107	-0.392
Mof_O 	O 	0.72534	0.67143	0.00809	-0.481
Mof_C 	C 	0.78809	0.67286	0.13588	-0.132
Mof_C 	C 	0.78591	0.64972	0.2195	0.084
Mof_C 	C 	0.83686	0.69113	0.08819	-0.031
Mof_C 	C 	0.74287	0.67768	0.09866	0.325
Mof_H 	H 	0.83682	0.70654	0.02482	0.037
Mof_S 	S 	0.392	0.95444	0.61422	-0.27
Mof_O 	O 	0.3861	0.03791	0.47441	-0.41
Mof_O 	O 	0.392	0.00477	0.34143	-0.486
Mof_C 	C 	0.45475	0.0062	0.46922	-0.207
Mof_C 	C 	0.45257	0.98306	0.55284	0.154
Mof_C 	C 	0.50352	0.02447	0.42153	0.011
Mof_C 	C 	0.40953	0.01102	0.432	0.333
Mof_H 	H 	0.50348	0.03988	0.35816	0.019
Mof_S 	S 	0.7709	0.71223	0.55245	-0.281
Mof_O 	O 	0.68153	0.62876	0.69226	-0.394
Mof_O 	O 	0.72057	0.6619	0.82524	-0.48
Mof_C 	C 	0.78189	0.66047	0.69745	-0.13
Mof_C 	C 	0.80285	0.68361	0.61383	0.082
Mof_C 	C 	0.81239	0.6422	0.74514	-0.035
Mof_C 	C 	0.73185	0.65565	0.73467	0.324
Mof_H 	H 	0.79694	0.62679	0.80851	0.035
Mof_S 	S 	0.43757	0.04556	0.88578	-0.274
Mof_O 	O 	0.3482	0.96209	0.02559	-0.374
Mof_O 	O 	0.38724	0.99523	0.15857	-0.439
Mof_C 	C 	0.44856	0.9938	0.03078	-0.049
Mof_C 	C 	0.46952	0.01694	0.94716	0.004
Mof_C 	C 	0.47906	0.97553	0.07847	-0.084
Mof_C 	C 	0.39852	0.98898	0.068	0.302
Mof_H 	H 	0.46361	0.96012	0.14184	0.056
Mof_S 	S 	0.10423	0.3789	0.21912	-0.285
Mof_O 	O 	0.01486	0.29543	0.35893	-0.415
Mof_O 	O 	0.0539	0.32857	0.49191	-0.483
Mof_C 	C 	0.11522	0.32714	0.36412	-0.132
Mof_C 	C 	0.13618	0.35028	0.2805	0.077
Mof_C 	C 	0.14572	0.30887	0.41181	-0.04
Mof_C 	C 	0.06518	0.32232	0.40134	0.319
Mof_H 	H 	0.13027	0.29346	0.47518	0.032
Mof_S 	S 	0.94133	0.2291	0.55245	-0.262
Mof_O 	O 	0.94723	0.31847	0.69226	-0.369
Mof_O 	O 	0.94133	0.27943	0.82524	-0.48
Mof_C 	C 	0.87858	0.21811	0.69745	-0.126
Mof_C 	C 	0.88076	0.19715	0.61383	0.075
Mof_C 	C 	0.82981	0.18761	0.74514	-0.039
Mof_C 	C 	0.9238	0.26815	0.73467	0.325
Mof_H 	H 	0.82985	0.20306	0.80851	0.037
Mof_S 	S 	0.608	0.56243	0.88578	-0.288
Mof_O 	O 	0.6139	0.6518	0.02559	-0.395
Mof_O 	O 	0.608	0.61276	0.15857	-0.481
Mof_C 	C 	0.54525	0.55144	0.03078	-0.131
Mof_C 	C 	0.54743	0.53048	0.94716	0.081
Mof_C 	C 	0.49648	0.52094	0.07847	-0.037
Mof_C 	C 	0.59047	0.60148	0.068	0.323
Mof_H 	H 	0.49652	0.53639	0.14184	0.036
Mof_S 	S 	0.27466	0.89577	0.21912	-0.269
Mof_O 	O 	0.28056	0.98514	0.35893	-0.364
Mof_O 	O 	0.27466	0.9461	0.49191	-0.48
Mof_C 	C 	0.21191	0.88478	0.36412	-0.124
Mof_C 	C 	0.21409	0.86382	0.2805	0.076
Mof_C 	C 	0.16314	0.85428	0.41181	-0.042
Mof_C 	C 	0.25713	0.93482	0.40134	0.325
Mof_H 	H 	0.16318	0.86973	0.47518	0.039
Mof_S 	S 	0.28777	0.05867	0.55245	-0.32
Mof_O 	O 	0.37124	0.05277	0.69226	-0.403
Mof_O 	O 	0.3381	0.05867	0.82524	-0.479
Mof_C 	C 	0.33953	0.12142	0.69745	-0.135
Mof_C 	C 	0.31639	0.11924	0.61383	0.086
Mof_C 	C 	0.3578	0.17019	0.74514	-0.037
Mof_C 	C 	0.34435	0.0762	0.73467	0.317
Mof_H 	H 	0.37321	0.17015	0.80851	0.035
Mof_S 	S 	0.95444	0.392	0.88578	-0.272
Mof_O 	O 	0.03791	0.3861	0.02559	-0.41
Mof_O 	O 	0.00477	0.392	0.15857	-0.485
Mof_C 	C 	0.0062	0.45475	0.03078	-0.206
Mof_C 	C 	0.98306	0.45257	0.94716	0.152
Mof_C 	C 	0.02447	0.50352	0.07847	0.01
Mof_C 	C 	0.01102	0.40953	0.068	0.332
Mof_H 	H 	0.03988	0.50348	0.14184	0.019
Mof_S 	S 	0.6211	0.72534	0.21912	-0.287
Mof_O 	O 	0.70457	0.71944	0.35893	-0.392
Mof_O 	O 	0.67143	0.72534	0.49191	-0.481
Mof_C 	C 	0.67286	0.78809	0.36412	-0.131
Mof_C 	C 	0.64972	0.78591	0.2805	0.084
Mof_C 	C 	0.69113	0.83686	0.41181	-0.031
Mof_C 	C 	0.67768	0.74287	0.40134	0.325
Mof_H 	H 	0.70654	0.83682	0.47518	0.037
Mof_Mn	Mn	0.31254	0.33333	0.08333	1.069
Mof_Mn	Mn	0.66667	0.9792	0.08333	1.118
Mof_Mn	Mn	0.33333	0.31254	0.41667	1.069
Mof_Mn	Mn	0.0208	0.68746	0.08333	1.017
Mof_Mn	Mn	0.35413	0.35413	0.75	1.069
Mof_Mn	Mn	4.25402e-17	0.64587	0.75	1.003
Mof_Mn	Mn	0.9792	0.66667	0.41667	1.122
Mof_Mn	Mn	0.64587	0	0.75	0.999
Mof_Mn	Mn	0.68746	0.0208	0.41667	1.021
Mof_Mn	Mn	0.68746	0.66667	0.91667	1.07
Mof_Mn	Mn	0.35413	0	0.25	1.002
Mof_Mn	Mn	0.0208	0.33333	0.58333	1.02
Mof_Mn	Mn	0.33333	0.0208	0.91667	1.018
Mof_Mn	Mn	6.40703e-18	0.35413	0.25	0.998
Mof_Mn	Mn	0.9792	0.31254	0.91667	1.117
Mof_Mn	Mn	0.64587	0.64587	0.25	1.07
Mof_Mn	Mn	0.66667	0.68746	0.58333	1.07
Mof_Mn	Mn	0.31254	0.9792	0.58333	1.122
Mof_Mn	Mn	0.40265	0.40265	0.25	0.712
Mof_Mn	Mn	0.06932	0.73598	0.58333	0.694
Mof_Mn	Mn	0.73598	0.06932	0.91667	0.69
Mof_Mn	Mn	0.59735	0	0.25	0.658
Mof_Mn	Mn	0.26402	0.33333	0.58333	0.709
Mof_Mn	Mn	0.93068	0.66667	0.91667	0.732
Mof_Mn	Mn	2.97261e-17	0.59735	0.25	0.655
Mof_Mn	Mn	0.66667	0.93068	0.58333	0.734
Mof_Mn	Mn	0.33333	0.26402	0.91667	0.709
Mof_Mn	Mn	0.59735	0.59735	0.75	0.712
Mof_Mn	Mn	0.26402	0.93068	0.08333	0.728
Mof_Mn	Mn	0.93068	0.26402	0.41667	0.732
Mof_Mn	Mn	0.40265	0	0.75	0.655
Mof_Mn	Mn	0.06932	0.33333	0.08333	0.689
Mof_Mn	Mn	0.73598	0.66667	0.41667	0.714
Mof_Mn	Mn	1.92211e-17	0.40265	0.75	0.659
Mof_Mn	Mn	0.66667	0.73598	0.08333	0.713
Mof_Mn	Mn	0.33333	0.06932	0.41667	0.691
_end
