data_functionalizedCrystal
_audit_creation_method	'EQeq! by Chris Wilmer'
_symmetry_space_group_name_H-M	'P1'
_symmetry_Int_Tables_number	1
_symmetry_cell_setting	triclinic
loop_
_symmetry_equiv_pos_as_xyz
  x,y,z
_cell_length_a	14.639
_cell_length_b	19.379
_cell_length_c	19.484
_cell_angle_alpha	116.046
_cell_angle_beta	90
_cell_angle_gamma	90
loop_
_atom_site_label
_atom_site_type_symbol
_atom_site_fract_x
_atom_site_fract_y
_atom_site_fract_z
_atom_site_charge
Mof_Zn	Zn	0.23192	0.41406	0.75143	1.209
Mof_Zn	Zn	0.57077	0.51084	0.63425	1.216
Mof_Zn	Zn	0.63729	0.47438	0.78102	1.218
Mof_Zn	Zn	0.08695	0.96783	0.18855	1.226
Mof_Zn	Zn	0.2017	0.13456	0.82008	1.199
Mof_Zn	Zn	0.2642	0.06899	0.64112	1.202
Mof_Zn	Zn	0.73192	0.58594	0.24857	1.209
Mof_Zn	Zn	0.07077	0.48916	0.36575	1.212
Mof_Zn	Zn	0.13729	0.52562	0.21898	1.217
Mof_Zn	Zn	0.58695	0.03217	0.81145	1.228
Mof_Zn	Zn	0.7017	0.86544	0.17992	1.199
Mof_Zn	Zn	0.7642	0.93101	0.35888	1.203
Mof_H 	H 	0.6154	0.9239	0.9641	0.052
Mof_H 	H 	0.6548	0.7091	0.9372	0.025
Mof_H 	H 	0.3874	0.4431	0.865	0.326
Mof_H 	H 	0.4926	0.4265	0.8549	0.325
Mof_H 	H 	0.4226	0.3599	0.8128	0.322
Mof_H 	H 	0.2753	0.4665	0.6319	0.333
Mof_H 	H 	0.3332	0.404	0.5663	0.32
Mof_H 	H 	0.3591	0.491	0.5975	0.327
Mof_H 	H 	0.9112	0.944	0.0789	0.296
Mof_H 	H 	0.827	0.8917	0.073	0.282
Mof_H 	H 	0.9265	0.8597	0.0678	0.289
Mof_H 	H 	0.0317	0.9968	0.3624	0.285
Mof_H 	H 	0.9405	0.03	0.407	0.285
Mof_H 	H 	0.9938	0.0755	0.3701	0.304
Mof_H 	H 	0.1397	0.3707	0.8823	0.305
Mof_H 	H 	0.2424	0.3695	0.9045	0.293
Mof_H 	H 	0.1734	0.31	0.9096	0.298
Mof_H 	H 	0.3464	0.2295	0.606	0.283
Mof_H 	H 	0.2701	0.2899	0.6155	0.255
Mof_H 	H 	0.2482	0.2018	0.5735	0.282
Mof_H 	H 	0.894	0.4202	0.7043	0.056
Mof_H 	H 	0.0851	0.4247	0.558	0.058
Mof_H 	H 	0.8205	0.4372	0.5136	0.033
Mof_H 	H 	0.2017	0.5344	0.0016	0.021
Mof_H 	H 	0.1669	0.7038	0.9362	0.032
Mof_H 	H 	0.1465	0.7455	0.1562	0.03
Mof_H 	H 	0.5923	0.7461	0.758	0.037
Mof_H 	H 	0.4278	0.9491	0.2293	0.017
Mof_H 	H 	0.5065	0.0044	0.4422	-0.005
Mof_H 	H 	0.2467	0.0188	0.3968	-0.001
Mof_H 	H 	0.1154	0.0761	0.0359	0.047
Mof_H 	H 	0.1548	0.2909	0.0628	0.022
Mof_H 	H 	0.8874	0.5569	0.135	0.343
Mof_H 	H 	0.9926	0.5735	0.1451	0.349
Mof_H 	H 	0.9226	0.6401	0.1872	0.341
Mof_H 	H 	0.7753	0.5335	0.3681	0.338
Mof_H 	H 	0.8332	0.596	0.4337	0.326
Mof_H 	H 	0.8591	0.509	0.4025	0.333
Mof_H 	H 	0.4112	0.056	0.9211	0.284
Mof_H 	H 	0.327	0.1083	0.927	0.274
Mof_H 	H 	0.4265	0.1403	0.9322	0.277
Mof_H 	H 	0.5317	0.0032	0.6376	0.313
Mof_H 	H 	0.4405	0.97	0.593	0.3
Mof_H 	H 	0.4938	0.9245	0.6299	0.314
Mof_H 	H 	0.6397	0.6293	0.1177	0.311
Mof_H 	H 	0.7424	0.6305	0.0955	0.297
Mof_H 	H 	0.6734	0.69	0.0904	0.303
Mof_H 	H 	0.8464	0.7705	0.394	0.288
Mof_H 	H 	0.7701	0.7101	0.3845	0.26
Mof_H 	H 	0.7482	0.7982	0.4265	0.287
Mof_H 	H 	0.394	0.5798	0.2957	0.034
Mof_H 	H 	0.5851	0.5753	0.442	0.031
Mof_H 	H 	0.3205	0.5628	0.4864	0.018
Mof_H 	H 	0.7017	0.4656	0.9984	0.023
Mof_H 	H 	0.6669	0.2962	0.0638	0.035
Mof_H 	H 	0.6465	0.2545	0.8438	0.033
Mof_H 	H 	0.0923	0.2539	0.242	0.032
Mof_H 	H 	0.9278	0.0509	0.7707	0.023
Mof_H 	H 	0.0065	0.9956	0.5578	-0.024
Mof_H 	H 	0.7467	0.9812	0.6032	-0.002
Mof_C 	C 	0.5832	0.899	0.8198	0.371
Mof_C 	C 	0.6006	0.8417	0.856	-0.109
Mof_C 	C 	0.6174	0.8714	0.9326	0.055
Mof_C 	C 	0.6371	0.8193	0.9599	-0.113
Mof_C 	C 	0.6406	0.7422	0.9157	0.084
Mof_C 	C 	0.6234	0.7143	0.8404	-0.162
Mof_C 	C 	0.6231	0.6315	0.7919	0.414
Mof_C 	C 	0.9244	0.9842	0.2921	0.352
Mof_C 	C 	0.8899	0.9332	0.1786	0.296
Mof_C 	C 	0.4343	0.4137	0.8299	-1.067
Mof_C 	C 	0.4347	0.4307	0.7665	0.392
Mof_C 	C 	0.3954	0.4457	0.6679	0.372
Mof_C 	C 	0.3356	0.452	0.611	-1.022
Mof_C 	C 	0.8885	0.9044	0.0914	-0.879
Mof_C 	C 	0.9773	0.0253	0.3643	-0.892
Mof_C 	C 	0.1897	0.3384	0.8815	-0.926
Mof_C 	C 	0.2114	0.2829	0.7998	0.327
Mof_C 	C 	0.2549	0.2417	0.6879	0.326
Mof_C 	C 	0.2823	0.2406	0.6143	-0.893
Mof_C 	C 	0.7491	0.4429	0.6445	0.417
Mof_C 	C 	0.8421	0.43	0.6141	-0.128
Mof_C 	C 	0.9096	0.4218	0.6588	0.031
Mof_C 	C 	0.9994	0.416	0.6375	-0.039
Mof_C 	C 	0.0743	0.4122	0.6913	0.314
Mof_C 	C 	0.0241	0.4233	0.5708	-0.03
Mof_C 	C 	0.9531	0.4284	0.5244	-0.077
Mof_C 	C 	0.9792	0.4352	0.4518	0.375
Mof_C 	C 	0.8659	0.4326	0.5448	0.048
Mof_C 	C 	0.1599	0.608	0.1471	0.322
Mof_C 	C 	0.1677	0.6345	0.0855	-0.138
Mof_C 	C 	0.1863	0.5847	0.0124	0.077
Mof_C 	C 	0.1835	0.6064	0.9501	-0.167
Mof_C 	C 	0.2024	0.5524	0.8723	0.422
Mof_C 	C 	0.1671	0.6858	0.9733	0.09
Mof_C 	C 	0.152	0.7362	0.0461	-0.144
Mof_C 	C 	0.1542	0.7106	0.1053	0.062
Mof_C 	C 	0.1323	0.8193	0.0707	0.373
Mof_C 	C 	0.6588	0.8526	0.0467	0.329
Mof_C 	C 	0.6036	0.7647	0.81	0.078
Mof_C 	C 	0.2538	0.9736	0.2504	0.397
Mof_C 	C 	0.3246	0.9838	0.3035	-0.211
Mof_C 	C 	0.4135	0.9665	0.2807	0.144
Mof_C 	C 	0.4835	0.9742	0.3324	-0.214
Mof_C 	C 	0.579	0.9502	0.3048	0.471
Mof_C 	C 	0.4609	0.9992	0.4071	0.157
Mof_C 	C 	0.3735	0.017	0.4317	-0.217
Mof_C 	C 	0.3546	0.0427	0.5141	0.394
Mof_C 	C 	0.3068	0.0081	0.3799	0.152
Mof_C 	C 	0.0832	0.101	0.1802	0.372
Mof_C 	C 	0.1006	0.1583	0.144	-0.116
Mof_C 	C 	0.1174	0.1286	0.0674	0.057
Mof_C 	C 	0.1371	0.1807	0.0401	-0.118
Mof_C 	C 	0.1406	0.2578	0.0843	0.087
Mof_C 	C 	0.1234	0.2857	0.1596	-0.168
Mof_C 	C 	0.1231	0.3685	0.2081	0.414
Mof_C 	C 	0.4244	0.0158	0.7079	0.358
Mof_C 	C 	0.3899	0.0668	0.8214	0.287
Mof_C 	C 	0.9343	0.5863	0.1701	-1.119
Mof_C 	C 	0.9347	0.5693	0.2335	0.425
Mof_C 	C 	0.8954	0.5543	0.3321	0.378
Mof_C 	C 	0.8356	0.548	0.389	-1.032
Mof_C 	C 	0.3885	0.0956	0.9086	-0.86
Mof_C 	C 	0.4773	0.9747	0.6357	-0.948
Mof_C 	C 	0.6897	0.6616	0.1185	-0.936
Mof_C 	C 	0.7114	0.7171	0.2002	0.332
Mof_C 	C 	0.7549	0.7583	0.3121	0.331
Mof_C 	C 	0.7823	0.7594	0.3857	-0.903
Mof_C 	C 	0.2491	0.5571	0.3555	0.43
Mof_C 	C 	0.3421	0.57	0.3859	-0.167
Mof_C 	C 	0.4096	0.5782	0.3412	0.081
Mof_C 	C 	0.4994	0.584	0.3625	-0.119
Mof_C 	C 	0.5743	0.5878	0.3087	0.353
Mof_C 	C 	0.5241	0.5767	0.4292	0.064
Mof_C 	C 	0.4531	0.5716	0.4756	-0.135
Mof_C 	C 	0.4792	0.5648	0.5482	0.367
Mof_C 	C 	0.3659	0.5674	0.4552	0.091
Mof_C 	C 	0.6599	0.392	0.8529	0.324
Mof_C 	C 	0.6677	0.3655	0.9145	-0.133
Mof_C 	C 	0.6863	0.4153	0.9876	0.076
Mof_C 	C 	0.6835	0.3936	0.0499	-0.162
Mof_C 	C 	0.7024	0.4476	0.1277	0.422
Mof_C 	C 	0.6671	0.3142	0.0267	0.09
Mof_C 	C 	0.652	0.2638	0.9539	-0.139
Mof_C 	C 	0.6542	0.2894	0.8947	0.061
Mof_C 	C 	0.6323	0.1807	0.9293	0.373
Mof_C 	C 	0.1588	0.1474	0.9533	0.329
Mof_C 	C 	0.1036	0.2353	0.19	0.081
Mof_C 	C 	0.7538	0.0264	0.7496	0.398
Mof_C 	C 	0.8246	0.0162	0.6965	-0.216
Mof_C 	C 	0.9135	0.0335	0.7193	0.142
Mof_C 	C 	0.9835	0.0258	0.6676	-0.201
Mof_C 	C 	0.079	0.0498	0.6952	0.453
Mof_C 	C 	0.9609	0.0008	0.5929	0.177
Mof_C 	C 	0.8735	0.983	0.5683	-0.22
Mof_C 	C 	0.8546	0.9573	0.4859	0.397
Mof_C 	C 	0.8068	0.9919	0.6201	0.162
Mof_N 	N 	0.9545	0.9713	0.2259	-0.352
Mof_N 	N 	0.8138	0.9268	0.2164	-0.297
Mof_N 	N 	0.8393	0.9574	0.2906	-0.309
Mof_N 	N 	0.4841	0.4626	0.6788	-0.31
Mof_N 	N 	0.5095	0.4555	0.7419	-0.306
Mof_N 	N 	0.3639	0.4283	0.7225	-0.387
Mof_N 	N 	0.2202	0.2092	0.7736	-0.301
Mof_N 	N 	0.2465	0.1827	0.7015	-0.304
Mof_N 	N 	0.2317	0.3075	0.7478	-0.368
Mof_N 	N 	0.4545	0.0287	0.7741	-0.36
Mof_N 	N 	0.3138	0.0732	0.7836	-0.297
Mof_N 	N 	0.3393	0.0426	0.7094	-0.312
Mof_N 	N 	0.9841	0.5374	0.3212	-0.298
Mof_N 	N 	0.0095	0.5445	0.2581	-0.328
Mof_N 	N 	0.8639	0.5717	0.2775	-0.392
Mof_N 	N 	0.7202	0.7908	0.2264	-0.301
Mof_N 	N 	0.7465	0.8173	0.2985	-0.304
Mof_N 	N 	0.7317	0.6925	0.2522	-0.368
Mof_O 	O 	0.5964	0.9671	0.8642	-0.457
Mof_O 	O 	0.6038	0.6081	0.7188	-0.48
Mof_O 	O 	0.7327	0.4397	0.7047	-0.509
Mof_O 	O 	0.6877	0.4552	0.6032	-0.481
Mof_O 	O 	0.0501	0.4086	0.7486	-0.341
Mof_O 	O 	0.1548	0.4118	0.6674	-0.475
Mof_O 	O 	0.9303	0.4036	0.3959	-0.332
Mof_O 	O 	0.0472	0.4747	0.4559	-0.491
Mof_O 	O 	0.1486	0.652	0.2127	-0.363
Mof_O 	O 	0.1675	0.5347	0.1246	-0.446
Mof_O 	O 	0.2223	0.4866	0.8594	-0.516
Mof_O 	O 	0.1943	0.5745	0.823	-0.337
Mof_O 	O 	0.0925	0.8556	0.1315	-0.481
Mof_O 	O 	0.1491	0.8429	0.0206	-0.274
Mof_O 	O 	0.5628	0.8723	0.7535	-0.332
Mof_O 	O 	0.6394	0.5872	0.8201	-0.496
Mof_O 	O 	0.6767	0.8038	0.0719	-0.483
Mof_O 	O 	0.6602	0.9219	0.0843	-0.335
Mof_O 	O 	0.1728	0.9858	0.2726	-0.471
Mof_O 	O 	0.272	0.9537	0.1811	-0.308
Mof_O 	O 	0.2752	0.0319	0.5323	-0.488
Mof_O 	O 	0.4083	0.0788	0.564	-0.389
Mof_O 	O 	0.6385	0.9661	0.3565	-0.517
Mof_O 	O 	0.5914	0.9197	0.2367	-0.52
Mof_O 	O 	0.0964	0.0329	0.1358	-0.465
Mof_O 	O 	0.1038	0.3919	0.2812	-0.485
Mof_O 	O 	0.2327	0.5603	0.2953	-0.515
Mof_O 	O 	0.1877	0.5448	0.3968	-0.488
Mof_O 	O 	0.5501	0.5914	0.2514	-0.343
Mof_O 	O 	0.6548	0.5882	0.3326	-0.481
Mof_O 	O 	0.4303	0.5964	0.6041	-0.337
Mof_O 	O 	0.5472	0.5253	0.5441	-0.474
Mof_O 	O 	0.6486	0.348	0.7873	-0.357
Mof_O 	O 	0.6675	0.4653	0.8754	-0.442
Mof_O 	O 	0.7223	0.5134	0.1406	-0.515
Mof_O 	O 	0.6943	0.4255	0.177	-0.333
Mof_O 	O 	0.5925	0.1444	0.8685	-0.474
Mof_O 	O 	0.6491	0.1571	0.9794	-0.27
Mof_O 	O 	0.0628	0.1277	0.2465	-0.341
Mof_O 	O 	0.1394	0.4128	0.1799	-0.5
Mof_O 	O 	0.1767	0.1962	0.9281	-0.486
Mof_O 	O 	0.1602	0.0781	0.9157	-0.34
Mof_O 	O 	0.6728	0.0142	0.7274	-0.47
Mof_O 	O 	0.772	0.0463	0.8189	-0.307
Mof_O 	O 	0.7752	0.9681	0.4677	-0.485
Mof_O 	O 	0.9083	0.9212	0.436	-0.382
Mof_O 	O 	0.1385	0.0339	0.6435	-0.518
Mof_O 	O 	0.0914	0.0803	0.7633	-0.523
_end
