data_functionalizedCrystal
_audit_creation_method	'EQeq! by Chris Wilmer'
_symmetry_space_group_name_H-M	'P1'
_symmetry_Int_Tables_number	1
_symmetry_cell_setting	triclinic
loop_
_symmetry_equiv_pos_as_xyz
  x,y,z
_cell_length_a	7.772
_cell_length_b	18.629
_cell_length_c	19.1515
_cell_angle_alpha	90
_cell_angle_beta	98.9341
_cell_angle_gamma	90
loop_
_atom_site_label
_atom_site_type_symbol
_atom_site_fract_x
_atom_site_fract_y
_atom_site_fract_z
_atom_site_charge
Mof_Co	Co	0.23337	0.06003	0.03536	1.155
Mof_Co	Co	0.73337	0.43997	0.53536	1.158
Mof_Co	Co	0.26663	0.56003	0.46464	1.158
Mof_Co	Co	0.23358	0.93996	0.52948	1.131
Mof_Co	Co	0.26642	0.43996	0.97052	1.132
Mof_Co	Co	0.76663	0.93997	0.96464	1.155
Mof_Co	Co	0.73358	0.56004	0.02948	1.132
Mof_Co	Co	0.76642	0.06004	0.47052	1.131
Mof_H 	H 	0.593	0.4801	0.2808	0.225
Mof_H 	H 	0.6873	0.7948	0.7478	0.124
Mof_H 	H 	0.3052	0.3562	0.6212	0.095
Mof_H 	H 	0.5364	0.6883	0.7131	-0.009
Mof_H 	H 	0.3438	0.8114	0.2888	-0.014
Mof_H 	H 	0.5584	0.8522	0.3819	0.083
Mof_H 	H 	0.4651	0.6851	0.7855	-0
Mof_H 	H 	0.1562	0.3114	0.2112	-0.015
Mof_H 	H 	0.0316	0.0023	0.1659	0.204
Mof_H 	H 	0.0584	0.6478	0.8819	0.084
Mof_H 	H 	0.5573	0.1473	0.8836	0.095
Mof_H 	H 	0.7981	0.8537	0.6293	0.088
Mof_H 	H 	0.4572	0.7096	0.5306	0.069
Mof_H 	H 	0.0082	0.921	0.1837	0.226
Mof_H 	H 	0.0573	0.3527	0.3836	0.094
Mof_H 	H 	0.8438	0.6886	0.7888	-0.015
Mof_H 	H 	0.9918	0.079	0.8163	0.226
Mof_H 	H 	0.3911	0.2038	0.1817	0.119
Mof_H 	H 	0.7767	0.2984	0.3616	-0.006
Mof_H 	H 	0.5443	0.7095	0.9658	0.065
Mof_H 	H 	0.8052	0.1438	0.1212	0.096
Mof_H 	H 	0.093	0.0199	0.7808	0.222
Mof_H 	H 	0.6556	0.8131	0.2105	-0.01
Mof_H 	H 	0.1145	0.2991	0.8126	0.118
Mof_H 	H 	0.5316	0.4977	0.6659	0.211
Mof_H 	H 	0.2019	0.1463	0.3707	0.088
Mof_H 	H 	0.2767	0.2016	0.8616	-0.005
Mof_H 	H 	0.6089	0.7962	0.8183	0.119
Mof_H 	H 	0.5349	0.3149	0.2145	-0
Mof_H 	H 	0.3078	0.7916	0.7578	0.125
Mof_H 	H 	0.9684	0.9977	0.8341	0.204
Mof_H 	H 	0.7019	0.3537	0.8707	0.089
Mof_H 	H 	0.5082	0.579	0.6837	0.229
Mof_H 	H 	0.5428	0.2904	0.4694	0.069
Mof_H 	H 	0.4636	0.3117	0.2869	-0.008
Mof_H 	H 	0.1922	0.2916	0.7422	0.124
Mof_H 	H 	0.0349	0.1851	0.7145	0.001
Mof_H 	H 	0.4918	0.421	0.3163	0.229
Mof_H 	H 	0.4416	0.1478	0.6181	0.084
Mof_H 	H 	0.9557	0.2095	0.5342	0.067
Mof_H 	H 	0.9572	0.7904	0.0306	0.069
Mof_H 	H 	0.2775	0.801	0.3619	-0.01
Mof_H 	H 	0.8911	0.2962	0.6817	0.118
Mof_H 	H 	0.4427	0.8527	0.1164	0.095
Mof_H 	H 	0.9651	0.8149	0.2855	0.001
Mof_H 	H 	0.1556	0.6869	0.7105	-0.01
Mof_H 	H 	0.907	0.9801	0.2192	0.222
Mof_H 	H 	0.9427	0.6473	0.6164	0.094
Mof_H 	H 	0.4684	0.5023	0.3341	0.211
Mof_H 	H 	0.2233	0.7016	0.6384	-0.006
Mof_H 	H 	0.6922	0.2084	0.2422	0.125
Mof_H 	H 	0.7225	0.199	0.6381	-0.01
Mof_H 	H 	0.3444	0.1869	0.7895	-0.01
Mof_H 	H 	0.8127	0.2948	0.7522	0.124
Mof_H 	H 	0.9416	0.3522	0.1181	0.084
Mof_H 	H 	0.1948	0.8562	0.8788	0.096
Mof_H 	H 	0.7233	0.7984	0.1384	-0.005
Mof_H 	H 	0.8444	0.3131	0.2895	-0.01
Mof_H 	H 	0.0364	0.8117	0.2131	-0.005
Mof_H 	H 	0.9636	0.1883	0.7869	-0.005
Mof_H 	H 	0.4557	0.2905	0.0342	0.065
Mof_H 	H 	0.407	0.5199	0.7192	0.226
Mof_H 	H 	0.8078	0.7084	0.2578	0.124
Mof_H 	H 	0.3855	0.7991	0.6874	0.119
Mof_H 	H 	0.1089	0.7038	0.3183	0.118
Mof_H 	H 	0.3127	0.2052	0.2522	0.125
Mof_H 	H 	0.0443	0.7905	0.4658	0.067
Mof_H 	H 	0.2225	0.301	0.1381	-0.011
Mof_H 	H 	0.6145	0.2009	0.3126	0.119
Mof_H 	H 	0.1873	0.7052	0.2478	0.124
Mof_H 	H 	0.8855	0.7009	0.1874	0.118
Mof_H 	H 	0.6562	0.1886	0.7112	-0.013
Mof_H 	H 	0.6948	0.6438	0.3788	0.096
Mof_H 	H 	0.2981	0.6463	0.1293	0.089
Mof_H 	H 	0.0428	0.2096	0.9694	0.069
Mof_H 	H 	0.7775	0.699	0.8619	-0.011
Mof_C 	C 	0.4733	0.8483	0.5644	0.267
Mof_C 	C 	0.6941	0.2237	0.6794	0.153
Mof_C 	C 	0.8086	0.83266	0.4277	-0.047
Mof_C 	C 	0.1454	0.091	0.5527	0.365
Mof_C 	C 	0.2766	0.30892	0.6091	-0.145
Mof_C 	C 	0.6409	0.8161	0.3928	-0.129
Mof_C 	C 	0.4762	0.1505	0.0587	0.267
Mof_C 	C 	0.10687	0.70956	0.07827	-0.011
Mof_C 	C 	0.4506	0.5334	0.6768	-0.691
Mof_C 	C 	0.9328	0.77915	0.4434	-0.042
Mof_C 	C 	0.1914	0.16734	0.5723	-0.047
Mof_C 	C 	0.8974	0.7532	0.6279	0.193
Mof_C 	C 	0.6506	0.7648	0.7842	-0.289
Mof_C 	C 	0.2234	0.80892	0.8909	-0.145
Mof_C 	C 	0.38916	0.79188	0.92526	-0.008
Mof_C 	C 	0.89313	0.29044	0.92173	-0.011
Mof_C 	C 	0.1506	0.7352	0.2842	-0.285
Mof_C 	C 	0.3086	0.66734	0.9277	-0.049
Mof_C 	C 	0.3478	0.4078	0.4556	0.382
Mof_C 	C 	0.9998	0.7828	0.2503	0.084
Mof_C 	C 	0.1026	0.2468	0.3721	0.193
Mof_C 	C 	0.0997	0.7543	0.8748	0.195
Mof_C 	C 	0.3461	0.7648	0.7196	-0.286
Mof_C 	C 	0.1927	0.7239	0.6806	0.149
Mof_C 	C 	0.3591	0.1839	0.6072	-0.129
Mof_C 	C 	0.3026	0.5387	0.6172	0.192
Mof_C 	C 	0.8073	0.2761	0.3194	0.149
Mof_C 	C 	0.2718	0.693	0.1143	-0.147
Mof_C 	C 	0.0238	0.6505	0.4413	0.267
Mof_C 	C 	0.88916	0.70812	0.42526	-0.007
Mof_C 	C 	0.8592	0.6832	0.6066	-0.13
Mof_C 	C 	0.3974	0.7468	0.1279	0.194
Mof_C 	C 	0.8478	0.0922	0.9556	0.382
Mof_C 	C 	0.1539	0.2648	0.7804	-0.283
Mof_C 	C 	0.307	0.33295	0.4299	-0.05
Mof_C 	C 	0.1974	0.0387	0.8828	0.19
Mof_C 	C 	0.3546	0.591	0.9473	0.366
Mof_C 	C 	0.0494	0.0334	0.8232	-0.677
Mof_C 	C 	0.1941	0.2763	0.1794	0.156
Mof_C 	C 	0.8546	0.909	0.4473	0.365
Mof_C 	C 	0.3494	0.2352	0.2158	-0.289
Mof_C 	C 	0.5997	0.7457	0.3748	0.195
Mof_C 	C 	0.1522	0.9078	0.0444	0.382
Mof_C 	C 	0.3059	0.7763	0.3206	0.153
Mof_C 	C 	0.93335	0.22048	0.94465	-0.037
Mof_C 	C 	0.06665	0.77952	0.05535	-0.037
Mof_C 	C 	0.3073	0.2239	0.8194	0.147
Mof_C 	C 	0.3592	0.8168	0.1066	-0.131
Mof_C 	C 	0.193	0.83295	0.0701	-0.049
Mof_C 	C 	0.9762	0.3495	0.5587	0.267
Mof_C 	C 	0.0672	0.22085	0.5566	-0.042
Mof_C 	C 	0.8059	0.7237	0.8206	0.156
Mof_C 	C 	0.2282	0.193	0.3857	-0.146
Mof_C 	C 	0.8026	0.9613	0.1172	0.19
Mof_C 	C 	0.7718	0.807	0.6143	-0.146
Mof_C 	C 	0.56665	0.72048	0.55535	-0.038
Mof_C 	C 	0.1409	0.6839	0.8928	-0.129
Mof_C 	C 	0.43335	0.27952	0.44465	-0.038
Mof_C 	C 	0.6454	0.409	0.0527	0.366
Mof_C 	C 	0.4328	0.72085	0.9434	-0.04
Mof_C 	C 	0.8461	0.7352	0.2196	-0.283
Mof_C 	C 	0.6408	0.1832	0.8934	-0.131
Mof_C 	C 	0.60687	0.79044	0.57827	-0.012
Mof_C 	C 	0.0002	0.2172	0.7497	0.084
Mof_C 	C 	0.5238	0.8495	0.9413	0.267
Mof_C 	C 	0.5672	0.27915	0.0566	-0.04
Mof_C 	C 	0.11084	0.29188	0.57474	-0.007
Mof_C 	C 	0.6974	0.4613	0.3828	0.192
Mof_C 	C 	0.8591	0.3161	0.1072	-0.129
Mof_C 	C 	0.61084	0.20812	0.07474	-0.008
Mof_C 	C 	0.6927	0.7761	0.1806	0.147
Mof_C 	C 	0.693	0.66705	0.5701	-0.05
Mof_C 	C 	0.6539	0.2352	0.2804	-0.286
Mof_C 	C 	0.0267	0.3483	0.9356	0.265
Mof_C 	C 	0.6522	0.5922	0.5444	0.382
Mof_C 	C 	0.6026	0.2532	0.8721	0.194
Mof_C 	C 	0.7766	0.19108	0.1091	-0.145
Mof_C 	C 	0.8494	0.2648	0.7158	-0.285
Mof_C 	C 	0.6914	0.33266	0.0723	-0.049
Mof_C 	C 	0.7234	0.69108	0.3909	-0.145
Mof_C 	C 	0.5002	0.2828	0.2497	0.09
Mof_C 	C 	0.7282	0.307	0.8857	-0.147
Mof_C 	C 	0.9733	0.6517	0.0644	0.265
Mof_C 	C 	0.9003	0.2457	0.1252	0.195
Mof_C 	C 	0.1408	0.3168	0.3934	-0.13
Mof_C 	C 	0.4003	0.2543	0.6252	0.195
Mof_C 	C 	0.4998	0.7172	0.7503	0.09
Mof_C 	C 	0.5267	0.1517	0.4356	0.267
Mof_C 	C 	0.39313	0.20956	0.42173	-0.012
Mof_C 	C 	0.807	0.16705	0.9299	-0.049
Mof_C 	C 	0.5494	0.4666	0.3232	-0.691
Mof_C 	C 	0.9506	0.9666	0.1768	-0.677
Mof_N 	N 	0.1858	0.5382	0.5642	-0.237
Mof_N 	N 	0.3142	0.0382	0.9358	-0.234
Mof_N 	N 	0.6858	0.9618	0.0642	-0.234
Mof_N 	N 	0.8142	0.4618	0.4358	-0.237
Mof_O 	O 	0.4854	0.41818	0.4973	-0.485
Mof_O 	O 	0.17257	0.33445	0.97217	-0.388
Mof_O 	O 	0.48908	0.91352	0.92148	-0.354
Mof_O 	O 	0.73773	0.04438	0.93553	-0.442
Mof_O 	O 	0.05613	0.77604	0.66203	-0.263
Mof_O 	O 	0.50431	0.91077	0.58901	-0.376
Mof_O 	O 	0.55613	0.72396	0.16203	-0.263
Mof_O 	O 	0.94387	0.22396	0.33797	-0.263
Mof_O 	O 	0.23773	0.45562	0.43553	-0.445
Mof_O 	O 	0.17349	0.66645	0.47119	-0.375
Mof_O 	O 	0.67257	0.16555	0.47217	-0.389
Mof_O 	O 	0.06034	0.22352	0.15924	-0.264
Mof_O 	O 	0.00431	0.58923	0.08901	-0.374
Mof_O 	O 	0.9854	0.08182	0.9973	-0.481
Mof_O 	O 	0.76227	0.54438	0.56447	-0.445
Mof_O 	O 	0.44387	0.27604	0.83797	-0.263
Mof_O 	O 	0.98908	0.58648	0.42148	-0.353
Mof_O 	O 	0.56034	0.27648	0.65924	-0.262
Mof_O 	O 	0.26846	0.04674	0.55316	-0.458
Mof_O 	O 	0.5124	0.57415	0.9614	-0.493
Mof_O 	O 	0.99569	0.41077	0.91099	-0.374
Mof_O 	O 	0.93966	0.77648	0.84076	-0.264
Mof_O 	O 	0.01092	0.41352	0.57852	-0.353
Mof_O 	O 	0.49569	0.08923	0.41099	-0.376
Mof_O 	O 	0.67349	0.83355	0.97119	-0.377
Mof_O 	O 	0.0146	0.91818	0.0027	-0.481
Mof_O 	O 	0.5146	0.58182	0.5027	-0.485
Mof_O 	O 	0.43966	0.72352	0.34076	-0.262
Mof_O 	O 	0.26227	0.95562	0.06447	-0.442
Mof_O 	O 	0.0124	0.92585	0.4614	-0.492
Mof_O 	O 	0.9876	0.07415	0.5386	-0.492
Mof_O 	O 	0.76846	0.45326	0.05316	-0.458
Mof_O 	O 	0.23154	0.54674	0.94684	-0.458
Mof_O 	O 	0.73154	0.95326	0.44684	-0.458
Mof_O 	O 	0.4876	0.42585	0.0386	-0.493
Mof_O 	O 	0.51092	0.08648	0.07852	-0.354
Mof_O 	O 	0.82743	0.66555	0.02783	-0.388
Mof_O 	O 	0.82651	0.33355	0.52881	-0.375
Mof_O 	O 	0.32743	0.83445	0.52783	-0.389
Mof_O 	O 	0.32651	0.16645	0.02881	-0.377
_end
