data_functionalizedCrystal
_audit_creation_method	'EQeq! by Chris Wilmer'
_symmetry_space_group_name_H-M	'P1'
_symmetry_Int_Tables_number	1
_symmetry_cell_setting	triclinic
loop_
_symmetry_equiv_pos_as_xyz
  x,y,z
_cell_length_a	17.02
_cell_length_b	19.8466
_cell_length_c	25.072
_cell_angle_alpha	75.5511
_cell_angle_beta	70.1582
_cell_angle_gamma	64.6093
loop_
_atom_site_label
_atom_site_type_symbol
_atom_site_fract_x
_atom_site_fract_y
_atom_site_fract_z
_atom_site_charge
Mof_Cd	Cd	0.4366	0.17721	0.54793	0.499
Mof_Cd	Cd	0.3404	0.33475	0.62953	0.451
Mof_Cd	Cd	0.16174	0.32279	0.95207	0.501
Mof_Cd	Cd	0.30468	0.16525	0.87047	0.45
Mof_Cd	Cd	0.5634	0.82279	0.45207	0.498
Mof_Cd	Cd	0.6596	0.66525	0.37047	0.451
Mof_Cd	Cd	0.83826	0.67721	0.04793	0.496
Mof_Cd	Cd	0.69532	0.83475	0.12953	0.452
Mof_Cd	Cd	0.5	0	0.5	0.506
Mof_Cd	Cd	-3.1833e-17	0.5	-0	0.498
Mof_H 	H 	0.9574	0.1202	0.4672	0.072
Mof_H 	H 	0.1152	0.1352	0.3068	0.075
Mof_H 	H 	0.8468	0.2495	0.3409	0.073
Mof_H 	H 	0.8359	0.2156	0.5178	0.066
Mof_H 	H 	0.6946	0.2451	0.5837	0.046
Mof_H 	H 	0.5887	0.2394	0.465	0.044
Mof_H 	H 	0.7274	0.2099	0.4009	0.06
Mof_H 	H 	0.1834	0.994	0.3526	0.085
Mof_H 	H 	0.3141	0.9203	0.3801	0.039
Mof_H 	H 	0.2466	0.0552	0.4952	0.041
Mof_H 	H 	0.1104	0.1285	0.4727	0.065
Mof_H 	H 	0.0953	0.1411	0.2171	0.071
Mof_H 	H 	0.1224	0.1997	0.1249	0.035
Mof_H 	H 	0.9251	0.3923	0.1735	0.035
Mof_H 	H 	0.9002	0.3358	0.2672	0.075
Mof_H 	H 	0.1729	0.6876	0.8454	0.08
Mof_H 	H 	0.3299	0.7617	0.7061	0.079
Mof_H 	H 	0.1541	0.8994	0.8218	0.078
Mof_H 	H 	0.0055	0.9153	0.8735	0.068
Mof_H 	H 	0.8849	0.9307	0.9549	0.046
Mof_H 	H 	0.0105	0.7189	0.0201	0.031
Mof_H 	H 	0.1292	0.7039	0.9385	0.07
Mof_H 	H 	0.2644	0.5768	0.8234	0.06
Mof_H 	H 	0.2952	0.4678	0.7888	0.062
Mof_H 	H 	0.3546	0.5686	0.629	0.057
Mof_H 	H 	0.3241	0.677	0.6628	0.053
Mof_H 	H 	0.2697	0.9496	0.7868	0.066
Mof_H 	H 	0.3204	0.0419	0.7313	0.043
Mof_H 	H 	0.3322	0.9725	0.5913	0.047
Mof_H 	H 	0.2886	0.8768	0.646	0.065
Mof_H 	H 	0.5448	0.3798	0.0328	0.077
Mof_H 	H 	0.5572	0.3648	0.1932	0.079
Mof_H 	H 	0.4372	0.2505	0.1591	0.078
Mof_H 	H 	0.5693	0.2844	0.9822	0.056
Mof_H 	H 	0.5234	0.2549	0.9163	0.054
Mof_H 	H 	0.2931	0.2606	0.035	0.053
Mof_H 	H 	0.3382	0.2901	0.0991	0.05
Mof_H 	H 	0.53	0.506	0.1474	0.065
Mof_H 	H 	0.6145	0.5797	0.1199	0.048
Mof_H 	H 	0.797	0.4448	0.0048	0.043
Mof_H 	H 	0.7116	0.3715	0.0273	0.062
Mof_H 	H 	0.4535	0.3589	0.2829	0.065
Mof_H 	H 	0.447	0.3003	0.3751	0.043
Mof_H 	H 	0.4909	0.1077	0.3265	0.04
Mof_H 	H 	0.5032	0.1642	0.2328	0.068
Mof_H 	H 	0.7059	0.8124	0.6546	0.082
Mof_H 	H 	0.7977	0.7383	0.7939	0.081
Mof_H 	H 	0.8753	0.6006	0.6782	0.082
Mof_H 	H 	0.7943	0.5847	0.6265	0.063
Mof_H 	H 	0.7705	0.5693	0.5451	0.047
Mof_H 	H 	0.7495	0.7811	0.4799	0.046
Mof_H 	H 	0.7716	0.7961	0.5615	0.065
Mof_H 	H 	0.6646	0.9232	0.6766	0.065
Mof_H 	H 	0.5518	0.0322	0.7112	0.051
Mof_H 	H 	0.5522	0.9314	0.871	0.059
Mof_H 	H 	0.6639	0.823	0.8372	0.054
Mof_H 	H 	0.0061	0.5504	0.7132	0.051
Mof_H 	H 	0.0936	0.4581	0.7687	0.05
Mof_H 	H 	0.896	0.5275	0.9087	0.052
Mof_H 	H 	0.8114	0.6232	0.854	0.06
Mof_H 	H 	0.0426	0.8798	0.5328	0.082
Mof_H 	H 	0.8848	0.8648	0.6932	0.08
Mof_H 	H 	0.1532	0.7505	0.6591	0.078
Mof_H 	H 	0.1641	0.7844	0.4822	0.062
Mof_H 	H 	0.3054	0.7549	0.4163	0.047
Mof_H 	H 	0.4113	0.7606	0.535	0.045
Mof_H 	H 	0.2726	0.7901	0.5991	0.057
Mof_H 	H 	0.8166	0.006	0.6474	0.047
Mof_H 	H 	0.6859	0.0797	0.6199	0.057
Mof_H 	H 	0.7534	0.9448	0.5048	0.046
Mof_H 	H 	0.8896	0.8715	0.5273	0.062
Mof_H 	H 	0.9047	0.8589	0.7829	0.06
Mof_H 	H 	0.8776	0.8003	0.8751	0.049
Mof_H 	H 	0.0749	0.6077	0.8265	0.048
Mof_H 	H 	0.0998	0.6642	0.7328	0.063
Mof_H 	H 	0.8271	0.3124	0.1546	0.082
Mof_H 	H 	0.6701	0.2383	0.2939	0.079
Mof_H 	H 	0.8459	0.1006	0.1782	0.078
Mof_H 	H 	0.9945	0.0847	0.1265	0.059
Mof_H 	H 	0.1151	0.0693	0.0451	0.045
Mof_H 	H 	0.9895	0.2811	0.9799	0.052
Mof_H 	H 	0.8708	0.2961	0.0615	0.063
Mof_H 	H 	0.7356	0.4232	0.1766	0.06
Mof_H 	H 	0.7048	0.5322	0.2112	0.062
Mof_H 	H 	0.6454	0.4314	0.371	0.057
Mof_H 	H 	0.6759	0.323	0.3372	0.053
Mof_H 	H 	0.7303	0.0504	0.2132	0.07
Mof_H 	H 	0.6796	0.9581	0.2687	0.04
Mof_H 	H 	0.6678	0.0275	0.4087	0.05
Mof_H 	H 	0.7114	0.1232	0.354	0.062
Mof_H 	H 	0.4552	0.6202	0.9672	0.077
Mof_H 	H 	0.4428	0.6352	0.8068	0.077
Mof_H 	H 	0.5628	0.7495	0.8409	0.074
Mof_H 	H 	0.4307	0.7156	0.0178	0.071
Mof_H 	H 	0.4766	0.7451	0.0837	0.039
Mof_H 	H 	0.7069	0.7394	0.965	0.036
Mof_H 	H 	0.6618	0.7099	0.9009	0.067
Mof_H 	H 	0.47	0.494	0.8526	0.067
Mof_H 	H 	0.3855	0.4203	0.8801	0.048
Mof_H 	H 	0.203	0.5552	0.9952	0.045
Mof_H 	H 	0.2884	0.6285	0.9727	0.065
Mof_H 	H 	0.5465	0.6411	0.7171	0.066
Mof_H 	H 	0.553	0.6997	0.6249	0.043
Mof_H 	H 	0.5091	0.8923	0.6735	0.043
Mof_H 	H 	0.4968	0.8358	0.7672	0.07
Mof_H 	H 	0.2941	0.1876	0.3454	0.08
Mof_H 	H 	0.2023	0.2617	0.2061	0.076
Mof_H 	H 	0.1247	0.3994	0.3218	0.075
Mof_H 	H 	0.2057	0.4153	0.3735	0.063
Mof_H 	H 	0.2295	0.4307	0.4549	0.045
Mof_H 	H 	0.2505	0.2189	0.5201	0.044
Mof_H 	H 	0.2284	0.2039	0.4385	0.065
Mof_H 	H 	0.3354	0.0768	0.3234	0.056
Mof_H 	H 	0.4482	0.9678	0.2888	0.073
Mof_H 	H 	0.4478	0.0686	0.129	0.054
Mof_H 	H 	0.3361	0.177	0.1628	0.052
Mof_H 	H 	0.9939	0.4496	0.2868	0.087
Mof_H 	H 	0.9064	0.5419	0.2313	0.032
Mof_H 	H 	0.104	0.4725	0.0913	0.045
Mof_H 	H 	0.1886	0.3768	0.146	0.067
Mof_C 	C 	0.8882	0.1873	0.4107	0.052
Mof_C 	C 	0.9637	0.1392	0.4288	-0.106
Mof_C 	C 	0.051	0.118	0.3902	0.038
Mof_C 	C 	0.0586	0.1483	0.3329	-0.12
Mof_C 	C 	0.9837	0.1977	0.3139	0.054
Mof_C 	C 	0.8976	0.2169	0.3533	-0.115
Mof_C 	C 	0.7978	0.207	0.4524	0.031
Mof_C 	C 	0.7865	0.2197	0.5073	-0.087
Mof_C 	C 	0.7012	0.2387	0.5467	0.018
Mof_C 	C 	0.6259	0.2476	0.53	-0.083
Mof_C 	C 	0.6378	0.2353	0.4759	0.022
Mof_C 	C 	0.7215	0.2165	0.4377	-0.09
Mof_C 	C 	0.1317	0.0695	0.4095	0.041
Mof_C 	C 	0.1949	0.0067	0.3817	-0.128
Mof_C 	C 	0.2744	0.9632	0.3974	0.039
Mof_C 	C 	0.295	0.983	0.438	-0.082
Mof_C 	C 	0.2334	0.0434	0.4664	0.009
Mof_C 	C 	0.1514	0.0877	0.4531	-0.099
Mof_C 	C 	0.9952	0.2333	0.2533	0.05
Mof_C 	C 	0.0619	0.192	0.209	-0.116
Mof_C 	C 	0.0774	0.2273	0.1535	0.035
Mof_C 	C 	0.0286	0.3014	0.1396	-0.105
Mof_C 	C 	0.9604	0.3422	0.1824	0.041
Mof_C 	C 	0.9451	0.3078	0.2388	-0.107
Mof_C 	C 	0.5356	0.2705	0.5723	0.326
Mof_C 	C 	0.385	0.9414	0.4518	0.304
Mof_C 	C 	0.048	0.3385	0.0781	0.323
Mof_C 	C 	0.153	0.7948	0.8438	0.062
Mof_C 	C 	0.1912	0.7263	0.8235	-0.127
Mof_C 	C 	0.2565	0.7123	0.7713	0.065
Mof_C 	C 	0.2854	0.77	0.7404	-0.131
Mof_C 	C 	0.2488	0.8399	0.7599	0.065
Mof_C 	C 	0.1816	0.8518	0.81	-0.128
Mof_C 	C 	0.0791	0.8076	0.8982	0.035
Mof_C 	C 	0.0059	0.876	0.9028	-0.099
Mof_C 	C 	0.9337	0.885	0.9514	0.023
Mof_C 	C 	0.93461	0.82518	0.995	-0.068
Mof_C 	C 	0.0087	0.7582	0.9904	0.029
Mof_C 	C 	0.08009	0.74942	0.9418	-0.097
Mof_C 	C 	0.2895	0.6385	0.7491	0.008
Mof_C 	C 	0.2824	0.5757	0.7841	-0.067
Mof_C 	C 	0.3008	0.5098	0.7638	-0.015
Mof_C 	C 	0.3282	0.5085	0.7041	-0.047
Mof_C 	C 	0.3362	0.5703	0.6683	-0.009
Mof_C 	C 	0.3181	0.6353	0.6883	-0.069
Mof_C 	C 	0.2763	0.9024	0.724	0.027
Mof_C 	C 	0.2842	0.9528	0.7472	-0.082
Mof_C 	C 	0.3132	0.0091	0.7141	0.012
Mof_C 	C 	0.3316	0.017	0.6544	-0.099
Mof_C 	C 	0.3211	0.9673	0.6307	0.033
Mof_C 	C 	0.2946	0.9102	0.6632	-0.09
Mof_C 	C 	0.851	0.8328	0.0438	0.283
Mof_C 	C 	0.3422	0.4391	0.6805	0.273
Mof_C 	C 	0.3637	0.0757	0.6189	0.309
Mof_C 	C 	0.4862	0.3127	0.0893	0.07
Mof_C 	C 	0.5317	0.3608	0.0712	-0.13
Mof_C 	C 	0.5592	0.382	0.1098	0.059
Mof_C 	C 	0.5398	0.3517	0.1671	-0.125
Mof_C 	C 	0.4953	0.3023	0.1861	0.06
Mof_C 	C 	0.4678	0.2831	0.1467	-0.129
Mof_C 	C 	0.4572	0.293	0.0476	0.001
Mof_C 	C 	0.5135	0.2803	0.9927	-0.055
Mof_C 	C 	0.4866	0.2613	0.9533	-0.007
Mof_C 	C 	0.4035	0.2524	0.97	-0.056
Mof_C 	C 	0.349	0.2647	0.0241	-0.013
Mof_C 	C 	0.3757	0.2835	0.0623	-0.063
Mof_C 	C 	0.6107	0.4305	0.0905	0.021
Mof_C 	C 	0.5833	0.4933	0.1183	-0.087
Mof_C 	C 	0.635	0.5368	0.1026	0.009
Mof_C 	C 	0.716	0.517	0.062	-0.078
Mof_C 	C 	0.7432	0.4566	0.0336	0.007
Mof_C 	C 	0.6922	0.4123	0.0469	-0.087
Mof_C 	C 	0.4818	0.2667	0.2467	0.029
Mof_C 	C 	0.4629	0.308	0.291	-0.091
Mof_C 	C 	0.4582	0.2727	0.3465	0.017
Mof_C 	C 	0.4696	0.1986	0.3604	-0.086
Mof_C 	C 	0.485	0.1578	0.3176	0.016
Mof_C 	C 	0.4917	0.1922	0.2612	-0.09
Mof_C 	C 	0.3784	0.2295	0.9277	0.317
Mof_C 	C 	0.7782	0.5586	0.0482	0.301
Mof_C 	C 	0.4646	0.1615	0.4219	0.327
Mof_C 	C 	0.7916	0.7052	0.6562	0.069
Mof_C 	C 	0.741	0.7737	0.6765	-0.131
Mof_C 	C 	0.7401	0.7877	0.7287	0.067
Mof_C 	C 	0.7958	0.73	0.7596	-0.136
Mof_C 	C 	0.8486	0.6601	0.7401	0.075
Mof_C 	C 	0.8434	0.6482	0.69	-0.135
Mof_C 	C 	0.7849	0.6924	0.6018	0.025
Mof_C 	C 	0.7847	0.624	0.5972	-0.082
Mof_C 	C 	0.7701	0.615	0.5486	0.009
Mof_C 	C 	0.75479	0.67482	0.505	-0.07
Mof_C 	C 	0.7573	0.7418	0.5096	0.013
Mof_C 	C 	0.77131	0.75058	0.5582	-0.082
Mof_C 	C 	0.6771	0.8615	0.7509	0.01
Mof_C 	C 	0.6422	0.9243	0.7159	-0.075
Mof_C 	C 	0.5744	0.9902	0.7362	0.001
Mof_C 	C 	0.5408	0.9915	0.7959	-0.045
Mof_C 	C 	0.5748	0.9297	0.8317	-0.009
Mof_C 	C 	0.6417	0.8647	0.8117	-0.069
Mof_C 	C 	0.9027	0.5976	0.776	0.013
Mof_C 	C 	0.9842	0.5472	0.7528	-0.057
Mof_C 	C 	0.0364	0.4909	0.7859	-0.004
Mof_C 	C 	0.003	0.483	0.8456	-0.087
Mof_C 	C 	0.9191	0.5327	0.8693	0.02
Mof_C 	C 	0.868	0.5898	0.8368	-0.077
Mof_C 	C 	0.7276	0.6672	0.4562	0.287
Mof_C 	C 	0.4618	0.0609	0.8195	0.268
Mof_C 	C 	0.0583	0.4243	0.8811	0.304
Mof_C 	C 	0.1118	0.8127	0.5893	0.067
Mof_C 	C 	0.0363	0.8608	0.5712	-0.14
Mof_C 	C 	0.949	0.882	0.6098	0.074
Mof_C 	C 	0.9414	0.8517	0.6671	-0.123
Mof_C 	C 	0.0163	0.8023	0.6861	0.059
Mof_C 	C 	0.1024	0.7831	0.6467	-0.128
Mof_C 	C 	0.2022	0.793	0.5476	0.022
Mof_C 	C 	0.2135	0.7803	0.4927	-0.081
Mof_C 	C 	0.2988	0.7613	0.4533	0.013
Mof_C 	C 	0.3741	0.7524	0.47	-0.08
Mof_C 	C 	0.3622	0.7647	0.5241	0.018
Mof_C 	C 	0.2785	0.7835	0.5623	-0.083
Mof_C 	C 	0.8683	0.9305	0.5905	0.006
Mof_C 	C 	0.8051	0.9933	0.6183	-0.047
Mof_C 	C 	0.7256	0.0368	0.6026	-0.018
Mof_C 	C 	0.705	0.017	0.562	-0.075
Mof_C 	C 	0.7666	0.9566	0.5336	0.009
Mof_C 	C 	0.8486	0.9123	0.5469	-0.077
Mof_C 	C 	0.0048	0.7667	0.7467	0.013
Mof_C 	C 	0.9381	0.808	0.791	-0.071
Mof_C 	C 	0.9226	0.7727	0.8465	0.002
Mof_C 	C 	0.9714	0.6986	0.8604	-0.068
Mof_C 	C 	0.0396	0.6578	0.8176	-0.005
Mof_C 	C 	0.0549	0.6922	0.7612	-0.075
Mof_C 	C 	0.4644	0.7295	0.4277	0.325
Mof_C 	C 	0.615	0.0586	0.5482	0.299
Mof_C 	C 	0.952	0.6615	0.9219	0.328
Mof_C 	C 	0.847	0.2052	0.1562	0.068
Mof_C 	C 	0.8088	0.2737	0.1765	-0.13
Mof_C 	C 	0.7435	0.2877	0.2287	0.066
Mof_C 	C 	0.7146	0.23	0.2596	-0.132
Mof_C 	C 	0.7512	0.1601	0.2401	0.064
Mof_C 	C 	0.8184	0.1482	0.19	-0.13
Mof_C 	C 	0.9209	0.1924	0.1018	0.021
Mof_C 	C 	0.9941	0.124	0.0972	-0.071
Mof_C 	C 	0.0663	0.115	0.0486	-0.001
Mof_C 	C 	0.06539	0.17482	0.005	-0.083
Mof_C 	C 	0.9913	0.2418	0.0096	0.012
Mof_C 	C 	0.91991	0.25058	0.0582	-0.079
Mof_C 	C 	0.7105	0.3615	0.2509	0.007
Mof_C 	C 	0.7176	0.4243	0.2159	-0.067
Mof_C 	C 	0.6992	0.4902	0.2362	-0.016
Mof_C 	C 	0.6718	0.4915	0.2959	-0.047
Mof_C 	C 	0.6638	0.4297	0.3317	-0.01
Mof_C 	C 	0.6819	0.3647	0.3117	-0.069
Mof_C 	C 	0.7237	0.0976	0.276	0.031
Mof_C 	C 	0.7158	0.0472	0.2528	-0.106
Mof_C 	C 	0.6868	0.9909	0.2859	0.033
Mof_C 	C 	0.6684	0.983	0.3456	-0.083
Mof_C 	C 	0.6789	0.0327	0.3693	0.011
Mof_C 	C 	0.7054	0.0898	0.3368	-0.084
Mof_C 	C 	0.149	0.1672	0.9562	0.295
Mof_C 	C 	0.6578	0.5609	0.3195	0.273
Mof_C 	C 	0.6363	0.9243	0.3811	0.306
Mof_C 	C 	0.5138	0.6873	0.9107	0.05
Mof_C 	C 	0.4683	0.6392	0.9288	-0.116
Mof_C 	C 	0.4408	0.618	0.8902	0.053
Mof_C 	C 	0.4602	0.6483	0.8329	-0.118
Mof_C 	C 	0.5047	0.6977	0.8139	0.054
Mof_C 	C 	0.5322	0.7169	0.8533	-0.115
Mof_C 	C 	0.5428	0.707	0.9524	0.051
Mof_C 	C 	0.4865	0.7197	0.0073	-0.112
Mof_C 	C 	0.5134	0.7387	0.0467	0.036
Mof_C 	C 	0.5965	0.7476	0.03	-0.105
Mof_C 	C 	0.651	0.7353	0.9759	0.051
Mof_C 	C 	0.6243	0.7165	0.9377	-0.109
Mof_C 	C 	0.3893	0.5695	0.9095	0.026
Mof_C 	C 	0.4167	0.5067	0.8817	-0.089
Mof_C 	C 	0.365	0.4632	0.8974	0.012
Mof_C 	C 	0.284	0.483	0.938	-0.078
Mof_C 	C 	0.2568	0.5434	0.9664	0.01
Mof_C 	C 	0.3078	0.5877	0.9531	-0.089
Mof_C 	C 	0.5182	0.7333	0.7533	0.032
Mof_C 	C 	0.5371	0.692	0.709	-0.093
Mof_C 	C 	0.5418	0.7273	0.6535	0.018
Mof_C 	C 	0.5304	0.8014	0.6396	-0.085
Mof_C 	C 	0.515	0.8422	0.6824	0.016
Mof_C 	C 	0.5083	0.8078	0.7388	-0.091
Mof_C 	C 	0.6216	0.7705	0.0723	0.334
Mof_C 	C 	0.2218	0.4414	0.9518	0.302
Mof_C 	C 	0.5354	0.8385	0.5781	0.326
Mof_C 	C 	0.2084	0.2948	0.3438	0.062
Mof_C 	C 	0.259	0.2263	0.3235	-0.126
Mof_C 	C 	0.2599	0.2123	0.2713	0.064
Mof_C 	C 	0.2042	0.27	0.2404	-0.127
Mof_C 	C 	0.1514	0.3399	0.2599	0.055
Mof_C 	C 	0.1566	0.3518	0.31	-0.124
Mof_C 	C 	0.2151	0.3076	0.3982	0.027
Mof_C 	C 	0.2153	0.376	0.4028	-0.085
Mof_C 	C 	0.2299	0.385	0.4514	0.01
Mof_C 	C 	0.24521	0.32518	0.495	-0.072
Mof_C 	C 	0.2427	0.2582	0.4904	0.015
Mof_C 	C 	0.22869	0.24942	0.4418	-0.086
Mof_C 	C 	0.3229	0.1385	0.2491	0.004
Mof_C 	C 	0.3578	0.0757	0.2841	-0.059
Mof_C 	C 	0.4256	0.0098	0.2638	-0.033
Mof_C 	C 	0.4592	0.0085	0.2041	-0.049
Mof_C 	C 	0.4252	0.0703	0.1683	-0.01
Mof_C 	C 	0.3583	0.1353	0.1883	-0.068
Mof_C 	C 	0.0973	0.4024	0.224	0.046
Mof_C 	C 	0.0158	0.4528	0.2472	-0.135
Mof_C 	C 	0.9636	0.5091	0.2141	0.05
Mof_C 	C 	0.997	0.517	0.1544	-0.095
Mof_C 	C 	0.0809	0.4673	0.1307	0.022
Mof_C 	C 	0.132	0.4102	0.1632	-0.097
Mof_C 	C 	0.2724	0.3328	0.5438	0.287
Mof_C 	C 	0.5382	0.9391	0.1805	0.278
Mof_C 	C 	0.9417	0.5757	0.1189	0.31
Mof_O 	O 	0.46779	0.27842	0.558	-0.288
Mof_O 	O 	0.5265	0.2839	0.6197	-0.243
Mof_O 	O 	0.44094	0.88752	0.4228	-0.273
Mof_O 	O 	0.40052	0.96036	0.4906	-0.28
Mof_O 	O 	0.11749	0.29953	0.04489	-0.3
Mof_O 	O 	0.99251	0.4031	0.06748	-0.281
Mof_O 	O 	0.78641	0.89408	0.0513	-0.251
Mof_O 	O 	0.84995	0.77156	0.07774	-0.277
Mof_O 	O 	0.354	0.3763	0.7129	-0.233
Mof_O 	O 	0.3417	0.4484	0.6294	-0.255
Mof_O 	O 	0.366	0.1241	0.6413	-0.256
Mof_O 	O 	0.38739	0.07873	0.56429	-0.296
Mof_O 	O 	0.30421	0.22158	0.942	-0.284
Mof_O 	O 	0.4301	0.2161	0.8803	-0.241
Mof_O 	O 	0.75126	0.61248	0.0772	-0.273
Mof_O 	O 	0.85148	0.53964	0.0094	-0.283
Mof_O 	O 	0.46191	0.20047	0.45511	-0.297
Mof_O 	O 	0.46309	0.0969	0.43252	-0.29
Mof_O 	O 	0.73179	0.60592	0.4487	-0.252
Mof_O 	O 	0.69925	0.72844	0.42226	-0.278
Mof_O 	O 	0.4432	0.1237	0.7871	-0.232
Mof_O 	O 	0.4195	0.0516	0.8706	-0.255
Mof_O 	O 	0.1314	0.3759	0.8587	-0.255
Mof_O 	O 	0.03041	0.42127	0.93571	-0.292
Mof_O 	O 	0.53221	0.72158	0.442	-0.288
Mof_O 	O 	0.4735	0.7161	0.3803	-0.243
Mof_O 	O 	0.55906	0.11248	0.5772	-0.273
Mof_O 	O 	0.59948	0.03964	0.5094	-0.284
Mof_O 	O 	0.88251	0.70047	0.95511	-0.292
Mof_O 	O 	0.00749	0.5969	0.93252	-0.29
Mof_O 	O 	0.21359	0.10592	0.9487	-0.254
Mof_O 	O 	0.15005	0.22844	0.92226	-0.281
Mof_O 	O 	0.646	0.6237	0.2871	-0.232
Mof_O 	O 	0.6583	0.5516	0.3706	-0.255
Mof_O 	O 	0.634	0.8759	0.3587	-0.254
Mof_O 	O 	0.61261	0.92127	0.43571	-0.29
Mof_O 	O 	0.69579	0.77842	0.058	-0.291
Mof_O 	O 	0.5699	0.7839	0.1197	-0.245
Mof_O 	O 	0.24874	0.38752	0.9228	-0.272
Mof_O 	O 	0.14852	0.46036	0.9906	-0.278
Mof_O 	O 	0.53809	0.79953	0.54489	-0.296
Mof_O 	O 	0.53691	0.9031	0.56748	-0.285
Mof_O 	O 	0.26821	0.39408	0.5513	-0.253
Mof_O 	O 	0.30075	0.27156	0.57774	-0.279
Mof_O 	O 	0.5568	0.8763	0.2129	-0.233
Mof_O 	O 	0.5805	0.9484	0.1294	-0.254
Mof_O 	O 	0.8686	0.6241	0.1413	-0.255
Mof_O 	O 	0.96959	0.57873	0.06429	-0.291
_end
