# CIF file generated by openbabel 3.1.0, see https://openbabel.org
data_I
_chemical_name_common 'image0'
_cell_length_a 22.453
_cell_length_b 22.453
_cell_length_c 22.453
_cell_angle_alpha 90
_cell_angle_beta 90
_cell_angle_gamma 90
_space_group_name_H-M_alt 'P 1'
_space_group_name_Hall 'P 1'
loop_
    _symmetry_equiv_pos_as_xyz
    x,y,z
loop_
    _atom_site_label
    _atom_site_type_symbol
    _atom_site_fract_x
    _atom_site_fract_y
    _atom_site_fract_z
    _atom_site_occupancy
    In1      In       0.32230    0.73916    0.80633    1.000
    C1       C        0.46120    0.79500    0.60470    1.000
    H1       H        0.42570    0.79670    0.58190    1.000
    C2       C        0.45880    0.78660    0.66620    1.000
    C3       C        0.51120    0.78610    0.69940    1.000
    H2       H        0.50950    0.78050    0.74130    1.000
    C4       C        0.51630    0.80100    0.57740    1.000
    C5       C        0.39900    0.77980    0.69510    1.000
    C6       C        0.56520    0.79360    0.67180    1.000
    C7       C        0.56800    0.80190    0.60980    1.000
    H3       H        0.60520    0.80810    0.59070    1.000
    C8       C        0.62310    0.79460    0.70520    1.000
    N1       N        0.52290    0.80420    0.51380    1.000
    O1       O        0.39696    0.76140    0.74780    1.000
    O2       O        0.62140    0.78020    0.75920    1.000
    O3       O        0.35430    0.79350    0.66270    1.000
    O4       O        0.66770    0.81060    0.67580    1.000
    O5       O        0.38800    0.73600    0.87160    1.000
    Br1      Br       0.40162    0.73680    0.89179    1.000
    In2      In       0.67770    0.26084    0.80633    1.000
    C9       C        0.53880    0.20500    0.60470    1.000
    H4       H        0.57430    0.20330    0.58190    1.000
    C10      C        0.54120    0.21340    0.66620    1.000
    C11      C        0.48880    0.21390    0.69940    1.000
    H5       H        0.49050    0.21950    0.74130    1.000
    C12      C        0.48370    0.19900    0.57740    1.000
    C13      C        0.60100    0.22020    0.69510    1.000
    C14      C        0.43480    0.20640    0.67180    1.000
    C15      C        0.43200    0.19810    0.60980    1.000
    H6       H        0.39480    0.19190    0.59070    1.000
    C16      C        0.37690    0.20540    0.70520    1.000
    N2       N        0.47710    0.19580    0.51380    1.000
    O6       O        0.60304    0.23860    0.74780    1.000
    O7       O        0.37860    0.21980    0.75920    1.000
    O8       O        0.64570    0.20650    0.66270    1.000
    O9       O        0.33230    0.18940    0.67580    1.000
    O10      O        0.61200    0.26400    0.87160    1.000
    Br2      Br       0.59838    0.26320    0.89179    1.000
    In3      In       0.67770    0.73916    0.19367    1.000
    C17      C        0.53880    0.79500    0.39530    1.000
    H7       H        0.57430    0.79670    0.41810    1.000
    C18      C        0.54120    0.78660    0.33380    1.000
    C19      C        0.48880    0.78610    0.30060    1.000
    H8       H        0.49050    0.78050    0.25870    1.000
    C20      C        0.48370    0.80100    0.42260    1.000
    C21      C        0.60100    0.77980    0.30490    1.000
    C22      C        0.43480    0.79360    0.32820    1.000
    C23      C        0.43200    0.80190    0.39020    1.000
    H9       H        0.39480    0.80810    0.40930    1.000
    C24      C        0.37690    0.79460    0.29480    1.000
    N3       N        0.47710    0.80420    0.48620    1.000
    O11      O        0.60304    0.76140    0.25220    1.000
    O12      O        0.37860    0.78020    0.24080    1.000
    O13      O        0.64570    0.79350    0.33730    1.000
    O14      O        0.33230    0.81060    0.32420    1.000
    O15      O        0.61200    0.73600    0.12840    1.000
    Br3      Br       0.59838    0.73680    0.10821    1.000
    In4      In       0.32230    0.26084    0.19367    1.000
    C25      C        0.46120    0.20500    0.39530    1.000
    H10      H        0.42570    0.20330    0.41810    1.000
    C26      C        0.45880    0.21340    0.33380    1.000
    C27      C        0.51120    0.21390    0.30060    1.000
    H11      H        0.50950    0.21950    0.25870    1.000
    C28      C        0.51630    0.19900    0.42260    1.000
    C29      C        0.39900    0.22020    0.30490    1.000
    C30      C        0.56520    0.20640    0.32820    1.000
    C31      C        0.56800    0.19810    0.39020    1.000
    H12      H        0.60520    0.19190    0.40930    1.000
    C32      C        0.62310    0.20540    0.29480    1.000
    N4       N        0.52290    0.19580    0.48620    1.000
    O16      O        0.39696    0.23860    0.25220    1.000
    O17      O        0.62140    0.21980    0.24080    1.000
    O18      O        0.35430    0.20650    0.33730    1.000
    O19      O        0.66770    0.18940    0.32420    1.000
    O20      O        0.38800    0.26400    0.12840    1.000
    Br4      Br       0.40162    0.26320    0.10821    1.000
    In5      In       0.80633    0.32230    0.73916    1.000
    C33      C        0.60470    0.46120    0.79500    1.000
    H13      H        0.58190    0.42570    0.79670    1.000
    C34      C        0.66620    0.45880    0.78660    1.000
    C35      C        0.69940    0.51120    0.78610    1.000
    H14      H        0.74130    0.50950    0.78050    1.000
    C36      C        0.57740    0.51630    0.80100    1.000
    C37      C        0.69510    0.39900    0.77980    1.000
    C38      C        0.67180    0.56520    0.79360    1.000
    C39      C        0.60980    0.56800    0.80190    1.000
    H15      H        0.59070    0.60520    0.80810    1.000
    C40      C        0.70520    0.62310    0.79460    1.000
    N5       N        0.51380    0.52290    0.80420    1.000
    O21      O        0.74780    0.39696    0.76140    1.000
    O22      O        0.75920    0.62140    0.78020    1.000
    O23      O        0.66270    0.35430    0.79350    1.000
    O24      O        0.67580    0.66770    0.81060    1.000
    O25      O        0.87160    0.38800    0.73600    1.000
    Br5      Br       0.89179    0.40162    0.73680    1.000
    In6      In       0.80633    0.67770    0.26084    1.000
    C41      C        0.60470    0.53880    0.20500    1.000
    H16      H        0.58190    0.57430    0.20330    1.000
    C42      C        0.66620    0.54120    0.21340    1.000
    C43      C        0.69940    0.48880    0.21390    1.000
    H17      H        0.74130    0.49050    0.21950    1.000
    C44      C        0.57740    0.48370    0.19900    1.000
    C45      C        0.69510    0.60100    0.22020    1.000
    C46      C        0.67180    0.43480    0.20640    1.000
    C47      C        0.60980    0.43200    0.19810    1.000
    H18      H        0.59070    0.39480    0.19190    1.000
    C48      C        0.70520    0.37690    0.20540    1.000
    N6       N        0.51380    0.47710    0.19580    1.000
    O26      O        0.74780    0.60304    0.23860    1.000
    O27      O        0.75920    0.37860    0.21980    1.000
    O28      O        0.66270    0.64570    0.20650    1.000
    O29      O        0.67580    0.33230    0.18940    1.000
    O30      O        0.87160    0.61200    0.26400    1.000
    Br6      Br       0.89179    0.59838    0.26320    1.000
    In7      In       0.19367    0.67770    0.73916    1.000
    C49      C        0.39530    0.53880    0.79500    1.000
    H19      H        0.41810    0.57430    0.79670    1.000
    C50      C        0.33380    0.54120    0.78660    1.000
    C51      C        0.30060    0.48880    0.78610    1.000
    H20      H        0.25870    0.49050    0.78050    1.000
    C52      C        0.42260    0.48370    0.80100    1.000
    C53      C        0.30490    0.60100    0.77980    1.000
    C54      C        0.32820    0.43480    0.79360    1.000
    C55      C        0.39020    0.43200    0.80190    1.000
    H21      H        0.40930    0.39480    0.80810    1.000
    C56      C        0.29480    0.37690    0.79460    1.000
    N7       N        0.48620    0.47710    0.80420    1.000
    O31      O        0.25220    0.60304    0.76140    1.000
    O32      O        0.24080    0.37860    0.78020    1.000
    O33      O        0.33730    0.64570    0.79350    1.000
    O34      O        0.32420    0.33230    0.81060    1.000
    O35      O        0.12840    0.61200    0.73600    1.000
    Br7      Br       0.10821    0.59838    0.73680    1.000
    In8      In       0.19367    0.32230    0.26084    1.000
    C57      C        0.39530    0.46120    0.20500    1.000
    H22      H        0.41810    0.42570    0.20330    1.000
    C58      C        0.33380    0.45880    0.21340    1.000
    C59      C        0.30060    0.51120    0.21390    1.000
    H23      H        0.25870    0.50950    0.21950    1.000
    C60      C        0.42260    0.51630    0.19900    1.000
    C61      C        0.30490    0.39900    0.22020    1.000
    C62      C        0.32820    0.56520    0.20640    1.000
    C63      C        0.39020    0.56800    0.19810    1.000
    H24      H        0.40930    0.60520    0.19190    1.000
    C64      C        0.29480    0.62310    0.20540    1.000
    N8       N        0.48620    0.52290    0.19580    1.000
    O36      O        0.25220    0.39696    0.23860    1.000
    O37      O        0.24080    0.62140    0.21980    1.000
    O38      O        0.33730    0.35430    0.20650    1.000
    O39      O        0.32420    0.66770    0.18940    1.000
    O40      O        0.12840    0.38800    0.26400    1.000
    Br8      Br       0.10821    0.40162    0.26320    1.000
    In9      In       0.73916    0.80633    0.32230    1.000
    C65      C        0.79500    0.60470    0.46120    1.000
    H25      H        0.79670    0.58190    0.42570    1.000
    C66      C        0.78660    0.66620    0.45880    1.000
    C67      C        0.78610    0.69940    0.51120    1.000
    H26      H        0.78050    0.74130    0.50950    1.000
    C68      C        0.80100    0.57740    0.51630    1.000
    C69      C        0.77980    0.69510    0.39900    1.000
    C70      C        0.79360    0.67180    0.56520    1.000
    C71      C        0.80190    0.60980    0.56800    1.000
    H27      H        0.80810    0.59070    0.60520    1.000
    C72      C        0.79460    0.70520    0.62310    1.000
    N9       N        0.80420    0.51380    0.52290    1.000
    O41      O        0.76140    0.74780    0.39696    1.000
    O42      O        0.78020    0.75920    0.62140    1.000
    O43      O        0.79350    0.66270    0.35430    1.000
    O44      O        0.81060    0.67580    0.66770    1.000
    O45      O        0.73600    0.87160    0.38800    1.000
    Br9      Br       0.73680    0.89179    0.40162    1.000
    In10     In       0.26084    0.80633    0.67770    1.000
    C73      C        0.20500    0.60470    0.53880    1.000
    H28      H        0.20330    0.58190    0.57430    1.000
    C74      C        0.21340    0.66620    0.54120    1.000
    C75      C        0.21390    0.69940    0.48880    1.000
    H29      H        0.21950    0.74130    0.49050    1.000
    C76      C        0.19900    0.57740    0.48370    1.000
    C77      C        0.22020    0.69510    0.60100    1.000
    C78      C        0.20640    0.67180    0.43480    1.000
    C79      C        0.19810    0.60980    0.43200    1.000
    H30      H        0.19190    0.59070    0.39480    1.000
    C80      C        0.20540    0.70520    0.37690    1.000
    N10      N        0.19580    0.51380    0.47710    1.000
    O46      O        0.23860    0.74780    0.60304    1.000
    O47      O        0.21980    0.75920    0.37860    1.000
    O48      O        0.20650    0.66270    0.64570    1.000
    O49      O        0.18940    0.67580    0.33230    1.000
    O50      O        0.26400    0.87160    0.61200    1.000
    Br10     Br       0.26320    0.89179    0.59838    1.000
    In11     In       0.73916    0.19367    0.67770    1.000
    C81      C        0.79500    0.39530    0.53880    1.000
    H31      H        0.79670    0.41810    0.57430    1.000
    C82      C        0.78660    0.33380    0.54120    1.000
    C83      C        0.78610    0.30060    0.48880    1.000
    H32      H        0.78050    0.25870    0.49050    1.000
    C84      C        0.80100    0.42260    0.48370    1.000
    C85      C        0.77980    0.30490    0.60100    1.000
    C86      C        0.79360    0.32820    0.43480    1.000
    C87      C        0.80190    0.39020    0.43200    1.000
    H33      H        0.80810    0.40930    0.39480    1.000
    C88      C        0.79460    0.29480    0.37690    1.000
    N11      N        0.80420    0.48620    0.47710    1.000
    O51      O        0.76140    0.25220    0.60304    1.000
    O52      O        0.78020    0.24080    0.37860    1.000
    O53      O        0.79350    0.33730    0.64570    1.000
    O54      O        0.81060    0.32420    0.33230    1.000
    O55      O        0.73600    0.12840    0.61200    1.000
    Br11     Br       0.73680    0.10821    0.59838    1.000
    In12     In       0.26084    0.19367    0.32230    1.000
    C89      C        0.20500    0.39530    0.46120    1.000
    H34      H        0.20330    0.41810    0.42570    1.000
    C90      C        0.21340    0.33380    0.45880    1.000
    C91      C        0.21390    0.30060    0.51120    1.000
    H35      H        0.21950    0.25870    0.50950    1.000
    C92      C        0.19900    0.42260    0.51630    1.000
    C93      C        0.22020    0.30490    0.39900    1.000
    C94      C        0.20640    0.32820    0.56520    1.000
    C95      C        0.19810    0.39020    0.56800    1.000
    H36      H        0.19190    0.40930    0.60520    1.000
    C96      C        0.20540    0.29480    0.62310    1.000
    N12      N        0.19580    0.48620    0.52290    1.000
    O56      O        0.23860    0.25220    0.39696    1.000
    O57      O        0.21980    0.24080    0.62140    1.000
    O58      O        0.20650    0.33730    0.35430    1.000
    O59      O        0.18940    0.32420    0.66770    1.000
    O60      O        0.26400    0.12840    0.38800    1.000
    Br12     Br       0.26320    0.10821    0.40162    1.000
    In13     In       0.23916    0.82230    0.30633    1.000
    C97      C        0.29500    0.96120    0.10470    1.000
    H37      H        0.29670    0.92570    0.08190    1.000
    C98      C        0.28660    0.95880    0.16620    1.000
    C99      C        0.28610    0.01120    0.19940    1.000
    H38      H        0.28050    0.00950    0.24130    1.000
    C100     C        0.30100    0.01630    0.07740    1.000
    C101     C        0.27980    0.89900    0.19510    1.000
    C102     C        0.29360    0.06520    0.17180    1.000
    C103     C        0.30190    0.06800    0.10980    1.000
    H39      H        0.30810    0.10520    0.09070    1.000
    C104     C        0.29460    0.12310    0.20520    1.000
    N13      N        0.30420    0.02290    0.01380    1.000
    O61      O        0.26140    0.89696    0.24780    1.000
    O62      O        0.28020    0.12140    0.25920    1.000
    O63      O        0.29350    0.85430    0.16270    1.000
    O64      O        0.31060    0.16770    0.17580    1.000
    O65      O        0.23600    0.88800    0.37160    1.000
    Br13     Br       0.23680    0.90162    0.39179    1.000
    In14     In       0.76084    0.17770    0.30633    1.000
    C105     C        0.70500    0.03880    0.10470    1.000
    H40      H        0.70330    0.07430    0.08190    1.000
    C106     C        0.71340    0.04120    0.16620    1.000
    C107     C        0.71390    0.98880    0.19940    1.000
    H41      H        0.71950    0.99050    0.24130    1.000
    C108     C        0.69900    0.98370    0.07740    1.000
    C109     C        0.72020    0.10100    0.19510    1.000
    C110     C        0.70640    0.93480    0.17180    1.000
    C111     C        0.69810    0.93200    0.10980    1.000
    H42      H        0.69190    0.89480    0.09070    1.000
    C112     C        0.70540    0.87690    0.20520    1.000
    N14      N        0.69580    0.97710    0.01380    1.000
    O66      O        0.73860    0.10304    0.24780    1.000
    O67      O        0.71980    0.87860    0.25920    1.000
    O68      O        0.70650    0.14570    0.16270    1.000
    O69      O        0.68940    0.83230    0.17580    1.000
    O70      O        0.76400    0.11200    0.37160    1.000
    Br14     Br       0.76320    0.09838    0.39179    1.000
    In15     In       0.23916    0.17770    0.69367    1.000
    C113     C        0.29500    0.03880    0.89530    1.000
    H43      H        0.29670    0.07430    0.91810    1.000
    C114     C        0.28660    0.04120    0.83380    1.000
    C115     C        0.28610    0.98880    0.80060    1.000
    H44      H        0.28050    0.99050    0.75870    1.000
    C116     C        0.30100    0.98370    0.92260    1.000
    C117     C        0.27980    0.10100    0.80490    1.000
    C118     C        0.29360    0.93480    0.82820    1.000
    C119     C        0.30190    0.93200    0.89020    1.000
    H45      H        0.30810    0.89480    0.90930    1.000
    C120     C        0.29460    0.87690    0.79480    1.000
    N15      N        0.30420    0.97710    0.98620    1.000
    O71      O        0.26140    0.10304    0.75220    1.000
    O72      O        0.28020    0.87860    0.74080    1.000
    O73      O        0.29350    0.14570    0.83730    1.000
    O74      O        0.31060    0.83230    0.82420    1.000
    O75      O        0.23600    0.11200    0.62840    1.000
    Br15     Br       0.23680    0.09838    0.60821    1.000
    In16     In       0.76084    0.82230    0.69367    1.000
    C121     C        0.70500    0.96120    0.89530    1.000
    H46      H        0.70330    0.92570    0.91810    1.000
    C122     C        0.71340    0.95880    0.83380    1.000
    C123     C        0.71390    0.01120    0.80060    1.000
    H47      H        0.71950    0.00950    0.75870    1.000
    C124     C        0.69900    0.01630    0.92260    1.000
    C125     C        0.72020    0.89900    0.80490    1.000
    C126     C        0.70640    0.06520    0.82820    1.000
    C127     C        0.69810    0.06800    0.89020    1.000
    H48      H        0.69190    0.10520    0.90930    1.000
    C128     C        0.70540    0.12310    0.79480    1.000
    N16      N        0.69580    0.02290    0.98620    1.000
    O76      O        0.73860    0.89696    0.75220    1.000
    O77      O        0.71980    0.12140    0.74080    1.000
    O78      O        0.70650    0.85430    0.83730    1.000
    O79      O        0.68940    0.16770    0.82420    1.000
    O80      O        0.76400    0.88800    0.62840    1.000
    Br16     Br       0.76320    0.90162    0.60821    1.000
    In17     In       0.82230    0.30633    0.23916    1.000
    C129     C        0.96120    0.10470    0.29500    1.000
    H49      H        0.92570    0.08190    0.29670    1.000
    C130     C        0.95880    0.16620    0.28660    1.000
    C131     C        0.01120    0.19940    0.28610    1.000
    H50      H        0.00950    0.24130    0.28050    1.000
    C132     C        0.01630    0.07740    0.30100    1.000
    C133     C        0.89900    0.19510    0.27980    1.000
    C134     C        0.06520    0.17180    0.29360    1.000
    C135     C        0.06800    0.10980    0.30190    1.000
    H51      H        0.10520    0.09070    0.30810    1.000
    C136     C        0.12310    0.20520    0.29460    1.000
    N17      N        0.02290    0.01380    0.30420    1.000
    O81      O        0.89696    0.24780    0.26140    1.000
    O82      O        0.12140    0.25920    0.28020    1.000
    O83      O        0.85430    0.16270    0.29350    1.000
    O84      O        0.16770    0.17580    0.31060    1.000
    O85      O        0.88800    0.37160    0.23600    1.000
    Br17     Br       0.90162    0.39179    0.23680    1.000
    In18     In       0.17770    0.30633    0.76084    1.000
    C137     C        0.03880    0.10470    0.70500    1.000
    H52      H        0.07430    0.08190    0.70330    1.000
    C138     C        0.04120    0.16620    0.71340    1.000
    C139     C        0.98880    0.19940    0.71390    1.000
    H53      H        0.99050    0.24130    0.71950    1.000
    C140     C        0.98370    0.07740    0.69900    1.000
    C141     C        0.10100    0.19510    0.72020    1.000
    C142     C        0.93480    0.17180    0.70640    1.000
    C143     C        0.93200    0.10980    0.69810    1.000
    H54      H        0.89480    0.09070    0.69190    1.000
    C144     C        0.87690    0.20520    0.70540    1.000
    N18      N        0.97710    0.01380    0.69580    1.000
    O86      O        0.10304    0.24780    0.73860    1.000
    O87      O        0.87860    0.25920    0.71980    1.000
    O88      O        0.14570    0.16270    0.70650    1.000
    O89      O        0.83230    0.17580    0.68940    1.000
    O90      O        0.11200    0.37160    0.76400    1.000
    Br18     Br       0.09838    0.39179    0.76320    1.000
    In19     In       0.17770    0.69367    0.23916    1.000
    C145     C        0.03880    0.89530    0.29500    1.000
    H55      H        0.07430    0.91810    0.29670    1.000
    C146     C        0.04120    0.83380    0.28660    1.000
    C147     C        0.98880    0.80060    0.28610    1.000
    H56      H        0.99050    0.75870    0.28050    1.000
    C148     C        0.98370    0.92260    0.30100    1.000
    C149     C        0.10100    0.80490    0.27980    1.000
    C150     C        0.93480    0.82820    0.29360    1.000
    C151     C        0.93200    0.89020    0.30190    1.000
    H57      H        0.89480    0.90930    0.30810    1.000
    C152     C        0.87690    0.79480    0.29460    1.000
    N19      N        0.97710    0.98620    0.30420    1.000
    O91      O        0.10304    0.75220    0.26140    1.000
    O92      O        0.87860    0.74080    0.28020    1.000
    O93      O        0.14570    0.83730    0.29350    1.000
    O94      O        0.83230    0.82420    0.31060    1.000
    O95      O        0.11200    0.62840    0.23600    1.000
    Br19     Br       0.09838    0.60821    0.23680    1.000
    In20     In       0.82230    0.69367    0.76084    1.000
    C153     C        0.96120    0.89530    0.70500    1.000
    H58      H        0.92570    0.91810    0.70330    1.000
    C154     C        0.95880    0.83380    0.71340    1.000
    C155     C        0.01120    0.80060    0.71390    1.000
    H59      H        0.00950    0.75870    0.71950    1.000
    C156     C        0.01630    0.92260    0.69900    1.000
    C157     C        0.89900    0.80490    0.72020    1.000
    C158     C        0.06520    0.82820    0.70640    1.000
    C159     C        0.06800    0.89020    0.69810    1.000
    H60      H        0.10520    0.90930    0.69190    1.000
    C160     C        0.12310    0.79480    0.70540    1.000
    N20      N        0.02290    0.98620    0.69580    1.000
    O96      O        0.89696    0.75220    0.73860    1.000
    O97      O        0.12140    0.74080    0.71980    1.000
    O98      O        0.85430    0.83730    0.70650    1.000
    O99      O        0.16770    0.82420    0.68940    1.000
    O100     O        0.88800    0.62840    0.76400    1.000
    Br20     Br       0.90162    0.60821    0.76320    1.000
    In21     In       0.30633    0.23916    0.82230    1.000
    C161     C        0.10470    0.29500    0.96120    1.000
    H61      H        0.08190    0.29670    0.92570    1.000
    C162     C        0.16620    0.28660    0.95880    1.000
    C163     C        0.19940    0.28610    0.01120    1.000
    H62      H        0.24130    0.28050    0.00950    1.000
    C164     C        0.07740    0.30100    0.01630    1.000
    C165     C        0.19510    0.27980    0.89900    1.000
    C166     C        0.17180    0.29360    0.06520    1.000
    C167     C        0.10980    0.30190    0.06800    1.000
    H63      H        0.09070    0.30810    0.10520    1.000
    C168     C        0.20520    0.29460    0.12310    1.000
    N21      N        0.01380    0.30420    0.02290    1.000
    O101     O        0.24780    0.26140    0.89696    1.000
    O102     O        0.25920    0.28020    0.12140    1.000
    O103     O        0.16270    0.29350    0.85430    1.000
    O104     O        0.17580    0.31060    0.16770    1.000
    O105     O        0.37160    0.23600    0.88800    1.000
    Br21     Br       0.39179    0.23680    0.90162    1.000
    In22     In       0.30633    0.76084    0.17770    1.000
    C169     C        0.10470    0.70500    0.03880    1.000
    H64      H        0.08190    0.70330    0.07430    1.000
    C170     C        0.16620    0.71340    0.04120    1.000
    C171     C        0.19940    0.71390    0.98880    1.000
    H65      H        0.24130    0.71950    0.99050    1.000
    C172     C        0.07740    0.69900    0.98370    1.000
    C173     C        0.19510    0.72020    0.10100    1.000
    C174     C        0.17180    0.70640    0.93480    1.000
    C175     C        0.10980    0.69810    0.93200    1.000
    H66      H        0.09070    0.69190    0.89480    1.000
    C176     C        0.20520    0.70540    0.87690    1.000
    N22      N        0.01380    0.69580    0.97710    1.000
    O106     O        0.24780    0.73860    0.10304    1.000
    O107     O        0.25920    0.71980    0.87860    1.000
    O108     O        0.16270    0.70650    0.14570    1.000
    O109     O        0.17580    0.68940    0.83230    1.000
    O110     O        0.37160    0.76400    0.11200    1.000
    Br22     Br       0.39179    0.76320    0.09838    1.000
    In23     In       0.69367    0.23916    0.17770    1.000
    C177     C        0.89530    0.29500    0.03880    1.000
    H67      H        0.91810    0.29670    0.07430    1.000
    C178     C        0.83380    0.28660    0.04120    1.000
    C179     C        0.80060    0.28610    0.98880    1.000
    H68      H        0.75870    0.28050    0.99050    1.000
    C180     C        0.92260    0.30100    0.98370    1.000
    C181     C        0.80490    0.27980    0.10100    1.000
    C182     C        0.82820    0.29360    0.93480    1.000
    C183     C        0.89020    0.30190    0.93200    1.000
    H69      H        0.90930    0.30810    0.89480    1.000
    C184     C        0.79480    0.29460    0.87690    1.000
    N23      N        0.98620    0.30420    0.97710    1.000
    O111     O        0.75220    0.26140    0.10304    1.000
    O112     O        0.74080    0.28020    0.87860    1.000
    O113     O        0.83730    0.29350    0.14570    1.000
    O114     O        0.82420    0.31060    0.83230    1.000
    O115     O        0.62840    0.23600    0.11200    1.000
    Br23     Br       0.60821    0.23680    0.09838    1.000
    In24     In       0.69367    0.76084    0.82230    1.000
    C185     C        0.89530    0.70500    0.96120    1.000
    H70      H        0.91810    0.70330    0.92570    1.000
    C186     C        0.83380    0.71340    0.95880    1.000
    C187     C        0.80060    0.71390    0.01120    1.000
    H71      H        0.75870    0.71950    0.00950    1.000
    C188     C        0.92260    0.69900    0.01630    1.000
    C189     C        0.80490    0.72020    0.89900    1.000
    C190     C        0.82820    0.70640    0.06520    1.000
    C191     C        0.89020    0.69810    0.06800    1.000
    H72      H        0.90930    0.69190    0.10520    1.000
    C192     C        0.79480    0.70540    0.12310    1.000
    N24      N        0.98620    0.69580    0.02290    1.000
    O116     O        0.75220    0.73860    0.89696    1.000
    O117     O        0.74080    0.71980    0.12140    1.000
    O118     O        0.83730    0.70650    0.85430    1.000
    O119     O        0.82420    0.68940    0.16770    1.000
    O120     O        0.62840    0.76400    0.88800    1.000
    Br24     Br       0.60821    0.76320    0.90162    1.000
    O121     O        0.25960    0.74040    0.74040    1.000
    O122     O        0.74040    0.25960    0.74040    1.000
    O123     O        0.74040    0.74040    0.25960    1.000
    O124     O        0.25960    0.25960    0.25960    1.000
    O125     O        0.24040    0.75960    0.24040    1.000
    O126     O        0.75960    0.24040    0.24040    1.000
    O127     O        0.24040    0.24040    0.75960    1.000
    O128     O        0.75960    0.75960    0.75960    1.000
