data_functionalizedCrystal
_audit_creation_method	'EQeq! by Chris Wilmer'
_symmetry_space_group_name_H-M	'P1'
_symmetry_Int_Tables_number	1
_symmetry_cell_setting	triclinic
loop_
_symmetry_equiv_pos_as_xyz
  x,y,z
_cell_length_a	14.4034
_cell_length_b	14.4034
_cell_length_c	15.879
_cell_angle_alpha	65.472
_cell_angle_beta	65.472
_cell_angle_gamma	67.9351
loop_
_atom_site_label
_atom_site_type_symbol
_atom_site_fract_x
_atom_site_fract_y
_atom_site_fract_z
_atom_site_charge
Mof_Cu	Cu	0.91566	0.44804	0.32481	0.804
Mof_Cu	Cu	0.44804	0.91566	0.82481	0.804
Mof_Cu	Cu	0.3851	0.09002	0.05236	0.805
Mof_Cu	Cu	0.08434	0.55196	0.67519	0.805
Mof_Cu	Cu	0.7307	0.2693	0.75	0.802
Mof_Cu	Cu	0.55196	0.08434	0.17519	0.805
Mof_Cu	Cu	0.93908	0.06092	0.25	0.816
Mof_Cu	Cu	0.06092	0.93908	0.75	0.816
Mof_Cu	Cu	0.02285	0.83339	0.01037	0.801
Mof_Cu	Cu	0.2693	0.7307	0.25	0.802
Mof_Cu	Cu	0.16661	0.97715	0.48963	0.804
Mof_Cu	Cu	0.83339	0.02285	0.51037	0.804
Mof_Cu	Cu	0.97715	0.16661	0.98963	0.801
Mof_Cu	Cu	0.90998	0.6149	0.44764	0.805
Mof_Cu	Cu	0.09002	0.3851	0.55236	0.805
Mof_Cu	Cu	0.6149	0.90998	0.94764	0.805
Mof_H 	H 	0.9606	0.4032	0.9663	0.111
Mof_H 	H 	0.206	0.2738	0.3783	0.111
Mof_H 	H 	0.4875	0.2751	0.7805	0.102
Mof_H 	H 	0.1968	0.9276	0.2737	0.026
Mof_H 	H 	0.8811	0.9689	0.6996	0.038
Mof_H 	H 	0.0311	0.1189	0.8004	0.037
Mof_H 	H 	0.0874	0.3074	0.3767	0.095
Mof_H 	H 	0.2751	0.4875	0.2805	0.101
Mof_H 	H 	0.1622	0.196	0.3644	0.127
Mof_H 	H 	0.6674	0.9652	0.3449	0.123
Mof_H 	H 	0.2738	0.206	0.8783	0.11
Mof_H 	H 	0.1837	0.8801	0.0652	0.065
Mof_H 	H 	0.2375	0.7631	0.4391	0.046
Mof_H 	H 	0.0089	0.7423	0.8631	0.106
Mof_H 	H 	0.919	0.3712	0.1454	0.112
Mof_H 	H 	0.0724	0.8032	0.2263	0.023
Mof_H 	H 	0.2577	0.9911	0.6369	0.107
Mof_H 	H 	0.5125	0.7249	0.2195	0.102
Mof_H 	H 	0.4661	0.0477	0.3885	0.115
Mof_H 	H 	0.5689	0.1727	0.7525	0.109
Mof_H 	H 	0.0477	0.4661	0.8885	0.111
Mof_H 	H 	0.196	0.1622	0.8644	0.126
Mof_H 	H 	0.4558	0.1648	0.8313	0.095
Mof_H 	H 	0.9126	0.6926	0.6233	0.095
Mof_H 	H 	0.8032	0.0724	0.7263	0.026
Mof_H 	H 	0.3074	0.0874	0.8767	0.094
Mof_H 	H 	0.8801	0.1837	0.5652	0.065
Mof_H 	H 	0.083	0.3456	0.9497	0.126
Mof_H 	H 	0.5968	0.0394	0.5337	0.119
Mof_H 	H 	0.3456	0.083	0.4497	0.129
Mof_H 	H 	0.9911	0.2577	0.1369	0.106
Mof_H 	H 	0.1727	0.5689	0.2525	0.109
Mof_H 	H 	0.1648	0.4558	0.3313	0.094
Mof_H 	H 	0.1199	0.8163	0.4348	0.065
Mof_H 	H 	0.7262	0.794	0.1217	0.11
Mof_H 	H 	0.5442	0.8352	0.1687	0.095
Mof_H 	H 	0.7625	0.2369	0.5609	0.046
Mof_H 	H 	0.8352	0.5442	0.6687	0.094
Mof_H 	H 	0.8163	0.1199	0.9348	0.065
Mof_H 	H 	0.8273	0.4311	0.7475	0.109
Mof_H 	H 	0.0394	0.5968	0.0337	0.111
Mof_H 	H 	0.5339	0.9523	0.6115	0.115
Mof_H 	H 	0.9276	0.1968	0.7737	0.023
Mof_H 	H 	0.6926	0.9126	0.1233	0.094
Mof_H 	H 	0.9689	0.8811	0.1996	0.037
Mof_H 	H 	0.917	0.6544	0.0503	0.126
Mof_H 	H 	0.794	0.7262	0.6217	0.111
Mof_H 	H 	0.1189	0.0311	0.3004	0.038
Mof_H 	H 	0.2369	0.7625	0.0609	0.047
Mof_H 	H 	0.7249	0.5125	0.7195	0.101
Mof_H 	H 	0.081	0.6288	0.8546	0.112
Mof_H 	H 	0.9652	0.6674	0.8449	0.118
Mof_H 	H 	0.804	0.8378	0.1356	0.126
Mof_H 	H 	0.7631	0.2375	0.9391	0.047
Mof_H 	H 	0.4032	0.9606	0.4663	0.119
Mof_H 	H 	0.0348	0.3326	0.1551	0.118
Mof_H 	H 	0.3712	0.919	0.6454	0.114
Mof_H 	H 	0.4311	0.8273	0.2475	0.109
Mof_H 	H 	0.9523	0.5339	0.1115	0.111
Mof_H 	H 	0.6544	0.917	0.5503	0.129
Mof_H 	H 	0.3326	0.0348	0.6551	0.123
Mof_H 	H 	0.8378	0.804	0.6356	0.127
Mof_H 	H 	0.6288	0.081	0.3546	0.114
Mof_H 	H 	0.7423	0.0089	0.3631	0.107
Mof_C 	C 	0.9688	0.6366	0.1587	0.178
Mof_C 	C 	0.162	0.66	0.4582	0.136
Mof_C 	C 	0.144	0.2482	0.3967	-0.501
Mof_C 	C 	0.8013	0.4863	0.6946	-0.493
Mof_C 	C 	0.8264	0.4418	0.6151	0.141
Mof_C 	C 	0.8137	0.9953	0.7453	-0.282
Mof_C 	C 	0.8266	0.9486	0.8445	0.127
Mof_C 	C 	0.1085	0.1995	0.5032	0.183
Mof_C 	C 	0.1736	0.5582	0.3849	0.141
Mof_C 	C 	0.4418	0.8264	0.1151	0.141
Mof_C 	C 	0.9721	0.3103	0.1693	-0.503
Mof_C 	C 	0.9486	0.8266	0.3445	0.127
Mof_C 	C 	0.8915	0.8005	0.4968	0.183
Mof_C 	C 	0.263	0.9284	0.7768	0.175
Mof_C 	C 	0.9694	0.6026	0.082	-0.51
Mof_C 	C 	0.3103	0.9721	0.6693	-0.513
Mof_C 	C 	0.2482	0.144	0.8967	-0.496
Mof_C 	C 	0.1863	0.0047	0.2547	-0.282
Mof_C 	C 	0.1987	0.5137	0.3054	-0.493
Mof_C 	C 	0.6897	0.0279	0.3307	-0.513
Mof_C 	C 	0.1643	0.7549	0.471	-0.33
Mof_C 	C 	0.1298	0.7614	0.5717	0.132
Mof_C 	C 	0.4863	0.8013	0.1946	-0.494
Mof_C 	C 	0.5137	0.1987	0.8054	-0.494
Mof_C 	C 	0.3634	0.0312	0.3413	0.182
Mof_C 	C 	0.9766	0.728	0.2299	0.122
Mof_C 	C 	0.66	0.162	0.9582	0.136
Mof_C 	C 	0.7549	0.1643	0.971	-0.334
Mof_C 	C 	0.0047	0.1863	0.7547	-0.278
Mof_C 	C 	0.1995	0.1085	0.0032	0.18
Mof_C 	C 	0.6366	0.9688	0.6587	0.182
Mof_C 	C 	0.8357	0.2451	0.529	-0.33
Mof_C 	C 	0.0279	0.6897	0.8307	-0.503
Mof_C 	C 	0.0514	0.1734	0.6555	0.127
Mof_C 	C 	0.0234	0.272	0.7701	0.122
Mof_C 	C 	0.838	0.34	0.5418	0.136
Mof_C 	C 	0.7518	0.856	0.1033	-0.496
Mof_C 	C 	0.2451	0.8357	0.029	-0.334
Mof_C 	C 	0.0306	0.3974	0.918	-0.51
Mof_C 	C 	0.728	0.9766	0.7299	0.122
Mof_C 	C 	0.1734	0.0514	0.1555	0.127
Mof_C 	C 	0.9953	0.8137	0.2453	-0.278
Mof_C 	C 	0.8005	0.8915	0.9968	0.18
Mof_C 	C 	0.8702	0.2386	0.4283	0.132
Mof_C 	C 	0.5582	0.1736	0.8849	0.141
Mof_C 	C 	0.6026	0.9694	0.582	-0.528
Mof_C 	C 	0.9284	0.263	0.2768	0.173
Mof_C 	C 	0.737	0.0716	0.2232	0.175
Mof_C 	C 	0.7614	0.1298	0.0717	0.136
Mof_C 	C 	0.856	0.7518	0.6033	-0.501
Mof_C 	C 	0.272	0.0234	0.2701	0.122
Mof_C 	C 	0.34	0.838	0.0418	0.136
Mof_C 	C 	0.0716	0.737	0.7232	0.173
Mof_C 	C 	0.2386	0.8702	0.9283	0.136
Mof_C 	C 	0.3974	0.0306	0.418	-0.528
Mof_C 	C 	0.0312	0.3634	0.8413	0.178
Mof_N 	N 	0.8326	0.088	0.183	-0.255
Mof_N 	N 	0.3501	0.8037	0.1324	-0.317
Mof_N 	N 	0.4864	0.8682	0.0214	-0.292
Mof_N 	N 	0.912	0.1674	0.317	-0.255
Mof_N 	N 	0.1318	0.5136	0.4786	-0.291
Mof_N 	N 	0.5136	0.1318	0.9786	-0.292
Mof_N 	N 	0.1255	0.8487	0.5835	-0.264
Mof_N 	N 	0.1674	0.912	0.817	-0.255
Mof_N 	N 	0.9014	0.8974	0.9553	-0.255
Mof_N 	N 	0.2496	0.0778	0.0689	-0.3
Mof_N 	N 	0.7504	0.9222	0.9311	-0.3
Mof_N 	N 	0.9356	0.9168	0.3552	-0.238
Mof_N 	N 	0.9042	0.3118	0.3421	-0.306
Mof_N 	N 	0.6882	0.0958	0.1579	-0.307
Mof_N 	N 	0.0986	0.1026	0.0447	-0.255
Mof_N 	N 	0.8037	0.3501	0.6324	-0.317
Mof_N 	N 	0.6432	0.9482	0.7997	-0.24
Mof_N 	N 	0.8682	0.4864	0.5214	-0.291
Mof_N 	N 	0.9482	0.6432	0.2997	-0.24
Mof_N 	N 	0.4165	0.0557	0.2476	-0.278
Mof_N 	N 	0.0832	0.0644	0.1448	-0.239
Mof_N 	N 	0.5835	0.9443	0.7524	-0.278
Mof_N 	N 	0.6499	0.1963	0.8676	-0.317
Mof_N 	N 	0.8487	0.1255	0.0835	-0.263
Mof_N 	N 	0.8767	0.4195	0.4742	-0.25
Mof_N 	N 	0.0518	0.3568	0.7003	-0.24
Mof_N 	N 	0.9222	0.7504	0.4311	-0.3
Mof_N 	N 	0.0104	0.272	0.86	-0.297
Mof_N 	N 	0.3118	0.9042	0.8421	-0.307
Mof_N 	N 	0.3568	0.0518	0.2003	-0.24
Mof_N 	N 	0.8745	0.1513	0.4165	-0.264
Mof_N 	N 	0.1026	0.0986	0.5447	-0.254
Mof_N 	N 	0.9896	0.728	0.14	-0.297
Mof_N 	N 	0.0557	0.4165	0.7476	-0.277
Mof_N 	N 	0.5805	0.1233	0.0258	-0.248
Mof_N 	N 	0.088	0.8326	0.683	-0.255
Mof_N 	N 	0.1233	0.5805	0.5258	-0.25
Mof_N 	N 	0.1513	0.8745	0.9165	-0.263
Mof_N 	N 	0.4195	0.8767	0.9742	-0.248
Mof_N 	N 	0.0958	0.6882	0.6579	-0.306
Mof_N 	N 	0.728	0.9896	0.64	-0.299
Mof_N 	N 	0.8974	0.9014	0.4553	-0.254
Mof_N 	N 	0.9168	0.9356	0.8552	-0.239
Mof_N 	N 	0.9443	0.5835	0.2524	-0.277
Mof_N 	N 	0.0644	0.0832	0.6448	-0.238
Mof_N 	N 	0.1963	0.6499	0.3676	-0.317
Mof_N 	N 	0.272	0.0104	0.36	-0.299
Mof_N 	N 	0.0778	0.2496	0.5689	-0.3
_end
