# CIF file generated by openbabel 3.1.0, see https://openbabel.org
data_I
_chemical_name_common 'image0'
_cell_length_a 14.3389
_cell_length_b 21.2398
_cell_length_c 20.8514
_cell_angle_alpha 90
_cell_angle_beta 90
_cell_angle_gamma 90
_space_group_name_H-M_alt 'P 1'
_space_group_name_Hall 'P 1'
loop_
    _symmetry_equiv_pos_as_xyz
    x,y,z
loop_
    _atom_site_label
    _atom_site_type_symbol
    _atom_site_fract_x
    _atom_site_fract_y
    _atom_site_fract_z
    _atom_site_occupancy
    Re1      Re       0.90385    0.63846    0.44140    1.000
    S1       S        0.86931    0.73685    0.48855    1.000
    N1       N        0.85300    0.65740    0.65260    1.000
    C1       C        0.90440    0.78690    0.35580    1.000
    C2       C        0.90420    0.66900    0.61270    1.000
    N2       N        0.85250    0.80850    0.32020    1.000
    C3       C        0.88800    0.55120    0.39470    1.000
    C4       C        0.79140    0.65940    0.38020    1.000
    N3       N        0.73130    0.67030    0.34610    1.000
    C5       C        0.79240    0.60280    0.49660    1.000
    N4       N        0.88110    0.50590    0.36570    1.000
    N5       N        0.73210    0.58210    0.52520    1.000
    Re2      Re       0.40385    0.13846    0.44140    1.000
    S2       S        0.36931    0.23685    0.48855    1.000
    N6       N        0.35300    0.15740    0.65260    1.000
    C6       C        0.40440    0.28690    0.35580    1.000
    C7       C        0.40420    0.16900    0.61270    1.000
    N7       N        0.35250    0.30850    0.32020    1.000
    C8       C        0.38800    0.05120    0.39470    1.000
    C9       C        0.29140    0.15940    0.38020    1.000
    N8       N        0.23130    0.17030    0.34610    1.000
    C10      C        0.29240    0.10280    0.49660    1.000
    N9       N        0.38110    0.00590    0.36570    1.000
    N10      N        0.23210    0.08210    0.52520    1.000
    Re3      Re       0.09615    0.36154    0.94140    1.000
    S3       S        0.13069    0.26315    0.98855    1.000
    N11      N        0.14700    0.34260    0.15260    1.000
    C11      C        0.09560    0.21310    0.85580    1.000
    C12      C        0.09580    0.33100    0.11270    1.000
    N12      N        0.14750    0.19150    0.82020    1.000
    C13      C        0.11200    0.44880    0.89470    1.000
    C14      C        0.20860    0.34060    0.88020    1.000
    N13      N        0.26870    0.32970    0.84610    1.000
    C15      C        0.20760    0.39720    0.99660    1.000
    N14      N        0.11890    0.49410    0.86570    1.000
    N15      N        0.26790    0.41790    0.02520    1.000
    Re4      Re       0.59615    0.86154    0.94140    1.000
    S4       S        0.63069    0.76315    0.98855    1.000
    N16      N        0.64700    0.84260    0.15260    1.000
    C16      C        0.59560    0.71310    0.85580    1.000
    C17      C        0.59580    0.83100    0.11270    1.000
    N17      N        0.64750    0.69150    0.82020    1.000
    C18      C        0.61200    0.94880    0.89470    1.000
    C19      C        0.70860    0.84060    0.88020    1.000
    N18      N        0.76870    0.82970    0.84610    1.000
    C20      C        0.70760    0.89720    0.99660    1.000
    N19      N        0.61890    0.99410    0.86570    1.000
    N20      N        0.76790    0.91790    0.02520    1.000
    Re5      Re       0.09615    0.63846    0.05860    1.000
    S5       S        0.13069    0.73685    0.01145    1.000
    N21      N        0.14700    0.65740    0.84740    1.000
    C21      C        0.09560    0.78690    0.14420    1.000
    C22      C        0.09580    0.66900    0.88730    1.000
    N22      N        0.14750    0.80850    0.17980    1.000
    C23      C        0.11200    0.55120    0.10530    1.000
    C24      C        0.20860    0.65940    0.11980    1.000
    N23      N        0.26870    0.67030    0.15390    1.000
    C25      C        0.20760    0.60280    0.00340    1.000
    N24      N        0.11890    0.50590    0.13430    1.000
    N25      N        0.26790    0.58210    0.97480    1.000
    Re6      Re       0.59615    0.13846    0.05860    1.000
    S6       S        0.63069    0.23685    0.01145    1.000
    N26      N        0.64700    0.15740    0.84740    1.000
    C26      C        0.59560    0.28690    0.14420    1.000
    C27      C        0.59580    0.16900    0.88730    1.000
    N27      N        0.64750    0.30850    0.17980    1.000
    C28      C        0.61200    0.05120    0.10530    1.000
    C29      C        0.70860    0.15940    0.11980    1.000
    N28      N        0.76870    0.17030    0.15390    1.000
    C30      C        0.70760    0.10280    0.00340    1.000
    N29      N        0.61890    0.00590    0.13430    1.000
    N30      N        0.76790    0.08210    0.97480    1.000
    Re7      Re       0.90385    0.36154    0.55860    1.000
    S7       S        0.86931    0.26315    0.51145    1.000
    N31      N        0.85300    0.34260    0.34740    1.000
    C31      C        0.90440    0.21310    0.64420    1.000
    C32      C        0.90420    0.33100    0.38730    1.000
    N32      N        0.85250    0.19150    0.67980    1.000
    C33      C        0.88800    0.44880    0.60530    1.000
    C34      C        0.79140    0.34060    0.61980    1.000
    N33      N        0.73130    0.32970    0.65390    1.000
    C35      C        0.79240    0.39720    0.50340    1.000
    N34      N        0.88110    0.49410    0.63430    1.000
    N35      N        0.73210    0.41790    0.47480    1.000
    Re8      Re       0.40385    0.86154    0.55860    1.000
    S8       S        0.36931    0.76315    0.51145    1.000
    N36      N        0.35300    0.84260    0.34740    1.000
    C36      C        0.40440    0.71310    0.64420    1.000
    C37      C        0.40420    0.83100    0.38730    1.000
    N37      N        0.35250    0.69150    0.67980    1.000
    C38      C        0.38800    0.94880    0.60530    1.000
    C39      C        0.29140    0.84060    0.61980    1.000
    N38      N        0.23130    0.82970    0.65390    1.000
    C40      C        0.29240    0.89720    0.50340    1.000
    N39      N        0.38110    0.99410    0.63430    1.000
    N40      N        0.23210    0.91790    0.47480    1.000
    Re9      Re       0.09615    0.36154    0.55860    1.000
    S9       S        0.13069    0.26315    0.51145    1.000
    N41      N        0.14700    0.34260    0.34740    1.000
    C41      C        0.09560    0.21310    0.64420    1.000
    C42      C        0.09580    0.33100    0.38730    1.000
    N42      N        0.14750    0.19150    0.67980    1.000
    C43      C        0.11200    0.44880    0.60530    1.000
    C44      C        0.20860    0.34060    0.61980    1.000
    N43      N        0.26870    0.32970    0.65390    1.000
    C45      C        0.20760    0.39720    0.50340    1.000
    N44      N        0.11890    0.49410    0.63430    1.000
    N45      N        0.26790    0.41790    0.47480    1.000
    Re10     Re       0.59615    0.86154    0.55860    1.000
    S10      S        0.63069    0.76315    0.51145    1.000
    N46      N        0.64700    0.84260    0.34740    1.000
    C46      C        0.59560    0.71310    0.64420    1.000
    C47      C        0.59580    0.83100    0.38730    1.000
    N47      N        0.64750    0.69150    0.67980    1.000
    C48      C        0.61200    0.94880    0.60530    1.000
    C49      C        0.70860    0.84060    0.61980    1.000
    N48      N        0.76870    0.82970    0.65390    1.000
    C50      C        0.70760    0.89720    0.50340    1.000
    N49      N        0.61890    0.99410    0.63430    1.000
    N50      N        0.76790    0.91790    0.47480    1.000
    Re11     Re       0.90385    0.63846    0.05860    1.000
    S11      S        0.86931    0.73685    0.01145    1.000
    N51      N        0.85300    0.65740    0.84740    1.000
    C51      C        0.90440    0.78690    0.14420    1.000
    C52      C        0.90420    0.66900    0.88730    1.000
    N52      N        0.85250    0.80850    0.17980    1.000
    C53      C        0.88800    0.55120    0.10530    1.000
    C54      C        0.79140    0.65940    0.11980    1.000
    N53      N        0.73130    0.67030    0.15390    1.000
    C55      C        0.79240    0.60280    0.00340    1.000
    N54      N        0.88110    0.50590    0.13430    1.000
    N55      N        0.73210    0.58210    0.97480    1.000
    Re12     Re       0.40385    0.13846    0.05860    1.000
    S12      S        0.36931    0.23685    0.01145    1.000
    N56      N        0.35300    0.15740    0.84740    1.000
    C56      C        0.40440    0.28690    0.14420    1.000
    C57      C        0.40420    0.16900    0.88730    1.000
    N57      N        0.35250    0.30850    0.17980    1.000
    C58      C        0.38800    0.05120    0.10530    1.000
    C59      C        0.29140    0.15940    0.11980    1.000
    N58      N        0.23130    0.17030    0.15390    1.000
    C60      C        0.29240    0.10280    0.00340    1.000
    N59      N        0.38110    0.00590    0.13430    1.000
    N60      N        0.23210    0.08210    0.97480    1.000
    Re13     Re       0.90385    0.36154    0.94140    1.000
    S13      S        0.86931    0.26315    0.98855    1.000
    N61      N        0.85300    0.34260    0.15260    1.000
    C61      C        0.90440    0.21310    0.85580    1.000
    C62      C        0.90420    0.33100    0.11270    1.000
    N62      N        0.85250    0.19150    0.82020    1.000
    C63      C        0.88800    0.44880    0.89470    1.000
    C64      C        0.79140    0.34060    0.88020    1.000
    N63      N        0.73130    0.32970    0.84610    1.000
    C65      C        0.79240    0.39720    0.99660    1.000
    N64      N        0.88110    0.49410    0.86570    1.000
    N65      N        0.73210    0.41790    0.02520    1.000
    Re14     Re       0.40385    0.86154    0.94140    1.000
    S14      S        0.36931    0.76315    0.98855    1.000
    N66      N        0.35300    0.84260    0.15260    1.000
    C66      C        0.40440    0.71310    0.85580    1.000
    C67      C        0.40420    0.83100    0.11270    1.000
    N67      N        0.35250    0.69150    0.82020    1.000
    C68      C        0.38800    0.94880    0.89470    1.000
    C69      C        0.29140    0.84060    0.88020    1.000
    N68      N        0.23130    0.82970    0.84610    1.000
    C70      C        0.29240    0.89720    0.99660    1.000
    N69      N        0.38110    0.99410    0.86570    1.000
    N70      N        0.23210    0.91790    0.02520    1.000
    Re15     Re       0.09615    0.63846    0.44140    1.000
    S15      S        0.13069    0.73685    0.48855    1.000
    N71      N        0.14700    0.65740    0.65260    1.000
    C71      C        0.09560    0.78690    0.35580    1.000
    C72      C        0.09580    0.66900    0.61270    1.000
    N72      N        0.14750    0.80850    0.32020    1.000
    C73      C        0.11200    0.55120    0.39470    1.000
    C74      C        0.20860    0.65940    0.38020    1.000
    N73      N        0.26870    0.67030    0.34610    1.000
    C75      C        0.20760    0.60280    0.49660    1.000
    N74      N        0.11890    0.50590    0.36570    1.000
    N75      N        0.26790    0.58210    0.52520    1.000
    Re16     Re       0.59615    0.13846    0.44140    1.000
    S16      S        0.63069    0.23685    0.48855    1.000
    N76      N        0.64700    0.15740    0.65260    1.000
    C76      C        0.59560    0.28690    0.35580    1.000
    C77      C        0.59580    0.16900    0.61270    1.000
    N77      N        0.64750    0.30850    0.32020    1.000
    C78      C        0.61200    0.05120    0.39470    1.000
    C79      C        0.70860    0.15940    0.38020    1.000
    N78      N        0.76870    0.17030    0.34610    1.000
    C80      C        0.70760    0.10280    0.49660    1.000
    N79      N        0.61890    0.00590    0.36570    1.000
    N80      N        0.76790    0.08210    0.52520    1.000
    Re17     Re       0.00000    0.69366    0.54058    1.000
    Re18     Re       0.00000    0.74892    0.42127    1.000
    S17      S        0.00000    0.58398    0.51602    1.000
    S18      S        0.00000    0.66116    0.35261    1.000
    C81      C        0.00000    0.77770    0.59380    1.000
    N81      N        0.00000    0.82280    0.62390    1.000
    C82      C        0.00000    0.84240    0.45120    1.000
    N82      N        0.00000    0.89440    0.46390    1.000
    Re19     Re       0.50000    0.19366    0.54058    1.000
    Re20     Re       0.50000    0.24892    0.42127    1.000
    S19      S        0.50000    0.08398    0.51602    1.000
    S20      S        0.50000    0.16116    0.35261    1.000
    C83      C        0.50000    0.27770    0.59380    1.000
    N83      N        0.50000    0.32280    0.62390    1.000
    C84      C        0.50000    0.34240    0.45120    1.000
    N84      N        0.50000    0.39440    0.46390    1.000
    Re21     Re       0.00000    0.30634    0.04058    1.000
    Re22     Re       0.00000    0.25109    0.92127    1.000
    S21      S        0.00000    0.41602    0.01602    1.000
    S22      S        0.00000    0.33884    0.85261    1.000
    C85      C        0.00000    0.22230    0.09380    1.000
    N85      N        0.00000    0.17720    0.12390    1.000
    C86      C        0.00000    0.15760    0.95120    1.000
    N86      N        0.00000    0.10560    0.96390    1.000
    Re23     Re       0.50000    0.80634    0.04058    1.000
    Re24     Re       0.50000    0.75109    0.92127    1.000
    S23      S        0.50000    0.91602    0.01602    1.000
    S24      S        0.50000    0.83884    0.85261    1.000
    C87      C        0.50000    0.72230    0.09380    1.000
    N87      N        0.50000    0.67720    0.12390    1.000
    C88      C        0.50000    0.65760    0.95120    1.000
    N88      N        0.50000    0.60560    0.96390    1.000
    Re25     Re       0.00000    0.69366    0.95942    1.000
    Re26     Re       0.00000    0.74892    0.07873    1.000
    S25      S        0.00000    0.58398    0.98398    1.000
    S26      S        0.00000    0.66116    0.14739    1.000
    C89      C        0.00000    0.77770    0.90620    1.000
    N89      N        0.00000    0.82280    0.87610    1.000
    C90      C        0.00000    0.84240    0.04880    1.000
    N90      N        0.00000    0.89440    0.03610    1.000
    Re27     Re       0.50000    0.19366    0.95942    1.000
    Re28     Re       0.50000    0.24892    0.07873    1.000
    S27      S        0.50000    0.08398    0.98398    1.000
    S28      S        0.50000    0.16116    0.14739    1.000
    C91      C        0.50000    0.27770    0.90620    1.000
    N91      N        0.50000    0.32280    0.87610    1.000
    C92      C        0.50000    0.34240    0.04880    1.000
    N92      N        0.50000    0.39440    0.03610    1.000
    Re29     Re       0.00000    0.30634    0.45942    1.000
    Re30     Re       0.00000    0.25109    0.57873    1.000
    S29      S        0.00000    0.41602    0.48398    1.000
    S30      S        0.00000    0.33884    0.64739    1.000
    C93      C        0.00000    0.22230    0.40620    1.000
    N93      N        0.00000    0.17720    0.37610    1.000
    C94      C        0.00000    0.15760    0.54880    1.000
    N94      N        0.00000    0.10560    0.53610    1.000
    Re31     Re       0.50000    0.80634    0.45942    1.000
    Re32     Re       0.50000    0.75109    0.57873    1.000
    S31      S        0.50000    0.91602    0.48398    1.000
    S32      S        0.50000    0.83884    0.64739    1.000
    C95      C        0.50000    0.72230    0.40620    1.000
    N95      N        0.50000    0.67720    0.37610    1.000
    C96      C        0.50000    0.65760    0.54880    1.000
    N96      N        0.50000    0.60560    0.53610    1.000
    Ho1      Ho       0.76280    0.64156    0.75000    1.000
    Ho2      Ho       0.26280    0.14156    0.75000    1.000
    Ho3      Ho       0.23720    0.35844    0.25000    1.000
    Ho4      Ho       0.73720    0.85844    0.25000    1.000
    Ho5      Ho       0.23720    0.64156    0.75000    1.000
    Ho6      Ho       0.73720    0.14156    0.75000    1.000
    Ho7      Ho       0.76280    0.35844    0.25000    1.000
    Ho8      Ho       0.26280    0.85844    0.25000    1.000
    K1       K        0.58466    0.50000    0.50000    1.000
    K2       K        0.08466    0.00000    0.50000    1.000
    K3       K        0.41534    0.50000    0.00000    1.000
    K4       K        0.91534    0.00000    0.00000    1.000
    K5       K        0.41534    0.50000    0.50000    1.000
    K6       K        0.91534    0.00000    0.50000    1.000
    K7       K        0.58466    0.50000    0.00000    1.000
    K8       K        0.08466    0.00000    0.00000    1.000
