data_functionalizedCrystal
_audit_creation_method	'EQeq! by Chris Wilmer'
_symmetry_space_group_name_H-M	'P1'
_symmetry_Int_Tables_number	1
_symmetry_cell_setting	triclinic
loop_
_symmetry_equiv_pos_as_xyz
  x,y,z
_cell_length_a	18.2337
_cell_length_b	11.3228
_cell_length_c	18.7067
_cell_angle_alpha	90
_cell_angle_beta	108.39
_cell_angle_gamma	90
loop_
_atom_site_label
_atom_site_type_symbol
_atom_site_fract_x
_atom_site_fract_y
_atom_site_fract_z
_atom_site_charge
Mof_Ho	Ho	0.50129	0.93406	0.39693	2.042
Mof_O 	O 	0.5886	0.9267	0.2214	-0.542
Mof_O 	O 	0.5776	0.0699	0.4798	-0.557
Mof_O 	O 	0.5865	0.9753	0.3361	-0.562
Mof_O 	O 	0.9219	0.5939	0.3884	-0.542
Mof_O 	O 	0.9261	0.6712	0.4992	-0.561
Mof_C 	C 	0.6173	0.9269	0.291	0.464
Mof_C 	C 	0.7946	0.7996	0.4352	0.053
Mof_H 	H 	0.8164	0.797	0.4874	0.01
Mof_C 	C 	0.8987	0.6641	0.429	0.527
Mof_C 	C 	0.7262	0.8601	0.4041	-0.056
Mof_H 	H 	0.7014	0.8952	0.4351	0.034
Mof_C 	C 	0.6946	0.8685	0.3261	-0.1
Mof_C 	C 	0.8315	0.7427	0.3906	-0.209
Mof_C 	C 	0.7331	0.8182	0.2804	-0.105
Mof_H 	H 	0.7133	0.8265	0.2284	0.062
Mof_C 	C 	0.8018	0.7548	0.3123	0.158
Mof_N 	N 	0.8348	0.7053	0.2614	-0.257
Mof_H 	H 	0.8047	0.7148	0.2158	0.122
Mof_O 	O 	0.5949	0.1809	0.5801	-0.52
Mof_C 	C 	0.6834	0.2034	0.5116	-0.155
Mof_C 	C 	0.7232	0.2971	0.5566	0.13
Mof_C 	C 	0.7105	0.1589	0.4553	-0.064
Mof_H 	H 	0.6834	0.098	0.4249	0.057
Mof_C 	C 	0.6142	0.1491	0.5243	0.476
Mof_N 	N 	0.7002	0.3556	0.6103	-0.29
Mof_H 	H 	0.6944	0.3064	0.6437	0.14
Mof_H 	H 	0.7356	0.4061	0.6329	0.134
Mof_H 	H 	0.873	0.635	0.275	0.118
Mof_Ho	Ho	0.00129	0.43406	0.39693	2.052
Mof_O 	O 	0.0886	0.4267	0.2214	-0.541
Mof_O 	O 	0.0776	0.5699	0.4798	-0.56
Mof_O 	O 	0.0865	0.4753	0.3361	-0.563
Mof_O 	O 	0.4219	0.0939	0.3884	-0.541
Mof_O 	O 	0.4261	0.1712	0.4992	-0.561
Mof_C 	C 	0.1173	0.4269	0.291	0.464
Mof_C 	C 	0.2946	0.2996	0.4352	0.052
Mof_H 	H 	0.3164	0.297	0.4874	0.009
Mof_C 	C 	0.3987	0.1641	0.429	0.525
Mof_C 	C 	0.2262	0.3601	0.4041	-0.056
Mof_H 	H 	0.2014	0.3952	0.4351	0.033
Mof_C 	C 	0.1946	0.3685	0.3261	-0.101
Mof_C 	C 	0.3315	0.2427	0.3906	-0.209
Mof_C 	C 	0.2331	0.3182	0.2804	-0.104
Mof_H 	H 	0.2133	0.3265	0.2284	0.063
Mof_C 	C 	0.3018	0.2548	0.3123	0.158
Mof_N 	N 	0.3348	0.2053	0.2614	-0.257
Mof_H 	H 	0.3047	0.2148	0.2158	0.123
Mof_O 	O 	0.0949	0.6809	0.5801	-0.521
Mof_C 	C 	0.1834	0.7034	0.5116	-0.156
Mof_C 	C 	0.2232	0.7971	0.5566	0.131
Mof_C 	C 	0.2105	0.6589	0.4553	-0.063
Mof_H 	H 	0.1834	0.598	0.4249	0.057
Mof_C 	C 	0.1142	0.6491	0.5243	0.477
Mof_N 	N 	0.2002	0.8556	0.6103	-0.29
Mof_H 	H 	0.1944	0.8064	0.6437	0.14
Mof_H 	H 	0.2356	0.9061	0.6329	0.134
Mof_H 	H 	0.373	0.135	0.275	0.119
Mof_Ho	Ho	0.49871	0.93406	0.10307	2.03
Mof_O 	O 	0.4114	0.9267	0.2786	-0.544
Mof_O 	O 	0.4224	0.0699	0.0202	-0.552
Mof_O 	O 	0.4135	0.9753	0.1639	-0.563
Mof_O 	O 	0.0781	0.5939	0.1116	-0.539
Mof_O 	O 	0.0739	0.6712	0.0008	-0.559
Mof_C 	C 	0.3827	0.9269	0.209	0.463
Mof_C 	C 	0.2054	0.7996	0.0648	0.051
Mof_H 	H 	0.1836	0.797	0.0126	0.009
Mof_C 	C 	0.1013	0.6641	0.071	0.525
Mof_C 	C 	0.2738	0.8601	0.0959	-0.056
Mof_H 	H 	0.2986	0.8952	0.0649	0.032
Mof_C 	C 	0.3054	0.8685	0.1739	-0.102
Mof_C 	C 	0.1685	0.7427	0.1094	-0.209
Mof_C 	C 	0.2669	0.8182	0.2196	-0.104
Mof_H 	H 	0.2867	0.8265	0.2716	0.062
Mof_C 	C 	0.1982	0.7548	0.1877	0.158
Mof_N 	N 	0.1652	0.7053	0.2386	-0.257
Mof_H 	H 	0.1953	0.7148	0.2842	0.122
Mof_O 	O 	0.4051	0.1809	0.9199	-0.519
Mof_C 	C 	0.3166	0.2034	0.9884	-0.165
Mof_C 	C 	0.2768	0.2971	0.9434	0.135
Mof_C 	C 	0.2895	0.1589	0.0447	-0.053
Mof_H 	H 	0.3166	0.098	0.0751	0.055
Mof_C 	C 	0.3858	0.1491	0.9757	0.47
Mof_N 	N 	0.2998	0.3556	0.8897	-0.291
Mof_H 	H 	0.3056	0.3064	0.8563	0.14
Mof_H 	H 	0.2644	0.4061	0.8671	0.134
Mof_H 	H 	0.127	0.635	0.225	0.119
Mof_Ho	Ho	0.99871	0.43406	0.10307	2.038
Mof_O 	O 	0.9114	0.4267	0.2786	-0.545
Mof_O 	O 	0.9224	0.5699	0.0202	-0.564
Mof_O 	O 	0.9135	0.4753	0.1639	-0.563
Mof_O 	O 	0.5781	0.0939	0.1116	-0.538
Mof_O 	O 	0.5739	0.1712	0.0008	-0.559
Mof_C 	C 	0.8827	0.4269	0.209	0.465
Mof_C 	C 	0.7054	0.2996	0.0648	0.051
Mof_H 	H 	0.6836	0.297	0.0126	0.009
Mof_C 	C 	0.6013	0.1641	0.071	0.524
Mof_C 	C 	0.7738	0.3601	0.0959	-0.056
Mof_H 	H 	0.7986	0.3952	0.0649	0.032
Mof_C 	C 	0.8054	0.3685	0.1739	-0.102
Mof_C 	C 	0.6685	0.2427	0.1094	-0.208
Mof_C 	C 	0.7669	0.3182	0.2196	-0.104
Mof_H 	H 	0.7867	0.3265	0.2716	0.062
Mof_C 	C 	0.6982	0.2548	0.1877	0.158
Mof_N 	N 	0.6652	0.2053	0.2386	-0.257
Mof_H 	H 	0.6953	0.2148	0.2842	0.122
Mof_O 	O 	0.9051	0.6809	0.9199	-0.519
Mof_C 	C 	0.8166	0.7034	0.9884	-0.147
Mof_C 	C 	0.7768	0.7971	0.9434	0.126
Mof_C 	C 	0.7895	0.6589	0.0447	-0.076
Mof_H 	H 	0.8166	0.598	0.0751	0.06
Mof_C 	C 	0.8858	0.6491	0.9757	0.479
Mof_N 	N 	0.7998	0.8556	0.8897	-0.288
Mof_H 	H 	0.8056	0.8064	0.8563	0.14
Mof_H 	H 	0.7644	0.9061	0.8671	0.135
Mof_H 	H 	0.627	0.135	0.225	0.119
Mof_Ho	Ho	0.49871	0.06594	0.60307	2.041
Mof_O 	O 	0.4114	0.0733	0.7786	-0.543
Mof_O 	O 	0.4224	0.9301	0.5202	-0.558
Mof_O 	O 	0.4135	0.0247	0.6639	-0.563
Mof_O 	O 	0.0781	0.4061	0.6116	-0.543
Mof_O 	O 	0.0739	0.3288	0.5008	-0.562
Mof_C 	C 	0.3827	0.0731	0.709	0.463
Mof_C 	C 	0.2054	0.2004	0.5648	0.052
Mof_H 	H 	0.1836	0.203	0.5126	0.009
Mof_C 	C 	0.1013	0.3359	0.571	0.526
Mof_C 	C 	0.2738	0.1399	0.5959	-0.057
Mof_H 	H 	0.2986	0.1048	0.5649	0.033
Mof_C 	C 	0.3054	0.1315	0.6739	-0.101
Mof_C 	C 	0.1685	0.2573	0.6094	-0.21
Mof_C 	C 	0.2669	0.1818	0.7196	-0.105
Mof_H 	H 	0.2867	0.1735	0.7716	0.062
Mof_C 	C 	0.1982	0.2452	0.6877	0.158
Mof_N 	N 	0.1652	0.2947	0.7386	-0.257
Mof_H 	H 	0.1953	0.2852	0.7842	0.122
Mof_O 	O 	0.4051	0.8191	0.4199	-0.52
Mof_C 	C 	0.3166	0.7966	0.4884	-0.155
Mof_C 	C 	0.2768	0.7029	0.4434	0.13
Mof_C 	C 	0.2895	0.8411	0.5447	-0.064
Mof_H 	H 	0.3166	0.902	0.5751	0.057
Mof_C 	C 	0.3858	0.8509	0.4757	0.476
Mof_N 	N 	0.2998	0.6444	0.3897	-0.29
Mof_H 	H 	0.3056	0.6936	0.3563	0.14
Mof_H 	H 	0.2644	0.5939	0.3671	0.134
Mof_H 	H 	0.127	0.365	0.725	0.118
Mof_Ho	Ho	0.99871	0.56594	0.60307	2.052
Mof_O 	O 	0.9114	0.5733	0.7786	-0.541
Mof_O 	O 	0.9224	0.4301	0.5202	-0.56
Mof_O 	O 	0.9135	0.5247	0.6639	-0.563
Mof_O 	O 	0.5781	0.9061	0.6116	-0.541
Mof_O 	O 	0.5739	0.8288	0.5008	-0.561
Mof_C 	C 	0.8827	0.5731	0.709	0.464
Mof_C 	C 	0.7054	0.7004	0.5648	0.052
Mof_H 	H 	0.6836	0.703	0.5126	0.009
Mof_C 	C 	0.6013	0.8359	0.571	0.525
Mof_C 	C 	0.7738	0.6399	0.5959	-0.056
Mof_H 	H 	0.7986	0.6048	0.5649	0.033
Mof_C 	C 	0.8054	0.6315	0.6739	-0.101
Mof_C 	C 	0.6685	0.7573	0.6094	-0.209
Mof_C 	C 	0.7669	0.6818	0.7196	-0.104
Mof_H 	H 	0.7867	0.6735	0.7716	0.063
Mof_C 	C 	0.6982	0.7452	0.6877	0.158
Mof_N 	N 	0.6652	0.7947	0.7386	-0.257
Mof_H 	H 	0.6953	0.7852	0.7842	0.123
Mof_O 	O 	0.9051	0.3191	0.4199	-0.521
Mof_C 	C 	0.8166	0.2966	0.4884	-0.156
Mof_C 	C 	0.7768	0.2029	0.4434	0.131
Mof_C 	C 	0.7895	0.3411	0.5447	-0.063
Mof_H 	H 	0.8166	0.402	0.5751	0.057
Mof_C 	C 	0.8858	0.3509	0.4757	0.477
Mof_N 	N 	0.7998	0.1444	0.3897	-0.29
Mof_H 	H 	0.8056	0.1936	0.3563	0.14
Mof_H 	H 	0.7644	0.0939	0.3671	0.134
Mof_H 	H 	0.627	0.865	0.725	0.119
Mof_Ho	Ho	0.50129	0.06594	0.89693	2.03
Mof_O 	O 	0.5886	0.0733	0.7214	-0.544
Mof_O 	O 	0.5776	0.9301	0.9798	-0.552
Mof_O 	O 	0.5865	0.0247	0.8361	-0.563
Mof_O 	O 	0.9219	0.4061	0.8884	-0.539
Mof_O 	O 	0.9261	0.3288	0.9992	-0.559
Mof_C 	C 	0.6173	0.0731	0.791	0.463
Mof_C 	C 	0.7946	0.2004	0.9352	0.051
Mof_H 	H 	0.8164	0.203	0.9874	0.009
Mof_C 	C 	0.8987	0.3359	0.929	0.525
Mof_C 	C 	0.7262	0.1399	0.9041	-0.056
Mof_H 	H 	0.7014	0.1048	0.9351	0.032
Mof_C 	C 	0.6946	0.1315	0.8261	-0.102
Mof_C 	C 	0.8315	0.2573	0.8906	-0.209
Mof_C 	C 	0.7331	0.1818	0.7804	-0.104
Mof_H 	H 	0.7133	0.1735	0.7284	0.062
Mof_C 	C 	0.8018	0.2452	0.8123	0.158
Mof_N 	N 	0.8348	0.2947	0.7614	-0.257
Mof_H 	H 	0.8047	0.2852	0.7158	0.122
Mof_O 	O 	0.5949	0.8191	0.0801	-0.519
Mof_C 	C 	0.6834	0.7966	0.0116	-0.165
Mof_C 	C 	0.7232	0.7029	0.0566	0.135
Mof_C 	C 	0.7105	0.8411	0.9553	-0.053
Mof_H 	H 	0.6834	0.902	0.9249	0.055
Mof_C 	C 	0.6142	0.8509	0.0243	0.47
Mof_N 	N 	0.7002	0.6444	0.1103	-0.291
Mof_H 	H 	0.6944	0.6936	0.1437	0.14
Mof_H 	H 	0.7356	0.5939	0.1329	0.134
Mof_H 	H 	0.873	0.365	0.775	0.119
Mof_Ho	Ho	0.00129	0.56594	0.89693	2.038
Mof_O 	O 	0.0886	0.5733	0.7214	-0.545
Mof_O 	O 	0.0776	0.4301	0.9798	-0.564
Mof_O 	O 	0.0865	0.5247	0.8361	-0.563
Mof_O 	O 	0.4219	0.9061	0.8884	-0.538
Mof_O 	O 	0.4261	0.8288	0.9992	-0.559
Mof_C 	C 	0.1173	0.5731	0.791	0.465
Mof_C 	C 	0.2946	0.7004	0.9352	0.051
Mof_H 	H 	0.3164	0.703	0.9874	0.009
Mof_C 	C 	0.3987	0.8359	0.929	0.524
Mof_C 	C 	0.2262	0.6399	0.9041	-0.056
Mof_H 	H 	0.2014	0.6048	0.9351	0.032
Mof_C 	C 	0.1946	0.6315	0.8261	-0.102
Mof_C 	C 	0.3315	0.7573	0.8906	-0.208
Mof_C 	C 	0.2331	0.6818	0.7804	-0.104
Mof_H 	H 	0.2133	0.6735	0.7284	0.062
Mof_C 	C 	0.3018	0.7452	0.8123	0.158
Mof_N 	N 	0.3348	0.7947	0.7614	-0.257
Mof_H 	H 	0.3047	0.7852	0.7158	0.122
Mof_O 	O 	0.0949	0.3191	0.0801	-0.519
Mof_C 	C 	0.1834	0.2966	0.0116	-0.147
Mof_C 	C 	0.2232	0.2029	0.0566	0.126
Mof_C 	C 	0.2105	0.3411	0.9553	-0.076
Mof_H 	H 	0.1834	0.402	0.9249	0.06
Mof_C 	C 	0.1142	0.3509	0.0243	0.479
Mof_N 	N 	0.2002	0.1444	0.1103	-0.288
Mof_H 	H 	0.1944	0.1936	0.1437	0.14
Mof_H 	H 	0.2356	0.0939	0.1329	0.135
Mof_H 	H 	0.373	0.865	0.775	0.119
_end
