data_functionalizedCrystal
_audit_creation_method	'EQeq! by Chris Wilmer'
_symmetry_space_group_name_H-M	'P1'
_symmetry_Int_Tables_number	1
_symmetry_cell_setting	triclinic
loop_
_symmetry_equiv_pos_as_xyz
  x,y,z
_cell_length_a	11.8429
_cell_length_b	13.4829
_cell_length_c	11.6921
_cell_angle_alpha	90
_cell_angle_beta	90
_cell_angle_gamma	90
loop_
_atom_site_label
_atom_site_type_symbol
_atom_site_fract_x
_atom_site_fract_y
_atom_site_fract_z
_atom_site_charge
Mof_S 	S 	0.96153	0.74019	0.2791	0.609
Mof_O 	O 	0.0358	0.8275	0.2847	-0.377
Mof_O 	O 	0.9159	0.7142	0.389	-0.285
Mof_O 	O 	0.8782	0.7496	0.1914	-0.291
Mof_C 	C 	0.0493	0.6407	0.2408	-0.196
Mof_C 	C 	0.1084	0.5776	0.3149	-0.062
Mof_H 	H 	0.1076	0.5805	0.3943	0.047
Mof_C 	C 	0.1696	0.509	0.248	-0.127
Mof_H 	H 	0.2162	0.4591	0.2759	0.08
Mof_C 	C 	0.1476	0.5293	0.1305	-0.132
Mof_H 	H 	0.1759	0.4935	0.0688	0.068
Mof_C 	C 	0.075	0.6134	0.1232	-0.069
Mof_H 	H 	0.0495	0.6444	0.057	0.044
Mof_S 	S 	0.03847	0.25981	0.2791	0.423
Mof_O 	O 	0.9642	0.1725	0.2847	-0.295
Mof_O 	O 	0.0841	0.2858	0.389	-0.272
Mof_O 	O 	0.1218	0.2504	0.1914	-0.278
Mof_C 	C 	0.9507	0.3593	0.2408	-0.085
Mof_C 	C 	0.8916	0.4224	0.3149	-0.105
Mof_H 	H 	0.8924	0.4195	0.3943	0.08
Mof_C 	C 	0.8304	0.491	0.248	-0.101
Mof_H 	H 	0.7838	0.5409	0.2759	0.075
Mof_C 	C 	0.8524	0.4707	0.1305	-0.115
Mof_H 	H 	0.8241	0.5065	0.0688	0.072
Mof_C 	C 	0.925	0.3866	0.1232	-0.101
Mof_H 	H 	0.9505	0.3556	0.057	0.075
Mof_Fe	Fe	2.48005e-33	0.5	0.21339	0.654
Mof_S 	S 	0.53847	0.24019	0.7209	0.523
Mof_O 	O 	0.4642	0.3275	0.7153	-0.345
Mof_O 	O 	0.5841	0.2142	0.611	-0.281
Mof_O 	O 	0.6218	0.2496	0.8086	-0.288
Mof_C 	C 	0.4507	0.1407	0.7592	-0.16
Mof_C 	C 	0.3916	0.0776	0.6851	-0.067
Mof_H 	H 	0.3924	0.0805	0.6057	0.05
Mof_C 	C 	0.3304	0.009	0.752	-0.158
Mof_H 	H 	0.2838	0.9591	0.7241	0.108
Mof_C 	C 	0.3524	0.0293	0.8695	-0.167
Mof_H 	H 	0.3241	0.9935	0.9312	0.103
Mof_C 	C 	0.425	0.1134	0.8768	-0.069
Mof_H 	H 	0.4505	0.1444	0.943	0.048
Mof_S 	S 	0.46153	0.75981	0.7209	0.515
Mof_O 	O 	0.5358	0.6725	0.7153	-0.342
Mof_O 	O 	0.4159	0.7858	0.611	-0.278
Mof_O 	O 	0.3782	0.7504	0.8086	-0.285
Mof_C 	C 	0.5493	0.8593	0.7592	-0.13
Mof_C 	C 	0.6084	0.9224	0.6851	-0.103
Mof_H 	H 	0.6076	0.9195	0.6057	0.076
Mof_C 	C 	0.6696	0.991	0.752	-0.077
Mof_H 	H 	0.7162	0.0409	0.7241	0.053
Mof_C 	C 	0.6476	0.9707	0.8695	-0.085
Mof_H 	H 	0.6759	0.0065	0.9312	0.04
Mof_C 	C 	0.575	0.8866	0.8768	-0.104
Mof_H 	H 	0.5495	0.8556	0.943	0.069
Mof_Fe	Fe	0.5	0	0.78661	0.678
Mof_C 	C 	0.0461	0.9235	0.0257	0.069
Mof_H 	H 	0.0786	0.8711	0.0655	0.014
Mof_C 	C 	0.0457	0.9221	0.907	-0.086
Mof_H 	H 	0.0764	0.8683	0.8682	0.067
Mof_C 	C 	0.9497	0.9244	0.6586	-0.051
Mof_H 	H 	0.9151	0.8721	0.6968	0.075
Mof_C 	C 	0.9507	0.9264	0.54	0.113
Mof_H 	H 	0.9161	0.8751	0.5	0.018
Mof_C 	C 	0.9539	0.0765	0.0257	0.092
Mof_H 	H 	0.9214	0.1289	0.0655	0.011
Mof_C 	C 	0.9543	0.0779	0.907	-0.079
Mof_H 	H 	0.9236	0.1317	0.8682	0.076
Mof_C 	C 	0.0503	0.0756	0.6586	-0.111
Mof_H 	H 	0.0849	0.1279	0.6968	0.074
Mof_C 	C 	0.0493	0.0736	0.54	0.046
Mof_H 	H 	0.0839	0.1249	0.5	0.021
Mof_Cu	Cu	1.04646e-33	-1.69015e-33	0.2827	0.846
Mof_N 	N 	3.1279e-34	0	0.0845	-0.227
Mof_N 	N 	-1.5987e-33	3.38031e-33	0.4813	-0.228
Mof_C 	C 	3.13197e-33	-6.76062e-33	0.8461	-0.005
Mof_C 	C 	2.66704e-33	-6.76062e-33	0.7205	-0.008
Mof_C 	C 	0.4539	0.4235	0.9743	0.067
Mof_H 	H 	0.4214	0.3711	0.9345	0.013
Mof_C 	C 	0.4543	0.4221	0.093	-0.125
Mof_H 	H 	0.4236	0.3683	0.1318	0.081
Mof_C 	C 	0.5503	0.4244	0.3414	-0.126
Mof_H 	H 	0.5849	0.3721	0.3032	0.086
Mof_C 	C 	0.5493	0.4264	0.46	0.071
Mof_H 	H 	0.5839	0.3751	0.5	0.02
Mof_C 	C 	0.5461	0.5765	0.9743	0.067
Mof_H 	H 	0.5786	0.6289	0.9345	0.015
Mof_C 	C 	0.5457	0.5779	0.093	-0.124
Mof_H 	H 	0.5764	0.6317	0.1318	0.083
Mof_C 	C 	0.4497	0.5756	0.3414	-0.126
Mof_H 	H 	0.4151	0.6279	0.3032	0.087
Mof_C 	C 	0.4507	0.5736	0.46	0.071
Mof_H 	H 	0.4161	0.6249	0.5	0.02
Mof_Cu	Cu	0.5	0.5	0.7173	0.867
Mof_N 	N 	0.5	0.5	0.9155	-0.191
Mof_N 	N 	0.5	0.5	0.5187	-0.193
Mof_C 	C 	0.5	0.5	0.1539	0.058
Mof_C 	C 	0.5	0.5	0.2795	0.056
Mof_N 	N 	0.7981	0.9953	0.2853	-0.145
Mof_C 	C 	0.7382	0.9554	0.2028	0.032
Mof_H 	H 	0.7761	0.9236	0.1436	0.04
Mof_C 	C 	0.6212	0.9582	0.1995	-0.016
Mof_H 	H 	0.5825	0.9314	0.1375	0.04
Mof_C 	C 	0.5633	0.0004	0.2876	-0.079
Mof_C 	C 	0.6244	0.0421	0.3747	-0.043
Mof_H 	H 	0.5875	0.0711	0.4364	0.052
Mof_C 	C 	0.7425	0.0409	0.3704	0.003
Mof_H 	H 	0.7834	0.0725	0.4277	0.039
Mof_N 	N 	0.2019	0.0047	0.2853	-0.228
Mof_C 	C 	0.2618	0.0446	0.2028	0.142
Mof_H 	H 	0.2239	0.0764	0.1436	-0.016
Mof_C 	C 	0.3788	0.0418	0.1995	-0.258
Mof_H 	H 	0.4175	0.0686	0.1375	0.114
Mof_C 	C 	0.4367	0.9996	0.2876	0.204
Mof_C 	C 	0.3756	0.9579	0.3747	-0.227
Mof_H 	H 	0.4125	0.9289	0.4364	0.128
Mof_C 	C 	0.2575	0.9591	0.3704	0.159
Mof_H 	H 	0.2166	0.9275	0.4277	-0.012
Mof_N 	N 	0.7019	0.4953	0.7147	-0.2
Mof_C 	C 	0.7618	0.4554	0.7972	0.115
Mof_H 	H 	0.7239	0.4236	0.8564	0
Mof_C 	C 	0.8788	0.4582	0.8005	-0.182
Mof_H 	H 	0.9175	0.4314	0.8625	0.102
Mof_C 	C 	0.9367	0.5004	0.7124	0.145
Mof_C 	C 	0.8756	0.5421	0.6253	-0.18
Mof_H 	H 	0.9125	0.5711	0.5636	0.116
Mof_C 	C 	0.7575	0.5409	0.6296	0.106
Mof_H 	H 	0.7166	0.5725	0.5723	0.003
Mof_N 	N 	0.2981	0.5047	0.7147	-0.181
Mof_C 	C 	0.2382	0.5446	0.7972	0.059
Mof_H 	H 	0.2761	0.5764	0.8564	0.018
Mof_C 	C 	0.1212	0.5418	0.8005	-0.091
Mof_H 	H 	0.0825	0.5686	0.8625	0.051
Mof_C 	C 	0.0633	0.4996	0.7124	-0.02
Mof_C 	C 	0.1244	0.4579	0.6253	-0.089
Mof_H 	H 	0.0875	0.4289	0.5636	0.063
Mof_C 	C 	0.2425	0.4591	0.6296	0.053
Mof_H 	H 	0.2834	0.4275	0.5723	0.019
_end
