data_functionalizedCrystal
_audit_creation_method	'EQeq! by Chris Wilmer'
_symmetry_space_group_name_H-M	'P1'
_symmetry_Int_Tables_number	1
_symmetry_cell_setting	triclinic
loop_
_symmetry_equiv_pos_as_xyz
  x,y,z
_cell_length_a	21.5645
_cell_length_b	21.5645
_cell_length_c	9.4379
_cell_angle_alpha	90
_cell_angle_beta	90
_cell_angle_gamma	120
loop_
_atom_site_label
_atom_site_type_symbol
_atom_site_fract_x
_atom_site_fract_y
_atom_site_fract_z
_atom_site_charge
Mof_H 	H 	0.915	0.4167	0.101	0.068
Mof_C 	C 	0.9629	0.426	0.0812	0.056
Mof_O 	O 	0.07648	0.47305	0.3818	-0.454
Mof_C 	C 	0.19836	0.4603	0.3739	-0.014
Mof_H 	H 	0.1764	0.4599	0.2864	0.046
Mof_H 	H 	0.5833	0.4983	0.101	0.113
Mof_C 	C 	0.574	0.5369	0.0812	-0.092
Mof_O 	O 	0.52695	0.60343	0.3818	-0.445
Mof_C 	C 	0.5397	0.73806	0.3739	-0.007
Mof_H 	H 	0.5401	0.7165	0.2864	0.05
Mof_H 	H 	0.5017	0.085	0.101	0.107
Mof_C 	C 	0.4631	0.0371	0.0812	-0.085
Mof_O 	O 	0.39657	0.92352	0.3818	-0.42
Mof_C 	C 	0.26194	0.80164	0.3739	-0.02
Mof_H 	H 	0.2835	0.8236	0.2864	0.053
Mof_H 	H 	0.085	0.5833	0.101	0.108
Mof_C 	C 	0.0371	0.574	0.0812	-0.085
Mof_O 	O 	0.92352	0.52695	0.3818	-0.418
Mof_C 	C 	0.80164	0.5397	0.3739	-0.017
Mof_H 	H 	0.8236	0.5401	0.2864	0.056
Mof_H 	H 	0.4167	0.5017	0.101	0.11
Mof_C 	C 	0.426	0.4631	0.0812	-0.093
Mof_O 	O 	0.47305	0.39657	0.3818	-0.448
Mof_C 	C 	0.4603	0.26194	0.3739	-0.016
Mof_H 	H 	0.4599	0.2835	0.2864	0.046
Mof_H 	H 	0.4983	0.915	0.101	0.068
Mof_C 	C 	0.5369	0.9629	0.0812	0.055
Mof_O 	O 	0.60343	0.07648	0.3818	-0.454
Mof_C 	C 	0.73806	0.19836	0.3739	-0.008
Mof_H 	H 	0.7165	0.1764	0.2864	0.046
Mof_H 	H 	0.4167	0.915	0.899	0.067
Mof_C 	C 	0.426	0.9629	0.9188	0.055
Mof_O 	O 	0.47305	0.07648	0.6182	-0.455
Mof_C 	C 	0.4603	0.19836	0.6261	-0.015
Mof_H 	H 	0.4599	0.1764	0.7136	0.045
Mof_H 	H 	0.4983	0.5833	0.899	0.112
Mof_C 	C 	0.5369	0.574	0.9188	-0.092
Mof_O 	O 	0.60343	0.52695	0.6182	-0.445
Mof_C 	C 	0.73806	0.5397	0.6261	-0.007
Mof_H 	H 	0.7165	0.5401	0.7136	0.05
Mof_H 	H 	0.085	0.5017	0.899	0.107
Mof_C 	C 	0.0371	0.4631	0.9188	-0.085
Mof_O 	O 	0.92352	0.39657	0.6182	-0.42
Mof_C 	C 	0.80164	0.26194	0.6261	-0.02
Mof_H 	H 	0.8236	0.2835	0.7136	0.053
Mof_H 	H 	0.5833	0.085	0.899	0.108
Mof_C 	C 	0.574	0.0371	0.9188	-0.085
Mof_O 	O 	0.52695	0.92352	0.6182	-0.418
Mof_C 	C 	0.5397	0.80164	0.6261	-0.017
Mof_H 	H 	0.5401	0.8236	0.7136	0.056
Mof_H 	H 	0.5017	0.4167	0.899	0.11
Mof_C 	C 	0.4631	0.426	0.9188	-0.093
Mof_O 	O 	0.39657	0.47305	0.6182	-0.448
Mof_C 	C 	0.26194	0.4603	0.6261	-0.016
Mof_H 	H 	0.2835	0.4599	0.7136	0.046
Mof_H 	H 	0.915	0.4983	0.899	0.068
Mof_C 	C 	0.9629	0.5369	0.9188	0.055
Mof_O 	O 	0.07648	0.60343	0.6182	-0.454
Mof_C 	C 	0.19836	0.73806	0.6261	-0.008
Mof_H 	H 	0.1764	0.7165	0.7136	0.046
Mof_H 	H 	0.085	0.5833	0.899	0.108
Mof_C 	C 	0.0371	0.574	0.9188	-0.085
Mof_O 	O 	0.92352	0.52695	0.6182	-0.418
Mof_C 	C 	0.80164	0.5397	0.6261	-0.017
Mof_H 	H 	0.8236	0.5401	0.7136	0.056
Mof_H 	H 	0.4167	0.5017	0.899	0.11
Mof_C 	C 	0.426	0.4631	0.9188	-0.093
Mof_O 	O 	0.47305	0.39657	0.6182	-0.448
Mof_C 	C 	0.4603	0.26194	0.6261	-0.016
Mof_H 	H 	0.4599	0.2835	0.7136	0.046
Mof_H 	H 	0.4983	0.915	0.899	0.068
Mof_C 	C 	0.5369	0.9629	0.9188	0.055
Mof_O 	O 	0.60343	0.07648	0.6182	-0.454
Mof_C 	C 	0.73806	0.19836	0.6261	-0.008
Mof_H 	H 	0.7165	0.1764	0.7136	0.046
Mof_H 	H 	0.915	0.4167	0.899	0.067
Mof_C 	C 	0.9629	0.426	0.9188	0.055
Mof_O 	O 	0.07648	0.47305	0.6182	-0.455
Mof_C 	C 	0.19836	0.4603	0.6261	-0.015
Mof_H 	H 	0.1764	0.4599	0.7136	0.045
Mof_H 	H 	0.5833	0.4983	0.899	0.112
Mof_C 	C 	0.574	0.5369	0.9188	-0.092
Mof_O 	O 	0.52695	0.60343	0.6182	-0.445
Mof_C 	C 	0.5397	0.73806	0.6261	-0.007
Mof_H 	H 	0.5401	0.7165	0.7136	0.05
Mof_H 	H 	0.5017	0.085	0.899	0.107
Mof_C 	C 	0.4631	0.0371	0.9188	-0.085
Mof_O 	O 	0.39657	0.92352	0.6182	-0.42
Mof_C 	C 	0.26194	0.80164	0.6261	-0.02
Mof_H 	H 	0.2835	0.8236	0.7136	0.053
Mof_H 	H 	0.5833	0.085	0.101	0.108
Mof_C 	C 	0.574	0.0371	0.0812	-0.085
Mof_O 	O 	0.52695	0.92352	0.3818	-0.418
Mof_C 	C 	0.5397	0.80164	0.3739	-0.017
Mof_H 	H 	0.5401	0.8236	0.2864	0.056
Mof_H 	H 	0.5017	0.4167	0.101	0.11
Mof_C 	C 	0.4631	0.426	0.0812	-0.093
Mof_O 	O 	0.39657	0.47305	0.3818	-0.448
Mof_C 	C 	0.26194	0.4603	0.3739	-0.016
Mof_H 	H 	0.2835	0.4599	0.2864	0.046
Mof_H 	H 	0.915	0.4983	0.101	0.068
Mof_C 	C 	0.9629	0.5369	0.0812	0.055
Mof_O 	O 	0.07648	0.60343	0.3818	-0.454
Mof_C 	C 	0.19836	0.73806	0.3739	-0.008
Mof_H 	H 	0.1764	0.7165	0.2864	0.046
Mof_H 	H 	0.4167	0.915	0.101	0.067
Mof_C 	C 	0.426	0.9629	0.0812	0.055
Mof_O 	O 	0.47305	0.07648	0.3818	-0.455
Mof_C 	C 	0.4603	0.19836	0.3739	-0.015
Mof_H 	H 	0.4599	0.1764	0.2864	0.045
Mof_H 	H 	0.4983	0.5833	0.101	0.112
Mof_C 	C 	0.5369	0.574	0.0812	-0.092
Mof_O 	O 	0.60343	0.52695	0.3818	-0.445
Mof_C 	C 	0.73806	0.5397	0.3739	-0.007
Mof_H 	H 	0.7165	0.5401	0.2864	0.05
Mof_H 	H 	0.085	0.5017	0.101	0.107
Mof_C 	C 	0.0371	0.4631	0.0812	-0.085
Mof_O 	O 	0.92352	0.39657	0.3818	-0.42
Mof_C 	C 	0.80164	0.26194	0.3739	-0.02
Mof_H 	H 	0.8236	0.2835	0.2864	0.053
Mof_C 	C 	0.9239	0.46195	0.0809	-0.108
Mof_C 	C 	0.53805	0.46195	0.0809	-0.111
Mof_C 	C 	0.53805	0.0761	0.0809	-0.109
Mof_C 	C 	0.0761	0.53805	0.0809	-0.109
Mof_C 	C 	0.46195	0.53805	0.0809	-0.111
Mof_C 	C 	0.46195	0.9239	0.0809	-0.108
Mof_C 	C 	0.46195	0.9239	0.9191	-0.108
Mof_C 	C 	0.46195	0.53805	0.9191	-0.111
Mof_C 	C 	0.0761	0.53805	0.9191	-0.109
Mof_C 	C 	0.53805	0.0761	0.9191	-0.109
Mof_C 	C 	0.53805	0.46195	0.9191	-0.111
Mof_C 	C 	0.9239	0.46195	0.9191	-0.108
Mof_Co	Co	-4.91281e-17	0.5	0.35855	1.125
Mof_N 	N 	-3.72642e-17	0.5	0.1372	-0.198
Mof_Co	Co	0.5	0.5	0.35855	1.147
Mof_N 	N 	0.5	0.5	0.1372	-0.134
Mof_Co	Co	0.5	0	0.35855	1.125
Mof_N 	N 	0.5	8.30186e-34	0.1372	-0.198
Mof_Co	Co	0.5	6.64149e-33	0.64145	1.125
Mof_N 	N 	0.5	6.64149e-33	0.8628	-0.198
Mof_Co	Co	0.5	0.5	0.64145	1.147
Mof_N 	N 	0.5	0.5	0.8628	-0.134
Mof_Co	Co	-6.42909e-17	0.5	0.64145	1.125
Mof_N 	N 	-1.63335e-17	0.5	0.8628	-0.198
Mof_H 	H 	-5.19899e-18	0.418	0.097	0.017
Mof_H 	H 	0.582	0.582	0.097	0.112
Mof_H 	H 	0.418	0	0.097	0.017
Mof_H 	H 	-5.19899e-18	0.582	0.097	0.02
Mof_H 	H 	0.418	0.418	0.097	0.106
Mof_H 	H 	0.582	0	0.097	0.02
Mof_H 	H 	0.418	6.64149e-33	0.903	0.017
Mof_H 	H 	0.582	0.582	0.903	0.112
Mof_H 	H 	1.14224e-17	0.418	0.903	0.017
Mof_H 	H 	0.582	6.64149e-33	0.903	0.02
Mof_H 	H 	0.418	0.418	0.903	0.106
Mof_H 	H 	7.12437e-17	0.582	0.903	0.02
Mof_C 	C 	0.1016	0.469	0.5	0.358
Mof_C 	C 	0.1659	0.4608	0.5	-0.083
Mof_C 	C 	0.531	0.6326	0.5	0.363
Mof_C 	C 	0.5392	0.7051	0.5	-0.078
Mof_C 	C 	0.3674	0.8984	0.5	0.354
Mof_C 	C 	0.2949	0.8341	0.5	-0.068
Mof_C 	C 	0.8984	0.531	0.5	0.355
Mof_C 	C 	0.8341	0.5392	0.5	-0.065
Mof_C 	C 	0.469	0.3674	0.5	0.36
Mof_C 	C 	0.4608	0.2949	0.5	-0.08
Mof_C 	C 	0.6326	0.1016	0.5	0.361
Mof_C 	C 	0.7051	0.1659	0.5	-0.083
Mof_C 	C 	0.469	0.1016	0.5	0.358
Mof_C 	C 	0.4608	0.1659	0.5	-0.083
Mof_C 	C 	0.6326	0.531	0.5	0.363
Mof_C 	C 	0.7051	0.5392	0.5	-0.078
Mof_C 	C 	0.8984	0.3674	0.5	0.354
Mof_C 	C 	0.8341	0.2949	0.5	-0.068
Mof_C 	C 	0.531	0.8984	0.5	0.355
Mof_C 	C 	0.5392	0.8341	0.5	-0.065
Mof_C 	C 	0.3674	0.469	0.5	0.36
Mof_C 	C 	0.2949	0.4608	0.5	-0.08
Mof_C 	C 	0.1016	0.6326	0.5	0.361
Mof_C 	C 	0.1659	0.7051	0.5	-0.083
_end
