data_functionalizedCrystal
_audit_creation_method	'EQeq! by Chris Wilmer'
_symmetry_space_group_name_H-M	'P1'
_symmetry_Int_Tables_number	1
_symmetry_cell_setting	triclinic
loop_
_symmetry_equiv_pos_as_xyz
  x,y,z
_cell_length_a	10.5536
_cell_length_b	17.313
_cell_length_c	10.3937
_cell_angle_alpha	90
_cell_angle_beta	99.502
_cell_angle_gamma	90
loop_
_atom_site_label
_atom_site_type_symbol
_atom_site_fract_x
_atom_site_fract_y
_atom_site_fract_z
_atom_site_charge
Mof_Zn	Zn	0.1513	0.16519	0.82231	1.228
Mof_Zn	Zn	0.94998	0.16724	0.11638	1.228
Mof_P 	P 	0.87	0.28625	0.326	0.456
Mof_P 	P 	0.2256	0.2267	0.1	0.456
Mof_O 	O 	0.1359	0.1597	0.1234	-0.489
Mof_O 	O 	0.9672	0.35	0.3032	-0.459
Mof_O 	O 	0.9096	0.2072	0.279	-0.459
Mof_O 	O 	0.9037	0.057	0.1177	-0.433
Mof_O 	O 	0.2318	0.2361	0.956	-0.454
Mof_O 	O 	0.8543	0.2817	0.4688	-0.46
Mof_O 	O 	0.1801	0.3034	0.1504	-0.449
Mof_O 	O 	0.7761	0.9389	0.1484	-0.439
Mof_C 	C 	0.4862	0.2661	0.1653	-0.031
Mof_H 	H 	0.5015	0.2629	0.074	0.038
Mof_H 	H 	0.455	0.3189	0.1793	0.04
Mof_C 	C 	0.3815	0.2078	0.1847	-0.285
Mof_H 	H 	0.3773	0.2051	0.279	0.111
Mof_H 	H 	0.4082	0.1562	0.1578	0.111
Mof_C 	C 	0.611	0.2534	0.2552	-0.035
Mof_H 	H 	0.6403	0.1999	0.2441	0.036
Mof_H 	H 	0.5965	0.2591	0.3464	0.04
Mof_C 	C 	0.7176	0.3097	0.2313	-0.275
Mof_H 	H 	0.7251	0.3088	0.1376	0.109
Mof_H 	H 	0.6934	0.3628	0.2532	0.121
Mof_P 	P 	0.7892	0.009	0.0634	0.485
Mof_O 	O 	0.7961	0.9846	0.9202	-0.437
Mof_H 	H 	0.8186	0.9381	0.9189	0.257
Mof_C 	C 	0.5266	0.0358	0.9673	-0.024
Mof_H 	H 	0.5464	0.0207	0.8809	0.047
Mof_H 	H 	0.4599	0.0765	0.9535	0.035
Mof_C 	C 	0.6478	0.0683	0.0507	-0.274
Mof_H 	H 	0.6293	0.0776	0.1397	0.104
Mof_H 	H 	0.6671	0.1189	0.0141	0.095
Mof_Zn	Zn	0.8487	0.66519	0.67769	1.228
Mof_Zn	Zn	0.05002	0.66724	0.38362	1.23
Mof_P 	P 	0.13	0.78625	0.174	0.456
Mof_P 	P 	0.7744	0.7267	0.4	0.454
Mof_O 	O 	0.8641	0.6597	0.3766	-0.492
Mof_O 	O 	0.0328	0.85	0.1968	-0.457
Mof_O 	O 	0.0904	0.7072	0.221	-0.456
Mof_O 	O 	0.0963	0.557	0.3823	-0.429
Mof_O 	O 	0.7682	0.7361	0.544	-0.451
Mof_O 	O 	0.1457	0.7817	0.0312	-0.457
Mof_O 	O 	0.8199	0.8034	0.3496	-0.45
Mof_O 	O 	0.2239	0.4389	0.3516	-0.441
Mof_C 	C 	0.5138	0.7661	0.3347	-0.032
Mof_H 	H 	0.4985	0.7629	0.426	0.039
Mof_H 	H 	0.545	0.8189	0.3207	0.04
Mof_C 	C 	0.6185	0.7078	0.3153	-0.285
Mof_H 	H 	0.6227	0.7051	0.221	0.111
Mof_H 	H 	0.5918	0.6562	0.3422	0.111
Mof_C 	C 	0.389	0.7534	0.2448	-0.034
Mof_H 	H 	0.3597	0.6999	0.2559	0.036
Mof_H 	H 	0.4035	0.7591	0.1536	0.04
Mof_C 	C 	0.2824	0.8097	0.2687	-0.275
Mof_H 	H 	0.2749	0.8088	0.3624	0.11
Mof_H 	H 	0.3066	0.8628	0.2468	0.122
Mof_P 	P 	0.2108	0.509	0.4366	0.492
Mof_O 	O 	0.2039	0.4846	0.5798	-0.441
Mof_H 	H 	0.1814	0.4381	0.5811	0.258
Mof_C 	C 	0.4734	0.5358	0.5327	-0.028
Mof_H 	H 	0.4536	0.5207	0.6191	0.047
Mof_H 	H 	0.5401	0.5765	0.5465	0.035
Mof_C 	C 	0.3522	0.5683	0.4493	-0.271
Mof_H 	H 	0.3707	0.5776	0.3603	0.104
Mof_H 	H 	0.3329	0.6189	0.4859	0.095
Mof_Zn	Zn	0.8487	0.83481	0.17769	1.227
Mof_Zn	Zn	0.05002	0.83276	0.88362	1.227
Mof_P 	P 	0.13	0.71375	0.674	0.455
Mof_P 	P 	0.7744	0.7733	0.9	0.455
Mof_O 	O 	0.8641	0.8403	0.8766	-0.49
Mof_O 	O 	0.0328	0.65	0.6968	-0.46
Mof_O 	O 	0.0904	0.7928	0.721	-0.459
Mof_O 	O 	0.0963	0.943	0.8823	-0.433
Mof_O 	O 	0.7682	0.7639	0.044	-0.454
Mof_O 	O 	0.1457	0.7183	0.5312	-0.46
Mof_O 	O 	0.8199	0.6966	0.8496	-0.449
Mof_O 	O 	0.2239	0.0611	0.8516	-0.439
Mof_C 	C 	0.5138	0.7339	0.8347	-0.031
Mof_H 	H 	0.4985	0.7371	0.926	0.038
Mof_H 	H 	0.545	0.6811	0.8207	0.04
Mof_C 	C 	0.6185	0.7922	0.8153	-0.285
Mof_H 	H 	0.6227	0.7949	0.721	0.111
Mof_H 	H 	0.5918	0.8438	0.8422	0.111
Mof_C 	C 	0.389	0.7466	0.7448	-0.035
Mof_H 	H 	0.3597	0.8001	0.7559	0.036
Mof_H 	H 	0.4035	0.7409	0.6536	0.04
Mof_C 	C 	0.2824	0.6903	0.7687	-0.275
Mof_H 	H 	0.2749	0.6912	0.8624	0.109
Mof_H 	H 	0.3066	0.6372	0.7468	0.121
Mof_P 	P 	0.2108	0.991	0.9366	0.485
Mof_O 	O 	0.2039	0.0154	0.0798	-0.437
Mof_H 	H 	0.1814	0.0619	0.0811	0.257
Mof_C 	C 	0.4734	0.9642	0.0327	-0.024
Mof_H 	H 	0.4536	0.9793	0.1191	0.047
Mof_H 	H 	0.5401	0.9235	0.0465	0.035
Mof_C 	C 	0.3522	0.9317	0.9493	-0.274
Mof_H 	H 	0.3707	0.9224	0.8603	0.104
Mof_H 	H 	0.3329	0.8811	0.9859	0.095
Mof_Zn	Zn	0.1513	0.33481	0.32231	1.228
Mof_Zn	Zn	0.94998	0.33276	0.61638	1.23
Mof_P 	P 	0.87	0.21375	0.826	0.456
Mof_P 	P 	0.2256	0.2733	0.6	0.454
Mof_O 	O 	0.1359	0.3403	0.6234	-0.492
Mof_O 	O 	0.9672	0.15	0.8032	-0.457
Mof_O 	O 	0.9096	0.2928	0.779	-0.456
Mof_O 	O 	0.9037	0.443	0.6177	-0.429
Mof_O 	O 	0.2318	0.2639	0.456	-0.451
Mof_O 	O 	0.8543	0.2183	0.9688	-0.457
Mof_O 	O 	0.1801	0.1966	0.6504	-0.45
Mof_O 	O 	0.7761	0.5611	0.6484	-0.441
Mof_C 	C 	0.4862	0.2339	0.6653	-0.032
Mof_H 	H 	0.5015	0.2371	0.574	0.039
Mof_H 	H 	0.455	0.1811	0.6793	0.04
Mof_C 	C 	0.3815	0.2922	0.6847	-0.285
Mof_H 	H 	0.3773	0.2949	0.779	0.111
Mof_H 	H 	0.4082	0.3438	0.6578	0.111
Mof_C 	C 	0.611	0.2466	0.7552	-0.034
Mof_H 	H 	0.6403	0.3001	0.7441	0.036
Mof_H 	H 	0.5965	0.2409	0.8464	0.04
Mof_C 	C 	0.7176	0.1903	0.7313	-0.275
Mof_H 	H 	0.7251	0.1912	0.6376	0.11
Mof_H 	H 	0.6934	0.1372	0.7532	0.122
Mof_P 	P 	0.7892	0.491	0.5634	0.492
Mof_O 	O 	0.7961	0.5154	0.4202	-0.441
Mof_H 	H 	0.8186	0.5619	0.4189	0.258
Mof_C 	C 	0.5266	0.4642	0.4673	-0.028
Mof_H 	H 	0.5464	0.4793	0.3809	0.047
Mof_H 	H 	0.4599	0.4235	0.4535	0.035
Mof_C 	C 	0.6478	0.4317	0.5507	-0.271
Mof_H 	H 	0.6293	0.4224	0.6397	0.104
Mof_H 	H 	0.6671	0.3811	0.5141	0.095
_end
