data_functionalizedCrystal
_audit_creation_method	'EQeq! by Chris Wilmer'
_symmetry_space_group_name_H-M	'P1'
_symmetry_Int_Tables_number	1
_symmetry_cell_setting	triclinic
loop_
_symmetry_equiv_pos_as_xyz
  x,y,z
_cell_length_a	11.8731
_cell_length_b	13.2334
_cell_length_c	18.4743
_cell_angle_alpha	90
_cell_angle_beta	90
_cell_angle_gamma	109.511
loop_
_atom_site_label
_atom_site_type_symbol
_atom_site_fract_x
_atom_site_fract_y
_atom_site_fract_z
_atom_site_charge
Mof_Mn	Mn	0.15165	0.78744	0.97968	0.841
Mof_Mn	Mn	0.34835	0.71256	0.47968	0.8
Mof_Mn	Mn	0.84835	0.21256	0.02032	0.767
Mof_Mn	Mn	0.65165	0.28744	0.52032	0.806
Mof_Mn	Mn	-2.07759e-17	0.5	-0	0.927
Mof_Mn	Mn	0.5	0	0.5	0.986
Mof_H 	H 	0.0695	0.133	0.8559	0.033
Mof_H 	H 	0.2474	0.448	0.8583	0.035
Mof_H 	H 	0.3802	0.4279	0.7749	0.067
Mof_H 	H 	0.4457	0.3106	0.6918	0.057
Mof_H 	H 	0.2768	0.9946	0.6945	0.078
Mof_H 	H 	0.1467	0.0132	0.7796	0.029
Mof_H 	H 	0.5938	0.5848	0.8755	0.058
Mof_H 	H 	0.4504	0.6644	0.87	0.053
Mof_H 	H 	0.3053	0.523	0.0555	0.077
Mof_H 	H 	0.4305	0.367	0.3559	0.046
Mof_H 	H 	0.2526	0.052	0.3583	0.029
Mof_H 	H 	0.1198	0.0721	0.2749	0.048
Mof_H 	H 	0.0543	0.1894	0.1918	0.034
Mof_H 	H 	0.2232	0.5054	0.1945	0.032
Mof_H 	H 	0.3533	0.4868	0.2796	0.058
Mof_H 	H 	0.9062	0.9152	0.3755	0.081
Mof_H 	H 	0.0496	0.8356	0.37	0.032
Mof_H 	H 	0.1947	0.977	0.5555	0.042
Mof_H 	H 	0.9305	0.867	0.1441	0.06
Mof_H 	H 	0.7526	0.552	0.1417	0.041
Mof_H 	H 	0.6198	0.5721	0.2251	0.058
Mof_H 	H 	0.5543	0.6894	0.3082	0.038
Mof_H 	H 	0.7232	0.0054	0.3055	-0.011
Mof_H 	H 	0.8533	0.9868	0.2204	0.09
Mof_H 	H 	0.4062	0.4152	0.1245	0.075
Mof_H 	H 	0.5496	0.3356	0.13	0.026
Mof_H 	H 	0.6947	0.477	0.9445	0.046
Mof_H 	H 	0.5695	0.633	0.6441	0.045
Mof_H 	H 	0.7474	0.948	0.6417	0.044
Mof_H 	H 	0.8802	0.9279	0.7251	0.078
Mof_H 	H 	0.9457	0.8106	0.8082	0.062
Mof_H 	H 	0.7768	0.4946	0.8055	0.037
Mof_H 	H 	0.6467	0.5132	0.7204	0.058
Mof_H 	H 	0.0938	0.0848	0.6245	0.052
Mof_H 	H 	0.9504	0.1644	0.63	0.046
Mof_H 	H 	0.8053	0.023	0.4445	0.078
Mof_C 	C 	0.1321	0.1917	0.83927	-0.017
Mof_C 	C 	0.1442	0.2916	0.86438	-0.101
Mof_C 	C 	0.2386	0.3802	0.84025	0.033
Mof_C 	C 	0.3178	0.3682	0.79056	-0.11
Mof_C 	C 	0.3846	0.2514	0.70933	-0.057
Mof_C 	C 	0.3728	0.1527	0.68313	-0.067
Mof_C 	C 	0.2832	0.0626	0.71104	-0.06
Mof_C 	C 	0.2057	0.0737	0.76189	-0.049
Mof_C 	C 	0.2135	0.176	0.78821	-0.01
Mof_C 	C 	0.3062	0.2664	0.76264	0.045
Mof_C 	C 	0.0572	0.3086	0.91844	0.365
Mof_C 	C 	0.4547	0.1424	0.62308	0.391
Mof_C 	C 	0.5382	0.5739	0.91268	-0.06
Mof_C 	C 	0.4517	0.6201	0.9089	-0.027
Mof_C 	C 	0.3637	0.6017	0.96336	-0.009
Mof_C 	C 	0.3649	0.5369	0.02053	-0.117
Mof_C 	C 	0.4559	0.4905	0.02732	0.033
Mof_C 	C 	0.2765	0.6616	0.96118	0.308
Mof_C 	C 	0.3679	0.3083	0.33927	-0.029
Mof_C 	C 	0.3558	0.2084	0.36438	-0.106
Mof_C 	C 	0.2614	0.1198	0.34025	0.022
Mof_C 	C 	0.1822	0.1318	0.29056	-0.098
Mof_C 	C 	0.1154	0.2486	0.20933	-0.035
Mof_C 	C 	0.1272	0.3473	0.18313	-0.098
Mof_C 	C 	0.2168	0.4374	0.21104	0.015
Mof_C 	C 	0.2943	0.4263	0.26189	-0.099
Mof_C 	C 	0.2865	0.324	0.28821	0.018
Mof_C 	C 	0.1938	0.2336	0.26264	0.017
Mof_C 	C 	0.4428	0.1914	0.41844	0.406
Mof_C 	C 	0.0453	0.3576	0.12308	0.362
Mof_C 	C 	0.9618	0.9261	0.41268	-0.108
Mof_C 	C 	0.0483	0.8799	0.4089	0.013
Mof_C 	C 	0.1363	0.8983	0.46336	-0.106
Mof_C 	C 	0.1351	0.9631	0.52053	0.032
Mof_C 	C 	0.0441	0.0095	0.52732	-0.086
Mof_C 	C 	0.2235	0.8384	0.46118	0.342
Mof_C 	C 	0.8679	0.8083	0.16073	-0.041
Mof_C 	C 	0.8558	0.7084	0.13562	-0.099
Mof_C 	C 	0.7614	0.6198	0.15975	0.017
Mof_C 	C 	0.6822	0.6318	0.20944	-0.08
Mof_C 	C 	0.6154	0.7486	0.29067	-0.001
Mof_C 	C 	0.6272	0.8473	0.31687	-0.137
Mof_C 	C 	0.7168	0.9374	0.28896	0.102
Mof_C 	C 	0.7943	0.9263	0.23811	-0.151
Mof_C 	C 	0.7865	0.824	0.21179	0.051
Mof_C 	C 	0.6938	0.7336	0.23736	0.001
Mof_C 	C 	0.9428	0.6914	0.08156	0.435
Mof_C 	C 	0.5453	0.8576	0.37692	0.417
Mof_C 	C 	0.4618	0.4261	0.08732	-0.123
Mof_C 	C 	0.5483	0.3799	0.0911	0.039
Mof_C 	C 	0.6363	0.3983	0.03664	-0.137
Mof_C 	C 	0.6351	0.4631	0.97947	0.027
Mof_C 	C 	0.5441	0.5095	0.97268	0.024
Mof_C 	C 	0.7235	0.3384	0.03882	0.346
Mof_C 	C 	0.6321	0.6917	0.66073	-0.025
Mof_C 	C 	0.6442	0.7916	0.63562	-0.102
Mof_C 	C 	0.7386	0.8802	0.65975	0.033
Mof_C 	C 	0.8178	0.8682	0.70944	-0.097
Mof_C 	C 	0.8846	0.7514	0.79067	-0.027
Mof_C 	C 	0.8728	0.6527	0.81687	-0.101
Mof_C 	C 	0.7832	0.5626	0.78896	0.023
Mof_C 	C 	0.7057	0.5737	0.73811	-0.096
Mof_C 	C 	0.7135	0.676	0.71179	0.019
Mof_C 	C 	0.8062	0.7664	0.73736	0.032
Mof_C 	C 	0.5572	0.8086	0.58156	0.405
Mof_C 	C 	0.9547	0.6424	0.87692	0.437
Mof_C 	C 	0.0382	0.0739	0.58732	-0.079
Mof_C 	C 	0.9517	0.1201	0.5911	0.006
Mof_C 	C 	0.8637	0.1017	0.53664	-0.047
Mof_C 	C 	0.8649	0.0369	0.47947	-0.117
Mof_C 	C 	0.9559	0.9905	0.47268	0.14
Mof_C 	C 	0.7765	0.1616	0.53882	0.319
Mof_O 	O 	0.07017	0.40203	0.93552	-0.372
Mof_O 	O 	0.97789	0.22671	0.94122	-0.357
Mof_O 	O 	0.43749	0.05191	0.59772	-0.391
Mof_O 	O 	0.53265	0.22675	0.60455	-0.404
Mof_O 	O 	0.18233	0.62877	0.99903	-0.382
Mof_O 	O 	0.30281	0.74639	0.92602	-0.339
Mof_O 	O 	0.42983	0.09797	0.43552	-0.403
Mof_O 	O 	0.52211	0.27329	0.44122	-0.41
Mof_O 	O 	0.06251	0.44809	0.09772	-0.383
Mof_O 	O 	0.96735	0.27325	0.10455	-0.374
Mof_O 	O 	0.31767	0.87123	0.49903	-0.402
Mof_O 	O 	0.19719	0.75361	0.42602	-0.355
Mof_O 	O 	0.92983	0.59797	0.06448	-0.394
Mof_O 	O 	0.02211	0.77329	0.05878	-0.456
Mof_O 	O 	0.56251	0.94809	0.40228	-0.374
Mof_O 	O 	0.46735	0.77325	0.39545	-0.408
Mof_O 	O 	0.81767	0.37123	0.00097	-0.408
Mof_O 	O 	0.69719	0.25361	0.07398	-0.357
Mof_O 	O 	0.57017	0.90203	0.56448	-0.385
Mof_O 	O 	0.47789	0.72671	0.55878	-0.409
Mof_O 	O 	0.93749	0.55191	0.90228	-0.363
Mof_O 	O 	0.03265	0.72675	0.89545	-0.432
Mof_O 	O 	0.68233	0.12877	0.50097	-0.405
Mof_O 	O 	0.80281	0.24639	0.57398	-0.342
_end
