data_functionalizedCrystal
_audit_creation_method	'EQeq! by Chris Wilmer'
_symmetry_space_group_name_H-M	'P1'
_symmetry_Int_Tables_number	1
_symmetry_cell_setting	triclinic
loop_
_symmetry_equiv_pos_as_xyz
  x,y,z
_cell_length_a	9.668
_cell_length_b	9.6572
_cell_length_c	10.623
_cell_angle_alpha	74.161
_cell_angle_beta	74.675
_cell_angle_gamma	88.974
loop_
_atom_site_label
_atom_site_type_symbol
_atom_site_fract_x
_atom_site_fract_y
_atom_site_fract_z
_atom_site_charge
Mof_P 	P 	0.5027	0.9688	0.7945	1.814
Mof_P 	P 	0.2757	0.4759	0.9028	1.356
Mof_P 	P 	0.0342	0.7996	0.6497	1.763
Mof_P 	P 	0.1872	0.7679	0.1401	1.596
Mof_Al	Al	0.2314	0.7865	0.839	6.24
Mof_Al	Al	0.4848	0.2247	0.9223	7.25
Mof_Al	Al	0.1782	0.9514	0.3421	7.063
Mof_Al	Al	0.9772	0.5005	0.8671	5.496
Mof_O 	O 	0.1671	0.4468	0.8305	-1.477
Mof_O 	O 	0.4037	0.383	0.8771	-2.069
Mof_O 	O 	0.1993	0.8431	0.9905	-1.843
Mof_O 	O 	0.4474	0.0932	0.8526	-2.315
Mof_O 	O 	0.3881	0.9131	0.7456	-1.636
Mof_O 	O 	0.3373	0.6341	0.8384	-1.71
Mof_O 	O 	0.9926	0.6407	0.7073	-1.515
Mof_O 	O 	0.1055	0.8309	0.4979	-2.135
Mof_O 	O 	0.0484	0.6398	0.9474	-2.687
Mof_O 	O 	0.2108	0.4501	0.0555	-1.479
Mof_O 	O 	0.1355	0.8519	0.7173	-1.936
Mof_O 	O 	0.3351	0.717	0.1538	-2.144
Mof_O 	O 	0.1457	0.8822	0.2169	-2.119
Mof_O 	O 	0.6385	0.0198	0.678	-2.077
Mof_O 	O 	0.546	0.8482	0.9037	-2.279
Mof_O 	O 	0.0798	0.6409	0.1979	-1.5
Mof_O 	O 	0.8969	0.8824	0.6689	-2.098
Mof_H 	H 	0.9731	0.6968	0.968	0.441
Mof_P 	P 	0.4973	0.0312	0.2055	1.814
Mof_P 	P 	0.7243	0.5241	0.0972	1.356
Mof_P 	P 	0.9658	0.2004	0.3503	1.763
Mof_P 	P 	0.8128	0.2321	0.8599	1.596
Mof_Al	Al	0.7686	0.2135	0.161	6.24
Mof_Al	Al	0.5152	0.7753	0.0777	7.25
Mof_Al	Al	0.8218	0.0486	0.6579	7.063
Mof_Al	Al	0.0228	0.4995	0.1329	5.496
Mof_O 	O 	0.8329	0.5532	0.1695	-1.477
Mof_O 	O 	0.5963	0.617	0.1229	-2.069
Mof_O 	O 	0.8007	0.1569	0.0095	-1.843
Mof_O 	O 	0.5526	0.9068	0.1474	-2.315
Mof_O 	O 	0.6119	0.0869	0.2544	-1.636
Mof_O 	O 	0.6627	0.3659	0.1616	-1.71
Mof_O 	O 	0.0074	0.3593	0.2927	-1.515
Mof_O 	O 	0.8945	0.1691	0.5021	-2.135
Mof_O 	O 	0.9516	0.3602	0.0526	-2.687
Mof_O 	O 	0.7892	0.5499	0.9445	-1.479
Mof_O 	O 	0.8645	0.1481	0.2827	-1.936
Mof_O 	O 	0.6649	0.283	0.8462	-2.144
Mof_O 	O 	0.8543	0.1178	0.7831	-2.119
Mof_O 	O 	0.3615	0.9802	0.322	-2.077
Mof_O 	O 	0.454	0.1518	0.0963	-2.279
Mof_O 	O 	0.9202	0.3591	0.8021	-1.5
Mof_O 	O 	0.1031	0.1176	0.3311	-2.098
Mof_H 	H 	0.0269	0.3032	0.032	0.441
_end
