# CIF file generated by openbabel 3.1.0, see https://openbabel.org
data_I
_chemical_name_common 'image0'
_cell_length_a 21.87
_cell_length_b 7.652
_cell_length_c 19.624
_cell_angle_alpha 90
_cell_angle_beta 90
_cell_angle_gamma 90
_space_group_name_H-M_alt 'P 1'
_space_group_name_Hall 'P 1'
loop_
    _symmetry_equiv_pos_as_xyz
    x,y,z
loop_
    _atom_site_label
    _atom_site_type_symbol
    _atom_site_fract_x
    _atom_site_fract_y
    _atom_site_fract_z
    _atom_site_occupancy
    Eu1      Eu       0.78070    0.92477    0.94608    1.000
    O1       O        0.75128    0.17020    0.01940    1.000
    O2       O        0.68040    0.33920    0.06130    1.000
    O3       O        0.68135    0.49890    0.32760    1.000
    O4       O        0.73859    0.30680    0.37827    1.000
    O5       O        0.66870    0.94650    0.94570    1.000
    O6       O        0.63968    0.22190    0.92698    1.000
    C1       C        0.70920    0.20080    0.06360    1.000
    C2       C        0.69510    0.06330    0.11520    1.000
    H1       H        0.73290    0.03210    0.13810    1.000
    H2       H        0.68080    0.96020    0.09130    1.000
    C3       C        0.64870    0.10990    0.16850    1.000
    H3       H        0.64340    0.00650    0.19650    1.000
    H4       H        0.61040    0.12780    0.14470    1.000
    C4       C        0.65560    0.26070    0.21670    1.000
    H5       H        0.61580    0.29420    0.23410    1.000
    H6       H        0.67270    0.36010    0.19270    1.000
    C5       C        0.69700    0.21210    0.27560    1.000
    H7       H        0.68170    0.10540    0.29610    1.000
    H8       H        0.73750    0.18770    0.25780    1.000
    C6       C        0.70240    0.35000    0.33020    1.000
    H9       H        0.63000    0.00720    0.18850    1.000
    H10      H        0.61730    0.18710    0.15090    1.000
    C7       C        0.69410    0.20900    0.22160    1.000
    H11      H        0.73170    0.14330    0.22670    1.000
    H12      H        0.70420    0.32440    0.20450    1.000
    C8       C        0.66250    0.22500    0.28930    1.000
    H13      H        0.65990    0.11160    0.31170    1.000
    H14      H        0.62150    0.27100    0.28380    1.000
    C9       C        0.62890    0.06170    0.93370    1.000
    C10      C        0.56290    0.00540    0.93020    1.000
    H15      H        0.56050    0.88440    0.91570    1.000
    H16      H        0.54130    0.07650    0.89720    1.000
    C11      C        0.53350    0.02540    0.99960    1.000
    H17      H        0.53730    0.14610    0.01420    1.000
    H18      H        0.55540    0.95340    0.03220    1.000
    Eu2      Eu       0.71930    0.57523    0.44608    1.000
    O7       O        0.74872    0.32980    0.51940    1.000
    O8       O        0.81960    0.16080    0.56130    1.000
    O9       O        0.81865    0.00110    0.82760    1.000
    O10      O        0.76141    0.19320    0.87827    1.000
    O11      O        0.83130    0.55350    0.44570    1.000
    O12      O        0.86032    0.27810    0.42698    1.000
    C12      C        0.79080    0.29920    0.56360    1.000
    C13      C        0.80490    0.43670    0.61520    1.000
    H19      H        0.76710    0.46790    0.63810    1.000
    H20      H        0.81920    0.53980    0.59130    1.000
    C14      C        0.85130    0.39010    0.66850    1.000
    H21      H        0.85660    0.49350    0.69650    1.000
    H22      H        0.88960    0.37220    0.64470    1.000
    C15      C        0.84440    0.23930    0.71670    1.000
    H23      H        0.88420    0.20580    0.73410    1.000
    H24      H        0.82730    0.13990    0.69270    1.000
    C16      C        0.80300    0.28790    0.77560    1.000
    H25      H        0.81830    0.39460    0.79610    1.000
    H26      H        0.76250    0.31230    0.75780    1.000
    C17      C        0.79760    0.15000    0.83020    1.000
    H27      H        0.87000    0.49280    0.68850    1.000
    H28      H        0.88270    0.31290    0.65090    1.000
    C18      C        0.80590    0.29100    0.72160    1.000
    H29      H        0.76830    0.35670    0.72670    1.000
    H30      H        0.79580    0.17560    0.70450    1.000
    C19      C        0.83750    0.27500    0.78930    1.000
    H31      H        0.84010    0.38840    0.81170    1.000
    H32      H        0.87850    0.22900    0.78380    1.000
    C20      C        0.87110    0.43830    0.43370    1.000
    C21      C        0.93710    0.49460    0.43020    1.000
    H33      H        0.93950    0.61560    0.41570    1.000
    H34      H        0.95870    0.42350    0.39720    1.000
    C22      C        0.96650    0.47460    0.49960    1.000
    H35      H        0.96270    0.35390    0.51420    1.000
    H36      H        0.94460    0.54660    0.53220    1.000
    Eu3      Eu       0.21930    0.92477    0.55392    1.000
    O13      O        0.24872    0.17020    0.48060    1.000
    O14      O        0.31960    0.33920    0.43870    1.000
    O15      O        0.31865    0.49890    0.17240    1.000
    O16      O        0.26141    0.30680    0.12173    1.000
    O17      O        0.33130    0.94650    0.55430    1.000
    O18      O        0.36032    0.22190    0.57302    1.000
    C23      C        0.29080    0.20080    0.43640    1.000
    C24      C        0.30490    0.06330    0.38480    1.000
    H37      H        0.26710    0.03210    0.36190    1.000
    H38      H        0.31920    0.96020    0.40870    1.000
    C25      C        0.35130    0.10990    0.33150    1.000
    H39      H        0.35660    0.00650    0.30350    1.000
    H40      H        0.38960    0.12780    0.35530    1.000
    C26      C        0.34440    0.26070    0.28330    1.000
    H41      H        0.38420    0.29420    0.26590    1.000
    H42      H        0.32730    0.36010    0.30730    1.000
    C27      C        0.30300    0.21210    0.22440    1.000
    H43      H        0.31830    0.10540    0.20390    1.000
    H44      H        0.26250    0.18770    0.24220    1.000
    C28      C        0.29760    0.35000    0.16980    1.000
    H45      H        0.37000    0.00720    0.31150    1.000
    H46      H        0.38270    0.18710    0.34910    1.000
    C29      C        0.30590    0.20900    0.27840    1.000
    H47      H        0.26830    0.14330    0.27330    1.000
    H48      H        0.29580    0.32440    0.29550    1.000
    C30      C        0.33750    0.22500    0.21070    1.000
    H49      H        0.34010    0.11160    0.18830    1.000
    H50      H        0.37850    0.27100    0.21620    1.000
    C31      C        0.37110    0.06170    0.56630    1.000
    C32      C        0.43710    0.00540    0.56980    1.000
    H51      H        0.43950    0.88440    0.58430    1.000
    H52      H        0.45870    0.07650    0.60280    1.000
    C33      C        0.46650    0.02540    0.50040    1.000
    H53      H        0.46270    0.14610    0.48580    1.000
    H54      H        0.44460    0.95340    0.46780    1.000
    Eu4      Eu       0.28070    0.57523    0.05392    1.000
    O19      O        0.25128    0.32980    0.98060    1.000
    O20      O        0.18040    0.16080    0.93870    1.000
    O21      O        0.18135    0.00110    0.67240    1.000
    O22      O        0.23859    0.19320    0.62173    1.000
    O23      O        0.16870    0.55350    0.05430    1.000
    O24      O        0.13968    0.27810    0.07302    1.000
    C34      C        0.20920    0.29920    0.93640    1.000
    C35      C        0.19510    0.43670    0.88480    1.000
    H55      H        0.23290    0.46790    0.86190    1.000
    H56      H        0.18080    0.53980    0.90870    1.000
    C36      C        0.14870    0.39010    0.83150    1.000
    H57      H        0.14340    0.49350    0.80350    1.000
    H58      H        0.11040    0.37220    0.85530    1.000
    C37      C        0.15560    0.23930    0.78330    1.000
    H59      H        0.11580    0.20580    0.76590    1.000
    H60      H        0.17270    0.13990    0.80730    1.000
    C38      C        0.19700    0.28790    0.72440    1.000
    H61      H        0.18170    0.39460    0.70390    1.000
    H62      H        0.23750    0.31230    0.74220    1.000
    C39      C        0.20240    0.15000    0.66980    1.000
    H63      H        0.13000    0.49280    0.81150    1.000
    H64      H        0.11730    0.31290    0.84910    1.000
    C40      C        0.19410    0.29100    0.77840    1.000
    H65      H        0.23170    0.35670    0.77330    1.000
    H66      H        0.20420    0.17560    0.79550    1.000
    C41      C        0.16250    0.27500    0.71070    1.000
    H67      H        0.15990    0.38840    0.68830    1.000
    H68      H        0.12150    0.22900    0.71620    1.000
    C42      C        0.12890    0.43830    0.06630    1.000
    C43      C        0.06290    0.49460    0.06980    1.000
    H69      H        0.06050    0.61560    0.08430    1.000
    H70      H        0.04130    0.42350    0.10280    1.000
    C44      C        0.03350    0.47460    0.00040    1.000
    H71      H        0.03730    0.35390    0.98580    1.000
    H72      H        0.05540    0.54660    0.96780    1.000
    Eu5      Eu       0.21930    0.07523    0.05392    1.000
    O25      O        0.24872    0.82980    0.98060    1.000
    O26      O        0.31960    0.66080    0.93870    1.000
    O27      O        0.31865    0.50110    0.67240    1.000
    O28      O        0.26141    0.69320    0.62173    1.000
    O29      O        0.33130    0.05350    0.05430    1.000
    O30      O        0.36032    0.77810    0.07302    1.000
    C45      C        0.29080    0.79920    0.93640    1.000
    C46      C        0.30490    0.93670    0.88480    1.000
    H73      H        0.26710    0.96790    0.86190    1.000
    H74      H        0.31920    0.03980    0.90870    1.000
    C47      C        0.35130    0.89010    0.83150    1.000
    H75      H        0.35660    0.99350    0.80350    1.000
    H76      H        0.38960    0.87220    0.85530    1.000
    C48      C        0.34440    0.73930    0.78330    1.000
    H77      H        0.38420    0.70580    0.76590    1.000
    H78      H        0.32730    0.63990    0.80730    1.000
    C49      C        0.30300    0.78790    0.72440    1.000
    H79      H        0.31830    0.89460    0.70390    1.000
    H80      H        0.26250    0.81230    0.74220    1.000
    C50      C        0.29760    0.65000    0.66980    1.000
    H81      H        0.37000    0.99280    0.81150    1.000
    H82      H        0.38270    0.81290    0.84910    1.000
    C51      C        0.30590    0.79100    0.77840    1.000
    H83      H        0.26830    0.85670    0.77330    1.000
    H84      H        0.29580    0.67560    0.79550    1.000
    C52      C        0.33750    0.77500    0.71070    1.000
    H85      H        0.34010    0.88840    0.68830    1.000
    H86      H        0.37850    0.72900    0.71620    1.000
    C53      C        0.37110    0.93830    0.06630    1.000
    C54      C        0.43710    0.99460    0.06980    1.000
    H87      H        0.43950    0.11560    0.08430    1.000
    H88      H        0.45870    0.92350    0.10280    1.000
    C55      C        0.46650    0.97460    0.00040    1.000
    H89      H        0.46270    0.85390    0.98580    1.000
    H90      H        0.44460    0.04660    0.96780    1.000
    Eu6      Eu       0.28070    0.42477    0.55392    1.000
    O31      O        0.25128    0.67020    0.48060    1.000
    O32      O        0.18040    0.83920    0.43870    1.000
    O33      O        0.18135    0.99890    0.17240    1.000
    O34      O        0.23859    0.80680    0.12173    1.000
    O35      O        0.16870    0.44650    0.55430    1.000
    O36      O        0.13968    0.72190    0.57302    1.000
    C56      C        0.20920    0.70080    0.43640    1.000
    C57      C        0.19510    0.56330    0.38480    1.000
    H91      H        0.23290    0.53210    0.36190    1.000
    H92      H        0.18080    0.46020    0.40870    1.000
    C58      C        0.14870    0.60990    0.33150    1.000
    H93      H        0.14340    0.50650    0.30350    1.000
    H94      H        0.11040    0.62780    0.35530    1.000
    C59      C        0.15560    0.76070    0.28330    1.000
    H95      H        0.11580    0.79420    0.26590    1.000
    H96      H        0.17270    0.86010    0.30730    1.000
    C60      C        0.19700    0.71210    0.22440    1.000
    H97      H        0.18170    0.60540    0.20390    1.000
    H98      H        0.23750    0.68770    0.24220    1.000
    C61      C        0.20240    0.85000    0.16980    1.000
    H99      H        0.13000    0.50720    0.31150    1.000
    H100     H        0.11730    0.68710    0.34910    1.000
    C62      C        0.19410    0.70900    0.27840    1.000
    H101     H        0.23170    0.64330    0.27330    1.000
    H102     H        0.20420    0.82440    0.29550    1.000
    C63      C        0.16250    0.72500    0.21070    1.000
    H103     H        0.15990    0.61160    0.18830    1.000
    H104     H        0.12150    0.77100    0.21620    1.000
    C64      C        0.12890    0.56170    0.56630    1.000
    C65      C        0.06290    0.50540    0.56980    1.000
    H105     H        0.06050    0.38440    0.58430    1.000
    H106     H        0.04130    0.57650    0.60280    1.000
    C66      C        0.03350    0.52540    0.50040    1.000
    H107     H        0.03730    0.64610    0.48580    1.000
    H108     H        0.05540    0.45340    0.46780    1.000
    Eu7      Eu       0.78070    0.07523    0.44608    1.000
    O37      O        0.75128    0.82980    0.51940    1.000
    O38      O        0.68040    0.66080    0.56130    1.000
    O39      O        0.68135    0.50110    0.82760    1.000
    O40      O        0.73859    0.69320    0.87827    1.000
    O41      O        0.66870    0.05350    0.44570    1.000
    O42      O        0.63968    0.77810    0.42698    1.000
    C67      C        0.70920    0.79920    0.56360    1.000
    C68      C        0.69510    0.93670    0.61520    1.000
    H109     H        0.73290    0.96790    0.63810    1.000
    H110     H        0.68080    0.03980    0.59130    1.000
    C69      C        0.64870    0.89010    0.66850    1.000
    H111     H        0.64340    0.99350    0.69650    1.000
    H112     H        0.61040    0.87220    0.64470    1.000
    C70      C        0.65560    0.73930    0.71670    1.000
    H113     H        0.61580    0.70580    0.73410    1.000
    H114     H        0.67270    0.63990    0.69270    1.000
    C71      C        0.69700    0.78790    0.77560    1.000
    H115     H        0.68170    0.89460    0.79610    1.000
    H116     H        0.73750    0.81230    0.75780    1.000
    C72      C        0.70240    0.65000    0.83020    1.000
    H117     H        0.63000    0.99280    0.68850    1.000
    H118     H        0.61730    0.81290    0.65090    1.000
    C73      C        0.69410    0.79100    0.72160    1.000
    H119     H        0.73170    0.85670    0.72670    1.000
    H120     H        0.70420    0.67560    0.70450    1.000
    C74      C        0.66250    0.77500    0.78930    1.000
    H121     H        0.65990    0.88840    0.81170    1.000
    H122     H        0.62150    0.72900    0.78380    1.000
    C75      C        0.62890    0.93830    0.43370    1.000
    C76      C        0.56290    0.99460    0.43020    1.000
    H123     H        0.56050    0.11560    0.41570    1.000
    H124     H        0.54130    0.92350    0.39720    1.000
    C77      C        0.53350    0.97460    0.49960    1.000
    H125     H        0.53730    0.85390    0.51420    1.000
    H126     H        0.55540    0.04660    0.53220    1.000
    Eu8      Eu       0.71930    0.42477    0.94608    1.000
    O43      O        0.74872    0.67020    0.01940    1.000
    O44      O        0.81960    0.83920    0.06130    1.000
    O45      O        0.81865    0.99890    0.32760    1.000
    O46      O        0.76141    0.80680    0.37827    1.000
    O47      O        0.83130    0.44650    0.94570    1.000
    O48      O        0.86032    0.72190    0.92698    1.000
    C78      C        0.79080    0.70080    0.06360    1.000
    C79      C        0.80490    0.56330    0.11520    1.000
    H127     H        0.76710    0.53210    0.13810    1.000
    H128     H        0.81920    0.46020    0.09130    1.000
    C80      C        0.85130    0.60990    0.16850    1.000
    H129     H        0.85660    0.50650    0.19650    1.000
    H130     H        0.88960    0.62780    0.14470    1.000
    C81      C        0.84440    0.76070    0.21670    1.000
    H131     H        0.88420    0.79420    0.23410    1.000
    H132     H        0.82730    0.86010    0.19270    1.000
    C82      C        0.80300    0.71210    0.27560    1.000
    H133     H        0.81830    0.60540    0.29610    1.000
    H134     H        0.76250    0.68770    0.25780    1.000
    C83      C        0.79760    0.85000    0.33020    1.000
    H135     H        0.87000    0.50720    0.18850    1.000
    H136     H        0.88270    0.68710    0.15090    1.000
    C84      C        0.80590    0.70900    0.22160    1.000
    H137     H        0.76830    0.64330    0.22670    1.000
    H138     H        0.79580    0.82440    0.20450    1.000
    C85      C        0.83750    0.72500    0.28930    1.000
    H139     H        0.84010    0.61160    0.31170    1.000
    H140     H        0.87850    0.77100    0.28380    1.000
    C86      C        0.87110    0.56170    0.93370    1.000
    C87      C        0.93710    0.50540    0.93020    1.000
    H141     H        0.93950    0.38440    0.91570    1.000
    H142     H        0.95870    0.57650    0.89720    1.000
    C88      C        0.96650    0.52540    0.99960    1.000
    H143     H        0.96270    0.64610    0.01420    1.000
    H144     H        0.94460    0.45340    0.03220    1.000
