data_functionalizedCrystal
_audit_creation_method	'EQeq! by Chris Wilmer'
_symmetry_space_group_name_H-M	'P1'
_symmetry_Int_Tables_number	1
_symmetry_cell_setting	triclinic
loop_
_symmetry_equiv_pos_as_xyz
  x,y,z
_cell_length_a	15.3162
_cell_length_b	12.6184
_cell_length_c	15.5659
_cell_angle_alpha	90
_cell_angle_beta	96.165
_cell_angle_gamma	90
loop_
_atom_site_label
_atom_site_type_symbol
_atom_site_fract_x
_atom_site_fract_y
_atom_site_fract_z
_atom_site_charge
Mof_Cd	Cd	0.682	0.82646	0.68393	0.366
Mof_Cd	Cd	0.39064	0.83011	0.73082	0.44
Mof_C 	C 	0.9623	0.7603	0.7454	0.095
Mof_C 	C 	0.0558	0.7778	0.7362	0.071
Mof_C 	C 	0.0867	0.873	0.7111	-0.137
Mof_H 	H 	0.0482	0.9287	0.6966	0.095
Mof_C 	C 	0.1755	0.8861	0.7072	0.089
Mof_H 	H 	0.1951	0.952	0.6907	0.022
Mof_C 	C 	0.2034	0.7177	0.7452	0.083
Mof_H 	H 	0.243	0.6619	0.7548	0.021
Mof_C 	C 	0.1164	0.6977	0.7525	-0.136
Mof_H 	H 	0.0986	0.6307	0.7683	0.09
Mof_C 	C 	0.6309	0.5062	0.5969	0.097
Mof_C 	C 	0.6281	0.4315	0.524	0.06
Mof_C 	C 	0.589	0.4625	0.4434	-0.129
Mof_H 	H 	0.5643	0.5296	0.4357	0.097
Mof_C 	C 	0.5871	0.3933	0.3752	0.083
Mof_H 	H 	0.5605	0.4152	0.3217	0.03
Mof_C 	C 	0.6612	0.2667	0.4597	0.073
Mof_H 	H 	0.6865	0.1997	0.4653	0.021
Mof_C 	C 	0.6659	0.3316	0.5312	-0.124
Mof_H 	H 	0.6942	0.3087	0.5838	0.086
Mof_C 	C 	0.4866	0.9478	0.6145	0.292
Mof_C 	C 	0.5193	0.0199	0.54545	-0.042
Mof_H 	H 	0.5835	0.0163	0.5497	0.06
Mof_C 	C 	0.4915	0.1351	0.5595	-0.326
Mof_H 	H 	0.5013	0.1758	0.5086	0.142
Mof_H 	H 	0.4289	0.1361	0.5645	0.148
Mof_C 	C 	0.5383	0.1898	0.6379	0.376
Mof_N 	N 	0.8249	0.7765	0.7339	-0.072
Mof_N 	N 	0.8453	0.6941	0.7833	-0.042
Mof_N 	N 	0.9321	0.6819	0.7911	-0.086
Mof_N 	N 	0.8976	0.821	0.7093	-0.092
Mof_N 	N 	0.2345	0.811	0.7254	-0.153
Mof_N 	N 	0.6387	0.6509	0.6653	-0.067
Mof_N 	N 	0.6347	0.5754	0.72243	-0.042
Mof_N 	N 	0.6299	0.482	0.68084	-0.104
Mof_N 	N 	0.6358	0.6099	0.58529	-0.092
Mof_N 	N 	0.6217	0.296	0.38211	-0.145
Mof_O 	O 	0.53746	0.8866	0.65864	-0.29
Mof_O 	O 	0.40567	0.95065	0.62298	-0.271
Mof_O 	O 	0.60672	0.1531	0.67688	-0.291
Mof_O 	O 	0.50779	0.2777	0.66004	-0.297
Mof_Cd	Cd	0.318	0.32646	0.81607	0.366
Mof_Cd	Cd	0.60936	0.33011	0.76918	0.44
Mof_C 	C 	0.0377	0.2603	0.7546	0.095
Mof_C 	C 	0.9442	0.2778	0.7638	0.071
Mof_C 	C 	0.9133	0.373	0.7889	-0.137
Mof_H 	H 	0.9518	0.4287	0.8034	0.095
Mof_C 	C 	0.8245	0.3861	0.7928	0.089
Mof_H 	H 	0.8049	0.452	0.8093	0.022
Mof_C 	C 	0.7966	0.2177	0.7548	0.083
Mof_H 	H 	0.757	0.1619	0.7452	0.021
Mof_C 	C 	0.8836	0.1977	0.7475	-0.136
Mof_H 	H 	0.9014	0.1307	0.7317	0.09
Mof_C 	C 	0.3691	0.0062	0.9031	0.098
Mof_C 	C 	0.3719	0.9315	0.976	0.057
Mof_C 	C 	0.411	0.9625	0.0566	-0.126
Mof_H 	H 	0.4357	0.0296	0.0643	0.096
Mof_C 	C 	0.4129	0.8933	0.1248	0.082
Mof_H 	H 	0.4395	0.9152	0.1783	0.031
Mof_C 	C 	0.3388	0.7667	0.0403	0.073
Mof_H 	H 	0.3135	0.6997	0.0347	0.021
Mof_C 	C 	0.3341	0.8316	0.9688	-0.124
Mof_H 	H 	0.3058	0.8087	0.9162	0.086
Mof_C 	C 	0.5134	0.4478	0.8855	0.292
Mof_C 	C 	0.4807	0.5199	0.95455	-0.042
Mof_H 	H 	0.4165	0.5163	0.9503	0.061
Mof_C 	C 	0.5085	0.6351	0.9405	-0.326
Mof_H 	H 	0.4987	0.6758	0.9914	0.142
Mof_H 	H 	0.5711	0.6361	0.9355	0.148
Mof_C 	C 	0.4617	0.6898	0.8621	0.376
Mof_N 	N 	0.1751	0.2765	0.7661	-0.072
Mof_N 	N 	0.1547	0.1941	0.7167	-0.042
Mof_N 	N 	0.0679	0.1819	0.7089	-0.086
Mof_N 	N 	0.1024	0.321	0.7907	-0.092
Mof_N 	N 	0.7655	0.311	0.7746	-0.153
Mof_N 	N 	0.3613	0.1509	0.8347	-0.067
Mof_N 	N 	0.3653	0.0754	0.77757	-0.042
Mof_N 	N 	0.3701	0.982	0.81916	-0.105
Mof_N 	N 	0.3642	0.1099	0.91471	-0.092
Mof_N 	N 	0.3783	0.796	0.11789	-0.144
Mof_O 	O 	0.46254	0.3866	0.84136	-0.289
Mof_O 	O 	0.59433	0.45065	0.87702	-0.271
Mof_O 	O 	0.39328	0.6531	0.82312	-0.291
Mof_O 	O 	0.49221	0.7777	0.83996	-0.297
Mof_Cd	Cd	0.318	0.17354	0.31607	0.366
Mof_Cd	Cd	0.60936	0.16989	0.26918	0.44
Mof_C 	C 	0.0377	0.2397	0.2546	0.095
Mof_C 	C 	0.9442	0.2222	0.2638	0.071
Mof_C 	C 	0.9133	0.127	0.2889	-0.137
Mof_H 	H 	0.9518	0.0713	0.3034	0.095
Mof_C 	C 	0.8245	0.1139	0.2928	0.089
Mof_H 	H 	0.8049	0.048	0.3093	0.022
Mof_C 	C 	0.7966	0.2823	0.2548	0.083
Mof_H 	H 	0.757	0.3381	0.2452	0.021
Mof_C 	C 	0.8836	0.3023	0.2475	-0.136
Mof_H 	H 	0.9014	0.3693	0.2317	0.09
Mof_C 	C 	0.3691	0.4938	0.4031	0.097
Mof_C 	C 	0.3719	0.5685	0.476	0.06
Mof_C 	C 	0.411	0.5375	0.5566	-0.129
Mof_H 	H 	0.4357	0.4704	0.5643	0.097
Mof_C 	C 	0.4129	0.6067	0.6248	0.083
Mof_H 	H 	0.4395	0.5848	0.6783	0.03
Mof_C 	C 	0.3388	0.7333	0.5403	0.073
Mof_H 	H 	0.3135	0.8003	0.5347	0.021
Mof_C 	C 	0.3341	0.6684	0.4688	-0.124
Mof_H 	H 	0.3058	0.6913	0.4162	0.086
Mof_C 	C 	0.5134	0.0522	0.3855	0.292
Mof_C 	C 	0.4807	0.9801	0.45455	-0.042
Mof_H 	H 	0.4165	0.9837	0.4503	0.06
Mof_C 	C 	0.5085	0.8649	0.4405	-0.326
Mof_H 	H 	0.4987	0.8242	0.4914	0.142
Mof_H 	H 	0.5711	0.8639	0.4355	0.148
Mof_C 	C 	0.4617	0.8102	0.3621	0.376
Mof_N 	N 	0.1751	0.2235	0.2661	-0.072
Mof_N 	N 	0.1547	0.3059	0.2167	-0.042
Mof_N 	N 	0.0679	0.3181	0.2089	-0.086
Mof_N 	N 	0.1024	0.179	0.2907	-0.092
Mof_N 	N 	0.7655	0.189	0.2746	-0.153
Mof_N 	N 	0.3613	0.3491	0.3347	-0.067
Mof_N 	N 	0.3653	0.4246	0.27757	-0.042
Mof_N 	N 	0.3701	0.518	0.31916	-0.104
Mof_N 	N 	0.3642	0.3901	0.41471	-0.092
Mof_N 	N 	0.3783	0.704	0.61789	-0.145
Mof_O 	O 	0.46254	0.1134	0.34136	-0.29
Mof_O 	O 	0.59433	0.04935	0.37702	-0.271
Mof_O 	O 	0.39328	0.8469	0.32312	-0.291
Mof_O 	O 	0.49221	0.7223	0.33996	-0.297
Mof_Cd	Cd	0.682	0.67354	0.18393	0.366
Mof_Cd	Cd	0.39064	0.66989	0.23082	0.44
Mof_C 	C 	0.9623	0.7397	0.2454	0.095
Mof_C 	C 	0.0558	0.7222	0.2362	0.071
Mof_C 	C 	0.0867	0.627	0.2111	-0.137
Mof_H 	H 	0.0482	0.5713	0.1966	0.095
Mof_C 	C 	0.1755	0.6139	0.2072	0.089
Mof_H 	H 	0.1951	0.548	0.1907	0.022
Mof_C 	C 	0.2034	0.7823	0.2452	0.083
Mof_H 	H 	0.243	0.8381	0.2548	0.021
Mof_C 	C 	0.1164	0.8023	0.2525	-0.136
Mof_H 	H 	0.0986	0.8693	0.2683	0.09
Mof_C 	C 	0.6309	0.9938	0.0969	0.098
Mof_C 	C 	0.6281	0.0685	0.024	0.057
Mof_C 	C 	0.589	0.0375	0.9434	-0.126
Mof_H 	H 	0.5643	0.9704	0.9357	0.096
Mof_C 	C 	0.5871	0.1067	0.8752	0.082
Mof_H 	H 	0.5605	0.0848	0.8217	0.031
Mof_C 	C 	0.6612	0.2333	0.9597	0.073
Mof_H 	H 	0.6865	0.3003	0.9653	0.021
Mof_C 	C 	0.6659	0.1684	0.0312	-0.124
Mof_H 	H 	0.6942	0.1913	0.0838	0.086
Mof_C 	C 	0.4866	0.5522	0.1145	0.292
Mof_C 	C 	0.5193	0.4801	0.04545	-0.042
Mof_H 	H 	0.5835	0.4837	0.0497	0.061
Mof_C 	C 	0.4915	0.3649	0.0595	-0.326
Mof_H 	H 	0.5013	0.3242	0.0086	0.142
Mof_H 	H 	0.4289	0.3639	0.0645	0.148
Mof_C 	C 	0.5383	0.3102	0.1379	0.376
Mof_N 	N 	0.8249	0.7235	0.2339	-0.072
Mof_N 	N 	0.8453	0.8059	0.2833	-0.042
Mof_N 	N 	0.9321	0.8181	0.2911	-0.086
Mof_N 	N 	0.8976	0.679	0.2093	-0.092
Mof_N 	N 	0.2345	0.689	0.2254	-0.153
Mof_N 	N 	0.6387	0.8491	0.1653	-0.067
Mof_N 	N 	0.6347	0.9246	0.22243	-0.042
Mof_N 	N 	0.6299	0.018	0.18084	-0.105
Mof_N 	N 	0.6358	0.8901	0.08529	-0.092
Mof_N 	N 	0.6217	0.204	0.88211	-0.144
Mof_O 	O 	0.53746	0.6134	0.15864	-0.289
Mof_O 	O 	0.40567	0.54935	0.12298	-0.271
Mof_O 	O 	0.60672	0.3469	0.17688	-0.291
Mof_O 	O 	0.50779	0.2223	0.16004	-0.297
_end
