# CIF file generated by openbabel 3.1.0, see https://openbabel.org
data_I
_chemical_name_common 'image0'
_cell_length_a 6.6291
_cell_length_b 16.74
_cell_length_c 12.8172
_cell_angle_alpha 90
_cell_angle_beta 90
_cell_angle_gamma 90
_space_group_name_H-M_alt 'P 1'
_space_group_name_Hall 'P 1'
loop_
    _symmetry_equiv_pos_as_xyz
    x,y,z
loop_
    _atom_site_label
    _atom_site_type_symbol
    _atom_site_fract_x
    _atom_site_fract_y
    _atom_site_fract_z
    _atom_site_occupancy
    O1       O        0.16551    0.16834    0.84281    1.000
    C1       C        0.80920    0.03541    0.96730    1.000
    O2       O        0.66551    0.66834    0.34281    1.000
    C2       C        0.30920    0.53541    0.46730    1.000
    O3       O        0.83449    0.33166    0.84281    1.000
    C3       C        0.19080    0.46459    0.96730    1.000
    O4       O        0.33449    0.83166    0.34281    1.000
    C4       C        0.69080    0.96459    0.46730    1.000
    O5       O        0.83449    0.66834    0.15719    1.000
    C5       C        0.19080    0.53541    0.03270    1.000
    O6       O        0.33449    0.16834    0.65719    1.000
    C6       C        0.69080    0.03541    0.53270    1.000
    O7       O        0.16551    0.83166    0.15719    1.000
    C7       C        0.80920    0.96459    0.03270    1.000
    O8       O        0.66551    0.33166    0.65719    1.000
    C8       C        0.30920    0.46459    0.53270    1.000
    O9       O        0.83449    0.83166    0.15719    1.000
    C9       C        0.19080    0.96459    0.03270    1.000
    O10      O        0.33449    0.33166    0.65719    1.000
    C10      C        0.69080    0.46459    0.53270    1.000
    O11      O        0.16551    0.66834    0.15719    1.000
    C11      C        0.80920    0.53541    0.03270    1.000
    O12      O        0.66551    0.16834    0.65719    1.000
    C12      C        0.30920    0.03541    0.53270    1.000
    O13      O        0.16551    0.33166    0.84281    1.000
    C13      C        0.80920    0.46459    0.96730    1.000
    O14      O        0.66551    0.83166    0.34281    1.000
    C14      C        0.30920    0.96459    0.46730    1.000
    O15      O        0.83449    0.16834    0.84281    1.000
    C15      C        0.19080    0.03541    0.96730    1.000
    O16      O        0.33449    0.66834    0.34281    1.000
    C16      C        0.69080    0.53541    0.46730    1.000
    Al1      Al       0.25000    0.25000    0.75000    1.000
    Al2      Al       0.75000    0.25000    0.75000    1.000
    Al3      Al       0.75000    0.75000    0.25000    1.000
    Al4      Al       0.25000    0.75000    0.25000    1.000
    O17      O        0.00000    0.25000    0.68630    1.000
    O18      O        0.50000    0.75000    0.18630    1.000
    O19      O        0.00000    0.75000    0.31370    1.000
    O20      O        0.50000    0.25000    0.81370    1.000
    C17      C        0.00000    0.06290    0.94590    1.000
    C18      C        0.00000    0.13690    0.87030    1.000
    C19      C        0.50000    0.56290    0.44590    1.000
    C20      C        0.50000    0.63690    0.37030    1.000
    C21      C        0.00000    0.43710    0.94590    1.000
    C22      C        0.00000    0.36310    0.87030    1.000
    C23      C        0.50000    0.93710    0.44590    1.000
    C24      C        0.50000    0.86310    0.37030    1.000
    C25      C        0.00000    0.56290    0.05410    1.000
    C26      C        0.00000    0.63690    0.12970    1.000
    C27      C        0.50000    0.06290    0.55410    1.000
    C28      C        0.50000    0.13690    0.62970    1.000
    C29      C        0.00000    0.93710    0.05410    1.000
    C30      C        0.00000    0.86310    0.12970    1.000
    C31      C        0.50000    0.43710    0.55410    1.000
    C32      C        0.50000    0.36310    0.62970    1.000
