data_functionalizedCrystal
_audit_creation_method	'EQeq! by Chris Wilmer'
_symmetry_space_group_name_H-M	'P1'
_symmetry_Int_Tables_number	1
_symmetry_cell_setting	triclinic
loop_
_symmetry_equiv_pos_as_xyz
  x,y,z
_cell_length_a	18.6924
_cell_length_b	18.6924
_cell_length_c	35.9196
_cell_angle_alpha	90
_cell_angle_beta	90
_cell_angle_gamma	90
loop_
_atom_site_label
_atom_site_type_symbol
_atom_site_fract_x
_atom_site_fract_y
_atom_site_fract_z
_atom_site_charge
Mof_O 	O 	0.31633	0.78676	0.69907	-0.408
Mof_O 	O 	0.37393	0.73049	0.74553	-0.405
Mof_O 	O 	0.69365	0.7963	0.7029	-0.41
Mof_O 	O 	0.63569	0.73974	0.74896	-0.406
Mof_C 	C 	0.50521	0.92233	0.53538	0.034
Mof_C 	C 	0.55866	0.93713	0.56093	-0.061
Mof_H 	H 	0.5947	0.971	0.5549	0.054
Mof_C 	C 	0.56033	0.90323	0.59529	-0.049
Mof_H 	H 	0.5975	0.914	0.6125	0.05
Mof_C 	C 	0.5084	0.85405	0.60465	0.02
Mof_C 	C 	0.45653	0.83556	0.57823	-0.05
Mof_H 	H 	0.4219	0.8	0.5838	0.049
Mof_C 	C 	0.45589	0.8692	0.54389	-0.063
Mof_H 	H 	0.4212	0.8558	0.5259	0.054
Mof_C 	C 	0.50651	0.82239	0.643	-0.007
Mof_C 	C 	0.57038	0.81	0.66211	-0.012
Mof_H 	H 	0.6148	0.821	0.6506	0.051
Mof_C 	C 	0.56948	0.78176	0.6977	-0.086
Mof_C 	C 	0.50482	0.76483	0.71463	0.032
Mof_H 	H 	0.5044	0.7447	0.7389	0.051
Mof_C 	C 	0.44147	0.77723	0.69628	-0.087
Mof_C 	C 	0.44286	0.80591	0.66001	-0.013
Mof_H 	H 	0.3992	0.814	0.6472	0.051
Mof_C 	C 	0.37165	0.76381	0.71482	0.356
Mof_C 	C 	0.63848	0.77169	0.7182	0.36
Mof_O 	O 	0.81633	0.28676	0.19907	-0.407
Mof_O 	O 	0.87393	0.23049	0.24553	-0.404
Mof_O 	O 	0.19365	0.2963	0.2029	-0.41
Mof_O 	O 	0.13569	0.23974	0.24896	-0.406
Mof_C 	C 	0.00521	0.42233	0.03538	0.034
Mof_C 	C 	0.05866	0.43713	0.06093	-0.06
Mof_H 	H 	0.0947	0.471	0.0549	0.055
Mof_C 	C 	0.06033	0.40323	0.09529	-0.049
Mof_H 	H 	0.0975	0.414	0.1125	0.05
Mof_C 	C 	0.0084	0.35405	0.10465	0.021
Mof_C 	C 	0.95653	0.33556	0.07823	-0.05
Mof_H 	H 	0.9219	0.3	0.0838	0.049
Mof_C 	C 	0.95589	0.3692	0.04389	-0.064
Mof_H 	H 	0.9212	0.3558	0.0259	0.054
Mof_C 	C 	0.00651	0.32239	0.143	-0.006
Mof_C 	C 	0.07038	0.31	0.16211	-0.012
Mof_H 	H 	0.1148	0.321	0.1506	0.051
Mof_C 	C 	0.06948	0.28176	0.1977	-0.086
Mof_C 	C 	0.00482	0.26483	0.21463	0.033
Mof_H 	H 	0.0044	0.2447	0.2389	0.051
Mof_C 	C 	0.94147	0.27723	0.19628	-0.088
Mof_C 	C 	0.94286	0.30591	0.16001	-0.014
Mof_H 	H 	0.8992	0.314	0.1472	0.051
Mof_C 	C 	0.87165	0.26381	0.21482	0.357
Mof_C 	C 	0.13848	0.27169	0.2182	0.36
Mof_O 	O 	0.68367	0.21324	0.69907	-0.407
Mof_O 	O 	0.62607	0.26951	0.74553	-0.404
Mof_O 	O 	0.30635	0.2037	0.7029	-0.41
Mof_O 	O 	0.36431	0.26026	0.74896	-0.406
Mof_C 	C 	0.49479	0.07767	0.53538	0.033
Mof_C 	C 	0.44134	0.06287	0.56093	-0.06
Mof_H 	H 	0.4053	0.029	0.5549	0.055
Mof_C 	C 	0.43967	0.09677	0.59529	-0.049
Mof_H 	H 	0.4025	0.086	0.6125	0.051
Mof_C 	C 	0.4916	0.14595	0.60465	0.021
Mof_C 	C 	0.54347	0.16444	0.57823	-0.05
Mof_H 	H 	0.5781	0.2	0.5838	0.049
Mof_C 	C 	0.54411	0.1308	0.54389	-0.063
Mof_H 	H 	0.5788	0.1442	0.5259	0.054
Mof_C 	C 	0.49349	0.17761	0.643	-0.007
Mof_C 	C 	0.42962	0.19	0.66211	-0.012
Mof_H 	H 	0.3852	0.179	0.6506	0.051
Mof_C 	C 	0.43052	0.21824	0.6977	-0.086
Mof_C 	C 	0.49518	0.23517	0.71463	0.033
Mof_H 	H 	0.4956	0.2553	0.7389	0.051
Mof_C 	C 	0.55853	0.22277	0.69628	-0.087
Mof_C 	C 	0.55714	0.19409	0.66001	-0.013
Mof_H 	H 	0.6008	0.186	0.6472	0.051
Mof_C 	C 	0.62835	0.23619	0.71482	0.356
Mof_C 	C 	0.36152	0.22831	0.7182	0.36
Mof_O 	O 	0.18367	0.71324	0.19907	-0.407
Mof_O 	O 	0.12607	0.76951	0.24553	-0.403
Mof_O 	O 	0.80635	0.7037	0.2029	-0.41
Mof_O 	O 	0.86431	0.76026	0.24896	-0.407
Mof_C 	C 	0.99479	0.57767	0.03538	0.032
Mof_C 	C 	0.94134	0.56287	0.06093	-0.06
Mof_H 	H 	0.9053	0.529	0.0549	0.054
Mof_C 	C 	0.93967	0.59677	0.09529	-0.05
Mof_H 	H 	0.9025	0.586	0.1125	0.05
Mof_C 	C 	0.9916	0.64595	0.10465	0.02
Mof_C 	C 	0.04347	0.66444	0.07823	-0.05
Mof_H 	H 	0.0781	0.7	0.0838	0.049
Mof_C 	C 	0.04411	0.6308	0.04389	-0.062
Mof_H 	H 	0.0788	0.6442	0.0259	0.054
Mof_C 	C 	0.99349	0.67761	0.143	-0.007
Mof_C 	C 	0.92962	0.69	0.16211	-0.012
Mof_H 	H 	0.8852	0.679	0.1506	0.051
Mof_C 	C 	0.93052	0.71824	0.1977	-0.086
Mof_C 	C 	0.99518	0.73517	0.21463	0.031
Mof_H 	H 	0.9956	0.7553	0.2389	0.051
Mof_C 	C 	0.05853	0.72277	0.19628	-0.086
Mof_C 	C 	0.05714	0.69409	0.16001	-0.012
Mof_H 	H 	0.1008	0.686	0.1472	0.051
Mof_C 	C 	0.12835	0.73619	0.21482	0.356
Mof_C 	C 	0.86152	0.72831	0.2182	0.36
Mof_O 	O 	0.78676	0.68367	0.30093	-0.407
Mof_O 	O 	0.73049	0.62607	0.25447	-0.404
Mof_O 	O 	0.7963	0.30635	0.2971	-0.41
Mof_O 	O 	0.73974	0.36431	0.25104	-0.406
Mof_C 	C 	0.92233	0.49479	0.46462	0.034
Mof_C 	C 	0.93713	0.44134	0.43907	-0.061
Mof_H 	H 	0.971	0.4053	0.4451	0.054
Mof_C 	C 	0.90323	0.43967	0.40471	-0.049
Mof_H 	H 	0.914	0.4025	0.3875	0.05
Mof_C 	C 	0.85405	0.4916	0.39535	0.02
Mof_C 	C 	0.83556	0.54347	0.42177	-0.05
Mof_H 	H 	0.8	0.5781	0.4162	0.049
Mof_C 	C 	0.8692	0.54411	0.45611	-0.063
Mof_H 	H 	0.8558	0.5788	0.4741	0.054
Mof_C 	C 	0.82239	0.49349	0.357	-0.007
Mof_C 	C 	0.81	0.42962	0.33789	-0.012
Mof_H 	H 	0.821	0.3852	0.3494	0.051
Mof_C 	C 	0.78176	0.43052	0.3023	-0.086
Mof_C 	C 	0.76483	0.49518	0.28537	0.032
Mof_H 	H 	0.7447	0.4956	0.2611	0.051
Mof_C 	C 	0.77723	0.55853	0.30372	-0.087
Mof_C 	C 	0.80591	0.55714	0.33999	-0.013
Mof_H 	H 	0.814	0.6008	0.3528	0.051
Mof_C 	C 	0.76381	0.62835	0.28518	0.356
Mof_C 	C 	0.77169	0.36152	0.2818	0.36
Mof_O 	O 	0.28676	0.18367	0.80093	-0.407
Mof_O 	O 	0.23049	0.12607	0.75447	-0.403
Mof_O 	O 	0.2963	0.80635	0.7971	-0.41
Mof_O 	O 	0.23974	0.86431	0.75104	-0.406
Mof_C 	C 	0.42233	0.99479	0.96462	0.031
Mof_C 	C 	0.43713	0.94134	0.93907	-0.059
Mof_H 	H 	0.471	0.9053	0.9451	0.054
Mof_C 	C 	0.40323	0.93967	0.90471	-0.05
Mof_H 	H 	0.414	0.9025	0.8875	0.051
Mof_C 	C 	0.35405	0.9916	0.89535	0.02
Mof_C 	C 	0.33556	0.04347	0.92177	-0.05
Mof_H 	H 	0.3	0.0781	0.9162	0.049
Mof_C 	C 	0.3692	0.04411	0.95611	-0.061
Mof_H 	H 	0.3558	0.0788	0.9741	0.053
Mof_C 	C 	0.32239	0.99349	0.857	-0.007
Mof_C 	C 	0.31	0.92962	0.83789	-0.012
Mof_H 	H 	0.321	0.8852	0.8494	0.051
Mof_C 	C 	0.28176	0.93052	0.8023	-0.086
Mof_C 	C 	0.26483	0.99518	0.78537	0.032
Mof_H 	H 	0.2447	0.9956	0.7611	0.051
Mof_C 	C 	0.27723	0.05853	0.80372	-0.086
Mof_C 	C 	0.30591	0.05714	0.83999	-0.012
Mof_H 	H 	0.314	0.1008	0.8528	0.051
Mof_C 	C 	0.26381	0.12835	0.78518	0.356
Mof_C 	C 	0.27169	0.86152	0.7818	0.36
Mof_O 	O 	0.21324	0.31633	0.30093	-0.407
Mof_O 	O 	0.26951	0.37393	0.25447	-0.404
Mof_O 	O 	0.2037	0.69365	0.2971	-0.41
Mof_O 	O 	0.26026	0.63569	0.25104	-0.406
Mof_C 	C 	0.07767	0.50521	0.46462	0.033
Mof_C 	C 	0.06287	0.55866	0.43907	-0.06
Mof_H 	H 	0.029	0.5947	0.4451	0.054
Mof_C 	C 	0.09677	0.56033	0.40471	-0.049
Mof_H 	H 	0.086	0.5975	0.3875	0.05
Mof_C 	C 	0.14595	0.5084	0.39535	0.021
Mof_C 	C 	0.16444	0.45653	0.42177	-0.05
Mof_H 	H 	0.2	0.4219	0.4162	0.049
Mof_C 	C 	0.1308	0.45589	0.45611	-0.063
Mof_H 	H 	0.1442	0.4212	0.4741	0.054
Mof_C 	C 	0.17761	0.50651	0.357	-0.007
Mof_C 	C 	0.19	0.57038	0.33789	-0.012
Mof_H 	H 	0.179	0.6148	0.3494	0.051
Mof_C 	C 	0.21824	0.56948	0.3023	-0.086
Mof_C 	C 	0.23517	0.50482	0.28537	0.032
Mof_H 	H 	0.2553	0.5044	0.2611	0.051
Mof_C 	C 	0.22277	0.44147	0.30372	-0.087
Mof_C 	C 	0.19409	0.44286	0.33999	-0.013
Mof_H 	H 	0.186	0.3992	0.3528	0.051
Mof_C 	C 	0.23619	0.37165	0.28518	0.356
Mof_C 	C 	0.22831	0.63848	0.2818	0.36
Mof_O 	O 	0.71324	0.81633	0.80093	-0.407
Mof_O 	O 	0.76951	0.87393	0.75447	-0.404
Mof_O 	O 	0.7037	0.19365	0.7971	-0.41
Mof_O 	O 	0.76026	0.13569	0.75104	-0.406
Mof_C 	C 	0.57767	0.00521	0.96462	0.033
Mof_C 	C 	0.56287	0.05866	0.93907	-0.06
Mof_H 	H 	0.529	0.0947	0.9451	0.054
Mof_C 	C 	0.59677	0.06033	0.90471	-0.05
Mof_H 	H 	0.586	0.0975	0.8875	0.05
Mof_C 	C 	0.64595	0.0084	0.89535	0.021
Mof_C 	C 	0.66444	0.95653	0.92177	-0.051
Mof_H 	H 	0.7	0.9219	0.9162	0.049
Mof_C 	C 	0.6308	0.95589	0.95611	-0.063
Mof_H 	H 	0.6442	0.9212	0.9741	0.054
Mof_C 	C 	0.67761	0.00651	0.857	-0.006
Mof_C 	C 	0.69	0.07038	0.83789	-0.012
Mof_H 	H 	0.679	0.1148	0.8494	0.051
Mof_C 	C 	0.71824	0.06948	0.8023	-0.086
Mof_C 	C 	0.73517	0.00482	0.78537	0.034
Mof_H 	H 	0.7553	0.0044	0.7611	0.05
Mof_C 	C 	0.72277	0.94147	0.80372	-0.088
Mof_C 	C 	0.69409	0.94286	0.83999	-0.014
Mof_H 	H 	0.686	0.8992	0.8528	0.051
Mof_C 	C 	0.73619	0.87165	0.78518	0.357
Mof_C 	C 	0.72831	0.13848	0.7818	0.36
Mof_O 	O 	0.68367	0.78676	0.30093	-0.407
Mof_O 	O 	0.62607	0.73049	0.25447	-0.404
Mof_O 	O 	0.30635	0.7963	0.2971	-0.41
Mof_O 	O 	0.36431	0.73974	0.25104	-0.406
Mof_C 	C 	0.49479	0.92233	0.46462	0.034
Mof_C 	C 	0.44134	0.93713	0.43907	-0.061
Mof_H 	H 	0.4053	0.971	0.4451	0.054
Mof_C 	C 	0.43967	0.90323	0.40471	-0.049
Mof_H 	H 	0.4025	0.914	0.3875	0.05
Mof_C 	C 	0.4916	0.85405	0.39535	0.02
Mof_C 	C 	0.54347	0.83556	0.42177	-0.05
Mof_H 	H 	0.5781	0.8	0.4162	0.049
Mof_C 	C 	0.54411	0.8692	0.45611	-0.063
Mof_H 	H 	0.5788	0.8558	0.4741	0.054
Mof_C 	C 	0.49349	0.82239	0.357	-0.007
Mof_C 	C 	0.42962	0.81	0.33789	-0.012
Mof_H 	H 	0.3852	0.821	0.3494	0.051
Mof_C 	C 	0.43052	0.78176	0.3023	-0.086
Mof_C 	C 	0.49518	0.76483	0.28537	0.032
Mof_H 	H 	0.4956	0.7447	0.2611	0.051
Mof_C 	C 	0.55853	0.77723	0.30372	-0.087
Mof_C 	C 	0.55714	0.80591	0.33999	-0.013
Mof_H 	H 	0.6008	0.814	0.3528	0.051
Mof_C 	C 	0.62835	0.76381	0.28518	0.356
Mof_C 	C 	0.36152	0.77169	0.2818	0.36
Mof_O 	O 	0.18367	0.28676	0.80093	-0.407
Mof_O 	O 	0.12607	0.23049	0.75447	-0.403
Mof_O 	O 	0.80635	0.2963	0.7971	-0.41
Mof_O 	O 	0.86431	0.23974	0.75104	-0.406
Mof_C 	C 	0.99479	0.42233	0.96462	0.031
Mof_C 	C 	0.94134	0.43713	0.93907	-0.059
Mof_H 	H 	0.9053	0.471	0.9451	0.054
Mof_C 	C 	0.93967	0.40323	0.90471	-0.05
Mof_H 	H 	0.9025	0.414	0.8875	0.051
Mof_C 	C 	0.9916	0.35405	0.89535	0.02
Mof_C 	C 	0.04347	0.33556	0.92177	-0.05
Mof_H 	H 	0.0781	0.3	0.9162	0.049
Mof_C 	C 	0.04411	0.3692	0.95611	-0.061
Mof_H 	H 	0.0788	0.3558	0.9741	0.053
Mof_C 	C 	0.99349	0.32239	0.857	-0.007
Mof_C 	C 	0.92962	0.31	0.83789	-0.012
Mof_H 	H 	0.8852	0.321	0.8494	0.051
Mof_C 	C 	0.93052	0.28176	0.8023	-0.086
Mof_C 	C 	0.99518	0.26483	0.78537	0.032
Mof_H 	H 	0.9956	0.2447	0.7611	0.051
Mof_C 	C 	0.05853	0.27723	0.80372	-0.086
Mof_C 	C 	0.05714	0.30591	0.83999	-0.012
Mof_H 	H 	0.1008	0.314	0.8528	0.051
Mof_C 	C 	0.12835	0.26381	0.78518	0.356
Mof_C 	C 	0.86152	0.27169	0.7818	0.36
Mof_O 	O 	0.31633	0.21324	0.30093	-0.407
Mof_O 	O 	0.37393	0.26951	0.25447	-0.404
Mof_O 	O 	0.69365	0.2037	0.2971	-0.41
Mof_O 	O 	0.63569	0.26026	0.25104	-0.406
Mof_C 	C 	0.50521	0.07767	0.46462	0.033
Mof_C 	C 	0.55866	0.06287	0.43907	-0.06
Mof_H 	H 	0.5947	0.029	0.4451	0.054
Mof_C 	C 	0.56033	0.09677	0.40471	-0.049
Mof_H 	H 	0.5975	0.086	0.3875	0.05
Mof_C 	C 	0.5084	0.14595	0.39535	0.021
Mof_C 	C 	0.45653	0.16444	0.42177	-0.05
Mof_H 	H 	0.4219	0.2	0.4162	0.049
Mof_C 	C 	0.45589	0.1308	0.45611	-0.063
Mof_H 	H 	0.4212	0.1442	0.4741	0.054
Mof_C 	C 	0.50651	0.17761	0.357	-0.007
Mof_C 	C 	0.57038	0.19	0.33789	-0.012
Mof_H 	H 	0.6148	0.179	0.3494	0.051
Mof_C 	C 	0.56948	0.21824	0.3023	-0.086
Mof_C 	C 	0.50482	0.23517	0.28537	0.032
Mof_H 	H 	0.5044	0.2553	0.2611	0.051
Mof_C 	C 	0.44147	0.22277	0.30372	-0.087
Mof_C 	C 	0.44286	0.19409	0.33999	-0.013
Mof_H 	H 	0.3992	0.186	0.3528	0.051
Mof_C 	C 	0.37165	0.23619	0.28518	0.356
Mof_C 	C 	0.63848	0.22831	0.2818	0.36
Mof_O 	O 	0.81633	0.71324	0.80093	-0.407
Mof_O 	O 	0.87393	0.76951	0.75447	-0.404
Mof_O 	O 	0.19365	0.7037	0.7971	-0.41
Mof_O 	O 	0.13569	0.76026	0.75104	-0.406
Mof_C 	C 	0.00521	0.57767	0.96462	0.033
Mof_C 	C 	0.05866	0.56287	0.93907	-0.06
Mof_H 	H 	0.0947	0.529	0.9451	0.054
Mof_C 	C 	0.06033	0.59677	0.90471	-0.05
Mof_H 	H 	0.0975	0.586	0.8875	0.05
Mof_C 	C 	0.0084	0.64595	0.89535	0.021
Mof_C 	C 	0.95653	0.66444	0.92177	-0.051
Mof_H 	H 	0.9219	0.7	0.9162	0.049
Mof_C 	C 	0.95589	0.6308	0.95611	-0.063
Mof_H 	H 	0.9212	0.6442	0.9741	0.054
Mof_C 	C 	0.00651	0.67761	0.857	-0.006
Mof_C 	C 	0.07038	0.69	0.83789	-0.012
Mof_H 	H 	0.1148	0.679	0.8494	0.051
Mof_C 	C 	0.06948	0.71824	0.8023	-0.086
Mof_C 	C 	0.00482	0.73517	0.78537	0.034
Mof_H 	H 	0.0044	0.7553	0.7611	0.05
Mof_C 	C 	0.94147	0.72277	0.80372	-0.088
Mof_C 	C 	0.94286	0.69409	0.83999	-0.014
Mof_H 	H 	0.8992	0.686	0.8528	0.051
Mof_C 	C 	0.87165	0.73619	0.78518	0.357
Mof_C 	C 	0.13848	0.72831	0.7818	0.36
Mof_O 	O 	0.21324	0.68367	0.69907	-0.407
Mof_O 	O 	0.26951	0.62607	0.74553	-0.404
Mof_O 	O 	0.2037	0.30635	0.7029	-0.41
Mof_O 	O 	0.26026	0.36431	0.74896	-0.406
Mof_C 	C 	0.07767	0.49479	0.53538	0.033
Mof_C 	C 	0.06287	0.44134	0.56093	-0.06
Mof_H 	H 	0.029	0.4053	0.5549	0.055
Mof_C 	C 	0.09677	0.43967	0.59529	-0.049
Mof_H 	H 	0.086	0.4025	0.6125	0.051
Mof_C 	C 	0.14595	0.4916	0.60465	0.021
Mof_C 	C 	0.16444	0.54347	0.57823	-0.05
Mof_H 	H 	0.2	0.5781	0.5838	0.049
Mof_C 	C 	0.1308	0.54411	0.54389	-0.063
Mof_H 	H 	0.1442	0.5788	0.5259	0.054
Mof_C 	C 	0.17761	0.49349	0.643	-0.007
Mof_C 	C 	0.19	0.42962	0.66211	-0.012
Mof_H 	H 	0.179	0.3852	0.6506	0.051
Mof_C 	C 	0.21824	0.43052	0.6977	-0.086
Mof_C 	C 	0.23517	0.49518	0.71463	0.033
Mof_H 	H 	0.2553	0.4956	0.7389	0.051
Mof_C 	C 	0.22277	0.55853	0.69628	-0.087
Mof_C 	C 	0.19409	0.55714	0.66001	-0.013
Mof_H 	H 	0.186	0.6008	0.6472	0.051
Mof_C 	C 	0.23619	0.62835	0.71482	0.356
Mof_C 	C 	0.22831	0.36152	0.7182	0.36
Mof_O 	O 	0.71324	0.18367	0.19907	-0.407
Mof_O 	O 	0.76951	0.12607	0.24553	-0.403
Mof_O 	O 	0.7037	0.80635	0.2029	-0.41
Mof_O 	O 	0.76026	0.86431	0.24896	-0.407
Mof_C 	C 	0.57767	0.99479	0.03538	0.032
Mof_C 	C 	0.56287	0.94134	0.06093	-0.06
Mof_H 	H 	0.529	0.9053	0.0549	0.054
Mof_C 	C 	0.59677	0.93967	0.09529	-0.05
Mof_H 	H 	0.586	0.9025	0.1125	0.05
Mof_C 	C 	0.64595	0.9916	0.10465	0.02
Mof_C 	C 	0.66444	0.04347	0.07823	-0.05
Mof_H 	H 	0.7	0.0781	0.0838	0.049
Mof_C 	C 	0.6308	0.04411	0.04389	-0.062
Mof_H 	H 	0.6442	0.0788	0.0259	0.054
Mof_C 	C 	0.67761	0.99349	0.143	-0.007
Mof_C 	C 	0.69	0.92962	0.16211	-0.012
Mof_H 	H 	0.679	0.8852	0.1506	0.051
Mof_C 	C 	0.71824	0.93052	0.1977	-0.086
Mof_C 	C 	0.73517	0.99518	0.21463	0.031
Mof_H 	H 	0.7553	0.9956	0.2389	0.051
Mof_C 	C 	0.72277	0.05853	0.19628	-0.086
Mof_C 	C 	0.69409	0.05714	0.16001	-0.012
Mof_H 	H 	0.686	0.1008	0.1472	0.051
Mof_C 	C 	0.73619	0.12835	0.21482	0.356
Mof_C 	C 	0.72831	0.86152	0.2182	0.36
Mof_O 	O 	0.78676	0.31633	0.69907	-0.407
Mof_O 	O 	0.73049	0.37393	0.74553	-0.404
Mof_O 	O 	0.7963	0.69365	0.7029	-0.41
Mof_O 	O 	0.73974	0.63569	0.74896	-0.406
Mof_C 	C 	0.92233	0.50521	0.53538	0.034
Mof_C 	C 	0.93713	0.55866	0.56093	-0.061
Mof_H 	H 	0.971	0.5947	0.5549	0.054
Mof_C 	C 	0.90323	0.56033	0.59529	-0.049
Mof_H 	H 	0.914	0.5975	0.6125	0.05
Mof_C 	C 	0.85405	0.5084	0.60465	0.02
Mof_C 	C 	0.83556	0.45653	0.57823	-0.05
Mof_H 	H 	0.8	0.4219	0.5838	0.049
Mof_C 	C 	0.8692	0.45589	0.54389	-0.063
Mof_H 	H 	0.8558	0.4212	0.5259	0.054
Mof_C 	C 	0.82239	0.50651	0.643	-0.007
Mof_C 	C 	0.81	0.57038	0.66211	-0.012
Mof_H 	H 	0.821	0.6148	0.6506	0.051
Mof_C 	C 	0.78176	0.56948	0.6977	-0.086
Mof_C 	C 	0.76483	0.50482	0.71463	0.032
Mof_H 	H 	0.7447	0.5044	0.7389	0.051
Mof_C 	C 	0.77723	0.44147	0.69628	-0.087
Mof_C 	C 	0.80591	0.44286	0.66001	-0.013
Mof_H 	H 	0.814	0.3992	0.6472	0.051
Mof_C 	C 	0.76381	0.37165	0.71482	0.356
Mof_C 	C 	0.77169	0.63848	0.7182	0.36
Mof_O 	O 	0.28676	0.81633	0.19907	-0.407
Mof_O 	O 	0.23049	0.87393	0.24553	-0.404
Mof_O 	O 	0.2963	0.19365	0.2029	-0.41
Mof_O 	O 	0.23974	0.13569	0.24896	-0.406
Mof_C 	C 	0.42233	0.00521	0.03538	0.034
Mof_C 	C 	0.43713	0.05866	0.06093	-0.06
Mof_H 	H 	0.471	0.0947	0.0549	0.055
Mof_C 	C 	0.40323	0.06033	0.09529	-0.049
Mof_H 	H 	0.414	0.0975	0.1125	0.05
Mof_C 	C 	0.35405	0.0084	0.10465	0.021
Mof_C 	C 	0.33556	0.95653	0.07823	-0.05
Mof_H 	H 	0.3	0.9219	0.0838	0.049
Mof_C 	C 	0.3692	0.95589	0.04389	-0.064
Mof_H 	H 	0.3558	0.9212	0.0259	0.054
Mof_C 	C 	0.32239	0.00651	0.143	-0.006
Mof_C 	C 	0.31	0.07038	0.16211	-0.012
Mof_H 	H 	0.321	0.1148	0.1506	0.051
Mof_C 	C 	0.28176	0.06948	0.1977	-0.086
Mof_C 	C 	0.26483	0.00482	0.21463	0.033
Mof_H 	H 	0.2447	0.0044	0.2389	0.051
Mof_C 	C 	0.27723	0.94147	0.19628	-0.088
Mof_C 	C 	0.30591	0.94286	0.16001	-0.014
Mof_H 	H 	0.314	0.8992	0.1472	0.051
Mof_C 	C 	0.26381	0.87165	0.21482	0.357
Mof_C 	C 	0.27169	0.13848	0.2182	0.36
Mof_Cu	Cu	0.22091	0.77909	0.72097	0.906
Mof_Cu	Cu	0.72091	0.27909	0.22097	0.906
Mof_Cu	Cu	0.77909	0.22091	0.72097	0.906
Mof_Cu	Cu	0.27909	0.72091	0.22097	0.906
Mof_Cu	Cu	0.77909	0.77909	0.27903	0.906
Mof_Cu	Cu	0.27909	0.27909	0.77903	0.906
Mof_Cu	Cu	0.22091	0.22091	0.27903	0.906
Mof_Cu	Cu	0.72091	0.72091	0.77903	0.906
Mof_Cu	Cu	0.78887	0.78887	0.72457	0.907
Mof_Cu	Cu	0.28887	0.28887	0.22457	0.907
Mof_Cu	Cu	0.21113	0.21113	0.72457	0.907
Mof_Cu	Cu	0.71113	0.71113	0.22457	0.907
Mof_Cu	Cu	0.78887	0.21113	0.27543	0.907
Mof_Cu	Cu	0.28887	0.71113	0.77543	0.907
Mof_Cu	Cu	0.21113	0.78887	0.27543	0.907
Mof_Cu	Cu	0.71113	0.28887	0.77543	0.907
Mof_C 	C 	0.5	0.9641	0.5	-0.031
Mof_C 	C 	4.02271e-33	0.4641	-0	-0.029
Mof_C 	C 	0.5	0.0359	0.5	-0.029
Mof_C 	C 	4.02271e-33	0.5359	-0	-0.029
Mof_C 	C 	0.9641	0.5	0.5	-0.031
Mof_C 	C 	0.4641	0	-0	-0.029
Mof_C 	C 	0.0359	0.5	0.5	-0.029
Mof_C 	C 	0.5359	0	-0	-0.029
_end
