data_functionalizedCrystal
_audit_creation_method	'EQeq! by Chris Wilmer'
_symmetry_space_group_name_H-M	'P1'
_symmetry_Int_Tables_number	1
_symmetry_cell_setting	triclinic
loop_
_symmetry_equiv_pos_as_xyz
  x,y,z
_cell_length_a	10.221
_cell_length_b	10.452
_cell_length_c	15.248
_cell_angle_alpha	105.766
_cell_angle_beta	101.431
_cell_angle_gamma	101.226
loop_
_atom_site_label
_atom_site_type_symbol
_atom_site_fract_x
_atom_site_fract_y
_atom_site_fract_z
_atom_site_charge
Mof_La	La	0.21969	0.9656	0.80494	2.153
Mof_La	La	0.7097	0.99205	0.77759	2.028
Mof_La	La	0.78031	0.0344	0.19506	2.154
Mof_La	La	0.2903	0.00795	0.22241	2.029
Mof_H 	H 	0.0314	0.5886	0.7004	0.017
Mof_H 	H 	0.6899	0.3711	0.4177	0.07
Mof_H 	H 	0.918	0.3919	0.8397	0.042
Mof_H 	H 	0.3436	0.6531	0.0396	0.074
Mof_H 	H 	0.2927	0.3073	0.792	-0.004
Mof_H 	H 	0.6198	0.6347	0.7474	0.034
Mof_H 	H 	0.9686	0.4114	0.2996	0.017
Mof_H 	H 	0.3101	0.6289	0.5823	0.07
Mof_H 	H 	0.082	0.6081	0.1603	0.042
Mof_H 	H 	0.6564	0.3469	0.9604	0.074
Mof_H 	H 	0.7073	0.6927	0.208	-0.004
Mof_H 	H 	0.3802	0.3653	0.2526	0.034
Mof_C 	C 	0.8742	0.7505	0.6814	0.523
Mof_C 	C 	0.8622	0.6111	0.6166	-0.198
Mof_C 	C 	0.9624	0.5445	0.6441	0.039
Mof_C 	C 	0.9602	0.4124	0.5882	-0.005
Mof_C 	C 	0.8566	0.3516	0.5038	-0.051
Mof_C 	C 	0.7571	0.4148	0.4749	-0.101
Mof_C 	C 	0.7581	0.5461	0.5327	0.156
Mof_C 	C 	0.8578	0.2126	0.438	0.329
Mof_C 	C 	0.0545	0.2219	0.8831	0.496
Mof_C 	C 	0.099	0.378	0.9134	-0.181
Mof_C 	C 	0.0049	0.4444	0.8786	0.001
Mof_C 	C 	0.0377	0.5872	0.9004	0.01
Mof_C 	C 	0.1663	0.6653	0.9617	-0.076
Mof_C 	C 	0.2588	0.6	0.998	-0.095
Mof_C 	C 	0.2283	0.4548	0.9737	0.137
Mof_C 	C 	0.2076	0.8197	0.9852	0.369
Mof_C 	C 	0.5001	0.2035	0.7656	0.508
Mof_C 	C 	0.4768	0.3391	0.7633	-0.193
Mof_C 	C 	0.3592	0.3728	0.7824	0.031
Mof_C 	C 	0.3367	0.5	0.7876	0.026
Mof_C 	C 	0.4386	0.601	0.7795	-0.135
Mof_C 	C 	0.5533	0.5678	0.7557	-0.044
Mof_C 	C 	0.5725	0.4359	0.7436	0.132
Mof_C 	C 	0.426	0.7458	0.801	0.49
Mof_C 	C 	0.1258	0.2495	0.3186	0.523
Mof_C 	C 	0.1378	0.3889	0.3834	-0.198
Mof_C 	C 	0.0376	0.4555	0.3559	0.039
Mof_C 	C 	0.0398	0.5876	0.4118	-0.005
Mof_C 	C 	0.1434	0.6484	0.4962	-0.051
Mof_C 	C 	0.2429	0.5852	0.5251	-0.101
Mof_C 	C 	0.2419	0.4539	0.4673	0.156
Mof_C 	C 	0.1422	0.7874	0.562	0.329
Mof_C 	C 	0.9455	0.7781	0.1169	0.496
Mof_C 	C 	0.901	0.622	0.0866	-0.181
Mof_C 	C 	0.9951	0.5556	0.1214	0.001
Mof_C 	C 	0.9623	0.4128	0.0996	0.01
Mof_C 	C 	0.8337	0.3347	0.0383	-0.076
Mof_C 	C 	0.7412	0.4	0.002	-0.095
Mof_C 	C 	0.7717	0.5452	0.0263	0.137
Mof_C 	C 	0.7924	0.1803	0.0148	0.369
Mof_C 	C 	0.4999	0.7965	0.2344	0.508
Mof_C 	C 	0.5232	0.6609	0.2367	-0.193
Mof_C 	C 	0.6408	0.6272	0.2176	0.031
Mof_C 	C 	0.6633	0.5	0.2124	0.026
Mof_C 	C 	0.5614	0.399	0.2205	-0.135
Mof_C 	C 	0.4467	0.4322	0.2443	-0.044
Mof_C 	C 	0.4275	0.5641	0.2564	0.132
Mof_C 	C 	0.574	0.2542	0.199	0.49
Mof_N 	N 	0.6554	0.6049	0.5034	-0.123
Mof_N 	N 	0.3305	0.3987	0.0077	-0.131
Mof_N 	N 	0.6802	0.4031	0.709	-0.12
Mof_N 	N 	0.3446	0.3951	0.4966	-0.123
Mof_N 	N 	0.6695	0.6013	0.9923	-0.131
Mof_N 	N 	0.3198	0.5969	0.291	-0.12
Mof_O 	O 	0.7695	0.7966	0.676	-0.558
Mof_O 	O 	0.9883	0.8167	0.7395	-0.584
Mof_O 	O 	0.7639	0.1605	0.3581	-0.462
Mof_O 	O 	0.9473	0.1556	0.4632	-0.304
Mof_O 	O 	0.1445	0.1584	0.8965	-0.554
Mof_O 	O 	0.929	0.163	0.8435	-0.569
Mof_O 	O 	0.3074	0.8885	0.0573	-0.465
Mof_O 	O 	0.1424	0.8749	0.9338	-0.47
Mof_O 	O 	0.4106	0.1198	0.7823	-0.593
Mof_O 	O 	0.6127	0.1794	0.7537	-0.533
Mof_O 	O 	0.3165	0.7702	0.816	-0.526
Mof_O 	O 	0.5272	0.8388	0.8054	-0.591
Mof_O 	O 	0.2305	0.2034	0.324	-0.558
Mof_O 	O 	0.0117	0.1833	0.2605	-0.584
Mof_O 	O 	0.2361	0.8395	0.6419	-0.462
Mof_O 	O 	0.0527	0.8444	0.5368	-0.304
Mof_O 	O 	0.8555	0.8416	0.1035	-0.554
Mof_O 	O 	0.071	0.837	0.1565	-0.569
Mof_O 	O 	0.6926	0.1115	0.9427	-0.465
Mof_O 	O 	0.8576	0.1251	0.0662	-0.47
Mof_O 	O 	0.5894	0.8802	0.2177	-0.593
Mof_O 	O 	0.3873	0.8206	0.2463	-0.533
Mof_O 	O 	0.6835	0.2298	0.184	-0.526
Mof_O 	O 	0.4728	0.1612	0.1946	-0.591
_end
