data_functionalizedCrystal
_audit_creation_method	'EQeq! by Chris Wilmer'
_symmetry_space_group_name_H-M	'P1'
_symmetry_Int_Tables_number	1
_symmetry_cell_setting	triclinic
loop_
_symmetry_equiv_pos_as_xyz
  x,y,z
_cell_length_a	8.5389
_cell_length_b	9.0517
_cell_length_c	11.9989
_cell_angle_alpha	90
_cell_angle_beta	90
_cell_angle_gamma	90
loop_
_atom_site_label
_atom_site_type_symbol
_atom_site_fract_x
_atom_site_fract_y
_atom_site_fract_z
_atom_site_charge
Mof_Mn	Mn	0.24973	0.25	0.75	1.069
Mof_Mn	Mn	0.25027	0.25	0.25	1.06
Mof_Mn	Mn	0.74973	0.75	0.75	1.069
Mof_Mn	Mn	0.75027	0.75	0.25	1.06
Mof_H 	H 	0.4186	0.9356	0.7318	-0.115
Mof_H 	H 	0.5814	0.4356	0.2318	-0.123
Mof_H 	H 	0.25	0.2931	0.5	-0.108
Mof_H 	H 	0.9186	0.4356	0.7682	-0.112
Mof_H 	H 	0.4186	0.5644	0.7682	-0.113
Mof_H 	H 	0.75	0.7069	0.5	-0.108
Mof_H 	H 	0.75	0.7931	-0	-0.092
Mof_H 	H 	0.25	0.2069	-0	-0.091
Mof_H 	H 	0.0814	0.9356	0.2682	-0.113
Mof_H 	H 	0.5814	0.0644	0.2682	-0.119
Mof_H 	H 	0.9186	0.0644	0.7318	-0.108
Mof_H 	H 	0.0814	0.5644	0.2318	-0.123
Mof_C 	C 	0.98185	0.48462	0.71704	0.513
Mof_C 	C 	0.48185	0.51538	0.71704	0.518
Mof_C 	C 	0.51815	0.01538	0.21704	0.516
Mof_C 	C 	0.51815	0.48462	0.28296	0.517
Mof_C 	C 	0.75	0.6903	-0	0.393
Mof_C 	C 	0.01815	0.51538	0.28296	0.515
Mof_C 	C 	0.01815	0.98462	0.21704	0.494
Mof_C 	C 	0.48185	0.98462	0.78296	0.514
Mof_C 	C 	0.25	0.1903	0.5	0.501
Mof_C 	C 	0.98185	0.01538	0.78296	0.49
Mof_C 	C 	0.75	0.8097	0.5	0.501
Mof_C 	C 	0.25	0.3097	-0	0.388
Mof_O 	O 	0.59674	0.91622	0.81949	-0.371
Mof_O 	O 	0.40326	0.08378	0.18051	-0.393
Mof_O 	O 	0.74494	0.87033	0.59234	-0.375
Mof_O 	O 	0.55627	0.88812	0.19164	-0.377
Mof_O 	O 	0.09674	0.41622	0.68051	-0.383
Mof_O 	O 	0.75506	0.87033	0.40766	-0.374
Mof_O 	O 	0.44373	0.38812	0.69164	-0.368
Mof_O 	O 	0.25506	0.37033	0.09234	-0.358
Mof_O 	O 	0.74494	0.62967	0.90766	-0.307
Mof_O 	O 	0.24494	0.12967	0.59234	-0.374
Mof_O 	O 	0.09674	0.08378	0.81949	-0.359
Mof_O 	O 	0.05627	0.11188	0.19164	-0.367
Mof_O 	O 	0.25506	0.12967	0.40766	-0.374
Mof_O 	O 	0.90326	0.91622	0.18051	-0.383
Mof_O 	O 	0.40326	0.41622	0.31949	-0.387
Mof_O 	O 	0.94373	0.88812	0.80836	-0.346
Mof_O 	O 	0.44373	0.11188	0.80836	-0.356
Mof_O 	O 	0.75506	0.62967	0.09234	-0.359
Mof_O 	O 	0.24494	0.37033	0.90766	-0.303
Mof_O 	O 	0.05627	0.38812	0.30836	-0.37
Mof_O 	O 	0.55627	0.61188	0.30836	-0.371
Mof_O 	O 	0.94373	0.61188	0.69164	-0.367
Mof_O 	O 	0.59674	0.58378	0.68051	-0.385
Mof_O 	O 	0.90326	0.58378	0.31949	-0.386
_end
