# CIF file generated by openbabel 3.1.0, see https://openbabel.org
data_I
_chemical_name_common 'FASHAK_clean'
_cell_length_a 14.0022
_cell_length_b 14.0022
_cell_length_c 14.0022
_cell_angle_alpha 104.649
_cell_angle_beta 104.649
_cell_angle_gamma 119.618
_space_group_name_H-M_alt 'P 1'
_space_group_name_Hall 'P 1'
loop_
    _symmetry_equiv_pos_as_xyz
    x,y,z
loop_
    _atom_site_label
    _atom_site_type_symbol
    _atom_site_fract_x
    _atom_site_fract_y
    _atom_site_fract_z
    _atom_site_occupancy
    Pr1      Pr       0.98380    0.83755    0.54875    1.000
    Pr2      Pr       0.28880    0.43505    0.45125    1.000
    Pr3      Pr       0.68505    0.73380    0.64625    1.000
    Pr4      Pr       0.08755    0.03880    0.35375    1.000
    H1       H        0.68870    0.74020    0.40690    1.000
    H2       H        0.36270    0.65800    0.22310    1.000
    H3       H        0.66270    0.88250    0.19420    1.000
    H4       H        0.36990    0.02390    0.43820    1.000
    H5       H        0.33330    0.28180    0.59310    1.000
    H6       H        0.43490    0.13960    0.77690    1.000
    H7       H        0.68830    0.46850    0.80580    1.000
    H8       H        0.58570    0.93170    0.56180    1.000
    H9       H        0.53180    0.43870    0.44850    1.000
    H10      H        0.38960    0.11270    0.20470    1.000
    H11      H        0.71850    0.41270    0.28020    1.000
    H12      H        0.18170    0.11990    0.84600    1.000
    H13      H        0.99020    0.08330    0.55150    1.000
    H14      H        0.90800    0.18490    0.79530    1.000
    H15      H        0.13250    0.43830    0.71980    1.000
    H16      H        0.27390    0.33570    0.15400    1.000
    H17      H        0.23080    0.73080    0.50000    1.000
    H18      H        0.98080    0.98080    0.00000    1.000
    C1       C        0.69640    0.82150    0.30570    1.000
    C2       C        0.64170    0.74820    0.35390    1.000
    C3       C        0.51660    0.68700    0.32300    1.000
    C4       C        0.44640    0.69900    0.24380    1.000
    C5       C        0.50110    0.77230    0.19560    1.000
    C6       C        0.62610    0.83350    0.22640    1.000
    C7       C        0.82910    0.88850    0.33580    1.000
    C8       C        0.45500    0.60830    0.37230    1.000
    C9       C        0.28167    0.87390    0.46297    1.000
    C10      C        0.38027    0.97250    0.46297    1.000
    C11      C        0.15990    0.85330    0.42240    1.000
    C12      C        0.51580    0.39070    0.69430    1.000
    C13      C        0.39430    0.28780    0.64610    1.000
    C14      C        0.36400    0.19360    0.67700    1.000
    C15      C        0.45520    0.20260    0.75620    1.000
    C16      C        0.57670    0.30550    0.80440    1.000
    C17      C        0.60710    0.39970    0.77360    1.000
    C18      C        0.55270    0.49330    0.66420    1.000
    C19      C        0.23600    0.08270    0.62770    1.000
    C20      C        0.41093    0.81870    0.53703    1.000
    C21      C        0.50953    0.91730    0.53703    1.000
    C22      C        0.43090    0.73750    0.57760    1.000
    C23      C        0.64070    0.44640    0.37490    1.000
    C24      C        0.53780    0.39170    0.39350    1.000
    C25      C        0.44360    0.26660    0.32960    1.000
    C26      C        0.45260    0.19640    0.24740    1.000
    C27      C        0.55550    0.25110    0.22880    1.000
    C28      C        0.64970    0.37610    0.29260    1.000
    C29      C        0.74330    0.57910    0.44060    1.000
    C30      C        0.33270    0.20500    0.34670    1.000
    C31      C        0.06870    0.03167    0.90777    1.000
    C32      C        0.16730    0.13027    0.90777    1.000
    C33      C        0.98750    0.90990    0.80660    1.000
    C34      C        0.07150    0.26580    0.62510    1.000
    C35      C        0.99820    0.14430    0.60650    1.000
    C36      C        0.93700    0.11400    0.67040    1.000
    C37      C        0.94900    0.20520    0.75260    1.000
    C38      C        0.02230    0.32670    0.77120    1.000
    C39      C        0.08350    0.35710    0.70740    1.000
    C40      C        0.13850    0.30270    0.55940    1.000
    C41      C        0.85830    0.98600    0.65330    1.000
    C42      C        0.12390    0.16093    0.09223    1.000
    C43      C        0.22250    0.25953    0.09223    1.000
    C44      C        0.10330    0.18090    0.19340    1.000
    C45      C        0.49450    0.99450    0.50000    1.000
    C46      C        0.29680    0.79680    0.50000    1.000
    C47      C        0.24450    0.24450    0.00000    1.000
    C48      C        0.04680    0.04680    0.00000    1.000
    O1       O        0.89290    0.86590    0.38980    1.000
    O2       O        0.87570    0.96990    0.30460    1.000
    O3       O        0.51630    0.60590    0.45340    1.000
    O4       O        0.33780    0.54160    0.33220    1.000
    O5       O        0.43570    0.78530    0.11940    1.000
    O6       O        0.08060    0.78860    0.44440    1.000
    O7       O        0.14840    0.90570    0.36770    1.000
    O8       O        0.47610    0.50310    0.61020    1.000
    O9       O        0.66530    0.57110    0.69540    1.000
    O10      O        0.15250    0.06290    0.54660    1.000
    O11      O        0.20940    0.00560    0.66780    1.000
    O12      O        0.66590    0.31630    0.88060    1.000
    O13      O        0.34420    0.63620    0.55560    1.000
    O14      O        0.53800    0.78070    0.63230    1.000
    O15      O        0.75310    0.64290    0.52700    1.000
    O16      O        0.82110    0.62570    0.40580    1.000
    O17      O        0.31290    0.26630    0.41040    1.000
    O18      O        0.25560    0.08780    0.29620    1.000
    O19      O        0.56630    0.18570    0.15040    1.000
    O20      O        0.88620    0.83060    0.79200    1.000
    O21      O        0.03070    0.89840    0.74270    1.000
    O22      O        0.11590    0.22610    0.47300    1.000
    O23      O        0.21990    0.41530    0.59420    1.000
    O24      O        0.85590    0.90250    0.58960    1.000
    O25      O        0.79160    0.95940    0.70380    1.000
    O26      O        0.03530    0.41590    0.84960    1.000
    O27      O        0.03860    0.09420    0.20800    1.000
    O28      O        0.15570    0.28800    0.25730    1.000
    O29      O        0.58860    0.08860    0.50000    1.000
    O30      O        0.33860    0.33860    0.00000    1.000
