data_functionalizedCrystal
_audit_creation_method	'EQeq! by Chris Wilmer'
_symmetry_space_group_name_H-M	'P1'
_symmetry_Int_Tables_number	1
_symmetry_cell_setting	triclinic
loop_
_symmetry_equiv_pos_as_xyz
  x,y,z
_cell_length_a	11.4924
_cell_length_b	23.9282
_cell_length_c	23.9282
_cell_angle_alpha	93.5557
_cell_angle_beta	103.366
_cell_angle_gamma	103.366
loop_
_atom_site_label
_atom_site_type_symbol
_atom_site_fract_x
_atom_site_fract_y
_atom_site_fract_z
_atom_site_charge
Mof_Na	Na	0.98739	0.32528	0.17066	2.581
Mof_Na	Na	0.49117	0.26674	0.26674	3.12
Mof_Na	Na	0.00731	0.82388	0.82388	2.015
Mof_Na	Na	0.01261	0.82934	0.67472	2.477
Mof_Na	Na	0.98739	0.17066	0.32528	2.582
Mof_Na	Na	0.50883	0.73326	0.73326	3.105
Mof_Na	Na	0.99269	0.17612	0.17612	2.104
Mof_Na	Na	0.01261	0.67472	0.82934	2.477
Mof_Dy	Dy	0.23206	0.76283	0.76283	1.624
Mof_Dy	Dy	0.79491	0.70769	0.70769	1.618
Mof_Dy	Dy	0.76794	0.23717	0.23717	1.611
Mof_Dy	Dy	0.20509	0.29231	0.29231	1.582
Mof_Zn	Zn	0.29527	0.79764	0.27484	1.196
Mof_Zn	Zn	0.70473	0.72516	0.20236	1.196
Mof_Zn	Zn	0.70473	0.20236	0.72516	1.196
Mof_Zn	Zn	0.29527	0.27484	0.79764	1.196
Mof_H 	H 	0.8512	0.4334	0.1708	-0.165
Mof_H 	H 	0.2722	0.9023	0.0921	0.037
Mof_H 	H 	0.7039	0.3089	0.5455	0.052
Mof_H 	H 	0.1217	0.7913	0.0457	0.095
Mof_H 	H 	0.8783	0.9543	0.2087	0.103
Mof_H 	H 	0.5511	0.6925	0.8587	-0.153
Mof_H 	H 	0.3795	0.9233	0.4711	0.046
Mof_H 	H 	0.4784	0.0484	0.307	0.131
Mof_H 	H 	0.4489	0.1413	0.3075	-0.158
Mof_H 	H 	0.4648	0.777	0.6114	-0.158
Mof_H 	H 	0.8774	0.7977	0.5311	-0.113
Mof_H 	H 	0.7278	0.0977	0.9079	0.039
Mof_H 	H 	0.4633	0.3291	0.5959	0.11
Mof_H 	H 	0.1217	0.0457	0.7913	0.095
Mof_H 	H 	0.5352	0.3886	0.223	-0.16
Mof_H 	H 	0.1226	0.4689	0.2023	-0.126
Mof_H 	H 	0.4815	0.7961	0.0721	0.123
Mof_H 	H 	0.7159	0.6231	0.3843	0.059
Mof_H 	H 	0.4603	0.7904	0.9722	-0.05
Mof_H 	H 	0.6347	0.6003	0.0069	0.045
Mof_H 	H 	0.3795	0.4711	0.9233	0.046
Mof_H 	H 	0.4633	0.5959	0.3291	0.11
Mof_H 	H 	0.1488	0.8292	0.5666	-0.166
Mof_H 	H 	0.7279	0.0226	0.8312	0.035
Mof_H 	H 	0.8879	0.0183	0.7361	0.124
Mof_H 	H 	0.1016	0.9467	0.7883	-0.175
Mof_H 	H 	0.9181	0.9258	0.7374	-0.198
Mof_H 	H 	0.5645	0.5038	0.6706	-0.029
Mof_H 	H 	0.4815	0.0721	0.7961	0.123
Mof_H 	H 	0.2961	0.4545	0.6911	0.049
Mof_H 	H 	0.6205	0.5289	0.0767	0.047
Mof_H 	H 	0.3675	0.6211	0.1653	0.048
Mof_H 	H 	0.6325	0.3789	0.8347	0.049
Mof_H 	H 	0.0819	0.2626	0.0742	-0.217
Mof_H 	H 	0.6325	0.8347	0.3789	0.049
Mof_H 	H 	0.8774	0.5311	0.7977	-0.113
Mof_H 	H 	0.1121	0.9817	0.2639	0.118
Mof_H 	H 	0.5352	0.223	0.3886	-0.16
Mof_H 	H 	0.2721	0.1688	0.9774	0.032
Mof_H 	H 	0.2841	0.3769	0.6157	0.057
Mof_H 	H 	0.8512	0.1708	0.4334	-0.165
Mof_H 	H 	0.5147	0.483	0.219	0.131
Mof_H 	H 	0.3695	0.0954	0.693	0.043
Mof_H 	H 	0.3695	0.693	0.0954	0.043
Mof_H 	H 	0.7159	0.3843	0.6231	0.059
Mof_H 	H 	0.4853	0.517	0.781	0.131
Mof_H 	H 	0.1705	0.8347	0.4731	0.124
Mof_H 	H 	0.7278	0.9079	0.0977	0.039
Mof_H 	H 	0.4648	0.6114	0.777	-0.158
Mof_H 	H 	0.6305	0.9046	0.307	0.044
Mof_H 	H 	0.6347	0.0069	0.6003	0.045
Mof_H 	H 	0.5185	0.9279	0.2039	0.124
Mof_H 	H 	0.152	0.2005	0.5685	0.098
Mof_H 	H 	0.8984	0.2117	0.0533	-0.174
Mof_H 	H 	0.8295	0.5269	0.1653	0.131
Mof_H 	H 	0.5147	0.219	0.483	0.131
Mof_H 	H 	0.8783	0.2087	0.9543	0.103
Mof_H 	H 	0.5367	0.4041	0.6709	0.108
Mof_H 	H 	0.1016	0.7883	0.9467	-0.175
Mof_H 	H 	0.4784	0.307	0.0484	0.131
Mof_H 	H 	0.4489	0.3075	0.1413	-0.158
Mof_H 	H 	0.848	0.7995	0.4315	0.103
Mof_H 	H 	0.2721	0.9774	0.1688	0.032
Mof_H 	H 	0.1226	0.2023	0.4689	-0.126
Mof_H 	H 	0.8879	0.7361	0.0183	0.124
Mof_H 	H 	0.8295	0.1653	0.5269	0.131
Mof_H 	H 	0.152	0.5685	0.2005	0.098
Mof_H 	H 	0.0819	0.0742	0.2626	-0.217
Mof_H 	H 	0.7279	0.8312	0.0226	0.035
Mof_H 	H 	0.9181	0.7374	0.9258	-0.198
Mof_H 	H 	0.5511	0.8587	0.6925	-0.153
Mof_H 	H 	0.5216	0.9516	0.693	0.128
Mof_H 	H 	0.4355	0.3294	0.4962	-0.031
Mof_H 	H 	0.5216	0.693	0.9516	0.128
Mof_H 	H 	0.6305	0.307	0.9046	0.044
Mof_H 	H 	0.2722	0.0921	0.9023	0.037
Mof_H 	H 	0.6205	0.0767	0.5289	0.047
Mof_H 	H 	0.1705	0.4731	0.8347	0.124
Mof_H 	H 	0.3653	0.3997	0.9931	0.044
Mof_H 	H 	0.4853	0.781	0.517	0.131
Mof_H 	H 	0.2961	0.6911	0.4545	0.049
Mof_H 	H 	0.5185	0.2039	0.9279	0.124
Mof_H 	H 	0.3675	0.1653	0.6211	0.048
Mof_H 	H 	0.848	0.4315	0.7995	0.103
Mof_H 	H 	0.5645	0.6706	0.5038	-0.029
Mof_H 	H 	0.4603	0.9722	0.7904	-0.05
Mof_H 	H 	0.1121	0.2639	0.9817	0.118
Mof_H 	H 	0.7039	0.5455	0.3089	0.052
Mof_H 	H 	0.4355	0.4962	0.3294	-0.031
Mof_H 	H 	0.1488	0.5666	0.8292	-0.166
Mof_H 	H 	0.2841	0.6157	0.3769	0.057
Mof_H 	H 	0.5367	0.6709	0.4041	0.108
Mof_H 	H 	0.5397	0.2096	0.0278	-0.052
Mof_H 	H 	0.5397	0.0278	0.2096	-0.052
Mof_H 	H 	0.8984	0.0533	0.2117	-0.174
Mof_H 	H 	0.3653	0.9931	0.3997	0.044
Mof_C 	C 	0.3641	0.91472	0.43036	-0.092
Mof_C 	C 	0.7466	0.59053	0.72839	0.54
Mof_C 	C 	0.2083	0.55422	0.22804	-0.264
Mof_C 	C 	0.7917	0.44578	0.77196	-0.256
Mof_C 	C 	0.3557	0.65884	0.17106	-0.105
Mof_C 	C 	0.2979	0.00501	0.28387	0.254
Mof_C 	C 	0.3005	0.84805	0.16021	0.098
Mof_C 	C 	0.3196	0.27132	0.65676	-0.166
Mof_C 	C 	0.2816	0.17405	0.93953	-0.094
Mof_C 	C 	0.4031	0.79366	0.04678	-0.278
Mof_C 	C 	0.6652	0.57709	0.19417	-0.187
Mof_C 	C 	0.2784	0.7856	0.94946	-0.372
Mof_C 	C 	0.2083	0.22804	0.55422	-0.264
Mof_C 	C 	0.8364	0.93074	0.72832	0.294
Mof_C 	C 	0.1636	0.27168	0.06926	0.302
Mof_C 	C 	0.3792	0.29785	0.10887	0.315
Mof_C 	C 	0.6077	0.42966	0.6962	-0.238
Mof_C 	C 	0.6033	0.70247	0.94673	-0.355
Mof_C 	C 	0.6033	0.94673	0.70247	-0.355
Mof_C 	C 	0.8182	0.72794	0.98598	-0.366
Mof_C 	C 	0.7179	0.10146	0.86794	-0.089
Mof_C 	C 	0.7705	0.17798	0.49926	-0.348
Mof_C 	C 	0.6432	0.86698	0.3021	-0.102
Mof_C 	C 	0.624	0.696	0.48926	0.169
Mof_C 	C 	0.2412	0.17627	0.28375	0.666
Mof_C 	C 	0.6931	0.40695	0.73259	0.18
Mof_C 	C 	0.3641	0.43036	0.91472	-0.092
Mof_C 	C 	0.3029	0.06907	0.79377	0.199
Mof_C 	C 	0.7185	0.20669	0.34335	0.773
Mof_C 	C 	0.3923	0.3038	0.57034	-0.242
Mof_C 	C 	0.315	0.13295	0.79721	-0.176
Mof_C 	C 	0.6995	0.15195	0.83979	0.1
Mof_C 	C 	0.7184	0.82595	0.06047	-0.092
Mof_C 	C 	0.304	0.41653	0.69693	-0.082
Mof_C 	C 	0.6359	0.56964	0.08528	-0.092
Mof_C 	C 	0.7588	0.82373	0.71625	0.655
Mof_C 	C 	0.8213	0.21164	0.02816	0.208
Mof_C 	C 	0.6664	0.77783	0.31529	0.103
Mof_C 	C 	0.7371	0.88284	0.71556	-0.513
Mof_C 	C 	0.2629	0.28444	0.11716	-0.529
Mof_C 	C 	0.3153	0.68407	0.32431	0.107
Mof_C 	C 	0.6986	0.19977	0.40231	-0.47
Mof_C 	C 	0.5839	0.47318	0.20954	-0.345
Mof_C 	C 	0.2617	0.88559	0.77955	0.519
Mof_C 	C 	0.1917	0.03099	0.79117	-0.297
Mof_C 	C 	0.6971	0.20623	0.93093	0.203
Mof_C 	C 	0.2977	0.65603	0.37435	-0.088
Mof_C 	C 	0.3348	0.16026	0.74888	0.099
Mof_C 	C 	0.2821	0.13206	0.89854	-0.091
Mof_C 	C 	0.4036	0.78759	0.58299	0.306
Mof_C 	C 	0.2981	0.91481	0.22783	0.103
Mof_C 	C 	0.6359	0.08528	0.56964	-0.092
Mof_C 	C 	0.687	0.71755	0.05561	-0.196
Mof_C 	C 	0.7466	0.72839	0.59053	0.54
Mof_C 	C 	0.7383	0.11441	0.22045	0.525
Mof_C 	C 	0.3348	0.74888	0.16026	0.099
Mof_C 	C 	0.6208	0.70215	0.89113	0.307
Mof_C 	C 	0.7254	0.52694	0.73236	-0.297
Mof_C 	C 	0.7023	0.34397	0.62565	-0.086
Mof_C 	C 	0.3352	0.3353	0.92112	0.108
Mof_C 	C 	0.3014	0.59769	0.80023	-0.466
Mof_C 	C 	0.7371	0.71556	0.88284	-0.513
Mof_C 	C 	0.2295	0.82202	0.50074	-0.345
Mof_C 	C 	0.8083	0.20883	0.96901	-0.301
Mof_C 	C 	0.7833	0.18131	0.44361	0.316
Mof_C 	C 	0.6099	0.21007	0.01307	0.201
Mof_C 	C 	0.2412	0.28375	0.17627	0.666
Mof_C 	C 	0.376	0.51074	0.304	0.174
Mof_C 	C 	0.4036	0.58299	0.78759	0.306
Mof_C 	C 	0.6711	0.19308	0.5153	0.241
Mof_C 	C 	0.2821	0.89854	0.13206	-0.091
Mof_C 	C 	0.3253	0.75194	0.3932	0.113
Mof_C 	C 	0.6432	0.3021	0.86698	-0.102
Mof_C 	C 	0.1787	0.78836	0.97184	0.201
Mof_C 	C 	0.2629	0.11716	0.28444	-0.529
Mof_C 	C 	0.7184	0.06047	0.82595	-0.092
Mof_C 	C 	0.3336	0.22217	0.68471	0.102
Mof_C 	C 	0.2295	0.50074	0.82202	-0.345
Mof_C 	C 	0.3196	0.65676	0.27132	-0.166
Mof_C 	C 	0.1914	0.49479	0.22863	0.203
Mof_C 	C 	0.2977	0.37435	0.65603	-0.088
Mof_C 	C 	0.624	0.48926	0.696	0.169
Mof_C 	C 	0.5964	0.21241	0.41701	0.311
Mof_C 	C 	0.7833	0.44361	0.18131	0.316
Mof_C 	C 	0.685	0.86705	0.20279	-0.176
Mof_C 	C 	0.7216	0.05054	0.2144	-0.379
Mof_C 	C 	0.2534	0.40947	0.27161	0.55
Mof_C 	C 	0.6711	0.5153	0.19308	0.241
Mof_C 	C 	0.6099	0.01307	0.21007	0.201
Mof_C 	C 	0.3967	0.29753	0.05327	-0.363
Mof_C 	C 	0.304	0.69693	0.41653	-0.082
Mof_C 	C 	0.2816	0.93953	0.17405	-0.094
Mof_C 	C 	0.3901	0.78993	0.98693	0.196
Mof_C 	C 	0.2167	0.81869	0.55639	0.309
Mof_C 	C 	0.6931	0.73259	0.40695	0.18
Mof_C 	C 	0.3348	0.80583	0.42291	-0.187
Mof_C 	C 	0.3967	0.05327	0.29753	-0.363
Mof_C 	C 	0.3568	0.6979	0.13302	-0.103
Mof_C 	C 	0.2167	0.55639	0.81869	0.309
Mof_C 	C 	0.8086	0.77137	0.50521	0.197
Mof_C 	C 	0.5964	0.41701	0.21241	0.311
Mof_C 	C 	0.3901	0.98693	0.78993	0.196
Mof_C 	C 	0.1818	0.27206	0.01402	-0.376
Mof_C 	C 	0.3336	0.68471	0.22217	0.102
Mof_C 	C 	0.6986	0.40231	0.19977	-0.47
Mof_C 	C 	0.3005	0.16021	0.84805	0.098
Mof_C 	C 	0.2815	0.79331	0.65665	0.764
Mof_C 	C 	0.7383	0.22045	0.11441	0.525
Mof_C 	C 	0.6652	0.83974	0.25112	0.101
Mof_C 	C 	0.1818	0.01402	0.27206	-0.376
Mof_C 	C 	0.5969	0.20634	0.95322	-0.282
Mof_C 	C 	0.1636	0.06926	0.27168	0.302
Mof_C 	C 	0.3014	0.80023	0.59769	-0.466
Mof_C 	C 	0.6428	0.60841	0.04713	-0.093
Mof_C 	C 	0.2981	0.22783	0.91481	0.103
Mof_C 	C 	0.687	0.05561	0.71755	-0.196
Mof_C 	C 	0.7216	0.2144	0.05054	-0.379
Mof_C 	C 	0.3029	0.79377	0.06907	0.199
Mof_C 	C 	0.8086	0.50521	0.77137	0.197
Mof_C 	C 	0.7705	0.49926	0.17798	-0.348
Mof_C 	C 	0.3572	0.39159	0.95287	-0.094
Mof_C 	C 	0.656	0.14163	0.60123	0.109
Mof_C 	C 	0.6664	0.31529	0.77783	0.103
Mof_C 	C 	0.2746	0.26764	0.47306	-0.307
Mof_C 	C 	0.3572	0.95287	0.39159	-0.094
Mof_C 	C 	0.7588	0.71625	0.82373	0.655
Mof_C 	C 	0.4161	0.52682	0.79046	-0.342
Mof_C 	C 	0.6648	0.6647	0.07888	0.109
Mof_C 	C 	0.5839	0.20954	0.47318	-0.345
Mof_C 	C 	0.3253	0.3932	0.75194	0.113
Mof_C 	C 	0.685	0.20279	0.86705	-0.176
Mof_C 	C 	0.6648	0.07888	0.6647	0.109
Mof_C 	C 	0.7179	0.86794	0.10146	-0.089
Mof_C 	C 	0.6847	0.31593	0.67569	0.108
Mof_C 	C 	0.313	0.28245	0.94439	-0.198
Mof_C 	C 	0.6804	0.34324	0.72868	-0.164
Mof_C 	C 	0.3352	0.92112	0.3353	0.108
Mof_C 	C 	0.4161	0.79046	0.52682	-0.342
Mof_C 	C 	0.6652	0.25112	0.83974	0.101
Mof_C 	C 	4.82743e-17	0.7648	0.2352	0.481
Mof_C 	C 	0.7917	0.77196	0.44578	-0.256
Mof_C 	C 	0.3069	0.59305	0.26741	0.182
Mof_C 	C 	0.7021	0.99499	0.71613	0.25
Mof_C 	C 	0.2746	0.47306	0.26764	-0.307
Mof_C 	C 	0.656	0.60123	0.14163	0.109
Mof_C 	C 	0.6428	0.04713	0.60841	-0.093
Mof_C 	C 	0.6971	0.93093	0.20623	0.203
Mof_C 	C 	0.7019	0.08519	0.77217	0.104
Mof_C 	C 	0.3923	0.57034	0.3038	-0.242
Mof_C 	C 	0.8364	0.72832	0.93074	0.294
Mof_C 	C 	0.6747	0.24806	0.6068	0.115
Mof_C 	C 	0.1914	0.22863	0.49479	0.203
Mof_C 	C 	0.3153	0.32431	0.68407	0.107
Mof_C 	C 	0.3792	0.10887	0.29785	0.315
Mof_C 	C 	0.344	0.39877	0.85837	0.108
Mof_C 	C 	0.2979	0.28387	0.00501	0.254
Mof_C 	C 	0.7254	0.73236	0.52694	-0.297
Mof_C 	C 	0.2534	0.27161	0.40947	0.55
Mof_C 	C 	0.6443	0.34116	0.82894	-0.104
Mof_C 	C 	0.3568	0.13302	0.6979	-0.103
Mof_C 	C 	0.1787	0.97184	0.78836	0.201
Mof_C 	C 	0.3289	0.80692	0.4847	0.238
Mof_C 	C 	0.8213	0.02816	0.21164	0.208
Mof_C 	C 	0.6847	0.67569	0.31593	0.108
Mof_C 	C 	0.8182	0.98598	0.72794	-0.366
Mof_C 	C 	0.4031	0.04678	0.79366	-0.278
Mof_C 	C 	0.6652	0.19417	0.57709	-0.187
Mof_C 	C 	0.2784	0.94946	0.7856	-0.372
Mof_C 	C 	0.7021	0.71613	0.99499	0.25
Mof_C 	C 	0.3069	0.26741	0.59305	0.182
Mof_C 	C 	0.7185	0.34335	0.20669	0.773
Mof_C 	C 	0.8083	0.96901	0.20883	-0.301
Mof_C 	C 	0.7019	0.77217	0.08519	0.104
Mof_C 	C 	0.6747	0.6068	0.24806	0.115
Mof_C 	C 	0.3557	0.17106	0.65884	-0.105
Mof_C 	C 	0.5969	0.95322	0.20634	-0.282
Mof_C 	C 	0.696	0.58347	0.30307	-0.081
Mof_C 	C 	0.315	0.79721	0.13295	-0.176
Mof_C 	C 	0.696	0.30307	0.58347	-0.081
Mof_C 	C 	0.6995	0.83979	0.15195	0.1
Mof_C 	C 	0.3348	0.42291	0.80583	-0.187
Mof_C 	C 	0.1917	0.79117	0.03099	-0.297
Mof_C 	C 	0.2617	0.77955	0.88559	0.519
Mof_C 	C 	0.6443	0.82894	0.34116	-0.104
Mof_C 	C 	0.6804	0.72868	0.34324	-0.164
Mof_C 	C 	0.376	0.304	0.51074	0.174
Mof_C 	C 	0.6208	0.89113	0.70215	0.307
Mof_C 	C 	0.313	0.94439	0.28245	-0.198
Mof_C 	C 	0.344	0.85837	0.39877	0.108
Mof_C 	C 	0.3289	0.4847	0.80692	0.238
Mof_C 	C 	0.7023	0.62565	0.34397	-0.086
Mof_C 	C 	0.6077	0.6962	0.42966	-0.238
Mof_C 	C 	7.35608e-17	0.2352	0.7648	0.481
Mof_C 	C 	0.2815	0.65665	0.79331	0.764
Mof_N 	N 	0.3271	0.21536	0.74016	-0.276
Mof_N 	N 	0.6729	0.25984	0.78464	-0.275
Mof_N 	N 	0.6915	0.1412	0.78178	-0.277
Mof_N 	N 	0.9829	0.31085	0.31085	0.059
Mof_N 	N 	0.3271	0.74016	0.21536	-0.276
Mof_N 	N 	0.3307	0.34122	0.86414	-0.275
Mof_N 	N 	0.6699	0.66324	0.2575	-0.268
Mof_N 	N 	0.3301	0.7425	0.33676	-0.268
Mof_N 	N 	0.6699	0.2575	0.66324	-0.268
Mof_N 	N 	0.3085	0.21822	0.8588	-0.278
Mof_N 	N 	0.3085	0.8588	0.21822	-0.278
Mof_N 	N 	0.6729	0.78464	0.25984	-0.275
Mof_N 	N 	0.0171	0.68915	0.68915	0.045
Mof_N 	N 	0.6693	0.13586	0.65878	-0.274
Mof_N 	N 	0.3307	0.86414	0.34122	-0.275
Mof_N 	N 	0.6693	0.65878	0.13586	-0.274
Mof_N 	N 	0.6915	0.78178	0.1412	-0.277
Mof_N 	N 	0.3301	0.33676	0.7425	-0.268
Mof_O 	O 	0.3534	0.86491	0.78203	-0.509
Mof_O 	O 	0.8122	0.1957	0.33126	-0.898
Mof_O 	O 	0.8967	0.74255	0.23061	-0.52
Mof_O 	O 	0.8681	0.7347	0.81836	-1.031
Mof_O 	O 	0.1537	0.77139	0.85263	-0.981
Mof_O 	O 	0.8122	0.33126	0.1957	-0.898
Mof_O 	O 	0.6725	0.69005	0.60835	-0.494
Mof_O 	O 	0.669	0.77977	0.69771	-0.944
Mof_O 	O 	0.9119	0.65855	0.65855	-0.283
Mof_O 	O 	0.6415	0.22515	0.30649	-0.99
Mof_O 	O 	0.6466	0.21797	0.13509	-0.512
Mof_O 	O 	0.1033	0.76939	0.25745	-0.535
Mof_O 	O 	0.8463	0.14737	0.22861	-0.999
Mof_O 	O 	0.6725	0.60835	0.69005	-0.494
Mof_O 	O 	0.1598	0.2388	0.37442	-0.826
Mof_O 	O 	0.1319	0.18164	0.2653	-1.068
Mof_O 	O 	0.013	0.72932	0.72932	-0.787
Mof_O 	O 	0.6415	0.30649	0.22515	-0.99
Mof_O 	O 	0.8402	0.7612	0.62558	-0.801
Mof_O 	O 	0.8967	0.23061	0.74255	-0.52
Mof_O 	O 	0.6466	0.13509	0.21797	-0.512
Mof_O 	O 	0.1878	0.8043	0.66874	-0.884
Mof_O 	O 	0.1216	0.68495	0.68495	-0.335
Mof_O 	O 	0.3534	0.78203	0.86491	-0.509
Mof_O 	O 	0.1033	0.25745	0.76939	-0.535
Mof_O 	O 	0.0881	0.34145	0.34145	-0.304
Mof_O 	O 	0.1537	0.85263	0.77139	-0.981
Mof_O 	O 	0.3275	0.30995	0.39165	-0.494
Mof_O 	O 	0.331	0.22023	0.30229	-0.947
Mof_O 	O 	0.3275	0.39165	0.30995	-0.494
Mof_O 	O 	0.331	0.30229	0.22023	-0.947
Mof_O 	O 	0.8784	0.31505	0.31505	-0.331
Mof_O 	O 	0.1878	0.66874	0.8043	-0.884
Mof_O 	O 	0.669	0.69771	0.77977	-0.944
Mof_O 	O 	0.3585	0.77485	0.69351	-0.986
Mof_O 	O 	0.8681	0.81836	0.7347	-1.031
Mof_O 	O 	0.1319	0.2653	0.18164	-1.068
Mof_O 	O 	0.8463	0.22861	0.14737	-0.999
Mof_O 	O 	0.8402	0.62558	0.7612	-0.801
Mof_O 	O 	0.987	0.27068	0.27068	-0.784
Mof_O 	O 	0.1598	0.37442	0.2388	-0.826
Mof_O 	O 	0.3585	0.69351	0.77485	-0.986
_end
