data_functionalizedCrystal
_audit_creation_method	'EQeq! by Chris Wilmer'
_symmetry_space_group_name_H-M	'P1'
_symmetry_Int_Tables_number	1
_symmetry_cell_setting	triclinic
loop_
_symmetry_equiv_pos_as_xyz
  x,y,z
_cell_length_a	8.5471
_cell_length_b	9.0496
_cell_length_c	12.0046
_cell_angle_alpha	90
_cell_angle_beta	90
_cell_angle_gamma	90
loop_
_atom_site_label
_atom_site_type_symbol
_atom_site_fract_x
_atom_site_fract_y
_atom_site_fract_z
_atom_site_charge
Mof_Mn	Mn	0.74966	0.75	0.25	1.058
Mof_Mn	Mn	0.24966	0.25	0.25	1.058
Mof_Mn	Mn	0.75034	0.75	0.75	1.068
Mof_Mn	Mn	0.25034	0.25	0.75	1.068
Mof_H 	H 	0.9194	0.0647	0.7316	-0.109
Mof_H 	H 	0.0806	0.9353	0.2684	-0.114
Mof_H 	H 	0.25	0.2064	-0	-0.092
Mof_H 	H 	0.5806	0.0647	0.2684	-0.12
Mof_H 	H 	0.4194	0.5647	0.7684	-0.113
Mof_H 	H 	0.5806	0.4353	0.2316	-0.124
Mof_H 	H 	0.75	0.7064	0.5	-0.109
Mof_H 	H 	0.9194	0.4353	0.7684	-0.113
Mof_H 	H 	0.0806	0.5647	0.2316	-0.123
Mof_H 	H 	0.25	0.2936	0.5	-0.109
Mof_H 	H 	0.75	0.7936	-0	-0.093
Mof_H 	H 	0.4194	0.9353	0.7316	-0.116
Mof_C 	C 	0.25	0.1909	0.5	0.504
Mof_C 	C 	0.5176	0.48432	0.28278	0.519
Mof_C 	C 	0.4824	0.51568	0.71722	0.52
Mof_C 	C 	0.75	0.6909	-0	0.395
Mof_C 	C 	0.0176	0.51568	0.28278	0.517
Mof_C 	C 	0.75	0.8091	0.5	0.504
Mof_C 	C 	0.5176	0.01568	0.21722	0.518
Mof_C 	C 	0.0176	0.98432	0.21722	0.496
Mof_C 	C 	0.9824	0.48432	0.71722	0.515
Mof_C 	C 	0.4824	0.98432	0.78278	0.516
Mof_C 	C 	0.9824	0.01568	0.78278	0.491
Mof_C 	C 	0.25	0.3091	-0	0.389
Mof_O 	O 	0.24557	0.13	0.59213	-0.375
Mof_O 	O 	0.0971	0.08373	0.81917	-0.36
Mof_O 	O 	0.44416	0.1117	0.80833	-0.356
Mof_O 	O 	0.9029	0.91627	0.18083	-0.384
Mof_O 	O 	0.94416	0.8883	0.80833	-0.346
Mof_O 	O 	0.0971	0.41627	0.68083	-0.384
Mof_O 	O 	0.05584	0.3883	0.30833	-0.37
Mof_O 	O 	0.74557	0.63	0.90787	-0.307
Mof_O 	O 	0.24557	0.37	0.90787	-0.303
Mof_O 	O 	0.5971	0.91627	0.81917	-0.372
Mof_O 	O 	0.05584	0.1117	0.19167	-0.366
Mof_O 	O 	0.75443	0.87	0.40787	-0.374
Mof_O 	O 	0.9029	0.58373	0.31917	-0.387
Mof_O 	O 	0.55584	0.8883	0.19167	-0.376
Mof_O 	O 	0.74557	0.87	0.59213	-0.375
Mof_O 	O 	0.5971	0.58373	0.68083	-0.386
Mof_O 	O 	0.25443	0.13	0.40787	-0.374
Mof_O 	O 	0.4029	0.08373	0.18083	-0.395
Mof_O 	O 	0.94416	0.6117	0.69167	-0.366
Mof_O 	O 	0.25443	0.37	0.09213	-0.358
Mof_O 	O 	0.4029	0.41627	0.31917	-0.389
Mof_O 	O 	0.44416	0.3883	0.69167	-0.368
Mof_O 	O 	0.75443	0.63	0.09213	-0.359
Mof_O 	O 	0.55584	0.6117	0.30833	-0.371
_end
