data_functionalizedCrystal
_audit_creation_method	'EQeq! by Chris Wilmer'
_symmetry_space_group_name_H-M	'P1'
_symmetry_Int_Tables_number	1
_symmetry_cell_setting	triclinic
loop_
_symmetry_equiv_pos_as_xyz
  x,y,z
_cell_length_a	17.2089
_cell_length_b	17.2089
_cell_length_c	28.523
_cell_angle_alpha	90
_cell_angle_beta	90
_cell_angle_gamma	90
loop_
_atom_site_label
_atom_site_type_symbol
_atom_site_fract_x
_atom_site_fract_y
_atom_site_fract_z
_atom_site_charge
Mof_Zn	Zn	0.83631	0.75	0.75	1.195
Mof_Zn	Zn	0.66369	0.75	0.75	1.195
Mof_Zn	Zn	0.75	0.83631	0.25	1.195
Mof_Zn	Zn	0.75	0.66369	0.25	1.195
Mof_Zn	Zn	0.16369	0.25	0.25	1.195
Mof_Zn	Zn	0.33631	0.25	0.25	1.195
Mof_Zn	Zn	0.25	0.16369	0.75	1.195
Mof_Zn	Zn	0.25	0.33631	0.75	1.195
Mof_Zn	Zn	0.04661	0.95339	0.534	1.195
Mof_Zn	Zn	0.45339	0.54661	0.534	1.196
Mof_Zn	Zn	0.54661	0.04661	0.034	1.196
Mof_Zn	Zn	0.95339	0.45339	0.034	1.196
Mof_Zn	Zn	0.45339	0.95339	0.966	1.196
Mof_Zn	Zn	0.04661	0.54661	0.966	1.196
Mof_Zn	Zn	0.95339	0.04661	0.466	1.196
Mof_Zn	Zn	0.54661	0.45339	0.466	1.197
Mof_H 	H 	0.6377	0.9534	0.6623	0.047
Mof_H 	H 	0.8567	0.8863	0.6222	0.037
Mof_H 	H 	0.7419	0.0546	0.5464	0.045
Mof_H 	H 	0.8623	0.5466	0.6623	0.047
Mof_H 	H 	0.6433	0.6137	0.6222	0.037
Mof_H 	H 	0.7581	0.4454	0.5464	0.045
Mof_H 	H 	0.5466	0.6377	0.1623	0.047
Mof_H 	H 	0.6137	0.8567	0.1222	0.037
Mof_H 	H 	0.4454	0.7419	0.0464	0.045
Mof_H 	H 	0.9534	0.8623	0.1623	0.047
Mof_H 	H 	0.8863	0.6433	0.1222	0.036
Mof_H 	H 	0.0546	0.7581	0.0464	0.045
Mof_H 	H 	0.8623	0.9534	0.8377	0.047
Mof_H 	H 	0.6433	0.8863	0.8778	0.036
Mof_H 	H 	0.7581	0.0546	0.9536	0.045
Mof_H 	H 	0.6377	0.5466	0.8377	0.047
Mof_H 	H 	0.8567	0.6137	0.8778	0.037
Mof_H 	H 	0.7419	0.4454	0.9536	0.045
Mof_H 	H 	0.9534	0.6377	0.3377	0.047
Mof_H 	H 	0.8863	0.8567	0.3778	0.037
Mof_H 	H 	0.0546	0.7419	0.4536	0.045
Mof_H 	H 	0.5466	0.8623	0.3377	0.047
Mof_H 	H 	0.6137	0.6433	0.3778	0.037
Mof_H 	H 	0.4454	0.7581	0.4536	0.045
Mof_H 	H 	0.3623	0.0466	0.3377	0.047
Mof_H 	H 	0.1433	0.1137	0.3778	0.037
Mof_H 	H 	0.2581	0.9454	0.4536	0.045
Mof_H 	H 	0.1377	0.4534	0.3377	0.047
Mof_H 	H 	0.3567	0.3863	0.3778	0.037
Mof_H 	H 	0.2419	0.5546	0.4536	0.045
Mof_H 	H 	0.4534	0.3623	0.8377	0.047
Mof_H 	H 	0.3863	0.1433	0.8778	0.037
Mof_H 	H 	0.5546	0.2581	0.9536	0.045
Mof_H 	H 	0.0466	0.1377	0.8377	0.047
Mof_H 	H 	0.1137	0.3567	0.8778	0.036
Mof_H 	H 	0.9454	0.2419	0.9536	0.045
Mof_H 	H 	0.1377	0.0466	0.1623	0.047
Mof_H 	H 	0.3567	0.1137	0.1222	0.036
Mof_H 	H 	0.2419	0.9454	0.0464	0.045
Mof_H 	H 	0.3623	0.4534	0.1623	0.047
Mof_H 	H 	0.1433	0.3863	0.1222	0.037
Mof_H 	H 	0.2581	0.5546	0.0464	0.045
Mof_H 	H 	0.0466	0.3623	0.6623	0.047
Mof_H 	H 	0.1137	0.1433	0.6222	0.037
Mof_H 	H 	0.9454	0.2581	0.5464	0.045
Mof_H 	H 	0.4534	0.1377	0.6623	0.047
Mof_H 	H 	0.3863	0.3567	0.6222	0.037
Mof_H 	H 	0.5546	0.2419	0.5464	0.045
Mof_C 	C 	0.67834	0.01501	0.604	0.001
Mof_C 	C 	0.67978	0.95842	0.64093	-0.01
Mof_C 	C 	0.74437	0.91075	0.64663	-0.104
Mof_C 	C 	0.80997	0.91701	0.61675	0.042
Mof_C 	C 	0.80719	0.97083	0.58024	-0.104
Mof_C 	C 	0.74261	0.01953	0.5729	-0.008
Mof_C 	C 	0.7452	0.8528	0.68526	0.386
Mof_C 	C 	0.8768	0.97642	0.54854	0.396
Mof_C 	C 	0.61683	0.06764	0.60033	-0.015
Mof_C 	C 	0.82166	0.48499	0.604	0.001
Mof_C 	C 	0.82022	0.54158	0.64093	-0.01
Mof_C 	C 	0.75563	0.58925	0.64663	-0.105
Mof_C 	C 	0.69003	0.58299	0.61675	0.043
Mof_C 	C 	0.69281	0.52917	0.58024	-0.104
Mof_C 	C 	0.75739	0.48047	0.5729	-0.008
Mof_C 	C 	0.7548	0.6472	0.68526	0.386
Mof_C 	C 	0.6232	0.52358	0.54854	0.395
Mof_C 	C 	0.88317	0.43236	0.60033	-0.015
Mof_C 	C 	0.48499	0.67834	0.104	0.001
Mof_C 	C 	0.54158	0.67978	0.14093	-0.01
Mof_C 	C 	0.58925	0.74437	0.14663	-0.104
Mof_C 	C 	0.58299	0.80997	0.11675	0.042
Mof_C 	C 	0.52917	0.80719	0.08024	-0.104
Mof_C 	C 	0.48047	0.74261	0.0729	-0.008
Mof_C 	C 	0.6472	0.7452	0.18526	0.386
Mof_C 	C 	0.52358	0.8768	0.04854	0.394
Mof_C 	C 	0.43236	0.61683	0.10033	-0.015
Mof_C 	C 	0.01501	0.82166	0.104	0.001
Mof_C 	C 	0.95842	0.82022	0.14093	-0.011
Mof_C 	C 	0.91075	0.75563	0.14663	-0.104
Mof_C 	C 	0.91701	0.69003	0.11675	0.043
Mof_C 	C 	0.97083	0.69281	0.08024	-0.105
Mof_C 	C 	0.01953	0.75739	0.0729	-0.006
Mof_C 	C 	0.8528	0.7548	0.18526	0.386
Mof_C 	C 	0.97642	0.6232	0.04854	0.392
Mof_C 	C 	0.06764	0.88317	0.10033	-0.015
Mof_C 	C 	0.82166	0.01501	0.896	0.001
Mof_C 	C 	0.82022	0.95842	0.85907	-0.011
Mof_C 	C 	0.75563	0.91075	0.85337	-0.104
Mof_C 	C 	0.69003	0.91701	0.88325	0.043
Mof_C 	C 	0.69281	0.97083	0.91976	-0.105
Mof_C 	C 	0.75739	0.01953	0.9271	-0.006
Mof_C 	C 	0.7548	0.8528	0.81474	0.386
Mof_C 	C 	0.6232	0.97642	0.95146	0.392
Mof_C 	C 	0.88317	0.06764	0.89967	-0.015
Mof_C 	C 	0.67834	0.48499	0.896	0.001
Mof_C 	C 	0.67978	0.54158	0.85907	-0.01
Mof_C 	C 	0.74437	0.58925	0.85337	-0.104
Mof_C 	C 	0.80997	0.58299	0.88325	0.042
Mof_C 	C 	0.80719	0.52917	0.91976	-0.104
Mof_C 	C 	0.74261	0.48047	0.9271	-0.008
Mof_C 	C 	0.7452	0.6472	0.81474	0.386
Mof_C 	C 	0.8768	0.52358	0.95146	0.394
Mof_C 	C 	0.61683	0.43236	0.89967	-0.015
Mof_C 	C 	0.01501	0.67834	0.396	0.001
Mof_C 	C 	0.95842	0.67978	0.35907	-0.01
Mof_C 	C 	0.91075	0.74437	0.35337	-0.104
Mof_C 	C 	0.91701	0.80997	0.38325	0.042
Mof_C 	C 	0.97083	0.80719	0.41976	-0.104
Mof_C 	C 	0.01953	0.74261	0.4271	-0.008
Mof_C 	C 	0.8528	0.7452	0.31474	0.386
Mof_C 	C 	0.97642	0.8768	0.45146	0.396
Mof_C 	C 	0.06764	0.61683	0.39967	-0.015
Mof_C 	C 	0.48499	0.82166	0.396	0.001
Mof_C 	C 	0.54158	0.82022	0.35907	-0.01
Mof_C 	C 	0.58925	0.75563	0.35337	-0.105
Mof_C 	C 	0.58299	0.69003	0.38325	0.043
Mof_C 	C 	0.52917	0.69281	0.41976	-0.104
Mof_C 	C 	0.48047	0.75739	0.4271	-0.008
Mof_C 	C 	0.6472	0.7548	0.31474	0.386
Mof_C 	C 	0.52358	0.6232	0.45146	0.395
Mof_C 	C 	0.43236	0.88317	0.39967	-0.015
Mof_C 	C 	0.32166	0.98499	0.396	0.001
Mof_C 	C 	0.32022	0.04158	0.35907	-0.01
Mof_C 	C 	0.25563	0.08925	0.35337	-0.104
Mof_C 	C 	0.19003	0.08299	0.38325	0.042
Mof_C 	C 	0.19281	0.02917	0.41976	-0.104
Mof_C 	C 	0.25739	0.98047	0.4271	-0.008
Mof_C 	C 	0.2548	0.1472	0.31474	0.386
Mof_C 	C 	0.1232	0.02358	0.45146	0.396
Mof_C 	C 	0.38317	0.93236	0.39967	-0.015
Mof_C 	C 	0.17834	0.51501	0.396	0.001
Mof_C 	C 	0.17978	0.45842	0.35907	-0.01
Mof_C 	C 	0.24437	0.41075	0.35337	-0.105
Mof_C 	C 	0.30997	0.41701	0.38325	0.043
Mof_C 	C 	0.30719	0.47083	0.41976	-0.104
Mof_C 	C 	0.24261	0.51953	0.4271	-0.008
Mof_C 	C 	0.2452	0.3528	0.31474	0.386
Mof_C 	C 	0.3768	0.47642	0.45146	0.395
Mof_C 	C 	0.11683	0.56764	0.39967	-0.015
Mof_C 	C 	0.51501	0.32166	0.896	0.001
Mof_C 	C 	0.45842	0.32022	0.85907	-0.01
Mof_C 	C 	0.41075	0.25563	0.85337	-0.104
Mof_C 	C 	0.41701	0.19003	0.88325	0.042
Mof_C 	C 	0.47083	0.19281	0.91976	-0.104
Mof_C 	C 	0.51953	0.25739	0.9271	-0.008
Mof_C 	C 	0.3528	0.2548	0.81474	0.386
Mof_C 	C 	0.47642	0.1232	0.95146	0.394
Mof_C 	C 	0.56764	0.38317	0.89967	-0.015
Mof_C 	C 	0.98499	0.17834	0.896	0.001
Mof_C 	C 	0.04158	0.17978	0.85907	-0.011
Mof_C 	C 	0.08925	0.24437	0.85337	-0.104
Mof_C 	C 	0.08299	0.30997	0.88325	0.043
Mof_C 	C 	0.02917	0.30719	0.91976	-0.105
Mof_C 	C 	0.98047	0.24261	0.9271	-0.006
Mof_C 	C 	0.1472	0.2452	0.81474	0.386
Mof_C 	C 	0.02358	0.3768	0.95146	0.392
Mof_C 	C 	0.93236	0.11683	0.89967	-0.015
Mof_C 	C 	0.17834	0.98499	0.104	0.001
Mof_C 	C 	0.17978	0.04158	0.14093	-0.011
Mof_C 	C 	0.24437	0.08925	0.14663	-0.104
Mof_C 	C 	0.30997	0.08299	0.11675	0.043
Mof_C 	C 	0.30719	0.02917	0.08024	-0.105
Mof_C 	C 	0.24261	0.98047	0.0729	-0.006
Mof_C 	C 	0.2452	0.1472	0.18526	0.386
Mof_C 	C 	0.3768	0.02358	0.04854	0.392
Mof_C 	C 	0.11683	0.93236	0.10033	-0.015
Mof_C 	C 	0.32166	0.51501	0.104	0.001
Mof_C 	C 	0.32022	0.45842	0.14093	-0.01
Mof_C 	C 	0.25563	0.41075	0.14663	-0.104
Mof_C 	C 	0.19003	0.41701	0.11675	0.042
Mof_C 	C 	0.19281	0.47083	0.08024	-0.104
Mof_C 	C 	0.25739	0.51953	0.0729	-0.008
Mof_C 	C 	0.2548	0.3528	0.18526	0.386
Mof_C 	C 	0.1232	0.47642	0.04854	0.394
Mof_C 	C 	0.38317	0.56764	0.10033	-0.015
Mof_C 	C 	0.98499	0.32166	0.604	0.001
Mof_C 	C 	0.04158	0.32022	0.64093	-0.01
Mof_C 	C 	0.08925	0.25563	0.64663	-0.104
Mof_C 	C 	0.08299	0.19003	0.61675	0.042
Mof_C 	C 	0.02917	0.19281	0.58024	-0.104
Mof_C 	C 	0.98047	0.25739	0.5729	-0.008
Mof_C 	C 	0.1472	0.2548	0.68526	0.386
Mof_C 	C 	0.02358	0.1232	0.54854	0.396
Mof_C 	C 	0.93236	0.38317	0.60033	-0.015
Mof_C 	C 	0.51501	0.17834	0.604	0.001
Mof_C 	C 	0.45842	0.17978	0.64093	-0.01
Mof_C 	C 	0.41075	0.24437	0.64663	-0.105
Mof_C 	C 	0.41701	0.30997	0.61675	0.043
Mof_C 	C 	0.47083	0.30719	0.58024	-0.104
Mof_C 	C 	0.51953	0.24261	0.5729	-0.008
Mof_C 	C 	0.3528	0.2452	0.68526	0.386
Mof_C 	C 	0.47642	0.3768	0.54854	0.395
Mof_C 	C 	0.56764	0.11683	0.60033	-0.015
Mof_O 	O 	0.80916	0.81989	0.6945	-0.474
Mof_O 	O 	0.68214	0.84146	0.70726	-0.476
Mof_O 	O 	0.93884	0.94514	0.56173	-0.484
Mof_O 	O 	0.86768	0.01623	0.51165	-0.474
Mof_O 	O 	0.69084	0.68011	0.6945	-0.474
Mof_O 	O 	0.81786	0.65854	0.70726	-0.475
Mof_O 	O 	0.56116	0.55486	0.56173	-0.485
Mof_O 	O 	0.63232	0.48377	0.51165	-0.473
Mof_O 	O 	0.68011	0.80916	0.1945	-0.474
Mof_O 	O 	0.65854	0.68214	0.20726	-0.476
Mof_O 	O 	0.55486	0.93884	0.06173	-0.484
Mof_O 	O 	0.48377	0.86768	0.01165	-0.473
Mof_O 	O 	0.81989	0.69084	0.1945	-0.474
Mof_O 	O 	0.84146	0.81786	0.20726	-0.475
Mof_O 	O 	0.94514	0.56116	0.06173	-0.485
Mof_O 	O 	0.01623	0.63232	0.01165	-0.471
Mof_O 	O 	0.69084	0.81989	0.8055	-0.474
Mof_O 	O 	0.81786	0.84146	0.79274	-0.475
Mof_O 	O 	0.56116	0.94514	0.93827	-0.485
Mof_O 	O 	0.63232	0.01623	0.98835	-0.471
Mof_O 	O 	0.80916	0.68011	0.8055	-0.474
Mof_O 	O 	0.68214	0.65854	0.79274	-0.476
Mof_O 	O 	0.93884	0.55486	0.93827	-0.484
Mof_O 	O 	0.86768	0.48377	0.98835	-0.473
Mof_O 	O 	0.81989	0.80916	0.3055	-0.474
Mof_O 	O 	0.84146	0.68214	0.29274	-0.476
Mof_O 	O 	0.94514	0.93884	0.43827	-0.484
Mof_O 	O 	0.01623	0.86768	0.48835	-0.474
Mof_O 	O 	0.68011	0.69084	0.3055	-0.474
Mof_O 	O 	0.65854	0.81786	0.29274	-0.475
Mof_O 	O 	0.55486	0.56116	0.43827	-0.485
Mof_O 	O 	0.48377	0.63232	0.48835	-0.473
Mof_O 	O 	0.19084	0.18011	0.3055	-0.474
Mof_O 	O 	0.31786	0.15854	0.29274	-0.476
Mof_O 	O 	0.06116	0.05486	0.43827	-0.484
Mof_O 	O 	0.13232	0.98377	0.48835	-0.474
Mof_O 	O 	0.30916	0.31989	0.3055	-0.474
Mof_O 	O 	0.18214	0.34146	0.29274	-0.475
Mof_O 	O 	0.43884	0.44514	0.43827	-0.485
Mof_O 	O 	0.36768	0.51623	0.48835	-0.473
Mof_O 	O 	0.31989	0.19084	0.8055	-0.474
Mof_O 	O 	0.34146	0.31786	0.79274	-0.476
Mof_O 	O 	0.44514	0.06116	0.93827	-0.484
Mof_O 	O 	0.51623	0.13232	0.98835	-0.473
Mof_O 	O 	0.18011	0.30916	0.8055	-0.474
Mof_O 	O 	0.15854	0.18214	0.79274	-0.475
Mof_O 	O 	0.05486	0.43884	0.93827	-0.485
Mof_O 	O 	0.98377	0.36768	0.98835	-0.471
Mof_O 	O 	0.30916	0.18011	0.1945	-0.474
Mof_O 	O 	0.18214	0.15854	0.20726	-0.475
Mof_O 	O 	0.43884	0.05486	0.06173	-0.485
Mof_O 	O 	0.36768	0.98377	0.01165	-0.471
Mof_O 	O 	0.19084	0.31989	0.1945	-0.474
Mof_O 	O 	0.31786	0.34146	0.20726	-0.476
Mof_O 	O 	0.06116	0.44514	0.06173	-0.484
Mof_O 	O 	0.13232	0.51623	0.01165	-0.473
Mof_O 	O 	0.18011	0.19084	0.6945	-0.474
Mof_O 	O 	0.15854	0.31786	0.70726	-0.476
Mof_O 	O 	0.05486	0.06116	0.56173	-0.484
Mof_O 	O 	0.98377	0.13232	0.51165	-0.474
Mof_O 	O 	0.31989	0.30916	0.6945	-0.474
Mof_O 	O 	0.34146	0.18214	0.70726	-0.475
Mof_O 	O 	0.44514	0.43884	0.56173	-0.485
Mof_O 	O 	0.51623	0.36768	0.51165	-0.473
_end
