data_functionalizedCrystal
_audit_creation_method	'EQeq! by Chris Wilmer'
_symmetry_space_group_name_H-M	'P1'
_symmetry_Int_Tables_number	1
_symmetry_cell_setting	triclinic
loop_
_symmetry_equiv_pos_as_xyz
  x,y,z
_cell_length_a	22.7022
_cell_length_b	14.5656
_cell_length_c	28.2647
_cell_angle_alpha	90
_cell_angle_beta	90
_cell_angle_gamma	90
loop_
_atom_site_label
_atom_site_type_symbol
_atom_site_fract_x
_atom_site_fract_y
_atom_site_fract_z
_atom_site_charge
Mof_C 	C 	0.7579	0.9899	0.05967	0.233
Mof_C 	C 	0.7103	0.9822	0.02201	0.186
Mof_C 	C 	0.6739	0.9124	0.02025	-0.341
Mof_H 	H 	0.6774	0.8642	0.0417	0.171
Mof_C 	C 	0.6294	0.9111	0.9855	0.373
Mof_H 	H 	0.602	0.8638	0.9874	-0.103
Mof_C 	C 	0.6229	0.9691	0.95133	-0.55
Mof_C 	C 	0.6658	0.0308	0.9492	0.349
Mof_H 	H 	0.6672	0.0699	0.9232	-0.1
Mof_C 	C 	0.7086	0.0395	0.9839	-0.321
Mof_H 	H 	0.7367	0.0855	0.9811	0.161
Mof_C 	C 	0.4099	0.6197	0.93412	0.303
Mof_C 	C 	0.44749	0.7021	0.92676	0.066
Mof_C 	C 	0.4766	0.7138	0.88557	-0.188
Mof_H 	H 	0.4731	0.6703	0.8616	0.112
Mof_C 	C 	0.512	0.7916	0.87896	0.201
Mof_H 	H 	0.5312	0.7987	0.8501	-0.046
Mof_C 	C 	0.51995	0.8583	0.91308	-0.409
Mof_C 	C 	0.4876	0.8423	0.95404	0.213
Mof_H 	H 	0.4898	0.8856	0.9782	-0.055
Mof_C 	C 	0.4526	0.7662	0.96096	-0.197
Mof_H 	H 	0.4325	0.7589	0.9894	0.114
Mof_C 	C 	0.6832	0.9248	0.70763	0.309
Mof_C 	C 	0.6562	0.9365	0.75625	0.084
Mof_C 	C 	0.6762	0.891	0.79487	-0.226
Mof_H 	H 	0.7083	0.8521	0.7915	0.126
Mof_C 	C 	0.6513	0.8997	0.83829	0.245
Mof_H 	H 	0.667	0.8666	0.8634	-0.062
Mof_C 	C 	0.60397	0.9553	0.84633	-0.426
Mof_C 	C 	0.5858	0.0058	0.80716	0.224
Mof_H 	H 	0.5545	0.0465	0.8105	-0.053
Mof_C 	C 	0.6124	0.9973	0.76394	-0.213
Mof_H 	H 	0.5999	0.0345	0.7392	0.122
Mof_C 	C 	0.3983	0.2962	0.89545	0.27
Mof_C 	C 	0.43943	0.2172	0.8988	0.092
Mof_C 	C 	0.4211	0.1308	0.8882	-0.226
Mof_H 	H 	0.3823	0.1221	0.8785	0.131
Mof_C 	C 	0.458	0.0551	0.8914	0.237
Mof_H 	H 	0.4429	0.9972	0.8847	-0.057
Mof_C 	C 	0.51578	0.0633	0.9041	-0.44
Mof_C 	C 	0.5331	0.1498	0.9138	0.24
Mof_H 	H 	0.572	0.159	0.9231	-0.062
Mof_C 	C 	0.4955	0.2276	0.9107	-0.222
Mof_H 	H 	0.5103	0.2859	0.9171	0.129
Mof_Co	Co	0.8512	0.03902	0.10788	1.2
Mof_O 	O 	0.7574	0.9346	0.09335	-0.269
Mof_O 	O 	0.79484	0.0513	0.05454	-0.383
Mof_O 	O 	0.3953	0.5983	0.9745	-0.259
Mof_O 	O 	0.39452	0.5781	0.89758	-0.399
Mof_O 	O 	0.72387	0.8703	0.70271	-0.248
Mof_O 	O 	0.65913	0.9693	0.67536	-0.419
Mof_O 	O 	0.34642	0.2852	0.88641	-0.295
Mof_O 	O 	0.41892	0.3731	0.90455	-0.385
Mof_Si	Si	0.56583	0.96228	0.90438	1.046
Mof_C 	C 	0.7421	0.0101	0.55967	0.234
Mof_C 	C 	0.7897	0.0178	0.52201	0.186
Mof_C 	C 	0.8261	0.0876	0.52025	-0.34
Mof_H 	H 	0.8226	0.1358	0.5417	0.173
Mof_C 	C 	0.8706	0.0889	0.4855	0.375
Mof_H 	H 	0.898	0.1362	0.4874	-0.102
Mof_C 	C 	0.8771	0.0309	0.45133	-0.55
Mof_C 	C 	0.8342	0.9692	0.4492	0.351
Mof_H 	H 	0.8328	0.9301	0.4232	-0.099
Mof_C 	C 	0.7914	0.9605	0.4839	-0.32
Mof_H 	H 	0.7633	0.9145	0.4811	0.162
Mof_C 	C 	0.0901	0.3803	0.43412	0.304
Mof_C 	C 	0.05251	0.2979	0.42676	0.067
Mof_C 	C 	0.0234	0.2862	0.38557	-0.187
Mof_H 	H 	0.0269	0.3297	0.3616	0.113
Mof_C 	C 	0.988	0.2084	0.37896	0.202
Mof_H 	H 	0.9688	0.2013	0.3501	-0.046
Mof_C 	C 	0.98005	0.1417	0.41308	-0.408
Mof_C 	C 	0.0124	0.1577	0.45404	0.213
Mof_H 	H 	0.0102	0.1144	0.4782	-0.055
Mof_C 	C 	0.0474	0.2338	0.46096	-0.197
Mof_H 	H 	0.0675	0.2411	0.4894	0.114
Mof_C 	C 	0.8168	0.0752	0.20763	0.308
Mof_C 	C 	0.8438	0.0635	0.25625	0.085
Mof_C 	C 	0.8238	0.109	0.29487	-0.227
Mof_H 	H 	0.7917	0.1479	0.2915	0.127
Mof_C 	C 	0.8487	0.1003	0.33829	0.246
Mof_H 	H 	0.833	0.1334	0.3634	-0.063
Mof_C 	C 	0.89603	0.0447	0.34633	-0.427
Mof_C 	C 	0.9142	0.9942	0.30716	0.226
Mof_H 	H 	0.9455	0.9535	0.3105	-0.054
Mof_C 	C 	0.8876	0.0027	0.26394	-0.216
Mof_H 	H 	0.9001	0.9655	0.2392	0.123
Mof_C 	C 	0.1017	0.7038	0.39545	0.271
Mof_C 	C 	0.06057	0.7828	0.3988	0.092
Mof_C 	C 	0.0789	0.8692	0.3882	-0.225
Mof_H 	H 	0.1177	0.8779	0.3785	0.131
Mof_C 	C 	0.042	0.9449	0.3914	0.235
Mof_H 	H 	0.0571	0.0028	0.3847	-0.056
Mof_C 	C 	0.98422	0.9367	0.4041	-0.439
Mof_C 	C 	0.9669	0.8502	0.4138	0.24
Mof_H 	H 	0.928	0.841	0.4231	-0.062
Mof_C 	C 	0.0045	0.7724	0.4107	-0.223
Mof_H 	H 	0.9897	0.7141	0.4171	0.129
Mof_Co	Co	0.6488	0.96098	0.60788	1.201
Mof_O 	O 	0.7426	0.0654	0.59335	-0.269
Mof_O 	O 	0.70516	0.9487	0.55454	-0.383
Mof_O 	O 	0.1047	0.4017	0.4745	-0.259
Mof_O 	O 	0.10548	0.4219	0.39758	-0.399
Mof_O 	O 	0.77613	0.1297	0.20271	-0.248
Mof_O 	O 	0.84087	0.0307	0.17536	-0.419
Mof_O 	O 	0.15358	0.7148	0.38641	-0.295
Mof_O 	O 	0.08108	0.6269	0.40455	-0.385
Mof_Si	Si	0.93417	0.03772	0.40438	1.046
Mof_C 	C 	0.2421	0.4899	0.44033	0.234
Mof_C 	C 	0.2897	0.4822	0.47799	0.186
Mof_C 	C 	0.3261	0.4124	0.47975	-0.34
Mof_H 	H 	0.3226	0.3642	0.4583	0.173
Mof_C 	C 	0.3706	0.4111	0.5145	0.375
Mof_H 	H 	0.398	0.3638	0.5126	-0.102
Mof_C 	C 	0.3771	0.4691	0.54867	-0.549
Mof_C 	C 	0.3342	0.5308	0.5508	0.35
Mof_H 	H 	0.3328	0.5699	0.5768	-0.099
Mof_C 	C 	0.2914	0.5395	0.5161	-0.32
Mof_H 	H 	0.2633	0.5855	0.5189	0.162
Mof_C 	C 	0.5901	0.1197	0.56588	0.304
Mof_C 	C 	0.55251	0.2021	0.57324	0.067
Mof_C 	C 	0.5234	0.2138	0.61443	-0.187
Mof_H 	H 	0.5269	0.1703	0.6384	0.113
Mof_C 	C 	0.488	0.2916	0.62104	0.202
Mof_H 	H 	0.4688	0.2987	0.6499	-0.045
Mof_C 	C 	0.48005	0.3583	0.58692	-0.408
Mof_C 	C 	0.5124	0.3423	0.54596	0.213
Mof_H 	H 	0.5102	0.3856	0.5218	-0.055
Mof_C 	C 	0.5474	0.2662	0.53904	-0.197
Mof_H 	H 	0.5675	0.2589	0.5106	0.114
Mof_C 	C 	0.3168	0.4248	0.79237	0.309
Mof_C 	C 	0.3438	0.4365	0.74375	0.084
Mof_C 	C 	0.3238	0.391	0.70513	-0.226
Mof_H 	H 	0.2917	0.3521	0.7085	0.126
Mof_C 	C 	0.3487	0.3997	0.66171	0.245
Mof_H 	H 	0.333	0.3666	0.6366	-0.062
Mof_C 	C 	0.39603	0.4553	0.65367	-0.426
Mof_C 	C 	0.4142	0.5058	0.69284	0.223
Mof_H 	H 	0.4455	0.5465	0.6895	-0.053
Mof_C 	C 	0.3876	0.4973	0.73606	-0.213
Mof_H 	H 	0.4001	0.5345	0.7608	0.122
Mof_C 	C 	0.6017	0.7962	0.60455	0.271
Mof_C 	C 	0.56057	0.7172	0.6012	0.092
Mof_C 	C 	0.5789	0.6308	0.6118	-0.225
Mof_H 	H 	0.6177	0.6221	0.6215	0.131
Mof_C 	C 	0.542	0.5551	0.6086	0.237
Mof_H 	H 	0.5571	0.4972	0.6153	-0.057
Mof_C 	C 	0.48422	0.5633	0.5959	-0.44
Mof_C 	C 	0.4669	0.6498	0.5862	0.24
Mof_H 	H 	0.428	0.659	0.5769	-0.062
Mof_C 	C 	0.5045	0.7276	0.5893	-0.222
Mof_H 	H 	0.4897	0.7859	0.5829	0.129
Mof_Co	Co	0.1488	0.53902	0.39212	1.201
Mof_O 	O 	0.2426	0.4346	0.40665	-0.269
Mof_O 	O 	0.20516	0.5513	0.44546	-0.383
Mof_O 	O 	0.6047	0.0983	0.5255	-0.259
Mof_O 	O 	0.60548	0.0781	0.60242	-0.399
Mof_O 	O 	0.27613	0.3703	0.79729	-0.248
Mof_O 	O 	0.34087	0.4693	0.82464	-0.419
Mof_O 	O 	0.65358	0.7852	0.61359	-0.295
Mof_O 	O 	0.58108	0.8731	0.59545	-0.385
Mof_Si	Si	0.43417	0.46228	0.59562	1.046
Mof_C 	C 	0.2579	0.5101	0.94033	0.234
Mof_C 	C 	0.2103	0.5178	0.97799	0.187
Mof_C 	C 	0.1739	0.5876	0.97975	-0.34
Mof_H 	H 	0.1774	0.6358	0.9583	0.172
Mof_C 	C 	0.1294	0.5889	0.0145	0.375
Mof_H 	H 	0.102	0.6362	0.0126	-0.102
Mof_C 	C 	0.1229	0.5309	0.04867	-0.549
Mof_C 	C 	0.1658	0.4692	0.0508	0.35
Mof_H 	H 	0.1672	0.4301	0.0768	-0.099
Mof_C 	C 	0.2086	0.4605	0.0161	-0.32
Mof_H 	H 	0.2367	0.4145	0.0189	0.162
Mof_C 	C 	0.9099	0.8803	0.06588	0.304
Mof_C 	C 	0.94749	0.7979	0.07324	0.067
Mof_C 	C 	0.9766	0.7862	0.11443	-0.186
Mof_H 	H 	0.9731	0.8297	0.1384	0.113
Mof_C 	C 	0.012	0.7084	0.12104	0.202
Mof_H 	H 	0.0312	0.7013	0.1499	-0.045
Mof_C 	C 	0.01995	0.6417	0.08692	-0.408
Mof_C 	C 	0.9876	0.6577	0.04596	0.213
Mof_H 	H 	0.9898	0.6144	0.0218	-0.055
Mof_C 	C 	0.9526	0.7338	0.03904	-0.197
Mof_H 	H 	0.9325	0.7411	0.0106	0.114
Mof_C 	C 	0.1832	0.5752	0.29237	0.309
Mof_C 	C 	0.1562	0.5635	0.24375	0.083
Mof_C 	C 	0.1762	0.609	0.20513	-0.226
Mof_H 	H 	0.2083	0.6479	0.2085	0.126
Mof_C 	C 	0.1513	0.6003	0.16171	0.245
Mof_H 	H 	0.167	0.6334	0.1366	-0.062
Mof_C 	C 	0.10397	0.5447	0.15367	-0.426
Mof_C 	C 	0.0858	0.4942	0.19284	0.223
Mof_H 	H 	0.0545	0.4535	0.1895	-0.053
Mof_C 	C 	0.1124	0.5027	0.23606	-0.213
Mof_H 	H 	0.0999	0.4655	0.2608	0.122
Mof_C 	C 	0.8983	0.2038	0.10455	0.271
Mof_C 	C 	0.93943	0.2828	0.1012	0.092
Mof_C 	C 	0.9211	0.3692	0.1118	-0.225
Mof_H 	H 	0.8823	0.3779	0.1215	0.131
Mof_C 	C 	0.958	0.4449	0.1086	0.237
Mof_H 	H 	0.9429	0.5028	0.1153	-0.057
Mof_C 	C 	0.01578	0.4367	0.0959	-0.44
Mof_C 	C 	0.0331	0.3502	0.0862	0.239
Mof_H 	H 	0.072	0.341	0.0769	-0.062
Mof_C 	C 	0.9955	0.2724	0.0893	-0.222
Mof_H 	H 	0.0103	0.2141	0.0829	0.128
Mof_Co	Co	0.3512	0.46098	0.89212	1.201
Mof_O 	O 	0.2574	0.5654	0.90665	-0.269
Mof_O 	O 	0.29484	0.4487	0.94546	-0.383
Mof_O 	O 	0.8953	0.9017	0.0255	-0.258
Mof_O 	O 	0.89452	0.9219	0.10242	-0.399
Mof_O 	O 	0.22387	0.6297	0.29729	-0.248
Mof_O 	O 	0.15913	0.5307	0.32464	-0.419
Mof_O 	O 	0.84642	0.2148	0.11359	-0.295
Mof_O 	O 	0.91892	0.1269	0.09545	-0.385
Mof_Si	Si	0.06583	0.53772	0.09562	1.046
Mof_C 	C 	0.2421	0.0101	0.94033	0.234
Mof_C 	C 	0.2897	0.0178	0.97799	0.187
Mof_C 	C 	0.3261	0.0876	0.97975	-0.34
Mof_H 	H 	0.3226	0.1358	0.9583	0.172
Mof_C 	C 	0.3706	0.0889	0.0145	0.374
Mof_H 	H 	0.398	0.1362	0.0126	-0.102
Mof_C 	C 	0.3771	0.0309	0.04867	-0.549
Mof_C 	C 	0.3342	0.9692	0.0508	0.35
Mof_H 	H 	0.3328	0.9301	0.0768	-0.099
Mof_C 	C 	0.2914	0.9605	0.0161	-0.32
Mof_H 	H 	0.2633	0.9145	0.0189	0.162
Mof_C 	C 	0.5901	0.3803	0.06588	0.304
Mof_C 	C 	0.55251	0.2979	0.07324	0.067
Mof_C 	C 	0.5234	0.2862	0.11443	-0.187
Mof_H 	H 	0.5269	0.3297	0.1384	0.113
Mof_C 	C 	0.488	0.2084	0.12104	0.202
Mof_H 	H 	0.4688	0.2013	0.1499	-0.045
Mof_C 	C 	0.48005	0.1417	0.08692	-0.408
Mof_C 	C 	0.5124	0.1577	0.04596	0.213
Mof_H 	H 	0.5102	0.1144	0.0218	-0.055
Mof_C 	C 	0.5474	0.2338	0.03904	-0.197
Mof_H 	H 	0.5675	0.2411	0.0106	0.114
Mof_C 	C 	0.3168	0.0752	0.29237	0.309
Mof_C 	C 	0.3438	0.0635	0.24375	0.084
Mof_C 	C 	0.3238	0.109	0.20513	-0.226
Mof_H 	H 	0.2917	0.1479	0.2085	0.126
Mof_C 	C 	0.3487	0.1003	0.16171	0.245
Mof_H 	H 	0.333	0.1334	0.1366	-0.062
Mof_C 	C 	0.39603	0.0447	0.15367	-0.426
Mof_C 	C 	0.4142	0.9942	0.19284	0.224
Mof_H 	H 	0.4455	0.9535	0.1895	-0.053
Mof_C 	C 	0.3876	0.0027	0.23606	-0.213
Mof_H 	H 	0.4001	0.9655	0.2608	0.122
Mof_C 	C 	0.6017	0.7038	0.10455	0.27
Mof_C 	C 	0.56057	0.7828	0.1012	0.092
Mof_C 	C 	0.5789	0.8692	0.1118	-0.226
Mof_H 	H 	0.6177	0.8779	0.1215	0.131
Mof_C 	C 	0.542	0.9449	0.1086	0.237
Mof_H 	H 	0.5571	0.0028	0.1153	-0.057
Mof_C 	C 	0.48422	0.9367	0.0959	-0.44
Mof_C 	C 	0.4669	0.8502	0.0862	0.24
Mof_H 	H 	0.428	0.841	0.0769	-0.062
Mof_C 	C 	0.5045	0.7724	0.0893	-0.222
Mof_H 	H 	0.4897	0.7141	0.0829	0.129
Mof_Co	Co	0.1488	0.96098	0.89212	1.2
Mof_O 	O 	0.2426	0.0654	0.90665	-0.269
Mof_O 	O 	0.20516	0.9487	0.94546	-0.383
Mof_O 	O 	0.6047	0.4017	0.0255	-0.259
Mof_O 	O 	0.60548	0.4219	0.10242	-0.399
Mof_O 	O 	0.27613	0.1297	0.29729	-0.248
Mof_O 	O 	0.34087	0.0307	0.32464	-0.419
Mof_O 	O 	0.65358	0.7148	0.11359	-0.295
Mof_O 	O 	0.58108	0.6269	0.09545	-0.385
Mof_Si	Si	0.43417	0.03772	0.09562	1.046
Mof_C 	C 	0.2579	0.9899	0.44033	0.234
Mof_C 	C 	0.2103	0.9822	0.47799	0.186
Mof_C 	C 	0.1739	0.9124	0.47975	-0.34
Mof_H 	H 	0.1774	0.8642	0.4583	0.173
Mof_C 	C 	0.1294	0.9111	0.5145	0.375
Mof_H 	H 	0.102	0.8638	0.5126	-0.102
Mof_C 	C 	0.1229	0.9691	0.54867	-0.55
Mof_C 	C 	0.1658	0.0308	0.5508	0.351
Mof_H 	H 	0.1672	0.0699	0.5768	-0.099
Mof_C 	C 	0.2086	0.0395	0.5161	-0.32
Mof_H 	H 	0.2367	0.0855	0.5189	0.162
Mof_C 	C 	0.9099	0.6197	0.56588	0.304
Mof_C 	C 	0.94749	0.7021	0.57324	0.067
Mof_C 	C 	0.9766	0.7138	0.61443	-0.187
Mof_H 	H 	0.9731	0.6703	0.6384	0.113
Mof_C 	C 	0.012	0.7916	0.62104	0.202
Mof_H 	H 	0.0312	0.7987	0.6499	-0.046
Mof_C 	C 	0.01995	0.8583	0.58692	-0.408
Mof_C 	C 	0.9876	0.8423	0.54596	0.213
Mof_H 	H 	0.9898	0.8856	0.5218	-0.055
Mof_C 	C 	0.9526	0.7662	0.53904	-0.197
Mof_H 	H 	0.9325	0.7589	0.5106	0.114
Mof_C 	C 	0.1832	0.9248	0.79237	0.308
Mof_C 	C 	0.1562	0.9365	0.74375	0.085
Mof_C 	C 	0.1762	0.891	0.70513	-0.227
Mof_H 	H 	0.2083	0.8521	0.7085	0.127
Mof_C 	C 	0.1513	0.8997	0.66171	0.246
Mof_H 	H 	0.167	0.8666	0.6366	-0.063
Mof_C 	C 	0.10397	0.9553	0.65367	-0.427
Mof_C 	C 	0.0858	0.0058	0.69284	0.226
Mof_H 	H 	0.0545	0.0465	0.6895	-0.054
Mof_C 	C 	0.1124	0.9973	0.73606	-0.216
Mof_H 	H 	0.0999	0.0345	0.7608	0.123
Mof_C 	C 	0.8983	0.2962	0.60455	0.271
Mof_C 	C 	0.93943	0.2172	0.6012	0.092
Mof_C 	C 	0.9211	0.1308	0.6118	-0.225
Mof_H 	H 	0.8823	0.1221	0.6215	0.131
Mof_C 	C 	0.958	0.0551	0.6086	0.235
Mof_H 	H 	0.9429	0.9972	0.6153	-0.056
Mof_C 	C 	0.01578	0.0633	0.5959	-0.439
Mof_C 	C 	0.0331	0.1498	0.5862	0.24
Mof_H 	H 	0.072	0.159	0.5769	-0.062
Mof_C 	C 	0.9955	0.2276	0.5893	-0.223
Mof_H 	H 	0.0103	0.2859	0.5829	0.129
Mof_Co	Co	0.3512	0.03902	0.39212	1.201
Mof_O 	O 	0.2574	0.9346	0.40665	-0.269
Mof_O 	O 	0.29484	0.0513	0.44546	-0.383
Mof_O 	O 	0.8953	0.5983	0.5255	-0.259
Mof_O 	O 	0.89452	0.5781	0.60242	-0.399
Mof_O 	O 	0.22387	0.8703	0.79729	-0.248
Mof_O 	O 	0.15913	0.9693	0.82464	-0.419
Mof_O 	O 	0.84642	0.2852	0.61359	-0.295
Mof_O 	O 	0.91892	0.3731	0.59545	-0.385
Mof_Si	Si	0.06583	0.96228	0.59562	1.046
Mof_C 	C 	0.7579	0.5101	0.55967	0.234
Mof_C 	C 	0.7103	0.5178	0.52201	0.186
Mof_C 	C 	0.6739	0.5876	0.52025	-0.34
Mof_H 	H 	0.6774	0.6358	0.5417	0.173
Mof_C 	C 	0.6294	0.5889	0.4855	0.375
Mof_H 	H 	0.602	0.6362	0.4874	-0.102
Mof_C 	C 	0.6229	0.5309	0.45133	-0.549
Mof_C 	C 	0.6658	0.4692	0.4492	0.35
Mof_H 	H 	0.6672	0.4301	0.4232	-0.099
Mof_C 	C 	0.7086	0.4605	0.4839	-0.32
Mof_H 	H 	0.7367	0.4145	0.4811	0.162
Mof_C 	C 	0.4099	0.8803	0.43412	0.304
Mof_C 	C 	0.44749	0.7979	0.42676	0.067
Mof_C 	C 	0.4766	0.7862	0.38557	-0.187
Mof_H 	H 	0.4731	0.8297	0.3616	0.113
Mof_C 	C 	0.512	0.7084	0.37896	0.202
Mof_H 	H 	0.5312	0.7013	0.3501	-0.045
Mof_C 	C 	0.51995	0.6417	0.41308	-0.408
Mof_C 	C 	0.4876	0.6577	0.45404	0.213
Mof_H 	H 	0.4898	0.6144	0.4782	-0.055
Mof_C 	C 	0.4526	0.7338	0.46096	-0.197
Mof_H 	H 	0.4325	0.7411	0.4894	0.114
Mof_C 	C 	0.6832	0.5752	0.20763	0.309
Mof_C 	C 	0.6562	0.5635	0.25625	0.084
Mof_C 	C 	0.6762	0.609	0.29487	-0.226
Mof_H 	H 	0.7083	0.6479	0.2915	0.126
Mof_C 	C 	0.6513	0.6003	0.33829	0.245
Mof_H 	H 	0.667	0.6334	0.3634	-0.062
Mof_C 	C 	0.60397	0.5447	0.34633	-0.426
Mof_C 	C 	0.5858	0.4942	0.30716	0.223
Mof_H 	H 	0.5545	0.4535	0.3105	-0.053
Mof_C 	C 	0.6124	0.5027	0.26394	-0.213
Mof_H 	H 	0.5999	0.4655	0.2392	0.122
Mof_C 	C 	0.3983	0.2038	0.39545	0.271
Mof_C 	C 	0.43943	0.2828	0.3988	0.092
Mof_C 	C 	0.4211	0.3692	0.3882	-0.225
Mof_H 	H 	0.3823	0.3779	0.3785	0.131
Mof_C 	C 	0.458	0.4449	0.3914	0.237
Mof_H 	H 	0.4429	0.5028	0.3847	-0.057
Mof_C 	C 	0.51578	0.4367	0.4041	-0.44
Mof_C 	C 	0.5331	0.3502	0.4138	0.24
Mof_H 	H 	0.572	0.341	0.4231	-0.062
Mof_C 	C 	0.4955	0.2724	0.4107	-0.222
Mof_H 	H 	0.5103	0.2141	0.4171	0.129
Mof_Co	Co	0.8512	0.46098	0.60788	1.201
Mof_O 	O 	0.7574	0.5654	0.59335	-0.269
Mof_O 	O 	0.79484	0.4487	0.55454	-0.383
Mof_O 	O 	0.3953	0.9017	0.4745	-0.259
Mof_O 	O 	0.39452	0.9219	0.39758	-0.399
Mof_O 	O 	0.72387	0.6297	0.20271	-0.248
Mof_O 	O 	0.65913	0.5307	0.17536	-0.419
Mof_O 	O 	0.34642	0.2148	0.38641	-0.295
Mof_O 	O 	0.41892	0.1269	0.40455	-0.385
Mof_Si	Si	0.56583	0.53772	0.40438	1.046
Mof_C 	C 	0.7421	0.4899	0.05967	0.234
Mof_C 	C 	0.7897	0.4822	0.02201	0.187
Mof_C 	C 	0.8261	0.4124	0.02025	-0.34
Mof_H 	H 	0.8226	0.3642	0.0417	0.172
Mof_C 	C 	0.8706	0.4111	0.9855	0.375
Mof_H 	H 	0.898	0.3638	0.9874	-0.102
Mof_C 	C 	0.8771	0.4691	0.95133	-0.549
Mof_C 	C 	0.8342	0.5308	0.9492	0.35
Mof_H 	H 	0.8328	0.5699	0.9232	-0.099
Mof_C 	C 	0.7914	0.5395	0.9839	-0.32
Mof_H 	H 	0.7633	0.5855	0.9811	0.162
Mof_C 	C 	0.0901	0.1197	0.93412	0.304
Mof_C 	C 	0.05251	0.2021	0.92676	0.067
Mof_C 	C 	0.0234	0.2138	0.88557	-0.186
Mof_H 	H 	0.0269	0.1703	0.8616	0.113
Mof_C 	C 	0.988	0.2916	0.87896	0.202
Mof_H 	H 	0.9688	0.2987	0.8501	-0.045
Mof_C 	C 	0.98005	0.3583	0.91308	-0.408
Mof_C 	C 	0.0124	0.3423	0.95404	0.213
Mof_H 	H 	0.0102	0.3856	0.9782	-0.055
Mof_C 	C 	0.0474	0.2662	0.96096	-0.197
Mof_H 	H 	0.0675	0.2589	0.9894	0.114
Mof_C 	C 	0.8168	0.4248	0.70763	0.309
Mof_C 	C 	0.8438	0.4365	0.75625	0.083
Mof_C 	C 	0.8238	0.391	0.79487	-0.226
Mof_H 	H 	0.7917	0.3521	0.7915	0.126
Mof_C 	C 	0.8487	0.3997	0.83829	0.245
Mof_H 	H 	0.833	0.3666	0.8634	-0.062
Mof_C 	C 	0.89603	0.4553	0.84633	-0.426
Mof_C 	C 	0.9142	0.5058	0.80716	0.223
Mof_H 	H 	0.9455	0.5465	0.8105	-0.053
Mof_C 	C 	0.8876	0.4973	0.76394	-0.213
Mof_H 	H 	0.9001	0.5345	0.7392	0.122
Mof_C 	C 	0.1017	0.7962	0.89545	0.271
Mof_C 	C 	0.06057	0.7172	0.8988	0.092
Mof_C 	C 	0.0789	0.6308	0.8882	-0.225
Mof_H 	H 	0.1177	0.6221	0.8785	0.131
Mof_C 	C 	0.042	0.5551	0.8914	0.237
Mof_H 	H 	0.0571	0.4972	0.8847	-0.057
Mof_C 	C 	0.98422	0.5633	0.9041	-0.44
Mof_C 	C 	0.9669	0.6498	0.9138	0.239
Mof_H 	H 	0.928	0.659	0.9231	-0.062
Mof_C 	C 	0.0045	0.7276	0.9107	-0.222
Mof_H 	H 	0.9897	0.7859	0.9171	0.128
Mof_Co	Co	0.6488	0.53902	0.10788	1.201
Mof_O 	O 	0.7426	0.4346	0.09335	-0.269
Mof_O 	O 	0.70516	0.5513	0.05454	-0.383
Mof_O 	O 	0.1047	0.0983	0.9745	-0.258
Mof_O 	O 	0.10548	0.0781	0.89758	-0.399
Mof_O 	O 	0.77613	0.3703	0.70271	-0.248
Mof_O 	O 	0.84087	0.4693	0.67536	-0.419
Mof_O 	O 	0.15358	0.7852	0.88641	-0.295
Mof_O 	O 	0.08108	0.8731	0.90455	-0.385
Mof_Si	Si	0.93417	0.46228	0.90438	1.046
_end
