data_functionalizedCrystal
_audit_creation_method	'EQeq! by Chris Wilmer'
_symmetry_space_group_name_H-M	'P1'
_symmetry_Int_Tables_number	1
_symmetry_cell_setting	triclinic
loop_
_symmetry_equiv_pos_as_xyz
  x,y,z
_cell_length_a	23.7369
_cell_length_b	15.8216
_cell_length_c	16.289
_cell_angle_alpha	90
_cell_angle_beta	124.054
_cell_angle_gamma	90
loop_
_atom_site_label
_atom_site_type_symbol
_atom_site_fract_x
_atom_site_fract_y
_atom_site_fract_z
_atom_site_charge
Mof_La	La	0.18874	0.33044	0.37841	1.983
Mof_C 	C 	0.0202	0.2611	0.0791	-0.032
Mof_C 	C 	0.9547	0.2576	0.0574	0.002
Mof_H 	H 	0.9453	0.2802	0.1025	0.014
Mof_C 	C 	0.9033	0.221	0.9694	-0.082
Mof_C 	C 	0.9173	0.1853	0.905	-0.103
Mof_H 	H 	0.8823	0.1589	0.8455	0.093
Mof_C 	C 	0.9828	0.1887	0.9286	0.181
Mof_C 	C 	0.0347	0.2268	0.014	-0.121
Mof_H 	H 	0.0794	0.2297	0.0283	0.11
Mof_C 	C 	0.9566	0.0932	0.8013	0.188
Mof_C 	C 	0.9031	0.1099	0.7042	-0.017
Mof_C 	C 	0.8613	0.0449	0.6431	0.04
Mof_H 	H 	0.8249	0.0566	0.5767	0.041
Mof_C 	C 	0.8727	0.963	0.6788	-0.175
Mof_C 	C 	0.9275	0.9463	0.7748	0.111
Mof_H 	H 	0.9362	0.89	0.7992	0.005
Mof_C 	C 	0.9694	0.0108	0.8349	-0.2
Mof_H 	H 	0.0074	0.9985	0.8998	0.112
Mof_C 	C 	0.0777	0.2997	0.1752	0.295
Mof_C 	C 	0.8309	0.218	0.9391	0.398
Mof_C 	C 	0.8247	0.8933	0.6153	0.476
Mof_N 	N 	0.8868	0.1954	0.6625	0.012
Mof_O 	O 	0.13566	0.3028	0.1915	-0.395
Mof_O 	O 	0.06467	0.3259	0.2361	-0.441
Mof_O 	O 	0.81316	0.2579	0.9887	-0.573
Mof_O 	O 	0.78893	0.1758	0.8639	-0.454
Mof_O 	O 	0.9106	0.256	0.7178	-0.109
Mof_O 	O 	0.8502	0.2026	0.5718	-0.116
Mof_O 	O 	0.7799	0.9113	0.5266	-0.517
Mof_O 	O 	0.83298	0.8236	0.6563	-0.494
Mof_O 	O 	0.00012	0.1554	0.8658	-0.224
Mof_La	La	0.68874	0.83044	0.37841	1.981
Mof_C 	C 	0.5202	0.7611	0.0791	-0.032
Mof_C 	C 	0.4547	0.7576	0.0574	-0.001
Mof_H 	H 	0.4453	0.7802	0.1025	0.013
Mof_C 	C 	0.4033	0.721	0.9694	-0.081
Mof_C 	C 	0.4173	0.6853	0.905	-0.105
Mof_H 	H 	0.3823	0.6589	0.8455	0.092
Mof_C 	C 	0.4828	0.6887	0.9286	0.182
Mof_C 	C 	0.5347	0.7268	0.014	-0.124
Mof_H 	H 	0.5794	0.7297	0.0283	0.111
Mof_C 	C 	0.4566	0.5932	0.8013	0.185
Mof_C 	C 	0.4031	0.6099	0.7042	-0.016
Mof_C 	C 	0.3613	0.5449	0.6431	0.039
Mof_H 	H 	0.3249	0.5566	0.5767	0.041
Mof_C 	C 	0.3727	0.463	0.6788	-0.174
Mof_C 	C 	0.4275	0.4463	0.7748	0.107
Mof_H 	H 	0.4362	0.39	0.7992	0.006
Mof_C 	C 	0.4694	0.5108	0.8349	-0.196
Mof_H 	H 	0.5074	0.4985	0.8998	0.11
Mof_C 	C 	0.5777	0.7997	0.1752	0.295
Mof_C 	C 	0.3309	0.718	0.9391	0.397
Mof_C 	C 	0.3247	0.3933	0.6153	0.476
Mof_N 	N 	0.3868	0.6954	0.6625	0.012
Mof_O 	O 	0.63566	0.8028	0.1915	-0.396
Mof_O 	O 	0.56467	0.8259	0.2361	-0.441
Mof_O 	O 	0.31316	0.7579	0.9887	-0.572
Mof_O 	O 	0.28893	0.6758	0.8639	-0.453
Mof_O 	O 	0.4106	0.756	0.7178	-0.108
Mof_O 	O 	0.3502	0.7026	0.5718	-0.116
Mof_O 	O 	0.2799	0.4113	0.5266	-0.517
Mof_O 	O 	0.33298	0.3236	0.6563	-0.494
Mof_O 	O 	0.50012	0.6554	0.8658	-0.222
Mof_La	La	0.81126	0.33044	0.12159	1.981
Mof_C 	C 	0.9798	0.2611	0.4209	-0.033
Mof_C 	C 	0.0453	0.2576	0.4426	0.001
Mof_H 	H 	0.0547	0.2802	0.3975	0.012
Mof_C 	C 	0.0967	0.221	0.5306	-0.083
Mof_C 	C 	0.0827	0.1853	0.595	-0.103
Mof_H 	H 	0.1177	0.1589	0.6545	0.092
Mof_C 	C 	0.0172	0.1887	0.5714	0.18
Mof_C 	C 	0.9653	0.2268	0.486	-0.121
Mof_H 	H 	0.9206	0.2297	0.4717	0.11
Mof_C 	C 	0.0434	0.0932	0.6987	0.185
Mof_C 	C 	0.0969	0.1099	0.7958	-0.016
Mof_C 	C 	0.1387	0.0449	0.8569	0.037
Mof_H 	H 	0.1751	0.0566	0.9233	0.041
Mof_C 	C 	0.1273	0.963	0.8212	-0.172
Mof_C 	C 	0.0725	0.9463	0.7252	0.109
Mof_H 	H 	0.0638	0.89	0.7008	0.005
Mof_C 	C 	0.0306	0.0108	0.6651	-0.199
Mof_H 	H 	0.9926	0.9985	0.6002	0.111
Mof_C 	C 	0.9223	0.2997	0.3248	0.295
Mof_C 	C 	0.1691	0.218	0.5609	0.398
Mof_C 	C 	0.1753	0.8933	0.8847	0.475
Mof_N 	N 	0.1132	0.1954	0.8375	0.012
Mof_O 	O 	0.86434	0.3028	0.3085	-0.396
Mof_O 	O 	0.93533	0.3259	0.2639	-0.442
Mof_O 	O 	0.18684	0.2579	0.5113	-0.572
Mof_O 	O 	0.21107	0.1758	0.6361	-0.454
Mof_O 	O 	0.0894	0.256	0.7822	-0.109
Mof_O 	O 	0.1498	0.2026	0.9282	-0.116
Mof_O 	O 	0.2201	0.9113	0.9734	-0.516
Mof_O 	O 	0.16702	0.8236	0.8437	-0.493
Mof_O 	O 	0.99988	0.1554	0.6342	-0.222
Mof_La	La	0.31126	0.83044	0.12159	1.98
Mof_C 	C 	0.4798	0.7611	0.4209	-0.033
Mof_C 	C 	0.5453	0.7576	0.4426	0.001
Mof_H 	H 	0.5547	0.7802	0.3975	0.013
Mof_C 	C 	0.5967	0.721	0.5306	-0.083
Mof_C 	C 	0.5827	0.6853	0.595	-0.103
Mof_H 	H 	0.6177	0.6589	0.6545	0.092
Mof_C 	C 	0.5172	0.6887	0.5714	0.181
Mof_C 	C 	0.4653	0.7268	0.486	-0.122
Mof_H 	H 	0.4206	0.7297	0.4717	0.11
Mof_C 	C 	0.5434	0.5932	0.6987	0.185
Mof_C 	C 	0.5969	0.6099	0.7958	-0.016
Mof_C 	C 	0.6387	0.5449	0.8569	0.039
Mof_H 	H 	0.6751	0.5566	0.9233	0.041
Mof_C 	C 	0.6273	0.463	0.8212	-0.174
Mof_C 	C 	0.5725	0.4463	0.7252	0.107
Mof_H 	H 	0.5638	0.39	0.7008	0.006
Mof_C 	C 	0.5306	0.5108	0.6651	-0.196
Mof_H 	H 	0.4926	0.4985	0.6002	0.11
Mof_C 	C 	0.4223	0.7997	0.3248	0.295
Mof_C 	C 	0.6691	0.718	0.5609	0.398
Mof_C 	C 	0.6753	0.3933	0.8847	0.475
Mof_N 	N 	0.6132	0.6954	0.8375	0.012
Mof_O 	O 	0.36434	0.8028	0.3085	-0.395
Mof_O 	O 	0.43533	0.8259	0.2639	-0.441
Mof_O 	O 	0.68684	0.7579	0.5113	-0.572
Mof_O 	O 	0.71107	0.6758	0.6361	-0.454
Mof_O 	O 	0.5894	0.756	0.7822	-0.108
Mof_O 	O 	0.6498	0.7026	0.9282	-0.115
Mof_O 	O 	0.7201	0.4113	0.9734	-0.517
Mof_O 	O 	0.66702	0.3236	0.8437	-0.494
Mof_O 	O 	0.49988	0.6554	0.6342	-0.222
Mof_La	La	0.81126	0.66956	0.62159	1.982
Mof_C 	C 	0.9798	0.7389	0.9209	-0.033
Mof_C 	C 	0.0453	0.7424	0.9426	0.001
Mof_H 	H 	0.0547	0.7198	0.8975	0.013
Mof_C 	C 	0.0967	0.779	0.0306	-0.083
Mof_C 	C 	0.0827	0.8147	0.095	-0.104
Mof_H 	H 	0.1177	0.8411	0.1545	0.092
Mof_C 	C 	0.0172	0.8113	0.0714	0.18
Mof_C 	C 	0.9653	0.7732	0.986	-0.121
Mof_H 	H 	0.9206	0.7703	0.9717	0.11
Mof_C 	C 	0.0434	0.9068	0.1987	0.188
Mof_C 	C 	0.0969	0.8901	0.2958	-0.017
Mof_C 	C 	0.1387	0.9551	0.3569	0.04
Mof_H 	H 	0.1751	0.9434	0.4233	0.041
Mof_C 	C 	0.1273	0.037	0.3212	-0.175
Mof_C 	C 	0.0725	0.0537	0.2252	0.111
Mof_H 	H 	0.0638	0.11	0.2008	0.005
Mof_C 	C 	0.0306	0.9892	0.1651	-0.2
Mof_H 	H 	0.9926	0.0015	0.1002	0.112
Mof_C 	C 	0.9223	0.7003	0.8248	0.295
Mof_C 	C 	0.1691	0.782	0.0609	0.398
Mof_C 	C 	0.1753	0.1067	0.3847	0.476
Mof_N 	N 	0.1132	0.8046	0.3375	0.012
Mof_O 	O 	0.86434	0.6972	0.8085	-0.395
Mof_O 	O 	0.93533	0.6741	0.7639	-0.441
Mof_O 	O 	0.18684	0.7421	0.0113	-0.573
Mof_O 	O 	0.21107	0.8242	0.1361	-0.454
Mof_O 	O 	0.0894	0.744	0.2822	-0.109
Mof_O 	O 	0.1498	0.7974	0.4282	-0.116
Mof_O 	O 	0.2201	0.0887	0.4734	-0.517
Mof_O 	O 	0.16702	0.1764	0.3437	-0.494
Mof_O 	O 	0.99988	0.8446	0.1342	-0.224
Mof_La	La	0.31126	0.16956	0.62159	1.981
Mof_C 	C 	0.4798	0.2389	0.9209	-0.032
Mof_C 	C 	0.5453	0.2424	0.9426	-0.001
Mof_H 	H 	0.5547	0.2198	0.8975	0.013
Mof_C 	C 	0.5967	0.279	0.0306	-0.081
Mof_C 	C 	0.5827	0.3147	0.095	-0.105
Mof_H 	H 	0.6177	0.3411	0.1545	0.092
Mof_C 	C 	0.5172	0.3113	0.0714	0.182
Mof_C 	C 	0.4653	0.2732	0.986	-0.124
Mof_H 	H 	0.4206	0.2703	0.9717	0.111
Mof_C 	C 	0.5434	0.4068	0.1987	0.185
Mof_C 	C 	0.5969	0.3901	0.2958	-0.016
Mof_C 	C 	0.6387	0.4551	0.3569	0.039
Mof_H 	H 	0.6751	0.4434	0.4233	0.041
Mof_C 	C 	0.6273	0.537	0.3212	-0.174
Mof_C 	C 	0.5725	0.5537	0.2252	0.107
Mof_H 	H 	0.5638	0.61	0.2008	0.006
Mof_C 	C 	0.5306	0.4892	0.1651	-0.196
Mof_H 	H 	0.4926	0.5015	0.1002	0.11
Mof_C 	C 	0.4223	0.2003	0.8248	0.295
Mof_C 	C 	0.6691	0.282	0.0609	0.397
Mof_C 	C 	0.6753	0.6067	0.3847	0.476
Mof_N 	N 	0.6132	0.3046	0.3375	0.012
Mof_O 	O 	0.36434	0.1972	0.8085	-0.396
Mof_O 	O 	0.43533	0.1741	0.7639	-0.441
Mof_O 	O 	0.68684	0.2421	0.0113	-0.572
Mof_O 	O 	0.71107	0.3242	0.1361	-0.453
Mof_O 	O 	0.5894	0.244	0.2822	-0.108
Mof_O 	O 	0.6498	0.2974	0.4282	-0.116
Mof_O 	O 	0.7201	0.5887	0.4734	-0.517
Mof_O 	O 	0.66702	0.6764	0.3437	-0.494
Mof_O 	O 	0.49988	0.3446	0.1342	-0.222
Mof_La	La	0.18874	0.66956	0.87841	1.981
Mof_C 	C 	0.0202	0.7389	0.5791	-0.033
Mof_C 	C 	0.9547	0.7424	0.5574	0.001
Mof_H 	H 	0.9453	0.7198	0.6025	0.012
Mof_C 	C 	0.9033	0.779	0.4694	-0.083
Mof_C 	C 	0.9173	0.8147	0.405	-0.103
Mof_H 	H 	0.8823	0.8411	0.3455	0.092
Mof_C 	C 	0.9828	0.8113	0.4286	0.18
Mof_C 	C 	0.0347	0.7732	0.514	-0.121
Mof_H 	H 	0.0794	0.7703	0.5283	0.11
Mof_C 	C 	0.9566	0.9068	0.3013	0.185
Mof_C 	C 	0.9031	0.8901	0.2042	-0.016
Mof_C 	C 	0.8613	0.9551	0.1431	0.037
Mof_H 	H 	0.8249	0.9434	0.0767	0.041
Mof_C 	C 	0.8727	0.037	0.1788	-0.172
Mof_C 	C 	0.9275	0.0537	0.2748	0.109
Mof_H 	H 	0.9362	0.11	0.2992	0.005
Mof_C 	C 	0.9694	0.9892	0.3349	-0.199
Mof_H 	H 	0.0074	0.0015	0.3998	0.111
Mof_C 	C 	0.0777	0.7003	0.6752	0.295
Mof_C 	C 	0.8309	0.782	0.4391	0.398
Mof_C 	C 	0.8247	0.1067	0.1153	0.475
Mof_N 	N 	0.8868	0.8046	0.1625	0.012
Mof_O 	O 	0.13566	0.6972	0.6915	-0.396
Mof_O 	O 	0.06467	0.6741	0.7361	-0.442
Mof_O 	O 	0.81316	0.7421	0.4887	-0.572
Mof_O 	O 	0.78893	0.8242	0.3639	-0.454
Mof_O 	O 	0.9106	0.744	0.2178	-0.109
Mof_O 	O 	0.8502	0.7974	0.0718	-0.116
Mof_O 	O 	0.7799	0.0887	0.0266	-0.516
Mof_O 	O 	0.83298	0.1764	0.1563	-0.493
Mof_O 	O 	0.00012	0.8446	0.3658	-0.222
Mof_La	La	0.68874	0.16956	0.87841	1.98
Mof_C 	C 	0.5202	0.2389	0.5791	-0.033
Mof_C 	C 	0.4547	0.2424	0.5574	0.001
Mof_H 	H 	0.4453	0.2198	0.6025	0.013
Mof_C 	C 	0.4033	0.279	0.4694	-0.083
Mof_C 	C 	0.4173	0.3147	0.405	-0.103
Mof_H 	H 	0.3823	0.3411	0.3455	0.092
Mof_C 	C 	0.4828	0.3113	0.4286	0.181
Mof_C 	C 	0.5347	0.2732	0.514	-0.122
Mof_H 	H 	0.5794	0.2703	0.5283	0.11
Mof_C 	C 	0.4566	0.4068	0.3013	0.185
Mof_C 	C 	0.4031	0.3901	0.2042	-0.016
Mof_C 	C 	0.3613	0.4551	0.1431	0.039
Mof_H 	H 	0.3249	0.4434	0.0767	0.041
Mof_C 	C 	0.3727	0.537	0.1788	-0.174
Mof_C 	C 	0.4275	0.5537	0.2748	0.107
Mof_H 	H 	0.4362	0.61	0.2992	0.006
Mof_C 	C 	0.4694	0.4892	0.3349	-0.196
Mof_H 	H 	0.5074	0.5015	0.3998	0.11
Mof_C 	C 	0.5777	0.2003	0.6752	0.295
Mof_C 	C 	0.3309	0.282	0.4391	0.398
Mof_C 	C 	0.3247	0.6067	0.1153	0.475
Mof_N 	N 	0.3868	0.3046	0.1625	0.012
Mof_O 	O 	0.63566	0.1972	0.6915	-0.395
Mof_O 	O 	0.56467	0.1741	0.7361	-0.441
Mof_O 	O 	0.31316	0.2421	0.4887	-0.572
Mof_O 	O 	0.28893	0.3242	0.3639	-0.454
Mof_O 	O 	0.4106	0.244	0.2178	-0.108
Mof_O 	O 	0.3502	0.2974	0.0718	-0.115
Mof_O 	O 	0.2799	0.5887	0.0266	-0.517
Mof_O 	O 	0.33298	0.6764	0.1563	-0.494
Mof_O 	O 	0.50012	0.3446	0.3658	-0.222
_end
