data_functionalizedCrystal
_audit_creation_method	'EQeq! by Chris Wilmer'
_symmetry_space_group_name_H-M	'P1'
_symmetry_Int_Tables_number	1
_symmetry_cell_setting	triclinic
loop_
_symmetry_equiv_pos_as_xyz
  x,y,z
_cell_length_a	9.8257
_cell_length_b	14.79
_cell_length_c	20.182
_cell_angle_alpha	73.386
_cell_angle_beta	82.825
_cell_angle_gamma	77.75
loop_
_atom_site_label
_atom_site_type_symbol
_atom_site_fract_x
_atom_site_fract_y
_atom_site_fract_z
_atom_site_charge
Mof_Eu	Eu	0.16424	0.45324	0.18914	2.458
Mof_Eu	Eu	0.63091	0.44812	0.20349	2.188
Mof_Eu	Eu	0.83576	0.54676	0.81086	2.457
Mof_Eu	Eu	0.36909	0.55188	0.79651	2.187
Mof_Cu	Cu	0.5979	0.10016	0.55346	0.767
Mof_Cu	Cu	0.72572	0.2427	0.57243	0.77
Mof_Cu	Cu	0.75868	0.06015	0.65861	0.751
Mof_Cu	Cu	0.51457	0.16689	0.67412	0.773
Mof_Cu	Cu	0.09141	0.98643	0.05345	0.784
Mof_Cu	Cu	0.82711	0.00381	0.11484	0.813
Mof_Cu	Cu	0.4021	0.89984	0.44654	0.767
Mof_Cu	Cu	0.27428	0.7573	0.42757	0.77
Mof_Cu	Cu	0.24132	0.93985	0.34139	0.751
Mof_Cu	Cu	0.48543	0.83311	0.32588	0.773
Mof_Cu	Cu	0.90859	0.01357	0.94655	0.784
Mof_Cu	Cu	0.17289	0.99619	0.88516	0.813
Mof_H 	H 	0.1831	0.2505	0.3577	-0.026
Mof_H 	H 	0.1408	0.1332	0.4588	0.132
Mof_H 	H 	0.3114	0.0666	0.5331	-0.03
Mof_H 	H 	0.57	0.2203	0.4107	-0.028
Mof_H 	H 	0.7545	0.3778	0.6467	-0.009
Mof_H 	H 	0.999	0.2924	0.5026	-0.011
Mof_H 	H 	0.1684	0.3711	0.5172	0.107
Mof_H 	H 	0.124	0.4596	0.5964	0.002
Mof_H 	H 	0.2689	0.7997	0.7188	-0.033
Mof_H 	H 	0.2638	0.9554	0.6555	0.128
Mof_H 	H 	0.0579	0.0537	0.6221	-0.024
Mof_H 	H 	0.8532	0.852	0.7225	-0.031
Mof_H 	H 	0.3841	0.2991	0.757	-0.051
Mof_H 	H 	0.2353	0.1057	0.705	-0.031
Mof_H 	H 	0.0164	0.1597	0.7488	0.121
Mof_H 	H 	0.9774	0.2886	0.7958	-0.034
Mof_H 	H 	0.5754	0.6893	0.0802	-0.031
Mof_H 	H 	0.5935	0.8513	0.0384	0.117
Mof_H 	H 	0.394	0.9655	0.0256	-0.034
Mof_H 	H 	0.1616	0.7719	0.092	-0.017
Mof_H 	H 	0.683	0.1868	0.1348	-0.023
Mof_H 	H 	0.5376	0.9587	0.1435	-0.036
Mof_H 	H 	0.3164	0.0354	0.1522	0.113
Mof_H 	H 	0.2715	0.1987	0.1461	-0.02
Mof_H 	H 	0.8169	0.7495	0.6423	-0.026
Mof_H 	H 	0.8592	0.8668	0.5412	0.132
Mof_H 	H 	0.6886	0.9334	0.4669	-0.03
Mof_H 	H 	0.43	0.7797	0.5893	-0.028
Mof_H 	H 	0.2455	0.6222	0.3533	-0.009
Mof_H 	H 	0.001	0.7076	0.4974	-0.011
Mof_H 	H 	0.8316	0.6289	0.4828	0.107
Mof_H 	H 	0.876	0.5404	0.4036	0.002
Mof_H 	H 	0.7311	0.2003	0.2812	-0.033
Mof_H 	H 	0.7362	0.0446	0.3445	0.128
Mof_H 	H 	0.9421	0.9463	0.3779	-0.024
Mof_H 	H 	0.1468	0.148	0.2775	-0.031
Mof_H 	H 	0.6159	0.7009	0.243	-0.051
Mof_H 	H 	0.7647	0.8943	0.295	-0.031
Mof_H 	H 	0.9836	0.8403	0.2512	0.121
Mof_H 	H 	0.0226	0.7114	0.2042	-0.034
Mof_H 	H 	0.4246	0.3107	0.9198	-0.031
Mof_H 	H 	0.4065	0.1487	0.9616	0.117
Mof_H 	H 	0.606	0.0345	0.9744	-0.034
Mof_H 	H 	0.8384	0.2281	0.908	-0.017
Mof_H 	H 	0.317	0.8132	0.8652	-0.023
Mof_H 	H 	0.4624	0.0413	0.8565	-0.036
Mof_H 	H 	0.6836	0.9646	0.8478	0.113
Mof_H 	H 	0.7285	0.8013	0.8539	-0.02
Mof_C 	C 	0.4166	0.3183	0.3086	0.581
Mof_C 	C 	0.3836	0.2458	0.3743	-0.257
Mof_C 	C 	0.2527	0.2211	0.3884	0.182
Mof_C 	C 	0.2271	0.1521	0.4487	-0.244
Mof_C 	C 	0.3296	0.1128	0.4925	0.11
Mof_C 	C 	0.4824	0.2032	0.4207	0.154
Mof_C 	C 	0.9016	0.4773	0.6875	0.345
Mof_C 	C 	0.9362	0.4268	0.6317	-0.152
Mof_C 	C 	0.8394	0.3761	0.6204	0.096
Mof_C 	C 	0.9823	0.3261	0.5362	0.095
Mof_C 	C 	0.0843	0.3742	0.5441	-0.17
Mof_C 	C 	0.0585	0.4254	0.5913	0.104
Mof_C 	C 	0.0519	0.7099	0.7711	0.601
Mof_C 	C 	0.0583	0.8094	0.7278	-0.284
Mof_C 	C 	0.1845	0.8407	0.707	0.205
Mof_C 	C 	0.1809	0.9324	0.6692	-0.233
Mof_C 	C 	0.0565	0.9922	0.6507	0.121
Mof_C 	C 	0.9375	0.8734	0.709	0.189
Mof_C 	C 	0.1628	0.3902	0.8119	0.623
Mof_C 	C 	0.1783	0.3085	0.7819	-0.299
Mof_C 	C 	0.3085	0.2716	0.755	0.17
Mof_C 	C 	0.2213	0.1572	0.7244	0.116
Mof_C 	C 	0.0898	0.1896	0.7504	-0.267
Mof_C 	C 	0.0666	0.2657	0.7788	0.213
Mof_C 	C 	0.3455	0.613	0.1159	0.525
Mof_C 	C 	0.3636	0.7155	0.0897	-0.243
Mof_C 	C 	0.4962	0.7374	0.0742	0.155
Mof_C 	C 	0.5067	0.8332	0.0497	-0.209
Mof_C 	C 	0.3856	0.9013	0.0425	0.108
Mof_C 	C 	0.2496	0.7881	0.0811	0.135
Mof_C 	C 	0.4545	0.3147	0.1388	0.554
Mof_C 	C 	0.473	0.21	0.1401	-0.24
Mof_C 	C 	0.6077	0.1568	0.1374	0.136
Mof_C 	C 	0.5217	0.0231	0.1431	0.136
Mof_C 	C 	0.3895	0.0683	0.1474	-0.235
Mof_C 	C 	0.3627	0.165	0.1448	0.172
Mof_C 	C 	0.5834	0.6817	0.6914	0.581
Mof_C 	C 	0.6164	0.7542	0.6257	-0.257
Mof_C 	C 	0.7473	0.7789	0.6116	0.182
Mof_C 	C 	0.7729	0.8479	0.5513	-0.244
Mof_C 	C 	0.6704	0.8872	0.5075	0.11
Mof_C 	C 	0.5176	0.7968	0.5793	0.154
Mof_C 	C 	0.0984	0.5227	0.3125	0.345
Mof_C 	C 	0.0638	0.5732	0.3683	-0.152
Mof_C 	C 	0.1606	0.6239	0.3796	0.096
Mof_C 	C 	0.0177	0.6739	0.4638	0.095
Mof_C 	C 	0.9157	0.6258	0.4559	-0.17
Mof_C 	C 	0.9415	0.5746	0.4087	0.104
Mof_C 	C 	0.9481	0.2901	0.2289	0.601
Mof_C 	C 	0.9417	0.1906	0.2722	-0.284
Mof_C 	C 	0.8155	0.1593	0.293	0.205
Mof_C 	C 	0.8191	0.0676	0.3308	-0.233
Mof_C 	C 	0.9435	0.0078	0.3493	0.121
Mof_C 	C 	0.0625	0.1266	0.291	0.189
Mof_C 	C 	0.8372	0.6098	0.1881	0.623
Mof_C 	C 	0.8217	0.6915	0.2181	-0.299
Mof_C 	C 	0.6915	0.7284	0.245	0.17
Mof_C 	C 	0.7787	0.8428	0.2756	0.116
Mof_C 	C 	0.9102	0.8104	0.2496	-0.267
Mof_C 	C 	0.9334	0.7343	0.2212	0.213
Mof_C 	C 	0.6545	0.387	0.8841	0.525
Mof_C 	C 	0.6364	0.2845	0.9103	-0.243
Mof_C 	C 	0.5038	0.2626	0.9258	0.155
Mof_C 	C 	0.4933	0.1668	0.9503	-0.209
Mof_C 	C 	0.6144	0.0987	0.9575	0.108
Mof_C 	C 	0.7504	0.2119	0.9189	0.135
Mof_C 	C 	0.5455	0.6853	0.8612	0.554
Mof_C 	C 	0.527	0.79	0.8599	-0.24
Mof_C 	C 	0.3923	0.8432	0.8626	0.136
Mof_C 	C 	0.4783	0.9769	0.8569	0.136
Mof_C 	C 	0.6105	0.9317	0.8526	-0.235
Mof_C 	C 	0.6373	0.835	0.8552	0.172
Mof_Br	Br	0.82774	0.12662	0.50828	-0.669
Mof_Br	Br	0.48142	0.31471	0.56407	-0.623
Mof_Br	Br	0.71716	0.17448	0.72802	-0.666
Mof_Br	Br	0.53692	0.99635	0.66231	-0.694
Mof_Br	Br	0.00188	0.07818	0.13589	-0.582
Mof_Br	Br	0.12418	0.11661	0.94468	-0.668
Mof_Br	Br	0.17226	0.87338	0.49172	-0.669
Mof_Br	Br	0.51858	0.68529	0.43593	-0.623
Mof_Br	Br	0.28284	0.82552	0.27198	-0.666
Mof_Br	Br	0.46308	0.00365	0.33769	-0.694
Mof_Br	Br	0.99812	0.92182	0.86411	-0.582
Mof_Br	Br	0.87582	0.88339	0.05532	-0.668
Mof_N 	N 	0.4589	0.1372	0.4807	-0.263
Mof_N 	N 	0.8642	0.3262	0.5742	-0.248
Mof_N 	N 	0.9338	0.9652	0.6722	-0.262
Mof_N 	N 	0.3301	0.198	0.7262	-0.263
Mof_N 	N 	0.2576	0.8815	0.058	-0.279
Mof_N 	N 	0.6326	0.0638	0.1383	-0.267
Mof_N 	N 	0.5411	0.8628	0.5193	-0.263
Mof_N 	N 	0.1358	0.6738	0.4258	-0.248
Mof_N 	N 	0.0662	0.0348	0.3278	-0.262
Mof_N 	N 	0.6699	0.802	0.2738	-0.263
Mof_N 	N 	0.7424	0.1185	0.942	-0.279
Mof_N 	N 	0.3674	0.9362	0.8617	-0.267
Mof_O 	O 	0.3252	0.3577	0.2675	-0.636
Mof_O 	O 	0.5402	0.3336	0.2987	-0.582
Mof_O 	O 	0.9686	0.5382	0.691	-0.435
Mof_O 	O 	0.8027	0.4523	0.7336	-0.469
Mof_O 	O 	0.1604	0.66	0.7983	-0.641
Mof_O 	O 	0.9387	0.6822	0.7776	-0.628
Mof_O 	O 	0.2691	0.4151	0.8212	-0.649
Mof_O 	O 	0.0422	0.4316	0.8267	-0.636
Mof_O 	O 	0.4413	0.5492	0.1459	-0.642
Mof_O 	O 	0.2287	0.5945	0.1098	-0.567
Mof_O 	O 	0.5568	0.3412	0.153	-0.572
Mof_O 	O 	0.3359	0.365	0.126	-0.606
Mof_O 	O 	0.6748	0.6423	0.7325	-0.636
Mof_O 	O 	0.4598	0.6664	0.7013	-0.582
Mof_O 	O 	0.0314	0.4618	0.309	-0.435
Mof_O 	O 	0.1973	0.5477	0.2664	-0.469
Mof_O 	O 	0.8396	0.34	0.2017	-0.641
Mof_O 	O 	0.0613	0.3178	0.2224	-0.628
Mof_O 	O 	0.7309	0.5849	0.1788	-0.649
Mof_O 	O 	0.9578	0.5684	0.1733	-0.636
Mof_O 	O 	0.5587	0.4508	0.8541	-0.642
Mof_O 	O 	0.7713	0.4055	0.8902	-0.567
Mof_O 	O 	0.4432	0.6588	0.847	-0.572
Mof_O 	O 	0.6641	0.635	0.874	-0.606
_end
