data_functionalizedCrystal
_audit_creation_method	'EQeq! by Chris Wilmer'
_symmetry_space_group_name_H-M	'P1'
_symmetry_Int_Tables_number	1
_symmetry_cell_setting	triclinic
loop_
_symmetry_equiv_pos_as_xyz
  x,y,z
_cell_length_a	17.2316
_cell_length_b	16.7585
_cell_length_c	21.2567
_cell_angle_alpha	90
_cell_angle_beta	106.996
_cell_angle_gamma	90
loop_
_atom_site_label
_atom_site_type_symbol
_atom_site_fract_x
_atom_site_fract_y
_atom_site_fract_z
_atom_site_charge
Mof_Tb	Tb	0.47942	0.56529	0.57109	1.922
Mof_C 	C 	0.3162	0.0924	0.678	0.015
Mof_H 	H 	0.3228	0.1377	0.7043	0.005
Mof_C 	C 	0.2393	0.0773	0.632	-0.027
Mof_H 	H 	0.1953	0.1106	0.6295	0.025
Mof_C 	C 	0.2317	0.0134	0.5918	-0.108
Mof_C 	C 	0.3	0.9652	0.5966	-0.032
Mof_H 	H 	0.2967	0.923	0.5675	0.053
Mof_C 	C 	0.3716	0.9805	0.6441	0.018
Mof_C 	C 	0.1558	0.9926	0.5382	0.433
Mof_C 	C 	0.4449	0.9315	0.6524	0.042
Mof_C 	C 	0.4386	0.8528	0.626	-0.077
Mof_H 	H 	0.3883	0.8304	0.6053	0.069
Mof_C 	C 	0.5089	0.811	0.6321	-0.023
Mof_C 	C 	0.584	0.848	0.6631	-0.087
Mof_H 	H 	0.6327	0.8222	0.666	0.065
Mof_C 	C 	0.5833	0.9233	0.689	0.054
Mof_H 	H 	0.6327	0.9471	0.7104	-0.005
Mof_C 	C 	0.5034	0.7273	0.6086	0.289
Mof_C 	C 	0.5329	0.1543	0.6356	0.03
Mof_H 	H 	0.5418	0.1045	0.6195	0.003
Mof_C 	C 	0.5317	0.2198	0.5967	-0.038
Mof_H 	H 	0.5416	0.2151	0.5562	0.057
Mof_C 	C 	0.5156	0.2922	0.6195	-0.095
Mof_C 	C 	0.5035	0.2991	0.6795	-0.026
Mof_H 	H 	0.4936	0.3487	0.6953	0.027
Mof_C 	C 	0.5061	0.2297	0.7174	0.018
Mof_C 	C 	0.5115	0.3686	0.5767	0.485
Mof_N 	N 	0.379	0.0436	0.6846	-0.231
Mof_N 	N 	0.5152	0.964	0.6849	-0.236
Mof_N 	N 	0.5221	0.1579	0.695	-0.24
Mof_O 	O 	0.1591	0.9438	0.4956	-0.479
Mof_O 	O 	0.0899	0.0267	0.5384	-0.609
Mof_O 	O 	0.5326	0.3605	0.5257	-0.493
Mof_O 	O 	0.4895	0.4296	0.5981	-0.571
Mof_O 	O 	0.4354	0.6925	0.5971	-0.448
Mof_O 	O 	0.5647	0.692	0.6016	-0.397
Mof_Tb	Tb	0.97942	0.06529	0.57109	1.98
Mof_C 	C 	0.8162	0.5924	0.678	0.019
Mof_H 	H 	0.8228	0.6377	0.7043	0.008
Mof_C 	C 	0.7393	0.5773	0.632	-0.029
Mof_H 	H 	0.6953	0.6106	0.6295	0.03
Mof_C 	C 	0.7317	0.5134	0.5918	-0.101
Mof_C 	C 	0.8	0.4652	0.5966	-0.033
Mof_H 	H 	0.7967	0.423	0.5675	0.055
Mof_C 	C 	0.8716	0.4805	0.6441	0.02
Mof_C 	C 	0.6558	0.4926	0.5382	0.427
Mof_C 	C 	0.9449	0.4315	0.6524	0.059
Mof_C 	C 	0.9386	0.3528	0.626	-0.035
Mof_H 	H 	0.8883	0.3304	0.6053	0.059
Mof_C 	C 	0.0089	0.311	0.6321	-0.06
Mof_C 	C 	0.084	0.348	0.6631	-0.076
Mof_H 	H 	0.1327	0.3222	0.666	0.058
Mof_C 	C 	0.0833	0.4233	0.689	0.042
Mof_H 	H 	0.1327	0.4471	0.7104	-0.004
Mof_C 	C 	0.0034	0.2273	0.6086	0.262
Mof_C 	C 	0.0329	0.6543	0.6356	0.043
Mof_H 	H 	0.0418	0.6045	0.6195	-0.007
Mof_C 	C 	0.0317	0.7198	0.5967	-0.07
Mof_H 	H 	0.0416	0.7151	0.5562	0.063
Mof_C 	C 	0.0156	0.7922	0.6195	-0.053
Mof_C 	C 	0.0035	0.7991	0.6795	-0.111
Mof_H 	H 	0.9936	0.8487	0.6953	0.08
Mof_C 	C 	0.0061	0.7297	0.7174	0.023
Mof_C 	C 	0.0115	0.8686	0.5767	0.428
Mof_N 	N 	0.879	0.5436	0.6846	-0.224
Mof_N 	N 	0.0152	0.464	0.6849	-0.252
Mof_N 	N 	0.0221	0.6579	0.695	-0.25
Mof_O 	O 	0.6591	0.4438	0.4956	-0.48
Mof_O 	O 	0.5899	0.5267	0.5384	-0.591
Mof_O 	O 	0.0326	0.8605	0.5257	-0.483
Mof_O 	O 	0.9895	0.9296	0.5981	-0.536
Mof_O 	O 	0.9354	0.1925	0.5971	-0.428
Mof_O 	O 	0.0647	0.192	0.6016	-0.406
Mof_Tb	Tb	0.52058	0.56529	0.92891	1.921
Mof_C 	C 	0.6838	0.0924	0.822	0.019
Mof_H 	H 	0.6772	0.1377	0.7957	0.005
Mof_C 	C 	0.7607	0.0773	0.868	-0.03
Mof_H 	H 	0.8047	0.1106	0.8705	0.034
Mof_C 	C 	0.7683	0.0134	0.9082	-0.1
Mof_C 	C 	0.7	0.9652	0.9034	-0.034
Mof_H 	H 	0.7033	0.923	0.9325	0.055
Mof_C 	C 	0.6284	0.9805	0.8559	0.02
Mof_C 	C 	0.8442	0.9926	0.9618	0.428
Mof_C 	C 	0.5551	0.9315	0.8476	0.042
Mof_C 	C 	0.5614	0.8528	0.874	-0.077
Mof_H 	H 	0.6117	0.8304	0.8947	0.07
Mof_C 	C 	0.4911	0.811	0.8679	-0.023
Mof_C 	C 	0.416	0.848	0.8369	-0.087
Mof_H 	H 	0.3673	0.8222	0.834	0.063
Mof_C 	C 	0.4167	0.9233	0.811	0.054
Mof_H 	H 	0.3673	0.9471	0.7896	-0.007
Mof_C 	C 	0.4966	0.7273	0.8914	0.289
Mof_C 	C 	0.4671	0.1543	0.8644	0.03
Mof_H 	H 	0.4582	0.1045	0.8805	0.002
Mof_C 	C 	0.4683	0.2198	0.9033	-0.038
Mof_H 	H 	0.4584	0.2151	0.9438	0.056
Mof_C 	C 	0.4844	0.2922	0.8805	-0.095
Mof_C 	C 	0.4965	0.2991	0.8205	-0.026
Mof_H 	H 	0.5064	0.3487	0.8047	0.027
Mof_C 	C 	0.4939	0.2297	0.7826	0.018
Mof_C 	C 	0.4885	0.3686	0.9233	0.485
Mof_N 	N 	0.621	0.0436	0.8154	-0.232
Mof_N 	N 	0.4848	0.964	0.8151	-0.236
Mof_N 	N 	0.4779	0.1579	0.805	-0.24
Mof_O 	O 	0.8409	0.9438	0.0044	-0.486
Mof_O 	O 	0.9101	0.0267	0.9616	-0.575
Mof_O 	O 	0.4674	0.3605	0.9743	-0.494
Mof_O 	O 	0.5105	0.4296	0.9019	-0.571
Mof_O 	O 	0.5646	0.6925	0.9029	-0.448
Mof_O 	O 	0.4353	0.692	0.8984	-0.398
Mof_Tb	Tb	0.02058	0.06529	0.92891	1.861
Mof_C 	C 	0.1838	0.5924	0.822	0.016
Mof_H 	H 	0.1772	0.6377	0.7957	0.003
Mof_C 	C 	0.2607	0.5773	0.868	-0.032
Mof_H 	H 	0.3047	0.6106	0.8705	0.03
Mof_C 	C 	0.2683	0.5134	0.9082	-0.101
Mof_C 	C 	0.2	0.4652	0.9034	-0.038
Mof_H 	H 	0.2033	0.423	0.9325	0.053
Mof_C 	C 	0.1284	0.4805	0.8559	0.019
Mof_C 	C 	0.3442	0.4926	0.9618	0.423
Mof_C 	C 	0.0551	0.4315	0.8476	0.025
Mof_C 	C 	0.0614	0.3528	0.874	-0.12
Mof_H 	H 	0.1117	0.3304	0.8947	0.08
Mof_C 	C 	0.9911	0.311	0.8679	0.016
Mof_C 	C 	0.916	0.348	0.8369	-0.098
Mof_H 	H 	0.8673	0.3222	0.834	0.069
Mof_C 	C 	0.9167	0.4233	0.811	0.066
Mof_H 	H 	0.8673	0.4471	0.7896	-0.009
Mof_C 	C 	0.9966	0.2273	0.8914	0.318
Mof_C 	C 	0.9671	0.6543	0.8644	0.017
Mof_H 	H 	0.9582	0.6045	0.8805	0.014
Mof_C 	C 	0.9683	0.7198	0.9033	-0.005
Mof_H 	H 	0.9584	0.7151	0.9438	0.051
Mof_C 	C 	0.9844	0.7922	0.8805	-0.137
Mof_C 	C 	0.9965	0.7991	0.8205	0.06
Mof_H 	H 	0.0064	0.8487	0.8047	-0.027
Mof_C 	C 	0.9939	0.7297	0.7826	0.013
Mof_C 	C 	0.9885	0.8686	0.9233	0.544
Mof_N 	N 	0.121	0.5436	0.8154	-0.236
Mof_N 	N 	0.9848	0.464	0.8151	-0.217
Mof_N 	N 	0.9779	0.6579	0.805	-0.227
Mof_O 	O 	0.3409	0.4438	0.0044	-0.478
Mof_O 	O 	0.4101	0.5267	0.9616	-0.591
Mof_O 	O 	0.9674	0.8605	0.9743	-0.501
Mof_O 	O 	0.0105	0.9296	0.9019	-0.606
Mof_O 	O 	0.0646	0.1925	0.9029	-0.47
Mof_O 	O 	0.9353	0.192	0.8984	-0.389
Mof_Tb	Tb	0.52058	0.43471	0.42891	1.923
Mof_C 	C 	0.6838	0.9076	0.322	0.02
Mof_H 	H 	0.6772	0.8623	0.2957	0.005
Mof_C 	C 	0.7607	0.9227	0.368	-0.032
Mof_H 	H 	0.8047	0.8894	0.3705	0.034
Mof_C 	C 	0.7683	0.9866	0.4082	-0.096
Mof_C 	C 	0.7	0.0348	0.4034	-0.037
Mof_H 	H 	0.7033	0.077	0.4325	0.056
Mof_C 	C 	0.6284	0.0195	0.3559	0.021
Mof_C 	C 	0.8442	0.0074	0.4618	0.423
Mof_C 	C 	0.5551	0.0685	0.3476	0.041
Mof_C 	C 	0.5614	0.1472	0.374	-0.076
Mof_H 	H 	0.6117	0.1696	0.3947	0.07
Mof_C 	C 	0.4911	0.189	0.3679	-0.023
Mof_C 	C 	0.416	0.152	0.3369	-0.087
Mof_H 	H 	0.3673	0.1778	0.334	0.063
Mof_C 	C 	0.4167	0.0767	0.311	0.054
Mof_H 	H 	0.3673	0.0529	0.2896	-0.007
Mof_C 	C 	0.4966	0.2727	0.3914	0.289
Mof_C 	C 	0.4671	0.8457	0.3644	0.03
Mof_H 	H 	0.4582	0.8955	0.3805	0.003
Mof_C 	C 	0.4683	0.7802	0.4033	-0.038
Mof_H 	H 	0.4584	0.7849	0.4438	0.057
Mof_C 	C 	0.4844	0.7078	0.3805	-0.095
Mof_C 	C 	0.4965	0.7009	0.3205	-0.026
Mof_H 	H 	0.5064	0.6513	0.3047	0.027
Mof_C 	C 	0.4939	0.7703	0.2826	0.018
Mof_C 	C 	0.4885	0.6314	0.4233	0.485
Mof_N 	N 	0.621	0.9564	0.3154	-0.232
Mof_N 	N 	0.4848	0.036	0.3151	-0.236
Mof_N 	N 	0.4779	0.8421	0.305	-0.24
Mof_O 	O 	0.8409	0.0562	0.5044	-0.483
Mof_O 	O 	0.9101	0.9733	0.4616	-0.574
Mof_O 	O 	0.4674	0.6395	0.4743	-0.493
Mof_O 	O 	0.5105	0.5704	0.4019	-0.571
Mof_O 	O 	0.5646	0.3075	0.4029	-0.448
Mof_O 	O 	0.4353	0.308	0.3984	-0.398
Mof_Tb	Tb	0.02058	0.93471	0.42891	1.871
Mof_C 	C 	0.1838	0.4076	0.322	0.016
Mof_H 	H 	0.1772	0.3623	0.2957	0.003
Mof_C 	C 	0.2607	0.4227	0.368	-0.031
Mof_H 	H 	0.3047	0.3894	0.3705	0.03
Mof_C 	C 	0.2683	0.4866	0.4082	-0.101
Mof_C 	C 	0.2	0.5348	0.4034	-0.037
Mof_H 	H 	0.2033	0.577	0.4325	0.054
Mof_C 	C 	0.1284	0.5195	0.3559	0.019
Mof_C 	C 	0.3442	0.5074	0.4618	0.427
Mof_C 	C 	0.0551	0.5685	0.3476	0.027
Mof_C 	C 	0.0614	0.6472	0.374	-0.117
Mof_H 	H 	0.1117	0.6696	0.3947	0.08
Mof_C 	C 	0.9911	0.689	0.3679	0.013
Mof_C 	C 	0.916	0.652	0.3369	-0.098
Mof_H 	H 	0.8673	0.6778	0.334	0.069
Mof_C 	C 	0.9167	0.5767	0.311	0.066
Mof_H 	H 	0.8673	0.5529	0.2896	-0.009
Mof_C 	C 	0.9966	0.7727	0.3914	0.316
Mof_C 	C 	0.9671	0.3457	0.3644	0.018
Mof_H 	H 	0.9582	0.3955	0.3805	0.014
Mof_C 	C 	0.9683	0.2802	0.4033	-0.008
Mof_H 	H 	0.9584	0.2849	0.4438	0.052
Mof_C 	C 	0.9844	0.2078	0.3805	-0.133
Mof_C 	C 	0.9965	0.2009	0.3205	0.053
Mof_H 	H 	0.0064	0.1513	0.3047	-0.023
Mof_C 	C 	0.9939	0.2703	0.2826	0.014
Mof_C 	C 	0.9885	0.1314	0.4233	0.54
Mof_N 	N 	0.121	0.4564	0.3154	-0.235
Mof_N 	N 	0.9848	0.536	0.3151	-0.219
Mof_N 	N 	0.9779	0.3421	0.305	-0.228
Mof_O 	O 	0.3409	0.5562	0.5044	-0.481
Mof_O 	O 	0.4101	0.4733	0.4616	-0.591
Mof_O 	O 	0.9674	0.1395	0.4743	-0.502
Mof_O 	O 	0.0105	0.0704	0.4019	-0.604
Mof_O 	O 	0.0646	0.8075	0.4029	-0.468
Mof_O 	O 	0.9353	0.808	0.3984	-0.389
Mof_Tb	Tb	0.47942	0.43471	0.07109	1.924
Mof_C 	C 	0.3162	0.9076	0.178	0.013
Mof_H 	H 	0.3228	0.8623	0.2043	0.006
Mof_C 	C 	0.2393	0.9227	0.132	-0.024
Mof_H 	H 	0.1953	0.8894	0.1295	0.024
Mof_C 	C 	0.2317	0.9866	0.0918	-0.113
Mof_C 	C 	0.3	0.0348	0.0966	-0.028
Mof_H 	H 	0.2967	0.077	0.0675	0.053
Mof_C 	C 	0.3716	0.0195	0.1441	0.017
Mof_C 	C 	0.1558	0.0074	0.0382	0.442
Mof_C 	C 	0.4449	0.0685	0.1524	0.043
Mof_C 	C 	0.4386	0.1472	0.126	-0.077
Mof_H 	H 	0.3883	0.1696	0.1053	0.07
Mof_C 	C 	0.5089	0.189	0.1321	-0.022
Mof_C 	C 	0.584	0.152	0.1631	-0.087
Mof_H 	H 	0.6327	0.1778	0.166	0.065
Mof_C 	C 	0.5833	0.0767	0.189	0.054
Mof_H 	H 	0.6327	0.0529	0.2104	-0.006
Mof_C 	C 	0.5034	0.2727	0.1086	0.289
Mof_C 	C 	0.5329	0.8457	0.1356	0.03
Mof_H 	H 	0.5418	0.8955	0.1195	0.003
Mof_C 	C 	0.5317	0.7802	0.0967	-0.038
Mof_H 	H 	0.5416	0.7849	0.0562	0.057
Mof_C 	C 	0.5156	0.7078	0.1195	-0.095
Mof_C 	C 	0.5035	0.7009	0.1795	-0.026
Mof_H 	H 	0.4936	0.6513	0.1953	0.027
Mof_C 	C 	0.5061	0.7703	0.2174	0.018
Mof_C 	C 	0.5115	0.6314	0.0767	0.485
Mof_N 	N 	0.379	0.9564	0.1846	-0.231
Mof_N 	N 	0.5152	0.036	0.1849	-0.236
Mof_N 	N 	0.5221	0.8421	0.195	-0.24
Mof_O 	O 	0.1591	0.0562	0.9956	-0.485
Mof_O 	O 	0.0899	0.9733	0.0384	-0.608
Mof_O 	O 	0.5326	0.6395	0.0257	-0.492
Mof_O 	O 	0.4895	0.5704	0.0981	-0.571
Mof_O 	O 	0.4354	0.3075	0.0971	-0.448
Mof_O 	O 	0.5647	0.308	0.1016	-0.397
Mof_Tb	Tb	0.97942	0.93471	0.07109	1.972
Mof_C 	C 	0.8162	0.4076	0.178	0.019
Mof_H 	H 	0.8228	0.3623	0.2043	0.008
Mof_C 	C 	0.7393	0.4227	0.132	-0.029
Mof_H 	H 	0.6953	0.3894	0.1295	0.03
Mof_C 	C 	0.7317	0.4866	0.0918	-0.101
Mof_C 	C 	0.8	0.5348	0.0966	-0.033
Mof_H 	H 	0.7967	0.577	0.0675	0.055
Mof_C 	C 	0.8716	0.5195	0.1441	0.02
Mof_C 	C 	0.6558	0.5074	0.0382	0.428
Mof_C 	C 	0.9449	0.5685	0.1524	0.057
Mof_C 	C 	0.9386	0.6472	0.126	-0.039
Mof_H 	H 	0.8883	0.6696	0.1053	0.06
Mof_C 	C 	0.0089	0.689	0.1321	-0.056
Mof_C 	C 	0.084	0.652	0.1631	-0.077
Mof_H 	H 	0.1327	0.6778	0.166	0.059
Mof_C 	C 	0.0833	0.5767	0.189	0.043
Mof_H 	H 	0.1327	0.5529	0.2104	-0.004
Mof_C 	C 	0.0034	0.7727	0.1086	0.265
Mof_C 	C 	0.0329	0.3457	0.1356	0.042
Mof_H 	H 	0.0418	0.3955	0.1195	-0.006
Mof_C 	C 	0.0317	0.2802	0.0967	-0.068
Mof_H 	H 	0.0416	0.2849	0.0562	0.063
Mof_C 	C 	0.0156	0.2078	0.1195	-0.057
Mof_C 	C 	0.0035	0.2009	0.1795	-0.103
Mof_H 	H 	0.9936	0.1513	0.1953	0.075
Mof_C 	C 	0.0061	0.2703	0.2174	0.023
Mof_C 	C 	0.0115	0.1314	0.0767	0.433
Mof_N 	N 	0.879	0.4564	0.1846	-0.225
Mof_N 	N 	0.0152	0.536	0.1849	-0.25
Mof_N 	N 	0.0221	0.3421	0.195	-0.249
Mof_O 	O 	0.6591	0.5562	0.9956	-0.48
Mof_O 	O 	0.5899	0.4733	0.0384	-0.591
Mof_O 	O 	0.0326	0.1395	0.0257	-0.481
Mof_O 	O 	0.9895	0.0704	0.0981	-0.538
Mof_O 	O 	0.9354	0.8075	0.0971	-0.43
Mof_O 	O 	0.0647	0.808	0.1016	-0.405
Mof_Zn	Zn	0.5	0.05995	0.75	1.181
Mof_Zn	Zn	4.48289e-33	0.55995	0.75	1.172
Mof_Zn	Zn	0.5	0.94005	0.25	1.181
Mof_Zn	Zn	1.4943e-33	0.44005	0.25	1.173
_end
