# CIF file generated by openbabel 3.1.0, see https://openbabel.org
data_I
_chemical_name_common 'image0'
_cell_length_a 19.397
_cell_length_b 27.62
_cell_length_c 5.1655
_cell_angle_alpha 90
_cell_angle_beta 90
_cell_angle_gamma 90
_space_group_name_H-M_alt 'P 1'
_space_group_name_Hall 'P 1'
loop_
    _symmetry_equiv_pos_as_xyz
    x,y,z
loop_
    _atom_site_label
    _atom_site_type_symbol
    _atom_site_fract_x
    _atom_site_fract_y
    _atom_site_fract_z
    _atom_site_occupancy
    Zn1      Zn       0.54616    0.95202    0.77962    1.000
    O1       O        0.54718    0.88369    0.68080    1.000
    O2       O        0.60109    0.99164    0.55380    1.000
    O3       O        0.59469    0.95275    0.11360    1.000
    O4       O        0.44919    0.96234    0.83140    1.000
    P1       P        0.39665    0.99933    0.73535    1.000
    C1       C        0.31456    0.97354    0.81560    1.000
    H1       H        0.31180    0.94120    0.73390    1.000
    H2       H        0.31320    0.96860    0.00540    1.000
    P2       P        0.39472    0.14546    0.44069    1.000
    C2       C        0.31431    0.12368    0.31700    1.000
    O5       O        0.40074    0.19915    0.41000    1.000
    O6       O        0.39318    0.13635    0.74160    1.000
    H3       H        0.31310    0.12970    0.12820    1.000
    H4       H        0.31250    0.08820    0.34300    1.000
    H5       H        0.39550    0.10650    0.77080    1.000
    Zn2      Zn       0.95384    0.54798    0.77962    1.000
    O7       O        0.95282    0.61631    0.68080    1.000
    O8       O        0.89891    0.50836    0.55380    1.000
    O9       O        0.90531    0.54725    0.11360    1.000
    O10      O        0.05081    0.53766    0.83140    1.000
    P3       P        0.10335    0.50067    0.73535    1.000
    C3       C        0.18544    0.52646    0.81560    1.000
    H6       H        0.18820    0.55880    0.73390    1.000
    H7       H        0.18680    0.53140    0.00540    1.000
    P4       P        0.10528    0.35454    0.44069    1.000
    C4       C        0.18569    0.37632    0.31700    1.000
    O11      O        0.09926    0.30085    0.41000    1.000
    O12      O        0.10682    0.36365    0.74160    1.000
    H8       H        0.18690    0.37030    0.12820    1.000
    H9       H        0.18750    0.41180    0.34300    1.000
    H10      H        0.10450    0.39350    0.77080    1.000
    Zn3      Zn       0.45384    0.45202    0.22038    1.000
    O13      O        0.45282    0.38369    0.31920    1.000
    O14      O        0.39891    0.49164    0.44620    1.000
    O15      O        0.40531    0.45275    0.88640    1.000
    O16      O        0.55081    0.46234    0.16860    1.000
    P5       P        0.60335    0.49933    0.26465    1.000
    C5       C        0.68544    0.47354    0.18440    1.000
    H11      H        0.68820    0.44120    0.26610    1.000
    H12      H        0.68680    0.46860    0.99460    1.000
    P6       P        0.60528    0.64546    0.55931    1.000
    C6       C        0.68569    0.62368    0.68300    1.000
    O17      O        0.59926    0.69915    0.59000    1.000
    O18      O        0.60682    0.63635    0.25840    1.000
    H13      H        0.68690    0.62970    0.87180    1.000
    H14      H        0.68750    0.58820    0.65700    1.000
    H15      H        0.60450    0.60650    0.22920    1.000
    Zn4      Zn       0.04616    0.04798    0.22038    1.000
    O19      O        0.04718    0.11631    0.31920    1.000
    O20      O        0.10109    0.00836    0.44620    1.000
    O21      O        0.09469    0.04725    0.88640    1.000
    O22      O        0.94919    0.03766    0.16860    1.000
    P7       P        0.89665    0.00067    0.26465    1.000
    C7       C        0.81456    0.02646    0.18440    1.000
    H16      H        0.81180    0.05880    0.26610    1.000
    H17      H        0.81320    0.03140    0.99460    1.000
    P8       P        0.89472    0.85454    0.55931    1.000
    C8       C        0.81431    0.87632    0.68300    1.000
    O23      O        0.90074    0.80085    0.59000    1.000
    O24      O        0.89318    0.86365    0.25840    1.000
    H18      H        0.81310    0.87030    0.87180    1.000
    H19      H        0.81250    0.91180    0.65700    1.000
    H20      H        0.89550    0.89350    0.22920    1.000
    Zn5      Zn       0.45384    0.04798    0.22038    1.000
    O25      O        0.45282    0.11631    0.31920    1.000
    O26      O        0.39891    0.00836    0.44620    1.000
    O27      O        0.40531    0.04725    0.88640    1.000
    O28      O        0.55081    0.03766    0.16860    1.000
    P9       P        0.60335    0.00067    0.26465    1.000
    C9       C        0.68544    0.02646    0.18440    1.000
    H21      H        0.68820    0.05880    0.26610    1.000
    H22      H        0.68680    0.03140    0.99460    1.000
    P10      P        0.60528    0.85454    0.55931    1.000
    C10      C        0.68569    0.87632    0.68300    1.000
    O29      O        0.59926    0.80085    0.59000    1.000
    O30      O        0.60682    0.86365    0.25840    1.000
    H23      H        0.68690    0.87030    0.87180    1.000
    H24      H        0.68750    0.91180    0.65700    1.000
    H25      H        0.60450    0.89350    0.22920    1.000
    Zn6      Zn       0.04616    0.45202    0.22038    1.000
    O31      O        0.04718    0.38369    0.31920    1.000
    O32      O        0.10109    0.49164    0.44620    1.000
    O33      O        0.09469    0.45275    0.88640    1.000
    O34      O        0.94919    0.46234    0.16860    1.000
    P11      P        0.89665    0.49933    0.26465    1.000
    C11      C        0.81456    0.47354    0.18440    1.000
    H26      H        0.81180    0.44120    0.26610    1.000
    H27      H        0.81320    0.46860    0.99460    1.000
    P12      P        0.89472    0.64546    0.55931    1.000
    C12      C        0.81431    0.62368    0.68300    1.000
    O35      O        0.90074    0.69915    0.59000    1.000
    O36      O        0.89318    0.63635    0.25840    1.000
    H28      H        0.81310    0.62970    0.87180    1.000
    H29      H        0.81250    0.58820    0.65700    1.000
    H30      H        0.89550    0.60650    0.22920    1.000
    Zn7      Zn       0.54616    0.54798    0.77962    1.000
    O37      O        0.54718    0.61631    0.68080    1.000
    O38      O        0.60109    0.50836    0.55380    1.000
    O39      O        0.59469    0.54725    0.11360    1.000
    O40      O        0.44919    0.53766    0.83140    1.000
    P13      P        0.39665    0.50067    0.73535    1.000
    C13      C        0.31456    0.52646    0.81560    1.000
    H31      H        0.31180    0.55880    0.73390    1.000
    H32      H        0.31320    0.53140    0.00540    1.000
    P14      P        0.39472    0.35454    0.44069    1.000
    C14      C        0.31431    0.37632    0.31700    1.000
    O41      O        0.40074    0.30085    0.41000    1.000
    O42      O        0.39318    0.36365    0.74160    1.000
    H33      H        0.31310    0.37030    0.12820    1.000
    H34      H        0.31250    0.41180    0.34300    1.000
    H35      H        0.39550    0.39350    0.77080    1.000
    Zn8      Zn       0.95384    0.95202    0.77962    1.000
    O43      O        0.95282    0.88369    0.68080    1.000
    O44      O        0.89891    0.99164    0.55380    1.000
    O45      O        0.90531    0.95275    0.11360    1.000
    O46      O        0.05081    0.96234    0.83140    1.000
    P15      P        0.10335    0.99933    0.73535    1.000
    C15      C        0.18544    0.97354    0.81560    1.000
    H36      H        0.18820    0.94120    0.73390    1.000
    H37      H        0.18680    0.96860    0.00540    1.000
    P16      P        0.10528    0.14546    0.44069    1.000
    C16      C        0.18569    0.12368    0.31700    1.000
    O47      O        0.09926    0.19915    0.41000    1.000
    O48      O        0.10682    0.13635    0.74160    1.000
    H38      H        0.18690    0.12970    0.12820    1.000
    H39      H        0.18750    0.08820    0.34300    1.000
    H40      H        0.10450    0.10650    0.77080    1.000
    C17      C        0.25000    0.00202    0.73790    1.000
    H41      H        0.25000    0.03390    0.82510    1.000
    H42      H        0.25000    0.00750    0.54850    1.000
    C18      C        0.25000    0.14597    0.43770    1.000
    H43      H        0.25000    0.18140    0.40860    1.000
    H44      H        0.25000    0.14010    0.62680    1.000
    C19      C        0.25000    0.49798    0.73790    1.000
    H45      H        0.25000    0.46610    0.82510    1.000
    H46      H        0.25000    0.49250    0.54850    1.000
    C20      C        0.25000    0.35403    0.43770    1.000
    H47      H        0.25000    0.31860    0.40860    1.000
    H48      H        0.25000    0.35990    0.62680    1.000
    C21      C        0.75000    0.50202    0.26210    1.000
    H49      H        0.75000    0.53390    0.17490    1.000
    H50      H        0.75000    0.50750    0.45150    1.000
    C22      C        0.75000    0.64597    0.56230    1.000
    H51      H        0.75000    0.68140    0.59140    1.000
    H52      H        0.75000    0.64010    0.37320    1.000
    C23      C        0.75000    0.99798    0.26210    1.000
    H53      H        0.75000    0.96610    0.17490    1.000
    H54      H        0.75000    0.99250    0.45150    1.000
    C24      C        0.75000    0.85403    0.56230    1.000
    H55      H        0.75000    0.81860    0.59140    1.000
    H56      H        0.75000    0.85990    0.37320    1.000
    Zn9      Zn       0.45009    0.25000    0.20559    1.000
    Zn10     Zn       0.04991    0.25000    0.20559    1.000
    Zn11     Zn       0.54991    0.75000    0.79441    1.000
    Zn12     Zn       0.95009    0.75000    0.79441    1.000
