data_functionalizedCrystal
_audit_creation_method	'EQeq! by Chris Wilmer'
_symmetry_space_group_name_H-M	'P1'
_symmetry_Int_Tables_number	1
_symmetry_cell_setting	triclinic
loop_
_symmetry_equiv_pos_as_xyz
  x,y,z
_cell_length_a	13.0959
_cell_length_b	13.0959
_cell_length_c	13.65
_cell_angle_alpha	90
_cell_angle_beta	90
_cell_angle_gamma	120
loop_
_atom_site_label
_atom_site_type_symbol
_atom_site_fract_x
_atom_site_fract_y
_atom_site_fract_z
_atom_site_charge
Mof_N 	N 	0.05	0.5252	0.1686	-0.282
Mof_N 	N 	0.1633	0.5814	0.2027	-0.084
Mof_N 	N 	0.8613	0.5592	0.0328	-0.173
Mof_N 	N 	0.7518	0.5047	0.0007	-0.116
Mof_N 	N 	0.6989	0.56	0.0333	-0.113
Mof_N 	N 	0.7761	0.6503	0.085	-0.12
Mof_C 	C 	0.8755	0.6498	0.0857	0.205
Mof_C 	C 	0.977	0.747	0.138	-0.624
Mof_H 	H 	0.0183	0.8127	0.0945	0.19
Mof_H 	H 	0.0289	0.7204	0.1605	0.198
Mof_H 	H 	0.9482	0.7711	0.1933	0.184
Mof_C 	C 	0.77	0.747	0.138	-0.284
Mof_H 	H 	0.8168	0.7667	0.1967	0.061
Mof_H 	H 	0.6896	0.7212	0.1552	0.102
Mof_H 	H 	0.7997	0.8152	0.0967	0.089
Mof_H 	H 	0.8241	0.343	0.2538	0.477
Mof_H 	H 	0.8241	0.4431	0.1908	0.502
Mof_H 	H 	0.8241	0.4499	0.3055	0.501
Mof_N 	N 	0.4748	0.5248	0.1686	-0.272
Mof_N 	N 	0.4186	0.5819	0.2027	-0.086
Mof_N 	N 	0.4408	0.3021	0.0328	-0.182
Mof_N 	N 	0.4953	0.2471	0.0007	-0.115
Mof_N 	N 	0.44	0.1389	0.0333	-0.112
Mof_N 	N 	0.3497	0.1258	0.085	-0.126
Mof_C 	C 	0.3502	0.2257	0.0857	0.234
Mof_C 	C 	0.253	0.23	0.138	-0.736
Mof_H 	H 	0.1873	0.2056	0.0945	0.231
Mof_H 	H 	0.2796	0.3085	0.1605	0.238
Mof_H 	H 	0.2289	0.1771	0.1933	0.214
Mof_C 	C 	0.253	0.023	0.138	-0.28
Mof_H 	H 	0.2333	0.0501	0.1967	0.056
Mof_H 	H 	0.2788	0.9684	0.1552	0.102
Mof_H 	H 	0.1848	0.9845	0.0967	0.087
Mof_H 	H 	0.657	0.4811	0.2538	0.453
Mof_H 	H 	0.5569	0.381	0.1908	0.479
Mof_H 	H 	0.5501	0.3742	0.3055	0.479
Mof_N 	N 	0.4752	0.95	0.1686	-0.269
Mof_N 	N 	0.4181	0.8367	0.2027	-0.086
Mof_N 	N 	0.6979	0.1387	0.0328	-0.182
Mof_N 	N 	0.7529	0.2482	0.0007	-0.114
Mof_N 	N 	0.8611	0.3011	0.0333	-0.108
Mof_N 	N 	0.8742	0.2239	0.085	-0.136
Mof_C 	C 	0.7743	0.1245	0.0857	0.24
Mof_C 	C 	0.77	0.023	0.138	-0.745
Mof_H 	H 	0.7944	0.9817	0.0945	0.235
Mof_H 	H 	0.6915	0.9711	0.1605	0.24
Mof_H 	H 	0.8229	0.0518	0.1933	0.218
Mof_C 	C 	0.977	0.23	0.138	-0.193
Mof_H 	H 	0.9499	0.1832	0.1967	0.035
Mof_H 	H 	0.0316	0.3104	0.1552	0.069
Mof_H 	H 	0.0155	0.2003	0.0967	0.053
Mof_H 	H 	0.5189	0.1759	0.2538	0.449
Mof_H 	H 	0.619	0.1759	0.1908	0.473
Mof_H 	H 	0.6258	0.1759	0.3055	0.473
Mof_N 	N 	0.4748	0.95	0.3314	-0.266
Mof_N 	N 	0.4186	0.8367	0.2973	-0.084
Mof_N 	N 	0.4408	0.1387	0.4672	-0.181
Mof_N 	N 	0.4953	0.2482	0.4993	-0.104
Mof_N 	N 	0.44	0.3011	0.4667	-0.106
Mof_N 	N 	0.3497	0.2239	0.415	-0.127
Mof_C 	C 	0.3502	0.1245	0.4143	0.258
Mof_C 	C 	0.253	0.023	0.362	-0.8
Mof_H 	H 	0.1873	0.9817	0.4055	0.262
Mof_H 	H 	0.2796	0.9711	0.3395	0.263
Mof_H 	H 	0.2289	0.0518	0.3067	0.234
Mof_C 	C 	0.253	0.23	0.362	-0.282
Mof_H 	H 	0.2333	0.1832	0.3033	0.058
Mof_H 	H 	0.2788	0.3104	0.3448	0.106
Mof_H 	H 	0.1848	0.2003	0.4033	0.095
Mof_H 	H 	0.657	0.1759	0.2462	0.448
Mof_H 	H 	0.5569	0.1759	0.3092	0.473
Mof_H 	H 	0.5501	0.1759	0.1945	0.474
Mof_N 	N 	0.4752	0.5252	0.3314	-0.27
Mof_N 	N 	0.4181	0.5814	0.2973	-0.084
Mof_N 	N 	0.6979	0.5592	0.4672	-0.18
Mof_N 	N 	0.7529	0.5047	0.4993	-0.105
Mof_N 	N 	0.8611	0.56	0.4667	-0.106
Mof_N 	N 	0.8742	0.6503	0.415	-0.13
Mof_C 	C 	0.7743	0.6498	0.4143	0.248
Mof_C 	C 	0.77	0.747	0.362	-0.76
Mof_H 	H 	0.7944	0.8127	0.4055	0.247
Mof_H 	H 	0.6915	0.7204	0.3395	0.248
Mof_H 	H 	0.8229	0.7711	0.3067	0.224
Mof_C 	C 	0.977	0.747	0.362	-0.239
Mof_H 	H 	0.9499	0.7667	0.3033	0.05
Mof_H 	H 	0.0316	0.7212	0.3448	0.089
Mof_H 	H 	0.0155	0.8152	0.4033	0.078
Mof_H 	H 	0.5189	0.343	0.2462	0.455
Mof_H 	H 	0.619	0.4431	0.3092	0.478
Mof_H 	H 	0.6258	0.4499	0.1945	0.479
Mof_N 	N 	0.05	0.5248	0.3314	-0.281
Mof_N 	N 	0.1633	0.5819	0.2973	-0.083
Mof_N 	N 	0.8613	0.3021	0.4672	-0.175
Mof_N 	N 	0.7518	0.2471	0.4993	-0.104
Mof_N 	N 	0.6989	0.1389	0.4667	-0.107
Mof_N 	N 	0.7761	0.1258	0.415	-0.117
Mof_C 	C 	0.8755	0.2257	0.4143	0.227
Mof_C 	C 	0.977	0.23	0.362	-0.684
Mof_H 	H 	0.0183	0.2056	0.4055	0.22
Mof_H 	H 	0.0289	0.3085	0.3395	0.221
Mof_H 	H 	0.9482	0.1771	0.3067	0.203
Mof_C 	C 	0.77	0.023	0.362	-0.319
Mof_H 	H 	0.8168	0.0501	0.3033	0.071
Mof_H 	H 	0.6896	0.9684	0.3448	0.119
Mof_H 	H 	0.7997	0.9845	0.4033	0.11
Mof_H 	H 	0.8241	0.4811	0.2462	0.477
Mof_H 	H 	0.8241	0.381	0.3092	0.502
Mof_H 	H 	0.8241	0.3742	0.1945	0.502
Mof_N 	N 	0.95	0.4748	0.8314	-0.261
Mof_N 	N 	0.8367	0.4186	0.7973	-0.081
Mof_N 	N 	0.1387	0.4408	0.9672	-0.165
Mof_N 	N 	0.2482	0.4953	0.9993	-0.088
Mof_N 	N 	0.3011	0.44	0.9667	-0.093
Mof_N 	N 	0.2239	0.3497	0.915	-0.12
Mof_C 	C 	0.1245	0.3502	0.9143	0.255
Mof_C 	C 	0.023	0.253	0.862	-0.754
Mof_H 	H 	0.9817	0.1873	0.9055	0.253
Mof_H 	H 	0.9711	0.2796	0.8395	0.25
Mof_H 	H 	0.0518	0.2289	0.8067	0.22
Mof_C 	C 	0.23	0.253	0.862	-0.29
Mof_H 	H 	0.1832	0.2333	0.8033	0.061
Mof_H 	H 	0.3104	0.2788	0.8448	0.114
Mof_H 	H 	0.2003	0.1848	0.9033	0.108
Mof_H 	H 	0.1759	0.657	0.7462	0.452
Mof_H 	H 	0.1759	0.5569	0.8092	0.48
Mof_H 	H 	0.1759	0.5501	0.6945	0.478
Mof_N 	N 	0.5252	0.4752	0.8314	-0.261
Mof_N 	N 	0.5814	0.4181	0.7973	-0.081
Mof_N 	N 	0.5592	0.6979	0.9672	-0.169
Mof_N 	N 	0.5047	0.7529	0.9993	-0.089
Mof_N 	N 	0.56	0.8611	0.9667	-0.091
Mof_N 	N 	0.6503	0.8742	0.915	-0.132
Mof_C 	C 	0.6498	0.7743	0.9143	0.264
Mof_C 	C 	0.747	0.77	0.862	-0.783
Mof_H 	H 	0.8127	0.7944	0.9055	0.264
Mof_H 	H 	0.7204	0.6915	0.8395	0.26
Mof_H 	H 	0.7711	0.8229	0.8067	0.231
Mof_C 	C 	0.747	0.977	0.862	-0.204
Mof_H 	H 	0.7667	0.9499	0.8033	0.038
Mof_H 	H 	0.7212	0.0316	0.8448	0.08
Mof_H 	H 	0.8152	0.0155	0.9033	0.073
Mof_H 	H 	0.343	0.5189	0.7462	0.454
Mof_H 	H 	0.4431	0.619	0.8092	0.479
Mof_H 	H 	0.4499	0.6258	0.6945	0.478
Mof_N 	N 	0.5248	0.05	0.8314	-0.274
Mof_N 	N 	0.5819	0.1633	0.7973	-0.081
Mof_N 	N 	0.3021	0.8613	0.9672	-0.16
Mof_N 	N 	0.2471	0.7518	0.9993	-0.088
Mof_N 	N 	0.1389	0.6989	0.9667	-0.091
Mof_N 	N 	0.1258	0.7761	0.915	-0.116
Mof_C 	C 	0.2257	0.8755	0.9143	0.233
Mof_C 	C 	0.23	0.977	0.862	-0.664
Mof_H 	H 	0.2056	0.0183	0.9055	0.221
Mof_H 	H 	0.3085	0.0289	0.8395	0.217
Mof_H 	H 	0.1771	0.9482	0.8067	0.197
Mof_C 	C 	0.023	0.77	0.862	-0.279
Mof_H 	H 	0.0501	0.8168	0.8033	0.059
Mof_H 	H 	0.9684	0.6896	0.8448	0.109
Mof_H 	H 	0.9845	0.7997	0.9033	0.105
Mof_H 	H 	0.4811	0.8241	0.7462	0.477
Mof_H 	H 	0.381	0.8241	0.8092	0.503
Mof_H 	H 	0.3742	0.8241	0.6945	0.501
Mof_N 	N 	0.5252	0.05	0.6686	-0.282
Mof_N 	N 	0.5814	0.1633	0.7027	-0.083
Mof_N 	N 	0.5592	0.8613	0.5328	-0.174
Mof_N 	N 	0.5047	0.7518	0.5007	-0.105
Mof_N 	N 	0.56	0.6989	0.5333	-0.107
Mof_N 	N 	0.6503	0.7761	0.585	-0.12
Mof_C 	C 	0.6498	0.8755	0.5857	0.226
Mof_C 	C 	0.747	0.977	0.638	-0.68
Mof_H 	H 	0.8127	0.0183	0.5945	0.218
Mof_H 	H 	0.7204	0.0289	0.6605	0.22
Mof_H 	H 	0.7711	0.9482	0.6933	0.202
Mof_C 	C 	0.747	0.77	0.638	-0.287
Mof_H 	H 	0.7667	0.8168	0.6967	0.061
Mof_H 	H 	0.7212	0.6896	0.6552	0.107
Mof_H 	H 	0.8152	0.7997	0.5967	0.097
Mof_H 	H 	0.343	0.8241	0.7538	0.477
Mof_H 	H 	0.4431	0.8241	0.6908	0.501
Mof_H 	H 	0.4499	0.8241	0.8055	0.503
Mof_N 	N 	0.5248	0.4748	0.6686	-0.27
Mof_N 	N 	0.5819	0.4186	0.7027	-0.084
Mof_N 	N 	0.3021	0.4408	0.5328	-0.179
Mof_N 	N 	0.2471	0.4953	0.5007	-0.104
Mof_N 	N 	0.1389	0.44	0.5333	-0.107
Mof_N 	N 	0.1258	0.3497	0.585	-0.122
Mof_C 	C 	0.2257	0.3502	0.5857	0.246
Mof_C 	C 	0.23	0.253	0.638	-0.754
Mof_H 	H 	0.2056	0.1873	0.5945	0.245
Mof_H 	H 	0.3085	0.2796	0.6605	0.247
Mof_H 	H 	0.1771	0.2289	0.6933	0.22
Mof_C 	C 	0.023	0.253	0.638	-0.304
Mof_H 	H 	0.0501	0.2333	0.6967	0.065
Mof_H 	H 	0.9684	0.2788	0.6552	0.114
Mof_H 	H 	0.9845	0.1848	0.5967	0.105
Mof_H 	H 	0.4811	0.657	0.7538	0.452
Mof_H 	H 	0.381	0.5569	0.6908	0.478
Mof_H 	H 	0.3742	0.5501	0.8055	0.48
Mof_N 	N 	0.95	0.4752	0.6686	-0.269
Mof_N 	N 	0.8367	0.4181	0.7027	-0.084
Mof_N 	N 	0.1387	0.6979	0.5328	-0.181
Mof_N 	N 	0.2482	0.7529	0.5007	-0.105
Mof_N 	N 	0.3011	0.8611	0.5333	-0.105
Mof_N 	N 	0.2239	0.8742	0.585	-0.133
Mof_C 	C 	0.1245	0.7743	0.5857	0.255
Mof_C 	C 	0.023	0.77	0.638	-0.786
Mof_H 	H 	0.9817	0.7944	0.5945	0.257
Mof_H 	H 	0.9711	0.6915	0.6605	0.257
Mof_H 	H 	0.0518	0.8229	0.6933	0.232
Mof_C 	C 	0.23	0.977	0.638	-0.227
Mof_H 	H 	0.1832	0.9499	0.6967	0.045
Mof_H 	H 	0.3104	0.0316	0.6552	0.085
Mof_H 	H 	0.2003	0.0155	0.5967	0.073
Mof_H 	H 	0.1759	0.5189	0.7538	0.454
Mof_H 	H 	0.1759	0.619	0.6908	0.478
Mof_H 	H 	0.1759	0.6258	0.8055	0.479
Mof_Cd	Cd	-2.80379e-17	0.5	-0	0.289
Mof_Cd	Cd	0.5	0.5	-0	0.302
Mof_Cd	Cd	0.5	0	-0	0.303
Mof_Cd	Cd	0.5	1.24513e-32	0.5	0.337
Mof_Cd	Cd	0.5	0.5	0.5	0.342
Mof_Cd	Cd	-7.74724e-18	0.5	0.5	0.338
Mof_Cd	Cd	0.33333	0.66667	0.1037	0.308
Mof_Cd	Cd	0.33333	0.66667	0.3963	0.343
Mof_Cd	Cd	0.66667	0.33333	0.8963	0.376
Mof_Cd	Cd	0.66667	0.33333	0.6037	0.343
Mof_C 	C 	0.979	0.4895	0.25	0.9
Mof_C 	C 	0.852	0.426	0.25	-3.002
Mof_C 	C 	0.5105	0.4895	0.25	0.85
Mof_C 	C 	0.574	0.426	0.25	-2.87
Mof_C 	C 	0.5105	0.021	0.25	0.838
Mof_C 	C 	0.574	0.148	0.25	-2.839
Mof_C 	C 	0.021	0.5105	0.75	0.849
Mof_C 	C 	0.148	0.574	0.75	-2.867
Mof_C 	C 	0.4895	0.5105	0.75	0.849
Mof_C 	C 	0.426	0.574	0.75	-2.868
Mof_C 	C 	0.4895	0.979	0.75	0.9
Mof_C 	C 	0.426	0.852	0.75	-3.001
_end
