data_functionalizedCrystal
_audit_creation_method	'EQeq! by Chris Wilmer'
_symmetry_space_group_name_H-M	'P1'
_symmetry_Int_Tables_number	1
_symmetry_cell_setting	triclinic
loop_
_symmetry_equiv_pos_as_xyz
  x,y,z
_cell_length_a	14.07
_cell_length_b	22.001
_cell_length_c	20.966
_cell_angle_alpha	90
_cell_angle_beta	101.07
_cell_angle_gamma	90
loop_
_atom_site_label
_atom_site_type_symbol
_atom_site_fract_x
_atom_site_fract_y
_atom_site_fract_z
_atom_site_charge
Mof_Cd	Cd	0.51501	0.74417	0.26218	0.436
Mof_Cd	Cd	0.64014	0.98882	0.19028	0.358
Mof_Cd	Cd	0.32061	0.50288	0.30255	0.356
Mof_S 	S 	0.5148	0.91389	0.28282	0.699
Mof_S 	S 	0.51008	0.57758	0.24546	0.736
Mof_O 	O 	0.4984	0.84829	0.278	-0.331
Mof_O 	O 	0.4386	0.9422	0.3086	-0.293
Mof_O 	O 	0.6074	0.9289	0.3209	-0.303
Mof_O 	O 	0.5092	0.9392	0.2163	-0.322
Mof_O 	O 	0.5404	0.64097	0.2527	-0.337
Mof_O 	O 	0.418	0.5709	0.2648	-0.342
Mof_O 	O 	0.5791	0.5377	0.2846	-0.308
Mof_O 	O 	0.4995	0.5594	0.179	-0.291
Mof_N 	N 	0.3491	0.7434	0.2114	-0.156
Mof_N 	N 	0.9911	0.7701	0.8684	-0.153
Mof_N 	N 	0.7162	0.9087	0.1489	-0.167
Mof_N 	N 	0.901	0.56963	0.2496	-0.159
Mof_N 	N 	0.6803	0.75166	0.312	-0.154
Mof_N 	N 	0.0408	0.743	0.6563	-0.155
Mof_N 	N 	0.2728	0.58423	0.3587	-0.165
Mof_N 	N 	0.133	0.92773	0.2628	-0.16
Mof_C 	C 	0.2913	0.7919	0.207	0.091
Mof_H 	H 	0.3168	0.8281	0.2258	0.014
Mof_C 	C 	0.1952	0.7909	0.176	-0.17
Mof_H 	H 	0.1576	0.8258	0.1749	0.087
Mof_C 	C 	0.1549	0.7384	0.1468	0.114
Mof_C 	C 	0.2154	0.6889	0.1504	-0.173
Mof_H 	H 	0.1919	0.6522	0.1315	0.099
Mof_C 	C 	0.3103	0.6931	0.1817	0.097
Mof_H 	H 	0.3497	0.6591	0.1823	0.021
Mof_C 	C 	0.0506	0.7324	0.1153	-0.072
Mof_H 	H 	0.042	0.6946	0.0902	0.059
Mof_C 	C 	0.0263	0.8184	0.9018	0.095
Mof_H 	H 	0.0523	0.8494	0.8804	0.014
Mof_C 	C 	0.0264	0.825	0.9678	-0.168
Mof_H 	H 	0.0521	0.86	0.9894	0.085
Mof_C 	C 	0.9891	0.7806	0.001	0.106
Mof_C 	C 	0.9512	0.7302	0.9656	-0.16
Mof_H 	H 	0.9238	0.6989	0.9859	0.089
Mof_C 	C 	0.9537	0.7261	0.9005	0.09
Mof_H 	H 	0.9286	0.6915	0.8778	0.016
Mof_C 	C 	0.9938	0.7841	0.0734	-0.068
Mof_H 	H 	0.0191	0.8238	0.0897	0.049
Mof_C 	C 	0.7598	0.9133	0.0982	0.101
Mof_H 	H 	0.7486	0.9479	0.0724	-0.009
Mof_C 	C 	0.821	0.8693	0.0818	-0.173
Mof_H 	H 	0.8509	0.8752	0.0464	0.092
Mof_C 	C 	0.838	0.8161	0.1181	0.109
Mof_C 	C 	0.7908	0.8114	0.1704	-0.172
Mof_H 	H 	0.7992	0.7768	0.1964	0.093
Mof_C 	C 	0.7315	0.8578	0.1839	0.1
Mof_H 	H 	0.7008	0.8533	0.2192	0.006
Mof_C 	C 	0.9038	0.7673	0.1029	-0.071
Mof_H 	H 	0.8655	0.7366	0.0754	0.051
Mof_C 	C 	0.8341	0.5999	0.2076	0.093
Mof_H 	H 	0.7711	0.5849	0.1989	0.011
Mof_C 	C 	0.854	0.6524	0.1765	-0.164
Mof_H 	H 	0.8051	0.6715	0.1472	0.088
Mof_C 	C 	0.9466	0.6768	0.1888	0.103
Mof_C 	C 	0.016	0.6443	0.2319	-0.167
Mof_H 	H 	0.0795	0.6582	0.2416	0.093
Mof_C 	C 	0.9912	0.5918	0.2601	0.096
Mof_H 	H 	0.0395	0.5706	0.2878	0.006
Mof_C 	C 	0.9724	0.7352	0.1594	-0.069
Mof_H 	H 	0.9933	0.7647	0.1943	0.053
Mof_C 	C 	0.7112	0.8022	0.3443	0.088
Mof_H 	H 	0.6665	0.8329	0.3466	0.031
Mof_C 	C 	0.8066	0.8116	0.3748	-0.163
Mof_H 	H 	0.8253	0.8485	0.395	0.1
Mof_C 	C 	0.8739	0.7657	0.3749	0.107
Mof_C 	C 	0.8413	0.7124	0.3427	-0.167
Mof_H 	H 	0.8837	0.6801	0.3415	0.087
Mof_C 	C 	0.7451	0.7076	0.3122	0.089
Mof_H 	H 	0.7247	0.6715	0.2907	0.014
Mof_C 	C 	0.9779	0.7756	0.407	-0.071
Mof_H 	H 	0.9848	0.8146	0.4298	0.059
Mof_C 	C 	0.0107	0.692	0.6245	0.089
Mof_H 	H 	0.9893	0.66	0.6471	0.019
Mof_C 	C 	0.0102	0.6849	0.5589	-0.162
Mof_H 	H 	0.9893	0.6483	0.5386	0.083
Mof_C 	C 	0.0398	0.7308	0.5233	0.107
Mof_C 	C 	0.0735	0.7832	0.5573	-0.163
Mof_H 	H 	0.0969	0.8153	0.5359	0.092
Mof_C 	C 	0.0723	0.7876	0.6226	0.094
Mof_H 	H 	0.0943	0.8233	0.6442	0.018
Mof_C 	C 	0.0327	0.725	0.4514	-0.064
Mof_H 	H 	0.0054	0.6852	0.437	0.046
Mof_C 	C 	0.2838	0.6402	0.337	0.095
Mof_H 	H 	0.3238	0.6457	0.3069	0.018
Mof_C 	C 	0.2386	0.6903	0.357	-0.173
Mof_H 	H 	0.2484	0.7284	0.3403	0.094
Mof_C 	C 	0.1786	0.6842	0.4019	0.112
Mof_C 	C 	0.1712	0.6267	0.4258	-0.176
Mof_H 	H 	0.1342	0.6202	0.4575	0.088
Mof_C 	C 	0.218	0.5782	0.4033	0.094
Mof_H 	H 	0.2107	0.5398	0.4201	-0.01
Mof_C 	C 	0.1233	0.7376	0.4203	-0.074
Mof_H 	H 	0.167	0.7668	0.4464	0.052
Mof_C 	C 	0.1987	0.899	0.3069	0.085
Mof_H 	H 	0.2623	0.913	0.3142	0.021
Mof_C 	C 	0.1772	0.8496	0.3422	-0.157
Mof_H 	H 	0.2254	0.8317	0.373	0.086
Mof_C 	C 	0.0836	0.8267	0.3315	0.104
Mof_C 	C 	0.0152	0.8584	0.2872	-0.165
Mof_H 	H 	0.9508	0.8461	0.2797	0.094
Mof_C 	C 	0.0416	0.9076	0.2545	0.097
Mof_H 	H 	0.994	0.928	0.2254	0.015
Mof_C 	C 	0.055	0.7701	0.3627	-0.068
Mof_H 	H 	0.0324	0.7401	0.3286	0.052
Mof_Cd	Cd	0.98499	0.24417	0.23782	0.435
Mof_Cd	Cd	0.85986	0.48882	0.30972	0.358
Mof_Cd	Cd	0.17939	0.00288	0.19745	0.358
Mof_S 	S 	0.9852	0.41389	0.21718	0.695
Mof_S 	S 	0.98992	0.07758	0.25454	0.73
Mof_O 	O 	0.0016	0.34829	0.222	-0.327
Mof_O 	O 	0.0614	0.4422	0.1914	-0.29
Mof_O 	O 	0.8926	0.4289	0.1791	-0.301
Mof_O 	O 	0.9908	0.4392	0.2837	-0.322
Mof_O 	O 	0.9596	0.14097	0.2473	-0.336
Mof_O 	O 	0.082	0.0709	0.2352	-0.339
Mof_O 	O 	0.9209	0.0377	0.2154	-0.308
Mof_O 	O 	0.0005	0.0594	0.321	-0.288
Mof_N 	N 	0.1509	0.2434	0.2886	-0.156
Mof_N 	N 	0.5089	0.2701	0.6316	-0.156
Mof_N 	N 	0.7838	0.4087	0.3511	-0.167
Mof_N 	N 	0.599	0.06963	0.2504	-0.16
Mof_N 	N 	0.8197	0.25166	0.188	-0.154
Mof_N 	N 	0.4592	0.243	0.8437	-0.155
Mof_N 	N 	0.2272	0.08423	0.1413	-0.165
Mof_N 	N 	0.367	0.42773	0.2372	-0.159
Mof_C 	C 	0.2087	0.2919	0.293	0.091
Mof_H 	H 	0.1832	0.3281	0.2742	0.014
Mof_C 	C 	0.3048	0.2909	0.324	-0.171
Mof_H 	H 	0.3424	0.3258	0.3251	0.088
Mof_C 	C 	0.3451	0.2384	0.3532	0.115
Mof_C 	C 	0.2846	0.1889	0.3496	-0.174
Mof_H 	H 	0.3081	0.1522	0.3685	0.099
Mof_C 	C 	0.1897	0.1931	0.3183	0.097
Mof_H 	H 	0.1503	0.1591	0.3177	0.021
Mof_C 	C 	0.4494	0.2324	0.3847	-0.074
Mof_H 	H 	0.458	0.1946	0.4098	0.059
Mof_C 	C 	0.4737	0.3184	0.5982	0.1
Mof_H 	H 	0.4477	0.3494	0.6196	0.013
Mof_C 	C 	0.4736	0.325	0.5322	-0.17
Mof_H 	H 	0.4479	0.36	0.5106	0.086
Mof_C 	C 	0.5109	0.2806	0.499	0.11
Mof_C 	C 	0.5488	0.2302	0.5344	-0.165
Mof_H 	H 	0.5762	0.1989	0.5141	0.09
Mof_C 	C 	0.5463	0.2261	0.5995	0.092
Mof_H 	H 	0.5714	0.1915	0.6222	0.015
Mof_C 	C 	0.5062	0.2841	0.4266	-0.065
Mof_H 	H 	0.4809	0.3238	0.4103	0.047
Mof_C 	C 	0.7402	0.4133	0.4018	0.101
Mof_H 	H 	0.7514	0.4479	0.4276	-0.009
Mof_C 	C 	0.679	0.3693	0.4182	-0.173
Mof_H 	H 	0.6491	0.3752	0.4536	0.092
Mof_C 	C 	0.662	0.3161	0.3819	0.11
Mof_C 	C 	0.7092	0.3114	0.3296	-0.172
Mof_H 	H 	0.7008	0.2768	0.3036	0.093
Mof_C 	C 	0.7685	0.3578	0.3161	0.1
Mof_H 	H 	0.7992	0.3533	0.2808	0.006
Mof_C 	C 	0.5962	0.2673	0.3971	-0.072
Mof_H 	H 	0.6345	0.2366	0.4246	0.052
Mof_C 	C 	0.6659	0.0999	0.2924	0.094
Mof_H 	H 	0.7289	0.0849	0.3011	0.011
Mof_C 	C 	0.646	0.1524	0.3235	-0.166
Mof_H 	H 	0.6949	0.1715	0.3528	0.089
Mof_C 	C 	0.5534	0.1768	0.3112	0.107
Mof_C 	C 	0.484	0.1443	0.2681	-0.173
Mof_H 	H 	0.4205	0.1582	0.2584	0.095
Mof_C 	C 	0.5088	0.0918	0.2399	0.102
Mof_H 	H 	0.4605	0.0706	0.2122	0.004
Mof_C 	C 	0.5276	0.2352	0.3406	-0.068
Mof_H 	H 	0.5067	0.2647	0.3057	0.053
Mof_C 	C 	0.7888	0.3022	0.1557	0.088
Mof_H 	H 	0.8335	0.3329	0.1534	0.031
Mof_C 	C 	0.6934	0.3116	0.1252	-0.164
Mof_H 	H 	0.6747	0.3485	0.105	0.099
Mof_C 	C 	0.6261	0.2657	0.1251	0.108
Mof_C 	C 	0.6587	0.2124	0.1573	-0.167
Mof_H 	H 	0.6163	0.1801	0.1585	0.087
Mof_C 	C 	0.7549	0.2076	0.1878	0.089
Mof_H 	H 	0.7753	0.1715	0.2093	0.014
Mof_C 	C 	0.5221	0.2756	0.093	-0.071
Mof_H 	H 	0.5152	0.3146	0.0702	0.059
Mof_C 	C 	0.4893	0.192	0.8755	0.091
Mof_H 	H 	0.5107	0.16	0.8529	0.017
Mof_C 	C 	0.4898	0.1849	0.9411	-0.162
Mof_H 	H 	0.5107	0.1483	0.9614	0.082
Mof_C 	C 	0.4602	0.2308	0.9767	0.106
Mof_C 	C 	0.4265	0.2832	0.9427	-0.163
Mof_H 	H 	0.4031	0.3153	0.9641	0.092
Mof_C 	C 	0.4277	0.2876	0.8774	0.094
Mof_H 	H 	0.4057	0.3233	0.8558	0.018
Mof_C 	C 	0.4673	0.225	0.0486	-0.063
Mof_H 	H 	0.4946	0.1852	0.063	0.046
Mof_C 	C 	0.2162	0.1402	0.163	0.095
Mof_H 	H 	0.1762	0.1457	0.1931	0.018
Mof_C 	C 	0.2614	0.1903	0.143	-0.173
Mof_H 	H 	0.2516	0.2284	0.1597	0.094
Mof_C 	C 	0.3214	0.1842	0.0981	0.113
Mof_C 	C 	0.3288	0.1267	0.0742	-0.176
Mof_H 	H 	0.3658	0.1202	0.0425	0.088
Mof_C 	C 	0.282	0.0782	0.0967	0.095
Mof_H 	H 	0.2893	0.0398	0.0799	-0.009
Mof_C 	C 	0.3767	0.2376	0.0797	-0.074
Mof_H 	H 	0.333	0.2668	0.0536	0.053
Mof_C 	C 	0.3013	0.399	0.1931	0.085
Mof_H 	H 	0.2377	0.413	0.1858	0.021
Mof_C 	C 	0.3228	0.3496	0.1578	-0.157
Mof_H 	H 	0.2746	0.3317	0.127	0.086
Mof_C 	C 	0.4164	0.3267	0.1685	0.104
Mof_C 	C 	0.4848	0.3584	0.2128	-0.166
Mof_H 	H 	0.5492	0.3461	0.2203	0.094
Mof_C 	C 	0.4584	0.4076	0.2455	0.096
Mof_H 	H 	0.506	0.428	0.2746	0.015
Mof_C 	C 	0.445	0.2701	0.1373	-0.067
Mof_H 	H 	0.4676	0.2401	0.1714	0.052
Mof_Cd	Cd	0.48499	0.25583	0.73782	0.437
Mof_Cd	Cd	0.35986	0.01118	0.80972	0.359
Mof_Cd	Cd	0.67939	0.49712	0.69745	0.357
Mof_S 	S 	0.4852	0.08611	0.71718	0.7
Mof_S 	S 	0.48992	0.42242	0.75454	0.737
Mof_O 	O 	0.5016	0.15171	0.722	-0.33
Mof_O 	O 	0.5614	0.0578	0.6914	-0.292
Mof_O 	O 	0.3926	0.0711	0.6791	-0.302
Mof_O 	O 	0.4908	0.0608	0.7837	-0.322
Mof_O 	O 	0.4596	0.35903	0.7473	-0.337
Mof_O 	O 	0.582	0.4291	0.7352	-0.342
Mof_O 	O 	0.4209	0.4623	0.7154	-0.308
Mof_O 	O 	0.5005	0.4406	0.821	-0.291
Mof_N 	N 	0.6509	0.2566	0.7886	-0.156
Mof_N 	N 	0.0089	0.2299	0.1316	-0.153
Mof_N 	N 	0.2838	0.0913	0.8511	-0.167
Mof_N 	N 	0.099	0.43037	0.7504	-0.159
Mof_N 	N 	0.3197	0.24834	0.688	-0.154
Mof_N 	N 	0.9592	0.257	0.3437	-0.155
Mof_N 	N 	0.7272	0.41577	0.6413	-0.165
Mof_N 	N 	0.867	0.07227	0.7372	-0.16
Mof_C 	C 	0.7087	0.2081	0.793	0.091
Mof_H 	H 	0.6832	0.1719	0.7742	0.014
Mof_C 	C 	0.8048	0.2091	0.824	-0.17
Mof_H 	H 	0.8424	0.1742	0.8251	0.087
Mof_C 	C 	0.8451	0.2616	0.8532	0.114
Mof_C 	C 	0.7846	0.3111	0.8496	-0.173
Mof_H 	H 	0.8081	0.3478	0.8685	0.099
Mof_C 	C 	0.6897	0.3069	0.8183	0.097
Mof_H 	H 	0.6503	0.3409	0.8177	0.021
Mof_C 	C 	0.9494	0.2676	0.8847	-0.072
Mof_H 	H 	0.958	0.3054	0.9098	0.059
Mof_C 	C 	0.9737	0.1816	0.0982	0.095
Mof_H 	H 	0.9477	0.1506	0.1196	0.014
Mof_C 	C 	0.9736	0.175	0.0322	-0.168
Mof_H 	H 	0.9479	0.14	0.0106	0.085
Mof_C 	C 	0.0109	0.2194	0.999	0.106
Mof_C 	C 	0.0488	0.2698	0.0344	-0.16
Mof_H 	H 	0.0762	0.3011	0.0141	0.089
Mof_C 	C 	0.0463	0.2739	0.0995	0.09
Mof_H 	H 	0.0714	0.3085	0.1222	0.016
Mof_C 	C 	0.0062	0.2159	0.9266	-0.068
Mof_H 	H 	0.9809	0.1762	0.9103	0.049
Mof_C 	C 	0.2402	0.0867	0.9018	0.101
Mof_H 	H 	0.2514	0.0521	0.9276	-0.009
Mof_C 	C 	0.179	0.1307	0.9182	-0.173
Mof_H 	H 	0.1491	0.1248	0.9536	0.092
Mof_C 	C 	0.162	0.1839	0.8819	0.109
Mof_C 	C 	0.2092	0.1886	0.8296	-0.172
Mof_H 	H 	0.2008	0.2232	0.8036	0.093
Mof_C 	C 	0.2685	0.1422	0.8161	0.1
Mof_H 	H 	0.2992	0.1467	0.7808	0.006
Mof_C 	C 	0.0962	0.2327	0.8971	-0.071
Mof_H 	H 	0.1345	0.2634	0.9246	0.051
Mof_C 	C 	0.1659	0.4001	0.7924	0.093
Mof_H 	H 	0.2289	0.4151	0.8011	0.011
Mof_C 	C 	0.146	0.3476	0.8235	-0.164
Mof_H 	H 	0.1949	0.3285	0.8528	0.088
Mof_C 	C 	0.0534	0.3232	0.8112	0.103
Mof_C 	C 	0.984	0.3557	0.7681	-0.167
Mof_H 	H 	0.9205	0.3418	0.7584	0.093
Mof_C 	C 	0.0088	0.4082	0.7399	0.096
Mof_H 	H 	0.9605	0.4294	0.7122	0.006
Mof_C 	C 	0.0276	0.2648	0.8406	-0.069
Mof_H 	H 	0.0067	0.2353	0.8057	0.053
Mof_C 	C 	0.2888	0.1978	0.6557	0.088
Mof_H 	H 	0.3335	0.1671	0.6534	0.031
Mof_C 	C 	0.1934	0.1884	0.6252	-0.163
Mof_H 	H 	0.1747	0.1515	0.605	0.1
Mof_C 	C 	0.1261	0.2343	0.6251	0.107
Mof_C 	C 	0.1587	0.2876	0.6573	-0.167
Mof_H 	H 	0.1163	0.3199	0.6585	0.087
Mof_C 	C 	0.2549	0.2924	0.6878	0.089
Mof_H 	H 	0.2753	0.3285	0.7093	0.014
Mof_C 	C 	0.0221	0.2244	0.593	-0.071
Mof_H 	H 	0.0152	0.1854	0.5702	0.059
Mof_C 	C 	0.9893	0.308	0.3755	0.089
Mof_H 	H 	0.0107	0.34	0.3529	0.019
Mof_C 	C 	0.9898	0.3151	0.4411	-0.162
Mof_H 	H 	0.0107	0.3517	0.4614	0.083
Mof_C 	C 	0.9602	0.2692	0.4767	0.107
Mof_C 	C 	0.9265	0.2168	0.4427	-0.163
Mof_H 	H 	0.9031	0.1847	0.4641	0.092
Mof_C 	C 	0.9277	0.2124	0.3774	0.094
Mof_H 	H 	0.9057	0.1767	0.3558	0.018
Mof_C 	C 	0.9673	0.275	0.5486	-0.064
Mof_H 	H 	0.9946	0.3148	0.563	0.046
Mof_C 	C 	0.7162	0.3598	0.663	0.095
Mof_H 	H 	0.6762	0.3543	0.6931	0.018
Mof_C 	C 	0.7614	0.3097	0.643	-0.173
Mof_H 	H 	0.7516	0.2716	0.6597	0.094
Mof_C 	C 	0.8214	0.3158	0.5981	0.112
Mof_C 	C 	0.8288	0.3733	0.5742	-0.176
Mof_H 	H 	0.8658	0.3798	0.5425	0.088
Mof_C 	C 	0.782	0.4218	0.5967	0.094
Mof_H 	H 	0.7893	0.4602	0.5799	-0.01
Mof_C 	C 	0.8767	0.2624	0.5797	-0.074
Mof_H 	H 	0.833	0.2332	0.5536	0.052
Mof_C 	C 	0.8013	0.101	0.6931	0.085
Mof_H 	H 	0.7377	0.087	0.6858	0.021
Mof_C 	C 	0.8228	0.1504	0.6578	-0.157
Mof_H 	H 	0.7746	0.1683	0.627	0.086
Mof_C 	C 	0.9164	0.1733	0.6685	0.104
Mof_C 	C 	0.9848	0.1416	0.7128	-0.165
Mof_H 	H 	0.0492	0.1539	0.7203	0.094
Mof_C 	C 	0.9584	0.0924	0.7455	0.097
Mof_H 	H 	0.006	0.072	0.7746	0.015
Mof_C 	C 	0.945	0.2299	0.6373	-0.068
Mof_H 	H 	0.9676	0.2599	0.6714	0.052
Mof_Cd	Cd	0.01501	0.75583	0.76218	0.435
Mof_Cd	Cd	0.14014	0.51118	0.69028	0.358
Mof_Cd	Cd	0.82061	0.99712	0.80255	0.358
Mof_S 	S 	0.0148	0.58611	0.78282	0.695
Mof_S 	S 	0.01008	0.92242	0.74546	0.73
Mof_O 	O 	0.9984	0.65171	0.778	-0.327
Mof_O 	O 	0.9386	0.5578	0.8086	-0.29
Mof_O 	O 	0.1074	0.5711	0.8209	-0.301
Mof_O 	O 	0.0092	0.5608	0.7163	-0.322
Mof_O 	O 	0.0404	0.85903	0.7527	-0.336
Mof_O 	O 	0.918	0.9291	0.7648	-0.339
Mof_O 	O 	0.0791	0.9623	0.7846	-0.308
Mof_O 	O 	0.9995	0.9406	0.679	-0.288
Mof_N 	N 	0.8491	0.7566	0.7114	-0.156
Mof_N 	N 	0.4911	0.7299	0.3684	-0.156
Mof_N 	N 	0.2162	0.5913	0.6489	-0.167
Mof_N 	N 	0.401	0.93037	0.7496	-0.16
Mof_N 	N 	0.1803	0.74834	0.812	-0.154
Mof_N 	N 	0.5408	0.757	0.1563	-0.155
Mof_N 	N 	0.7728	0.91577	0.8587	-0.165
Mof_N 	N 	0.633	0.57227	0.7628	-0.159
Mof_C 	C 	0.7913	0.7081	0.707	0.091
Mof_H 	H 	0.8168	0.6719	0.7258	0.014
Mof_C 	C 	0.6952	0.7091	0.676	-0.171
Mof_H 	H 	0.6576	0.6742	0.6749	0.088
Mof_C 	C 	0.6549	0.7616	0.6468	0.115
Mof_C 	C 	0.7154	0.8111	0.6504	-0.174
Mof_H 	H 	0.6919	0.8478	0.6315	0.099
Mof_C 	C 	0.8103	0.8069	0.6817	0.097
Mof_H 	H 	0.8497	0.8409	0.6823	0.021
Mof_C 	C 	0.5506	0.7676	0.6153	-0.074
Mof_H 	H 	0.542	0.8054	0.5902	0.059
Mof_C 	C 	0.5263	0.6816	0.4018	0.1
Mof_H 	H 	0.5523	0.6506	0.3804	0.013
Mof_C 	C 	0.5264	0.675	0.4678	-0.17
Mof_H 	H 	0.5521	0.64	0.4894	0.086
Mof_C 	C 	0.4891	0.7194	0.501	0.11
Mof_C 	C 	0.4512	0.7698	0.4656	-0.165
Mof_H 	H 	0.4238	0.8011	0.4859	0.09
Mof_C 	C 	0.4537	0.7739	0.4005	0.092
Mof_H 	H 	0.4286	0.8085	0.3778	0.015
Mof_C 	C 	0.4938	0.7159	0.5734	-0.065
Mof_H 	H 	0.5191	0.6762	0.5897	0.047
Mof_C 	C 	0.2598	0.5867	0.5982	0.101
Mof_H 	H 	0.2486	0.5521	0.5724	-0.009
Mof_C 	C 	0.321	0.6307	0.5818	-0.173
Mof_H 	H 	0.3509	0.6248	0.5464	0.092
Mof_C 	C 	0.338	0.6839	0.6181	0.11
Mof_C 	C 	0.2908	0.6886	0.6704	-0.172
Mof_H 	H 	0.2992	0.7232	0.6964	0.093
Mof_C 	C 	0.2315	0.6422	0.6839	0.1
Mof_H 	H 	0.2008	0.6467	0.7192	0.006
Mof_C 	C 	0.4038	0.7327	0.6029	-0.072
Mof_H 	H 	0.3655	0.7634	0.5754	0.052
Mof_C 	C 	0.3341	0.9001	0.7076	0.094
Mof_H 	H 	0.2711	0.9151	0.6989	0.011
Mof_C 	C 	0.354	0.8476	0.6765	-0.166
Mof_H 	H 	0.3051	0.8285	0.6472	0.089
Mof_C 	C 	0.4466	0.8232	0.6888	0.107
Mof_C 	C 	0.516	0.8557	0.7319	-0.173
Mof_H 	H 	0.5795	0.8418	0.7416	0.095
Mof_C 	C 	0.4912	0.9082	0.7601	0.102
Mof_H 	H 	0.5395	0.9294	0.7878	0.004
Mof_C 	C 	0.4724	0.7648	0.6594	-0.068
Mof_H 	H 	0.4933	0.7353	0.6943	0.053
Mof_C 	C 	0.2112	0.6978	0.8443	0.088
Mof_H 	H 	0.1665	0.6671	0.8466	0.031
Mof_C 	C 	0.3066	0.6884	0.8748	-0.164
Mof_H 	H 	0.3253	0.6515	0.895	0.099
Mof_C 	C 	0.3739	0.7343	0.8749	0.108
Mof_C 	C 	0.3413	0.7876	0.8427	-0.167
Mof_H 	H 	0.3837	0.8199	0.8415	0.087
Mof_C 	C 	0.2451	0.7924	0.8122	0.089
Mof_H 	H 	0.2247	0.8285	0.7907	0.014
Mof_C 	C 	0.4779	0.7244	0.907	-0.071
Mof_H 	H 	0.4848	0.6854	0.9298	0.059
Mof_C 	C 	0.5107	0.808	0.1245	0.091
Mof_H 	H 	0.4893	0.84	0.1471	0.017
Mof_C 	C 	0.5102	0.8151	0.0589	-0.162
Mof_H 	H 	0.4893	0.8517	0.0386	0.082
Mof_C 	C 	0.5398	0.7692	0.0233	0.106
Mof_C 	C 	0.5735	0.7168	0.0573	-0.163
Mof_H 	H 	0.5969	0.6847	0.0359	0.092
Mof_C 	C 	0.5723	0.7124	0.1226	0.094
Mof_H 	H 	0.5943	0.6767	0.1442	0.018
Mof_C 	C 	0.5327	0.775	0.9514	-0.063
Mof_H 	H 	0.5054	0.8148	0.937	0.046
Mof_C 	C 	0.7838	0.8598	0.837	0.095
Mof_H 	H 	0.8238	0.8543	0.8069	0.018
Mof_C 	C 	0.7386	0.8097	0.857	-0.173
Mof_H 	H 	0.7484	0.7716	0.8403	0.094
Mof_C 	C 	0.6786	0.8158	0.9019	0.113
Mof_C 	C 	0.6712	0.8733	0.9258	-0.176
Mof_H 	H 	0.6342	0.8798	0.9575	0.088
Mof_C 	C 	0.718	0.9218	0.9033	0.095
Mof_H 	H 	0.7107	0.9602	0.9201	-0.009
Mof_C 	C 	0.6233	0.7624	0.9203	-0.074
Mof_H 	H 	0.667	0.7332	0.9464	0.053
Mof_C 	C 	0.6987	0.601	0.8069	0.085
Mof_H 	H 	0.7623	0.587	0.8142	0.021
Mof_C 	C 	0.6772	0.6504	0.8422	-0.157
Mof_H 	H 	0.7254	0.6683	0.873	0.086
Mof_C 	C 	0.5836	0.6733	0.8315	0.104
Mof_C 	C 	0.5152	0.6416	0.7872	-0.166
Mof_H 	H 	0.4508	0.6539	0.7797	0.094
Mof_C 	C 	0.5416	0.5924	0.7545	0.096
Mof_H 	H 	0.494	0.572	0.7254	0.015
Mof_C 	C 	0.555	0.7299	0.8627	-0.067
Mof_H 	H 	0.5324	0.7599	0.8286	0.052
_end
