data_functionalizedCrystal
_audit_creation_method	'EQeq! by Chris Wilmer'
_symmetry_space_group_name_H-M	'P1'
_symmetry_Int_Tables_number	1
_symmetry_cell_setting	triclinic
loop_
_symmetry_equiv_pos_as_xyz
  x,y,z
_cell_length_a	7.2084
_cell_length_b	13.3051
_cell_length_c	13.3051
_cell_angle_alpha	63.187
_cell_angle_beta	79.5958
_cell_angle_gamma	100.404
loop_
_atom_site_label
_atom_site_type_symbol
_atom_site_fract_x
_atom_site_fract_y
_atom_site_fract_z
_atom_site_charge
Mof_Ga	Ga	0.03287	0.00284	0.52893	3.952
Mof_Ga	Ga	0.59117	0.34965	0.40085	6.223
Mof_Ga	Ga	0.03003	0.46823	0.00284	3.856
Mof_Ga	Ga	0.24152	0.2495	0.34965	6.003
Mof_Ga	Ga	0.03432	0.59381	0.7521	5.762
Mof_Ga	Ga	0.5618	0.52893	0.46823	5.867
Mof_Ga	Ga	0.44051	0.65409	0.59381	6.344
Mof_Ga	Ga	0.78642	0.7521	0.65409	6.637
Mof_Ga	Ga	0.99202	0.40085	0.2495	7.01
Mof_B 	B 	0.2284	0.837	0.5328	4.502
Mof_B 	B 	0.7684	0.3679	0.5937	4.021
Mof_B 	B 	0.4005	0.0384	0.3679	3.183
Mof_B 	B 	0.3914	0.6302	0.837	4.516
Mof_B 	B 	0.2477	0.6348	0.4097	3.655
Mof_B 	B 	0.6129	0.9555	0.6348	4.182
Mof_B 	B 	0.3621	0.5937	0.0384	3.264
Mof_B 	B 	0.2676	0.4714	0.3636	4.62
Mof_B 	B 	0.7612	0.5328	0.6302	4.754
Mof_B 	B 	0.6312	0.3636	0.165	4.52
Mof_B 	B 	0.6574	0.4097	0.9555	4.111
Mof_B 	B 	0.1299	0.265	0.1343	3.291
Mof_B 	B 	0.8966	0.7178	0.878	3.648
Mof_B 	B 	0.8649	0.6007	0.265	3.532
Mof_B 	B 	0.2642	0.1343	0.6007	3.302
Mof_B 	B 	0.7746	0.878	0.4042	3.677
Mof_B 	B 	0.7962	0.165	0.4714	4.572
Mof_B 	B 	0.1788	0.4042	0.7178	4.013
Mof_H 	H 	0.838	0.856	0.8203	0.596
Mof_H 	H 	0.3664	0.9183	0.7284	0.717
Mof_H 	H 	0.6583	0.8203	0.3237	0.493
Mof_H 	H 	0.2699	0.3201	0.6571	0.838
Mof_H 	H 	0.62819	0.057	0.27721	0.365
Mof_H 	H 	0.1877	0.1308	0.7406	0.477
Mof_H 	H 	0.9498	0.0228	0.3201	0.442
Mof_H 	H 	0.982	0.3237	0.856	0.88
Mof_H 	H 	0.0948	0.7284	0.3533	0.531
Mof_H 	H 	0.927	0.6571	0.0228	0.371
Mof_H 	H 	0.57119	0.66579	0.057	0.384
Mof_H 	H 	0.9054	0.27721	0.66579	0.593
Mof_H 	H 	0.4481	0.3533	0.9183	0.683
Mof_H 	H 	0.9283	0.7406	0.1286	0.546
Mof_H 	H 	0.0569	0.1286	0.1308	0.39
Mof_O 	O 	0.1958	0.5939	0.8556	-3.084
Mof_O 	O 	0.9017	0.7017	0.7833	-3.035
Mof_O 	O 	0.0514	0.8556	0.5505	-3.274
Mof_O 	O 	0.8793	0.9813	0.3887	-1.828
Mof_O 	O 	0.1203	0.15	0.1669	-1.857
Mof_O 	O 	0.7323	0.8841	0.3062	-1.658
Mof_O 	O 	0.1328	0.7051	0.4122	-2.084
Mof_O 	O 	0.545	0.4122	0.8827	-2.202
Mof_O 	O 	0.685	0.7833	0.515	-3.183
Mof_O 	O 	0.5118	0.3385	0.2674	-3.463
Mof_O 	O 	0.564	0.1049	0.2697	-1.79
Mof_O 	O 	0.6019	0.5505	0.5939	-3.633
Mof_O 	O 	0.4634	0.6347	0.9231	-2.635
Mof_O 	O 	0.6319	0.072	0.5548	-3.144
Mof_O 	O 	0.7708	0.9077	0.6368	-2.849
Mof_O 	O 	0.898	0.63	0.9813	-1.743
Mof_O 	O 	0.8328	0.3861	0.1485	-3.231
Mof_O 	O 	0.8101	0.8563	0.306	-0.141
Mof_O 	O 	0.4467	0.4654	0.3861	-3.489
Mof_O 	O 	0.1624	0.0238	0.6318	-2.263
Mof_O 	O 	0.1733	0.3941	0.3385	-3.695
Mof_O 	O 	0.268	0.3887	0.63	-2.633
Mof_O 	O 	0.2602	0.0889	0.3851	-2.744
Mof_O 	O 	0.4277	0.8827	0.7051	-2.23
Mof_O 	O 	0.8298	0.4846	0.2902	-3.227
Mof_O 	O 	0.7792	0.2674	0.3941	-3.588
Mof_O 	O 	0.4591	0.6254	0.1049	-1.822
Mof_O 	O 	0.2872	0.1669	0.6831	-1.834
Mof_O 	O 	0.1713	0.526	0.0889	-2.931
Mof_O 	O 	0.0385	0.3062	0.8097	-2.364
Mof_O 	O 	0.9703	0.6831	0.15	-1.834
Mof_O 	O 	0.9538	0.8377	0.8563	0.067
Mof_O 	O 	0.7942	0.6318	0.3444	-2.435
Mof_O 	O 	0.12	0.2902	0.2252	-3.19
Mof_O 	O 	0.5599	0.3732	0.072	-3.136
Mof_O 	O 	0.2476	0.7302	0.6077	-3.345
Mof_O 	O 	0.8287	0.4422	0.6347	-3.064
Mof_O 	O 	0.5174	0.6621	0.7302	-3.446
Mof_O 	O 	0.8482	0.8097	0.8841	-1.793
Mof_O 	O 	0.1161	0.306	0.8377	0.036
Mof_O 	O 	0.6453	0.3851	0.526	-3.194
Mof_O 	O 	0.4076	0.6368	0.4555	-3.109
Mof_O 	O 	0.1386	0.3444	0.0238	-2.271
Mof_O 	O 	0.8553	0.6077	0.6621	-3.348
Mof_O 	O 	0.3865	0.9231	0.4422	-2.627
Mof_O 	O 	0.2	0.515	0.7017	-3.202
Mof_O 	O 	0.3452	0.2252	0.4846	-3.025
Mof_O 	O 	0.8631	0.4555	0.9077	-2.673
Mof_O 	O 	0.8337	0.2697	0.6254	-2.046
Mof_O 	O 	0.1867	0.5548	0.3732	-2.976
Mof_O 	O 	0.9813	0.1485	0.4654	-3.058
_end
