# CIF file generated by openbabel 3.1.0, see https://openbabel.org
data_I
_chemical_name_common 'image0'
_cell_length_a 8.7982
_cell_length_b 11.8876
_cell_length_c 12.6446
_cell_angle_alpha 95.219
_cell_angle_beta 106.752
_cell_angle_gamma 96.98
_space_group_name_H-M_alt 'P 1'
_space_group_name_Hall 'P 1'
loop_
    _symmetry_equiv_pos_as_xyz
    x,y,z
loop_
    _atom_site_label
    _atom_site_type_symbol
    _atom_site_fract_x
    _atom_site_fract_y
    _atom_site_fract_z
    _atom_site_occupancy
    U1       U        0.15561    0.09440    0.24609    1.000
    C1       C        0.12050    0.27930    0.65690    1.000
    C2       C        0.09100    0.39150    0.65890    1.000
    H1       H        0.07010    0.42550    0.59210    1.000
    C3       C        0.09140    0.45480    0.75730    1.000
    C4       C        0.12250    0.40480    0.85520    1.000
    H2       H        0.12380    0.44760    0.92270    1.000
    C5       C        0.15200    0.29190    0.85460    1.000
    C6       C        0.14990    0.22950    0.75560    1.000
    H3       H        0.16850    0.15250    0.75490    1.000
    C7       C        0.12420    0.21230    0.55050    1.000
    H4       H        0.05840    0.24400    0.48590    1.000
    H5       H        0.07610    0.13170    0.54670    1.000
    C8       C        0.05500    0.57540    0.75770    1.000
    H6       H        0.09240    0.61060    0.69980    1.000
    H7       H        0.11700    0.61980    0.83070    1.000
    C9       C        0.17230    0.23540    0.95930    1.000
    H8       H        0.22530    0.29290    0.02560    1.000
    H9       H        0.24140    0.17550    0.95930    1.000
    O1       O        0.40470    0.34080    0.56520    1.000
    O2       O        0.32290    0.15170    0.43400    1.000
    O3       O        0.42070    0.15880    0.64160    1.000
    H10      H        0.40700    0.07850    0.62500    1.000
    O4       O        0.82430    0.70810    0.71960    1.000
    O5       O        0.74540    0.50220    0.63100    1.000
    O6       O        0.80750    0.54850    0.83840    1.000
    H11      H        0.70200    0.51100    0.82600    1.000
    O7       O        0.86960    0.26860    0.95210    1.000
    H12      H        0.81700    0.27800    0.87790    1.000
    O8       O        0.90900    0.07780    0.87010    1.000
    O9       O        0.99290    0.13930    0.07980    1.000
    P1       P        0.32400    0.21704    0.54220    1.000
    P2       P        0.84662    0.58652    0.73305    1.000
    P3       P        0.97965    0.17263    0.96548    1.000
    U2       U        0.84439    0.90560    0.75391    1.000
    C10      C        0.87950    0.72070    0.34310    1.000
    C11      C        0.90900    0.60850    0.34110    1.000
    H13      H        0.92990    0.57450    0.40790    1.000
    C12      C        0.90860    0.54520    0.24270    1.000
    C13      C        0.87750    0.59520    0.14480    1.000
    H14      H        0.87620    0.55240    0.07730    1.000
    C14      C        0.84800    0.70810    0.14540    1.000
    C15      C        0.85010    0.77050    0.24440    1.000
    H15      H        0.83150    0.84750    0.24510    1.000
    C16      C        0.87580    0.78770    0.44950    1.000
    H16      H        0.94160    0.75600    0.51410    1.000
    H17      H        0.92390    0.86830    0.45330    1.000
    C17      C        0.94500    0.42460    0.24230    1.000
    H18      H        0.90760    0.38940    0.30020    1.000
    H19      H        0.88300    0.38020    0.16930    1.000
    C18      C        0.82770    0.76460    0.04070    1.000
    H20      H        0.77470    0.70710    0.97440    1.000
    H21      H        0.75860    0.82450    0.04070    1.000
    O10      O        0.59530    0.65920    0.43480    1.000
    O11      O        0.67710    0.84830    0.56600    1.000
    O12      O        0.57930    0.84120    0.35840    1.000
    H22      H        0.59300    0.92150    0.37500    1.000
    O13      O        0.17570    0.29190    0.28040    1.000
    O14      O        0.25460    0.49780    0.36900    1.000
    O15      O        0.19250    0.45150    0.16160    1.000
    H23      H        0.29800    0.48900    0.17400    1.000
    O16      O        0.13040    0.73140    0.04790    1.000
    H24      H        0.18300    0.72200    0.12210    1.000
    O17      O        0.09100    0.92220    0.12990    1.000
    O18      O        0.00710    0.86070    0.92020    1.000
    P4       P        0.67600    0.78296    0.45780    1.000
    P5       P        0.15338    0.41348    0.26695    1.000
    P6       P        0.02035    0.82737    0.03452    1.000
    U3       U        0.50000    0.50000    0.50000    1.000
