# CIF file generated by openbabel 3.1.0, see https://openbabel.org
data_I
_chemical_name_common 'HELDEJ_clean'
_cell_length_a 12.618
_cell_length_b 12.927
_cell_length_c 13.012
_cell_angle_alpha 78.3
_cell_angle_beta 62.22
_cell_angle_gamma 62.07
_space_group_name_H-M_alt 'P 1'
_space_group_name_Hall 'P 1'
loop_
    _symmetry_equiv_pos_as_xyz
    x,y,z
loop_
    _atom_site_label
    _atom_site_type_symbol
    _atom_site_fract_x
    _atom_site_fract_y
    _atom_site_fract_z
    _atom_site_occupancy
    Zn1      Zn       0.65823    0.14125    0.39387    1.000
    H2       H        0.11230    0.81670    0.87900    1.000
    H3       H        0.98500    0.16610    0.55440    1.000
    H4       H        0.83100    0.94360    0.59830    1.000
    H5       H        0.69500    0.11710    0.71260    1.000
    H6       H        0.73420    0.22200    0.66980    1.000
    H7       H        0.95320    0.98490    0.77780    1.000
    H8       H        0.61680    0.93570    0.58610    1.000
    H9       H        0.35720    0.96070    0.85830    1.000
    H10      H        0.50680    0.87090    0.79680    1.000
    H11      H        0.28580    0.07900    0.02030    1.000
    H12      H        0.67180    0.88140    0.84200    1.000
    H13      H        0.90550    0.77310    0.18310    1.000
    H14      H        0.01070    0.78290    0.20800    1.000
    H15      H        0.78630    0.75170    0.38080    1.000
    H16      H        0.88390    0.76970    0.41000    1.000
    H17      H        0.93430    0.37310    0.22100    1.000
    H18      H        0.02300    0.26590    0.27120    1.000
    H19      H        0.84500    0.32480    0.45970    1.000
    H20      H        0.75700    0.42070    0.40140    1.000
    H21      H        0.25220    0.44960    0.42710    1.000
    H22      H        0.27590    0.32270    0.40990    1.000
    H23      H        0.38830    0.34890    0.20350    1.000
    H24      H        0.38570    0.46000    0.23750    1.000
    C25      C        0.99080    0.09870    0.53260    1.000
    C26      C        0.88620    0.06730    0.59470    1.000
    C27      C        0.89940    0.96670    0.55870    1.000
    C28      C        0.76440    0.14100    0.69330    1.000
    C29      C        0.75020    0.17950    0.95900    1.000
    C30      C        0.88330    0.05040    0.82360    1.000
    C31      C        0.44760    0.19240    0.64460    1.000
    C32      C        0.55660    0.01000    0.61930    1.000
    C33      C        0.44790    0.95110    0.82510    1.000
    C34      C        0.47470    0.97600    0.91670    1.000
    C35      C        0.37270    0.04690    0.01180    1.000
    C36      C        0.60200    0.92940    0.90570    1.000
    C37      C        0.83720    0.93280    0.25240    1.000
    C38      C        0.91730    0.80130    0.23890    1.000
    C39      C        0.87800    0.73760    0.35260    1.000
    C40      C        0.92210    0.54080    0.31290    1.000
    C41      C        0.07320    0.56850    0.35810    1.000
    C42      C        0.10820    0.37130    0.33200    1.000
    C43      C        0.95250    0.34490    0.28860    1.000
    C44      C        0.83000    0.34330    0.39020    1.000
    C45      C        0.79200    0.25510    0.37360    1.000
    C46      C        0.26420    0.39830    0.37370    1.000
    C47      C        0.38780    0.38350    0.26340    1.000
    C48      C        0.51470    0.30710    0.27810    1.000
    N49      N        0.96210    0.61060    0.34080    1.000
    N50      N        0.14450    0.44710    0.35400    1.000
    N51      N        0.99640    0.42120    0.31360    1.000
    N52      N        0.54630    0.10880    0.56390    1.000
    N53      N        0.39720    0.14820    0.74660    1.000
    N54      N        0.46930    0.03180    0.72820    1.000
    N55      N        0.86360    0.07790    0.92610    1.000
    N56      N        0.70100    0.21360    0.88340    1.000
    N57      N        0.78580    0.13240    0.79790    1.000
    O58      O        0.68150    0.25990    0.45100    1.000
    O59      O        0.85800    0.18440    0.29700    1.000
    O60      O        0.51380    0.22710    0.34770    1.000
    O61      O        0.61670    0.31850    0.21140    1.000
    O62      O        0.84890    0.99450    0.16510    1.000
    O63      O        0.75920    0.97320    0.35410    1.000
    O64      O        0.82420    0.58290    0.29450    1.000
    O65      O        0.10990    0.63200    0.37610    1.000
    O66      O        0.17220    0.26590    0.33130    1.000
    O67      O        0.05030    0.83220    0.94400    1.000
    H68      H        0.41689    0.28865    0.62056    1.000
    H69      H        0.29092    0.77544    0.95505    1.000
    Zn70     Zn       0.34177    0.85875    0.60613    1.000
    H71      H        0.88770    0.18330    0.12100    1.000
    H72      H        0.01500    0.83390    0.44560    1.000
    H73      H        0.16900    0.05640    0.40170    1.000
    H74      H        0.30500    0.88290    0.28740    1.000
    H75      H        0.26580    0.77800    0.33020    1.000
    H76      H        0.04680    0.01510    0.22220    1.000
    H77      H        0.38320    0.06430    0.41390    1.000
    H78      H        0.64280    0.03930    0.14170    1.000
    H79      H        0.49320    0.12910    0.20320    1.000
    H80      H        0.71420    0.92100    0.97970    1.000
    H81      H        0.32820    0.11860    0.15800    1.000
    H82      H        0.09450    0.22690    0.81690    1.000
    H83      H        0.98930    0.21710    0.79200    1.000
    H84      H        0.21370    0.24830    0.61920    1.000
    H85      H        0.11610    0.23030    0.59000    1.000
    H86      H        0.06570    0.62690    0.77900    1.000
    H87      H        0.97700    0.73410    0.72880    1.000
    H88      H        0.15500    0.67520    0.54030    1.000
    H89      H        0.24300    0.57930    0.59860    1.000
    H90      H        0.74780    0.55040    0.57290    1.000
    H91      H        0.72410    0.67730    0.59010    1.000
    H92      H        0.61170    0.65110    0.79650    1.000
    H93      H        0.61430    0.54000    0.76250    1.000
    C94      C        0.00920    0.90130    0.46740    1.000
    C95      C        0.11380    0.93270    0.40530    1.000
    C96      C        0.10060    0.03330    0.44130    1.000
    C97      C        0.23560    0.85900    0.30670    1.000
    C98      C        0.24980    0.82050    0.04100    1.000
    C99      C        0.11670    0.94960    0.17640    1.000
    C100     C        0.55240    0.80760    0.35540    1.000
    C101     C        0.44340    0.99000    0.38070    1.000
    C102     C        0.55210    0.04890    0.17490    1.000
    C103     C        0.52530    0.02400    0.08330    1.000
    C104     C        0.62730    0.95310    0.98820    1.000
    C105     C        0.39800    0.07060    0.09430    1.000
    C106     C        0.16280    0.06720    0.74760    1.000
    C107     C        0.08270    0.19870    0.76110    1.000
    C108     C        0.12200    0.26240    0.64740    1.000
    C109     C        0.07790    0.45920    0.68710    1.000
    C110     C        0.92680    0.43150    0.64190    1.000
    C111     C        0.89180    0.62870    0.66800    1.000
    C112     C        0.04750    0.65510    0.71140    1.000
    C113     C        0.17000    0.65670    0.60980    1.000
    C114     C        0.20800    0.74490    0.62640    1.000
    C115     C        0.73580    0.60170    0.62630    1.000
    C116     C        0.61220    0.61650    0.73660    1.000
    C117     C        0.48530    0.69290    0.72190    1.000
    N118     N        0.03790    0.38940    0.65920    1.000
    N119     N        0.85550    0.55290    0.64600    1.000
    N120     N        0.00360    0.57880    0.68640    1.000
    N121     N        0.45370    0.89120    0.43610    1.000
    N122     N        0.60280    0.85180    0.25340    1.000
    N123     N        0.53070    0.96820    0.27180    1.000
    N124     N        0.13640    0.92210    0.07390    1.000
    N125     N        0.29900    0.78640    0.11660    1.000
    N126     N        0.21420    0.86760    0.20210    1.000
    O127     O        0.31850    0.74010    0.54900    1.000
    O128     O        0.14200    0.81560    0.70300    1.000
    O129     O        0.48620    0.77290    0.65230    1.000
    O130     O        0.38330    0.68150    0.78860    1.000
    O131     O        0.15110    0.00550    0.83490    1.000
    O132     O        0.24080    0.02680    0.64590    1.000
    O133     O        0.17580    0.41710    0.70550    1.000
    O134     O        0.89010    0.36800    0.62390    1.000
    O135     O        0.82780    0.73410    0.66870    1.000
    O136     O        0.94970    0.16780    0.05600    1.000
    H137     H        0.58311    0.71135    0.37944    1.000
    H138     H        0.70908    0.22456    0.04495    1.000
    Zn139    Zn       0.00000    0.00000    0.00000    1.000
