data_functionalizedCrystal
_audit_creation_method	'EQeq! by Chris Wilmer'
_symmetry_space_group_name_H-M	'P1'
_symmetry_Int_Tables_number	1
_symmetry_cell_setting	triclinic
loop_
_symmetry_equiv_pos_as_xyz
  x,y,z
_cell_length_a	10.938
_cell_length_b	10.938
_cell_length_c	34.555
_cell_angle_alpha	90
_cell_angle_beta	90
_cell_angle_gamma	120
loop_
_atom_site_label
_atom_site_type_symbol
_atom_site_fract_x
_atom_site_fract_y
_atom_site_fract_z
_atom_site_charge
Mof_N 	N 	0.1862	0.0839	0.03549	-0.143
Mof_N 	N 	0.2102	0.1757	0.0664	-0.097
Mof_N 	N 	0.3142	0.0544	0.0773	-0.109
Mof_N 	N 	0.3735	0.9883	0.09713	-0.085
Mof_N 	N 	0.5149	0.9118	0.1135	-0.074
Mof_N 	N 	0.388	0.8374	0.13368	-0.164
Mof_C 	C 	0.2493	0.0124	0.0426	0.059
Mof_C 	C 	0.2866	0.1543	0.0911	0.09
Mof_C 	C 	0.5019	0.0006	0.0914	0.042
Mof_C 	C 	0.3065	0.8861	0.1238	0.118
Mof_H 	H 	0.255	0.943	0.028	0.039
Mof_H 	H 	0.326	0.202	0.115	0.017
Mof_H 	H 	0.566	0.067	0.076	0.033
Mof_H 	H 	0.212	0.859	0.132	0.014
Mof_N 	N 	0.85287	0.41723	0.36882	-0.147
Mof_N 	N 	0.87687	0.50903	0.39973	-0.089
Mof_N 	N 	0.98087	0.38773	0.41063	-0.096
Mof_N 	N 	0.04017	0.32163	0.43046	-0.132
Mof_N 	N 	0.18157	0.24513	0.44683	-0.096
Mof_N 	N 	0.05467	0.17073	0.46701	-0.181
Mof_C 	C 	0.91597	0.34573	0.37593	0.107
Mof_C 	C 	0.95327	0.48763	0.42443	0.096
Mof_C 	C 	0.16857	0.33393	0.42473	0.091
Mof_C 	C 	0.97317	0.21943	0.45713	0.16
Mof_H 	H 	0.92167	0.27633	0.36133	0.015
Mof_H 	H 	0.99267	0.53533	0.44833	0.028
Mof_H 	H 	0.23267	0.40033	0.40933	0.016
Mof_H 	H 	0.87867	0.19233	0.46533	-0.001
Mof_N 	N 	0.51953	0.75057	0.70216	-0.147
Mof_N 	N 	0.54353	0.84237	0.73307	-0.089
Mof_N 	N 	0.64753	0.72107	0.74397	-0.104
Mof_N 	N 	0.70683	0.65497	0.7638	-0.107
Mof_N 	N 	0.84823	0.57847	0.78017	-0.09
Mof_N 	N 	0.72133	0.50407	0.80035	-0.164
Mof_C 	C 	0.58263	0.67907	0.70927	0.108
Mof_C 	C 	0.61993	0.82097	0.75777	0.097
Mof_C 	C 	0.83523	0.66727	0.75807	0.098
Mof_C 	C 	0.63983	0.55277	0.79047	0.116
Mof_H 	H 	0.58833	0.60967	0.69467	0.013
Mof_H 	H 	0.65933	0.86867	0.78167	0.026
Mof_H 	H 	0.89933	0.73367	0.74267	0.026
Mof_H 	H 	0.54533	0.52567	0.79867	0.013
Mof_N 	N 	0.9161	0.1023	0.03549	-0.149
Mof_N 	N 	0.8243	0.0345	0.0664	-0.097
Mof_N 	N 	0.9456	0.2598	0.0773	-0.103
Mof_N 	N 	0.0117	0.3852	0.09713	-0.131
Mof_N 	N 	0.0882	0.6031	0.1135	-0.113
Mof_N 	N 	0.1626	0.5506	0.13368	-0.166
Mof_C 	C 	0.9876	0.2369	0.0426	0.147
Mof_C 	C 	0.8457	0.1323	0.0911	0.094
Mof_C 	C 	0.9994	0.5013	0.0914	0.145
Mof_C 	C 	0.1139	0.4204	0.1238	0.113
Mof_H 	H 	0.057	0.312	0.028	-0.016
Mof_H 	H 	0.798	0.124	0.115	0.018
Mof_H 	H 	0.933	0.499	0.076	0.002
Mof_H 	H 	0.141	0.353	0.132	0.009
Mof_N 	N 	0.58277	0.43563	0.36882	-0.148
Mof_N 	N 	0.49097	0.36783	0.39973	-0.093
Mof_N 	N 	0.61227	0.59313	0.41063	-0.105
Mof_N 	N 	0.67837	0.71853	0.43046	-0.107
Mof_N 	N 	0.75487	0.93643	0.44683	-0.086
Mof_N 	N 	0.82927	0.88393	0.46701	-0.149
Mof_C 	C 	0.65427	0.57023	0.37593	0.106
Mof_C 	C 	0.51237	0.46563	0.42443	0.094
Mof_C 	C 	0.66607	0.83463	0.42473	0.099
Mof_C 	C 	0.78057	0.75373	0.45713	0.117
Mof_H 	H 	0.72367	0.64533	0.36133	0.016
Mof_H 	H 	0.46467	0.45733	0.44833	0.02
Mof_H 	H 	0.59967	0.83233	0.40933	0.022
Mof_H 	H 	0.80767	0.68633	0.46533	0.018
Mof_N 	N 	0.24943	0.76897	0.70216	-0.148
Mof_N 	N 	0.15763	0.70117	0.73307	-0.096
Mof_N 	N 	0.27893	0.92647	0.74397	-0.097
Mof_N 	N 	0.34503	0.05187	0.7638	-0.119
Mof_N 	N 	0.42153	0.26977	0.78017	-0.096
Mof_N 	N 	0.49593	0.21727	0.80035	-0.165
Mof_C 	C 	0.32093	0.90357	0.70927	0.106
Mof_C 	C 	0.17903	0.79897	0.75777	0.093
Mof_C 	C 	0.33273	0.16797	0.75807	0.094
Mof_C 	C 	0.44723	0.08707	0.79047	0.113
Mof_H 	H 	0.39033	0.97867	0.69467	0.018
Mof_H 	H 	0.13133	0.79067	0.78167	0.018
Mof_H 	H 	0.26633	0.16567	0.74267	0.011
Mof_H 	H 	0.47433	0.01967	0.79867	0.007
Mof_N 	N 	0.8977	0.8138	0.03549	-0.134
Mof_N 	N 	0.9655	0.7898	0.0664	-0.082
Mof_N 	N 	0.7402	0.6858	0.0773	-0.105
Mof_N 	N 	0.6148	0.6265	0.09713	-0.107
Mof_N 	N 	0.3969	0.4851	0.1135	-0.095
Mof_N 	N 	0.4494	0.612	0.13368	-0.165
Mof_C 	C 	0.7631	0.7507	0.0426	0.108
Mof_C 	C 	0.8677	0.7134	0.0911	0.097
Mof_C 	C 	0.4987	0.4981	0.0914	0.095
Mof_C 	C 	0.5796	0.6935	0.1238	0.115
Mof_H 	H 	0.688	0.745	0.028	0.014
Mof_H 	H 	0.876	0.674	0.115	0.025
Mof_H 	H 	0.501	0.434	0.076	0.017
Mof_H 	H 	0.647	0.788	0.132	0.018
Mof_N 	N 	0.56437	0.14713	0.36882	-0.149
Mof_N 	N 	0.63217	0.12313	0.39973	-0.094
Mof_N 	N 	0.40687	0.01913	0.41063	-0.117
Mof_N 	N 	0.28147	0.95983	0.43046	-0.083
Mof_N 	N 	0.06357	0.81843	0.44683	-0.099
Mof_N 	N 	0.11607	0.94533	0.46701	-0.139
Mof_C 	C 	0.42977	0.08403	0.37593	0.104
Mof_C 	C 	0.53437	0.04673	0.42443	0.092
Mof_C 	C 	0.16537	0.83143	0.42473	0.096
Mof_C 	C 	0.24627	0.02683	0.45713	0.065
Mof_H 	H 	0.35467	0.07833	0.36133	0.005
Mof_H 	H 	0.54267	0.00733	0.44833	0.013
Mof_H 	H 	0.16767	0.76733	0.40933	0.015
Mof_H 	H 	0.31367	0.12133	0.46533	0.028
Mof_N 	N 	0.23103	0.48047	0.70216	-0.149
Mof_N 	N 	0.29883	0.45647	0.73307	-0.093
Mof_N 	N 	0.07353	0.35247	0.74397	-0.117
Mof_N 	N 	0.94813	0.29317	0.7638	-0.098
Mof_N 	N 	0.73023	0.15177	0.78017	-0.097
Mof_N 	N 	0.78273	0.27867	0.80035	-0.164
Mof_C 	C 	0.09643	0.41737	0.70927	0.103
Mof_C 	C 	0.20103	0.38007	0.75777	0.092
Mof_C 	C 	0.83203	0.16477	0.75807	0.095
Mof_C 	C 	0.91293	0.36017	0.79047	0.116
Mof_H 	H 	0.02133	0.41167	0.69467	0.004
Mof_H 	H 	0.20933	0.34067	0.78167	0.016
Mof_H 	H 	0.83433	0.10067	0.74267	0.016
Mof_H 	H 	0.98033	0.45467	0.79867	0.021
Mof_N 	N 	0.8138	0.9161	0.96451	-0.139
Mof_N 	N 	0.7898	0.8243	0.9336	-0.086
Mof_N 	N 	0.6858	0.9456	0.9227	-0.102
Mof_N 	N 	0.6265	0.0117	0.90287	-0.129
Mof_N 	N 	0.4851	0.0882	0.8865	-0.113
Mof_N 	N 	0.612	0.1626	0.86632	-0.165
Mof_C 	C 	0.7507	0.9876	0.9574	0.147
Mof_C 	C 	0.7134	0.8457	0.9089	0.098
Mof_C 	C 	0.4981	0.9994	0.9086	0.144
Mof_C 	C 	0.6935	0.1139	0.8762	0.113
Mof_H 	H 	0.745	0.057	0.972	-0.009
Mof_H 	H 	0.674	0.798	0.885	0.023
Mof_H 	H 	0.434	0.933	0.924	0.004
Mof_H 	H 	0.788	0.141	0.868	0.014
Mof_N 	N 	0.48047	0.24943	0.29784	-0.149
Mof_N 	N 	0.45647	0.15763	0.26693	-0.096
Mof_N 	N 	0.35247	0.27893	0.25603	-0.107
Mof_N 	N 	0.29317	0.34503	0.2362	-0.11
Mof_N 	N 	0.15177	0.42153	0.21983	-0.098
Mof_N 	N 	0.27867	0.49593	0.19965	-0.165
Mof_C 	C 	0.41737	0.32093	0.29073	0.104
Mof_C 	C 	0.38007	0.17903	0.24223	0.091
Mof_C 	C 	0.16477	0.33273	0.24193	0.093
Mof_C 	C 	0.36017	0.44723	0.20953	0.114
Mof_H 	H 	0.41167	0.39033	0.30533	0.011
Mof_H 	H 	0.34067	0.13133	0.21833	0.013
Mof_H 	H 	0.10067	0.26633	0.25733	0.009
Mof_H 	H 	0.45467	0.47433	0.20133	0.013
Mof_N 	N 	0.14713	0.58277	0.63118	-0.149
Mof_N 	N 	0.12313	0.49097	0.60027	-0.095
Mof_N 	N 	0.01913	0.61227	0.58937	-0.116
Mof_N 	N 	0.95983	0.67837	0.56954	-0.084
Mof_N 	N 	0.81843	0.75487	0.55317	-0.092
Mof_N 	N 	0.94533	0.82927	0.53299	-0.133
Mof_C 	C 	0.08403	0.65427	0.62407	0.104
Mof_C 	C 	0.04673	0.51237	0.57557	0.092
Mof_C 	C 	0.83143	0.66607	0.57527	0.099
Mof_C 	C 	0.02683	0.78057	0.54287	0.071
Mof_H 	H 	0.07833	0.72367	0.63867	0.009
Mof_H 	H 	0.00733	0.46467	0.55167	0.012
Mof_H 	H 	0.76733	0.59967	0.59067	0.019
Mof_H 	H 	0.12133	0.80767	0.53467	0.03
Mof_N 	N 	0.0839	0.8977	0.96451	-0.132
Mof_N 	N 	0.1757	0.9655	0.9336	-0.085
Mof_N 	N 	0.0544	0.7402	0.9227	-0.108
Mof_N 	N 	0.9883	0.6148	0.90287	-0.084
Mof_N 	N 	0.9118	0.3969	0.8865	-0.075
Mof_N 	N 	0.8374	0.4494	0.86632	-0.164
Mof_C 	C 	0.0124	0.7631	0.9574	0.066
Mof_C 	C 	0.1543	0.8677	0.9089	0.094
Mof_C 	C 	0.0006	0.4987	0.9086	0.043
Mof_C 	C 	0.8861	0.5796	0.8762	0.118
Mof_H 	H 	0.943	0.688	0.972	0.042
Mof_H 	H 	0.202	0.876	0.885	0.022
Mof_H 	H 	0.067	0.501	0.924	0.034
Mof_H 	H 	0.859	0.647	0.868	0.018
Mof_N 	N 	0.75057	0.23103	0.29784	-0.148
Mof_N 	N 	0.84237	0.29883	0.26693	-0.089
Mof_N 	N 	0.72107	0.07353	0.25603	-0.115
Mof_N 	N 	0.65497	0.94813	0.2362	-0.097
Mof_N 	N 	0.57847	0.73023	0.21983	-0.094
Mof_N 	N 	0.50407	0.78273	0.19965	-0.164
Mof_C 	C 	0.67907	0.09643	0.29073	0.106
Mof_C 	C 	0.82097	0.20103	0.24223	0.095
Mof_C 	C 	0.66727	0.83203	0.24193	0.097
Mof_C 	C 	0.55277	0.91293	0.20953	0.117
Mof_H 	H 	0.60967	0.02133	0.30533	0.005
Mof_H 	H 	0.86867	0.20933	0.21833	0.022
Mof_H 	H 	0.73367	0.83433	0.25733	0.024
Mof_H 	H 	0.52567	0.98033	0.20133	0.021
Mof_N 	N 	0.41723	0.56437	0.63118	-0.148
Mof_N 	N 	0.50903	0.63217	0.60027	-0.091
Mof_N 	N 	0.38773	0.40687	0.58937	-0.107
Mof_N 	N 	0.32163	0.28147	0.56954	-0.108
Mof_N 	N 	0.24513	0.06357	0.55317	-0.102
Mof_N 	N 	0.17073	0.11607	0.53299	-0.164
Mof_C 	C 	0.34573	0.42977	0.62407	0.106
Mof_C 	C 	0.48763	0.53437	0.57557	0.094
Mof_C 	C 	0.33393	0.16537	0.57527	0.092
Mof_C 	C 	0.21943	0.24627	0.54287	0.111
Mof_H 	H 	0.27633	0.35467	0.63867	0.008
Mof_H 	H 	0.53533	0.54267	0.55167	0.021
Mof_H 	H 	0.40033	0.16767	0.59067	0.013
Mof_H 	H 	0.19233	0.31367	0.53467	0.011
Mof_N 	N 	0.1023	0.1862	0.96451	-0.147
Mof_N 	N 	0.0345	0.2102	0.9336	-0.101
Mof_N 	N 	0.2598	0.3142	0.9227	-0.106
Mof_N 	N 	0.3852	0.3735	0.90287	-0.109
Mof_N 	N 	0.6031	0.5149	0.8865	-0.094
Mof_N 	N 	0.5506	0.388	0.86632	-0.165
Mof_C 	C 	0.2369	0.2493	0.9574	0.103
Mof_C 	C 	0.1323	0.2866	0.9089	0.09
Mof_C 	C 	0.5013	0.5019	0.9086	0.096
Mof_C 	C 	0.4204	0.3065	0.8762	0.115
Mof_H 	H 	0.312	0.255	0.972	0.013
Mof_H 	H 	0.124	0.326	0.885	0.015
Mof_H 	H 	0.499	0.566	0.924	0.018
Mof_H 	H 	0.353	0.212	0.868	0.009
Mof_N 	N 	0.76897	0.51953	0.29784	-0.147
Mof_N 	N 	0.70117	0.54353	0.26693	-0.092
Mof_N 	N 	0.92647	0.64753	0.25603	-0.096
Mof_N 	N 	0.05187	0.70683	0.2362	-0.117
Mof_N 	N 	0.26977	0.84823	0.21983	-0.091
Mof_N 	N 	0.21727	0.72133	0.19965	-0.165
Mof_C 	C 	0.90357	0.58263	0.29073	0.108
Mof_C 	C 	0.79897	0.61993	0.24223	0.096
Mof_C 	C 	0.16797	0.83523	0.24193	0.096
Mof_C 	C 	0.08707	0.63983	0.20953	0.115
Mof_H 	H 	0.97867	0.58833	0.30533	0.019
Mof_H 	H 	0.79067	0.65933	0.21833	0.024
Mof_H 	H 	0.16567	0.89933	0.25733	0.021
Mof_H 	H 	0.01967	0.54533	0.20133	0.006
Mof_N 	N 	0.43563	0.85287	0.63118	-0.146
Mof_N 	N 	0.36783	0.87687	0.60027	-0.09
Mof_N 	N 	0.59313	0.98087	0.58937	-0.096
Mof_N 	N 	0.71853	0.04017	0.56954	-0.13
Mof_N 	N 	0.93643	0.18157	0.55317	-0.087
Mof_N 	N 	0.88393	0.05467	0.53299	-0.171
Mof_C 	C 	0.57023	0.91597	0.62407	0.107
Mof_C 	C 	0.46563	0.95327	0.57557	0.096
Mof_C 	C 	0.83463	0.16857	0.57527	0.095
Mof_C 	C 	0.75373	0.97317	0.54287	0.158
Mof_H 	H 	0.64533	0.92167	0.63867	0.018
Mof_H 	H 	0.45733	0.99267	0.55167	0.028
Mof_H 	H 	0.83233	0.23267	0.59067	0.02
Mof_H 	H 	0.68633	0.87867	0.53467	0.004
Mof_Fe	Fe	-0	0	-0	0.62
Mof_Fe	Fe	0.66667	0.33333	0.33333	0.684
Mof_Fe	Fe	0.33333	0.66667	0.66667	0.684
Mof_Fe	Fe	0.66667	0.33333	0.83333	0.758
Mof_Fe	Fe	0.33333	0.66667	0.16667	0.758
Mof_Fe	Fe	-0	0	0.5	0.695
_end
