# CIF file generated by openbabel 3.1.0, see https://openbabel.org
data_I
_chemical_name_common 'image0'
_cell_length_a 11.589
_cell_length_b 17.792
_cell_length_c 16.441
_cell_angle_alpha 90
_cell_angle_beta 109.73
_cell_angle_gamma 90
_space_group_name_H-M_alt 'P 1'
_space_group_name_Hall 'P 1'
loop_
    _symmetry_equiv_pos_as_xyz
    x,y,z
loop_
    _atom_site_label
    _atom_site_type_symbol
    _atom_site_fract_x
    _atom_site_fract_y
    _atom_site_fract_z
    _atom_site_occupancy
    Tb1      Tb       0.91119    0.01015    0.86194    1.000
    Zn1      Zn       0.58823    0.11520    0.69953    1.000
    C1       C        0.80480    0.94120    0.01580    1.000
    C2       C        0.67960    0.92330    0.01760    1.000
    C3       C        0.66000    0.91850    0.09430    1.000
    H1       H        0.72580    0.92460    0.14520    1.000
    C4       C        0.54400    0.90460    0.09890    1.000
    C5       C        0.45140    0.89430    0.02570    1.000
    H2       H        0.37260    0.88650    0.02690    1.000
    C6       C        0.47180    0.89510    0.94800    1.000
    C7       C        0.58280    0.90980    0.94140    1.000
    H3       H        0.59400    0.91080    0.88800    1.000
    C8       C        0.52220    0.90110    0.18610    1.000
    C9       C        0.63550    0.96160    0.69890    1.000
    C10      C        0.58490    0.88370    0.68190    1.000
    C11      C        0.64590    0.82000    0.71790    1.000
    H4       H        0.72460    0.82490    0.75770    1.000
    C12      C        0.59870    0.74970    0.69920    1.000
    C13      C        0.48690    0.74100    0.63520    1.000
    H5       H        0.45330    0.69330    0.62100    1.000
    C14      C        0.42500    0.80320    0.59210    1.000
    C15      C        0.47480    0.87430    0.61190    1.000
    H6       H        0.43590    0.91550    0.57940    1.000
    C16      C        0.67320    0.67920    0.73910    1.000
    C17      C        0.36450    0.13600    0.54650    1.000
    H7       H        0.35420    0.08480    0.55280    1.000
    C18      C        0.27720    0.17430    0.47880    1.000
    H8       H        0.20980    0.14950    0.44070    1.000
    C19      C        0.29560    0.25000    0.47110    1.000
    H9       H        0.24090    0.27730    0.42640    1.000
    C20      C        0.39430    0.28530    0.52930    1.000
    C21      C        0.47230    0.24380    0.59480    1.000
    H10      H        0.53640    0.26830    0.63620    1.000
    C22      C        0.42270    0.36840    0.52410    1.000
    N1       N        0.36840    0.88270    0.86740    1.000
    N2       N        0.46100    0.16980    0.60210    1.000
    O1       O        0.81170    0.95220    0.94290    1.000
    O2       O        0.89170    0.94470    0.08630    1.000
    O3       O        0.59980    0.92230    0.24890    1.000
    O4       O        0.41800    0.88450    0.18540    1.000
    O5       O        0.26000    0.89650    0.86900    1.000
    O6       O        0.38200    0.90700    0.79900    1.000
    O7       O        0.58120    0.01240    0.65500    1.000
    O8       O        0.72000    0.98630    0.78600    1.000
    O9       O        0.78180    0.69010    0.78330    1.000
    O10      O        0.62200    0.61730    0.72110    1.000
    N3       N        0.30800    0.79400    0.53700    1.000
    O11      O        0.25300    0.73940    0.52700    1.000
    O12      O        0.25000    0.84600    0.49800    1.000
    O13      O        0.38260    0.39680    0.45140    1.000
    O14      O        0.48610    0.39920    0.59310    1.000
    O15      O        0.27500    0.85300    0.87600    1.000
    O16      O        0.39200    0.86300    0.80100    1.000
    N4       N        0.32000    0.79600    0.50500    1.000
    O17      O        0.28500    0.73190    0.48080    1.000
    O18      O        0.27700    0.85000    0.46250    1.000
    O19      O        0.73900    0.96650    0.75220    1.000
    Tb2      Tb       0.58881    0.51015    0.63806    1.000
    Zn2      Zn       0.91177    0.61520    0.80047    1.000
    C23      C        0.69520    0.44120    0.48420    1.000
    C24      C        0.82040    0.42330    0.48240    1.000
    C25      C        0.84000    0.41850    0.40570    1.000
    H11      H        0.77420    0.42460    0.35480    1.000
    C26      C        0.95600    0.40460    0.40110    1.000
    C27      C        0.04860    0.39430    0.47430    1.000
    H12      H        0.12740    0.38650    0.47310    1.000
    C28      C        0.02820    0.39510    0.55200    1.000
    C29      C        0.91720    0.40980    0.55860    1.000
    H13      H        0.90600    0.41080    0.61200    1.000
    C30      C        0.97780    0.40110    0.31390    1.000
    C31      C        0.86450    0.46160    0.80110    1.000
    C32      C        0.91510    0.38370    0.81810    1.000
    C33      C        0.85410    0.32000    0.78210    1.000
    H14      H        0.77540    0.32490    0.74230    1.000
    C34      C        0.90130    0.24970    0.80080    1.000
    C35      C        0.01310    0.24100    0.86480    1.000
    H15      H        0.04670    0.19330    0.87900    1.000
    C36      C        0.07500    0.30320    0.90790    1.000
    C37      C        0.02520    0.37430    0.88810    1.000
    H16      H        0.06410    0.41550    0.92060    1.000
    C38      C        0.82680    0.17920    0.76090    1.000
    C39      C        0.13550    0.63600    0.95350    1.000
    H17      H        0.14580    0.58480    0.94720    1.000
    C40      C        0.22280    0.67430    0.02120    1.000
    H18      H        0.29020    0.64950    0.05930    1.000
    C41      C        0.20440    0.75000    0.02890    1.000
    H19      H        0.25910    0.77730    0.07360    1.000
    C42      C        0.10570    0.78530    0.97070    1.000
    C43      C        0.02770    0.74380    0.90520    1.000
    H20      H        0.96360    0.76830    0.86380    1.000
    C44      C        0.07730    0.86840    0.97590    1.000
    N5       N        0.13160    0.38270    0.63260    1.000
    N6       N        0.03900    0.66980    0.89790    1.000
    O20      O        0.68830    0.45220    0.55710    1.000
    O21      O        0.60830    0.44470    0.41370    1.000
    O22      O        0.90020    0.42230    0.25110    1.000
    O23      O        0.08200    0.38450    0.31460    1.000
    O24      O        0.24000    0.39650    0.63100    1.000
    O25      O        0.11800    0.40700    0.70100    1.000
    O26      O        0.91880    0.51240    0.84500    1.000
    O27      O        0.78000    0.48630    0.71400    1.000
    O28      O        0.71820    0.19010    0.71670    1.000
    O29      O        0.87800    0.11730    0.77890    1.000
    N7       N        0.19200    0.29400    0.96300    1.000
    O30      O        0.24700    0.23940    0.97300    1.000
    O31      O        0.25000    0.34600    0.00200    1.000
    O32      O        0.11740    0.89680    0.04860    1.000
    O33      O        0.01390    0.89920    0.90690    1.000
    O34      O        0.22500    0.35300    0.62400    1.000
    O35      O        0.10800    0.36300    0.69900    1.000
    N8       N        0.18000    0.29600    0.99500    1.000
    O36      O        0.21500    0.23190    0.01920    1.000
    O37      O        0.22300    0.35000    0.03750    1.000
    O38      O        0.76100    0.46650    0.74780    1.000
    Tb3      Tb       0.08881    0.98985    0.13806    1.000
    Zn3      Zn       0.41177    0.88480    0.30047    1.000
    C45      C        0.19520    0.05880    0.98420    1.000
    C46      C        0.32040    0.07670    0.98240    1.000
    C47      C        0.34000    0.08150    0.90570    1.000
    H21      H        0.27420    0.07540    0.85480    1.000
    C48      C        0.45600    0.09540    0.90110    1.000
    C49      C        0.54860    0.10570    0.97430    1.000
    H22      H        0.62740    0.11350    0.97310    1.000
    C50      C        0.52820    0.10490    0.05200    1.000
    C51      C        0.41720    0.09020    0.05860    1.000
    H23      H        0.40600    0.08920    0.11200    1.000
    C52      C        0.47780    0.09890    0.81390    1.000
    C53      C        0.36450    0.03840    0.30110    1.000
    C54      C        0.41510    0.11630    0.31810    1.000
    C55      C        0.35410    0.18000    0.28210    1.000
    H24      H        0.27540    0.17510    0.24230    1.000
    C56      C        0.40130    0.25030    0.30080    1.000
    C57      C        0.51310    0.25900    0.36480    1.000
    H25      H        0.54670    0.30670    0.37900    1.000
    C58      C        0.57500    0.19680    0.40790    1.000
    C59      C        0.52520    0.12570    0.38810    1.000
    H26      H        0.56410    0.08450    0.42060    1.000
    C60      C        0.32680    0.32080    0.26090    1.000
    C61      C        0.63550    0.86400    0.45350    1.000
    H27      H        0.64580    0.91520    0.44720    1.000
    C62      C        0.72280    0.82570    0.52120    1.000
    H28      H        0.79020    0.85050    0.55930    1.000
    C63      C        0.70440    0.75000    0.52890    1.000
    H29      H        0.75910    0.72270    0.57360    1.000
    C64      C        0.60570    0.71470    0.47070    1.000
    C65      C        0.52770    0.75620    0.40520    1.000
    H30      H        0.46360    0.73170    0.36380    1.000
    C66      C        0.57730    0.63160    0.47590    1.000
    N9       N        0.63160    0.11730    0.13260    1.000
    N10      N        0.53900    0.83020    0.39790    1.000
    O39      O        0.18830    0.04780    0.05710    1.000
    O40      O        0.10830    0.05530    0.91370    1.000
    O41      O        0.40020    0.07770    0.75110    1.000
    O42      O        0.58200    0.11550    0.81460    1.000
    O43      O        0.74000    0.10350    0.13100    1.000
    O44      O        0.61800    0.09300    0.20100    1.000
    O45      O        0.41880    0.98760    0.34500    1.000
    O46      O        0.28000    0.01370    0.21400    1.000
    O47      O        0.21820    0.30990    0.21670    1.000
    O48      O        0.37800    0.38270    0.27890    1.000
    N11      N        0.69200    0.20600    0.46300    1.000
    O49      O        0.74700    0.26060    0.47300    1.000
    O50      O        0.75000    0.15400    0.50200    1.000
    O51      O        0.61740    0.60320    0.54860    1.000
    O52      O        0.51390    0.60080    0.40690    1.000
    O53      O        0.72500    0.14700    0.12400    1.000
    O54      O        0.60800    0.13700    0.19900    1.000
    N12      N        0.68000    0.20400    0.49500    1.000
    O55      O        0.71500    0.26810    0.51920    1.000
    O56      O        0.72300    0.15000    0.53750    1.000
    O57      O        0.26100    0.03350    0.24780    1.000
    Tb4      Tb       0.41119    0.48985    0.36194    1.000
    Zn4      Zn       0.08823    0.38480    0.19953    1.000
    C67      C        0.30480    0.55880    0.51580    1.000
    C68      C        0.17960    0.57670    0.51760    1.000
    C69      C        0.16000    0.58150    0.59430    1.000
    H31      H        0.22580    0.57540    0.64520    1.000
    C70      C        0.04400    0.59540    0.59890    1.000
    C71      C        0.95140    0.60570    0.52570    1.000
    H32      H        0.87260    0.61350    0.52690    1.000
    C72      C        0.97180    0.60490    0.44800    1.000
    C73      C        0.08280    0.59020    0.44140    1.000
    H33      H        0.09400    0.58920    0.38800    1.000
    C74      C        0.02220    0.59890    0.68610    1.000
    C75      C        0.13550    0.53840    0.19890    1.000
    C76      C        0.08490    0.61630    0.18190    1.000
    C77      C        0.14590    0.68000    0.21790    1.000
    H34      H        0.22460    0.67510    0.25770    1.000
    C78      C        0.09870    0.75030    0.19920    1.000
    C79      C        0.98690    0.75900    0.13520    1.000
    H35      H        0.95330    0.80670    0.12100    1.000
    C80      C        0.92500    0.69680    0.09210    1.000
    C81      C        0.97480    0.62570    0.11190    1.000
    H36      H        0.93590    0.58450    0.07940    1.000
    C82      C        0.17320    0.82080    0.23910    1.000
    C83      C        0.86450    0.36400    0.04650    1.000
    H37      H        0.85420    0.41520    0.05280    1.000
    C84      C        0.77720    0.32570    0.97880    1.000
    H38      H        0.70980    0.35050    0.94070    1.000
    C85      C        0.79560    0.25000    0.97110    1.000
    H39      H        0.74090    0.22270    0.92640    1.000
    C86      C        0.89430    0.21470    0.02930    1.000
    C87      C        0.97230    0.25620    0.09480    1.000
    H40      H        0.03640    0.23170    0.13620    1.000
    C88      C        0.92270    0.13160    0.02410    1.000
    N13      N        0.86840    0.61730    0.36740    1.000
    N14      N        0.96100    0.33020    0.10210    1.000
    O58      O        0.31170    0.54780    0.44290    1.000
    O59      O        0.39170    0.55530    0.58630    1.000
    O60      O        0.09980    0.57770    0.74890    1.000
    O61      O        0.91800    0.61550    0.68540    1.000
    O62      O        0.76000    0.60350    0.36900    1.000
    O63      O        0.88200    0.59300    0.29900    1.000
    O64      O        0.08120    0.48760    0.15500    1.000
    O65      O        0.22000    0.51370    0.28600    1.000
    O66      O        0.28180    0.80990    0.28330    1.000
    O67      O        0.12200    0.88270    0.22110    1.000
    N15      N        0.80800    0.70600    0.03700    1.000
    O68      O        0.75300    0.76060    0.02700    1.000
    O69      O        0.75000    0.65400    0.99800    1.000
    O70      O        0.88260    0.10320    0.95140    1.000
    O71      O        0.98610    0.10080    0.09310    1.000
    O72      O        0.77500    0.64700    0.37600    1.000
    O73      O        0.89200    0.63700    0.30100    1.000
    N16      N        0.82000    0.70400    0.00500    1.000
    O74      O        0.78500    0.76810    0.98080    1.000
    O75      O        0.77700    0.65000    0.96250    1.000
    O76      O        0.23900    0.53350    0.25220    1.000
