data_functionalizedCrystal
_audit_creation_method	'EQeq! by Chris Wilmer'
_symmetry_space_group_name_H-M	'P1'
_symmetry_Int_Tables_number	1
_symmetry_cell_setting	triclinic
loop_
_symmetry_equiv_pos_as_xyz
  x,y,z
_cell_length_a	11.0655
_cell_length_b	13.1921
_cell_length_c	15.7838
_cell_angle_alpha	90
_cell_angle_beta	90
_cell_angle_gamma	114.797
loop_
_atom_site_label
_atom_site_type_symbol
_atom_site_fract_x
_atom_site_fract_y
_atom_site_fract_z
_atom_site_charge
Mof_Cd	Cd	0.5	0.5	0.5	0.388
Mof_Cd	Cd	-0	0.5	-0	0.364
Mof_Cd	Cd	0.61758	0.23516	0.75	0.311
Mof_Cd	Cd	0.38242	0.76484	0.75	0.311
Mof_Cd	Cd	0.38242	0.76484	0.25	0.306
Mof_Cd	Cd	0.61758	0.23516	0.25	0.306
Mof_Cd	Cd	0.03752	0.80558	0.5	0.278
Mof_Cd	Cd	0.96248	0.19442	0.5	0.282
Mof_Cd	Cd	0.76806	0.80558	-0	0.261
Mof_Cd	Cd	0.23194	0.19442	-0	0.261
Mof_C 	C 	0.56539	0.33618	0.6539	0.01
Mof_C 	C 	0.1458	0.7902	0.3877	-0
Mof_C 	C 	0.43461	0.66382	0.6539	0.009
Mof_C 	C 	0.8542	0.2098	0.3877	0.002
Mof_C 	C 	0.77079	0.33618	0.8461	0.015
Mof_C 	C 	0.6444	0.7902	0.1123	-0.003
Mof_C 	C 	0.22921	0.66382	0.8461	0.014
Mof_C 	C 	0.3556	0.2098	0.1123	-0.003
Mof_C 	C 	0.43461	0.66382	0.3461	0.008
Mof_C 	C 	0.8542	0.2098	0.6123	0.002
Mof_C 	C 	0.56539	0.33618	0.3461	0.009
Mof_C 	C 	0.1458	0.7902	0.6123	-0
Mof_C 	C 	0.22921	0.66382	0.1539	0.005
Mof_C 	C 	0.3556	0.2098	0.8877	0.024
Mof_C 	C 	0.77079	0.33618	0.1539	0.006
Mof_C 	C 	0.6444	0.7902	0.8877	0.023
Mof_C 	C 	0.524	0.048	0.75	-0.051
Mof_C 	C 	0.476	0.952	0.75	-0.057
Mof_C 	C 	0.476	0.952	0.25	-0.061
Mof_C 	C 	0.524	0.048	0.25	-0.054
Mof_C 	C 	0.8283	0.6802	0.5	0.006
Mof_C 	C 	0.0111	0.9602	0.5	-0.075
Mof_C 	C 	0.1717	0.3198	0.5	0.002
Mof_C 	C 	0.9889	0.0398	0.5	-0.057
Mof_C 	C 	0.8519	0.6802	-0	-0.005
Mof_C 	C 	0.9491	0.9602	-0	-0.069
Mof_C 	C 	0.1481	0.3198	-0	-0.007
Mof_C 	C 	0.0509	0.0398	-0	-0.078
Mof_N 	N 	0.53952	0.38924	0.6071	-0.131
Mof_N 	N 	0.4318	0.222	0.838	-0.14
Mof_N 	N 	0.46048	0.61076	0.6071	-0.131
Mof_N 	N 	0.5682	0.778	0.838	-0.14
Mof_N 	N 	0.84972	0.38924	0.8929	-0.12
Mof_N 	N 	0.7902	0.222	0.662	-0.137
Mof_N 	N 	0.15028	0.61076	0.8929	-0.121
Mof_N 	N 	0.2098	0.778	0.662	-0.138
Mof_N 	N 	0.46048	0.61076	0.3929	-0.131
Mof_N 	N 	0.5682	0.778	0.162	-0.139
Mof_N 	N 	0.53952	0.38924	0.3929	-0.131
Mof_N 	N 	0.4318	0.222	0.162	-0.138
Mof_N 	N 	0.15028	0.61076	0.1071	-0.133
Mof_N 	N 	0.2098	0.778	0.338	-0.138
Mof_N 	N 	0.84972	0.38924	0.1071	-0.131
Mof_N 	N 	0.7902	0.222	0.338	-0.138
Mof_N 	N 	0.7201	0.6184	0.5	-0.134
Mof_N 	N 	0.2799	0.3816	0.5	-0.134
Mof_N 	N 	0.8983	0.6184	-0	-0.136
Mof_N 	N 	0.1017	0.3816	-0	-0.139
Mof_H 	H 	0.2788	0.2742	0.677	0.016
Mof_H 	H 	0.189	0.0838	0.6761	0.073
Mof_H 	H 	0.7212	0.7258	0.677	0.009
Mof_H 	H 	0.811	0.9162	0.6761	0.082
Mof_H 	H 	0.9954	0.2742	0.823	0.027
Mof_H 	H 	0.8948	0.0838	0.8239	0.074
Mof_H 	H 	0.0046	0.7258	0.823	0.008
Mof_H 	H 	0.1052	0.9162	0.8239	0.09
Mof_C 	C 	0.201	0.2346	0.7071	0.07
Mof_C 	C 	0.1476	0.1212	0.706	-0.128
Mof_C 	C 	0.799	0.7654	0.7071	0.088
Mof_C 	C 	0.8524	0.8788	0.706	-0.156
Mof_C 	C 	0.0336	0.2346	0.7929	0.059
Mof_C 	C 	0.9736	0.1212	0.794	-0.114
Mof_C 	C 	0.9664	0.7654	0.7929	0.101
Mof_C 	C 	0.0264	0.8788	0.794	-0.165
Mof_C 	C 	0.031	0.062	0.75	0.035
Mof_C 	C 	0.2062	0.4124	0.75	0.026
Mof_C 	C 	0.969	0.938	0.75	0.077
Mof_C 	C 	0.7938	0.5876	0.75	0.029
Mof_N 	N 	0.145	0.29	0.75	-0.134
Mof_N 	N 	0.855	0.71	0.75	-0.145
Mof_H 	H 	0.7212	0.7258	0.323	0.009
Mof_H 	H 	0.811	0.9162	0.3239	0.084
Mof_H 	H 	0.2788	0.2742	0.323	0.017
Mof_H 	H 	0.189	0.0838	0.3239	0.07
Mof_H 	H 	0.0046	0.7258	0.177	0
Mof_H 	H 	0.1052	0.9162	0.1761	0.087
Mof_H 	H 	0.9954	0.2742	0.177	0.026
Mof_H 	H 	0.8948	0.0838	0.1761	0.065
Mof_C 	C 	0.799	0.7654	0.2929	0.089
Mof_C 	C 	0.8524	0.8788	0.294	-0.16
Mof_C 	C 	0.201	0.2346	0.2929	0.065
Mof_C 	C 	0.1476	0.1212	0.294	-0.122
Mof_C 	C 	0.9664	0.7654	0.2071	0.104
Mof_C 	C 	0.0264	0.8788	0.206	-0.173
Mof_C 	C 	0.0336	0.2346	0.2071	0.047
Mof_C 	C 	0.9736	0.1212	0.206	-0.105
Mof_C 	C 	0.969	0.938	0.25	0.082
Mof_C 	C 	0.7938	0.5876	0.25	0.024
Mof_C 	C 	0.031	0.062	0.25	0.025
Mof_C 	C 	0.2062	0.4124	0.25	0.02
Mof_N 	N 	0.855	0.71	0.25	-0.147
Mof_N 	N 	0.145	0.29	0.25	-0.132
_end
