# CIF file generated by openbabel 3.1.0, see https://openbabel.org
data_I
_chemical_name_common 'OPURIB_clean'
_cell_length_a 4.873
_cell_length_b 13.133
_cell_length_c 13.2997
_cell_angle_alpha 90
_cell_angle_beta 100.552
_cell_angle_gamma 90
_space_group_name_H-M_alt 'P 1'
_space_group_name_Hall 'P 1'
loop_
    _symmetry_equiv_pos_as_xyz
    x,y,z
loop_
    _atom_site_label
    _atom_site_type_symbol
    _atom_site_fract_x
    _atom_site_fract_y
    _atom_site_fract_z
    _atom_site_occupancy
    Ce1      Ce       0.73576    0.39626    0.21198    1.000
    Ce2      Ce       0.26424    0.89626    0.78802    1.000
    H1       H        0.70620    0.92150    0.12910    1.000
    H2       H        0.24770    0.71340    0.05250    1.000
    H3       H        0.31570    0.79480    0.34620    1.000
    H4       H        0.91400    0.88720    0.37750    1.000
    H5       H        0.77530    0.98120    0.31390    1.000
    H6       H        0.18970    0.10200    0.27350    1.000
    H7       H        0.84750    0.15640    0.50100    1.000
    H8       H        0.28400    0.93330    0.51280    1.000
    H9       H        0.55720    0.65660    0.35430    1.000
    H10      H        0.29380    0.42150    0.87090    1.000
    H11      H        0.75230    0.21340    0.94750    1.000
    H12      H        0.68430    0.29480    0.65380    1.000
    H13      H        0.08600    0.38720    0.62250    1.000
    H14      H        0.22470    0.48120    0.68610    1.000
    H15      H        0.81030    0.60200    0.72650    1.000
    H16      H        0.15250    0.65640    0.49900    1.000
    H17      H        0.71600    0.43330    0.48720    1.000
    H18      H        0.44280    0.15660    0.64570    1.000
    C1       C        0.87830    0.89000    0.14940    1.000
    C2       C        0.98570    0.82520    0.07540    1.000
    C3       C        0.19600    0.75450    0.10280    1.000
    C4       C        0.33140    0.74330    0.20280    1.000
    C5       C        0.24490    0.80850    0.27780    1.000
    C6       C        0.02700    0.90700    0.25170    1.000
    C7       C        0.94660    0.94240    0.33260    1.000
    C8       C        0.18410    0.01070    0.38510    1.000
    C9       C        0.28510    0.08620    0.33880    1.000
    C10      C        0.51730    0.14510    0.37550    1.000
    C11      C        0.68470    0.12190    0.47320    1.000
    C12      C        0.56670    0.03550    0.52500    1.000
    C13      C        0.34260    0.98850    0.47840    1.000
    C14      C        0.53440    0.67340    0.23100    1.000
    C15      C        0.73700    0.00200    0.62610    1.000
    C16      C        0.59960    0.23140    0.31590    1.000
    C17      C        0.83680    0.84290    0.96520    1.000
    C18      C        0.12170    0.39000    0.85060    1.000
    C19      C        0.01430    0.32520    0.92460    1.000
    C20      C        0.80400    0.25450    0.89720    1.000
    C21      C        0.66860    0.24330    0.79720    1.000
    C22      C        0.75510    0.30850    0.72220    1.000
    C23      C        0.97300    0.40700    0.74830    1.000
    C24      C        0.05340    0.44240    0.66740    1.000
    C25      C        0.81590    0.51070    0.61490    1.000
    C26      C        0.71490    0.58620    0.66120    1.000
    C27      C        0.48270    0.64510    0.62450    1.000
    C28      C        0.31530    0.62190    0.52680    1.000
    C29      C        0.43330    0.53550    0.47500    1.000
    C30      C        0.65740    0.48850    0.52160    1.000
    C31      C        0.46560    0.17340    0.76900    1.000
    C32      C        0.26300    0.50200    0.37390    1.000
    C33      C        0.40040    0.73140    0.68410    1.000
    C34      C        0.16320    0.34290    0.03480    1.000
    O1       O        0.81850    0.28700    0.35510    1.000
    O2       O        0.61050    0.89280    0.94590    1.000
    O3       O        0.67440    0.68310    0.32190    1.000
    O4       O        0.58690    0.59890    0.17770    1.000
    O5       O        0.47550    0.25280    0.22780    1.000
    O6       O        0.62750    0.94900    0.68070    1.000
    O7       O        0.97500    0.81210    0.89130    1.000
    O8       O        0.01500    0.02550    0.64800    1.000
    O9       O        0.18150    0.78700    0.64490    1.000
    O10      O        0.38950    0.39280    0.05410    1.000
    O11      O        0.32560    0.18310    0.67810    1.000
    O12      O        0.41310    0.09890    0.82230    1.000
    O13      O        0.52450    0.75280    0.77220    1.000
    O14      O        0.37250    0.44900    0.31930    1.000
    O15      O        0.02500    0.31210    0.10870    1.000
    O16      O        0.98500    0.52550    0.35200    1.000
