# CIF file generated by openbabel 3.1.0, see https://openbabel.org
data_I
_chemical_name_common 'ic0520162si20051122_054836_clean'
_cell_length_a 13.2433
_cell_length_b 26.3397
_cell_length_c 26.3397
_cell_angle_alpha 120
_cell_angle_beta 90
_cell_angle_gamma 90
_space_group_name_H-M_alt 'P 1'
_space_group_name_Hall 'P 1'
loop_
    _symmetry_equiv_pos_as_xyz
    x,y,z
loop_
    _atom_site_label
    _atom_site_type_symbol
    _atom_site_fract_x
    _atom_site_fract_y
    _atom_site_fract_z
    _atom_site_occupancy
    Cd1      Cd       0.00000    0.84112    0.00000    1.000
    Cd2      Cd       0.75376    0.75104    0.50208    1.000
    Cd3      Cd       0.24880    0.00000    0.24939    1.000
    Cd4      Cd       0.34436    0.33333    0.66666    1.000
    Cd5      Cd       0.75120    0.00000    0.24939    1.000
    Cd6      Cd       0.75376    0.24897    0.75104    1.000
    Cd7      Cd       0.75120    0.00000    0.75061    1.000
    Cd8      Cd       0.24880    0.00000    0.75061    1.000
    Cd9      Cd       0.00000    0.15888    0.00000    1.000
    Cd10     Cd       0.00000    0.00000    0.15888    1.000
    Cd11     Cd       0.50000    0.00000    0.34182    1.000
    Cd12     Cd       0.50000    0.34182    0.34182    1.000
    Cd13     Cd       0.65564    0.33333    0.66666    1.000
    Cd14     Cd       0.50000    0.65818    0.00000    1.000
    Cd15     Cd       0.50000    0.65818    0.65818    1.000
    Cd16     Cd       0.75120    0.75061    0.00000    1.000
    Cd17     Cd       0.24624    0.24897    0.75104    1.000
    Cd18     Cd       0.24624    0.75104    0.50208    1.000
    Cd19     Cd       0.75120    0.24939    0.24939    1.000
    Cd20     Cd       0.75120    0.75061    0.75061    1.000
    Cd21     Cd       0.75376    0.49793    0.24897    1.000
    Cd22     Cd       0.24624    0.24897    0.49793    1.000
    Cd23     Cd       0.00000    0.15888    0.15888    1.000
    Cd24     Cd       0.75376    0.50207    0.75103    1.000
    Cd25     Cd       0.24880    0.24939    0.24939    1.000
    Cd26     Cd       0.24880    0.24939    0.00000    1.000
    Cd27     Cd       0.50000    0.34182    0.00000    1.000
    Cd28     Cd       0.24880    0.75061    0.75061    1.000
    Cd29     Cd       0.34436    0.66667    0.33334    1.000
    Cd30     Cd       0.00000    0.00000    0.84112    1.000
    Cd31     Cd       0.24624    0.49793    0.24897    1.000
    Cd32     Cd       0.65564    0.66667    0.33334    1.000
    Cd33     Cd       0.24880    0.75061    0.00000    1.000
    Cd34     Cd       0.75120    0.24939    0.00000    1.000
    Cd35     Cd       0.24624    0.50207    0.75103    1.000
    Cd36     Cd       0.00000    0.84112    0.84112    1.000
    Cd37     Cd       0.75376    0.24897    0.49793    1.000
    Cd38     Cd       0.24624    0.75104    0.24897    1.000
    Cd39     Cd       0.75376    0.75104    0.24897    1.000
    Cd40     Cd       0.50000    0.00000    0.65818    1.000
    H1       H        0.68040    0.86780    0.13220    1.000
    H2       H        0.68040    0.26440    0.13220    1.000
    H3       H        0.31960    0.13220    0.26440    1.000
    H4       H        0.31960    0.73560    0.86780    1.000
    H5       H        0.00000    0.72755    0.45510    1.000
    H6       H        0.58050    0.67820    0.54360    1.000
    H7       H        0.00000    0.45510    0.72755    1.000
    H8       H        0.50000    0.45390    0.22695    1.000
    H9       H        0.41950    0.67820    0.54360    1.000
    H10      H        0.58050    0.32180    0.45640    1.000
    H11      H        0.68040    0.73560    0.86780    1.000
    H12      H        0.41950    0.54360    0.67820    1.000
    H13      H        0.50000    0.77305    0.54610    1.000
    H14      H        0.00000    0.54490    0.27245    1.000
    H15      H        0.58050    0.86540    0.32180    1.000
    H16      H        0.31960    0.86780    0.73560    1.000
    H17      H        0.50000    0.22695    0.77305    1.000
    H18      H        0.50000    0.77305    0.22695    1.000
    H19      H        0.41950    0.86540    0.32180    1.000
    H20      H        0.41950    0.32180    0.45640    1.000
    H21      H        0.00000    0.27245    0.72755    1.000
    H22      H        0.41950    0.45640    0.13460    1.000
    H23      H        0.50000    0.22695    0.45390    1.000
    H24      H        0.00000    0.72755    0.27245    1.000
    H25      H        0.58050    0.54360    0.67820    1.000
    H26      H        0.58050    0.45640    0.13460    1.000
    H27      H        0.50000    0.54610    0.77305    1.000
    H28      H        0.58050    0.13460    0.67820    1.000
    H29      H        0.31960    0.86780    0.13220    1.000
    H30      H        0.41950    0.67820    0.13460    1.000
    H31      H        0.31960    0.26440    0.13220    1.000
    H32      H        0.41950    0.54360    0.86540    1.000
    H33      H        0.68040    0.13220    0.26440    1.000
    H34      H        0.68040    0.13220    0.86780    1.000
    H35      H        0.58050    0.86540    0.54360    1.000
    H36      H        0.41950    0.86540    0.54360    1.000
    H37      H        0.41950    0.13460    0.45640    1.000
    H38      H        0.58050    0.32180    0.86540    1.000
    H39      H        0.58050    0.54360    0.86540    1.000
    H40      H        0.58050    0.67820    0.13460    1.000
    H41      H        0.58050    0.13460    0.45640    1.000
    H42      H        0.41950    0.32180    0.86540    1.000
    H43      H        0.00000    0.27245    0.54490    1.000
    H44      H        0.41950    0.13460    0.67820    1.000
    H45      H        0.68040    0.86780    0.73560    1.000
    H46      H        0.58050    0.45640    0.32180    1.000
    H47      H        0.41950    0.45640    0.32180    1.000
    H48      H        0.31960    0.13220    0.86780    1.000
    C1       C        0.04910    0.00000    0.32650    1.000
    C2       C        0.62970    0.30410    0.42620    1.000
    C3       C        0.37030    0.30410    0.42620    1.000
    C4       C        0.62970    0.57380    0.69590    1.000
    C5       C        0.37030    0.12210    0.42620    1.000
    C6       C        0.00000    0.74835    0.25165    1.000
    C7       C        0.62970    0.87790    0.57380    1.000
    C8       C        0.84160    0.56210    0.17560    1.000
    C9       C        0.15840    0.17560    0.61350    1.000
    C10      C        0.74240    0.12170    0.24340    1.000
    C11      C        0.50000    0.24775    0.75225    1.000
    C12      C        0.25760    0.12170    0.87830    1.000
    C13      C        0.04910    0.67350    0.67350    1.000
    C14      C        0.95090    0.00000    0.67350    1.000
    C15      C        0.54860    0.17270    0.17270    1.000
    C16      C        0.62970    0.30410    0.87790    1.000
    C17      C        0.15840    0.61350    0.17560    1.000
    C18      C        0.00000    0.50330    0.25165    1.000
    C19      C        0.62970    0.12210    0.69590    1.000
    C20      C        0.37030    0.69590    0.57380    1.000
    C21      C        0.50000    0.75225    0.50450    1.000
    C22      C        0.37030    0.57380    0.69590    1.000
    C23      C        0.25760    0.12170    0.24340    1.000
    C24      C        0.62970    0.87790    0.30410    1.000
    C25      C        0.74240    0.12170    0.87830    1.000
    C26      C        0.62970    0.12210    0.42620    1.000
    C27      C        0.00000    0.49670    0.74835    1.000
    C28      C        0.37030    0.87790    0.57380    1.000
    C29      C        0.00000    0.25165    0.74835    1.000
    C30      C        0.04910    0.00000    0.67350    1.000
    C31      C        0.37030    0.42620    0.30410    1.000
    C32      C        0.84160    0.17560    0.56210    1.000
    C33      C        0.84160    0.61350    0.17560    1.000
    C34      C        0.25760    0.24340    0.12170    1.000
    C35      C        0.15840    0.56210    0.17560    1.000
    C36      C        0.84160    0.43790    0.82440    1.000
    C37      C        0.37030    0.30410    0.87790    1.000
    C38      C        0.37030    0.12210    0.69590    1.000
    C39      C        0.45140    0.17270    0.17270    1.000
    C40      C        0.45140    0.82730    0.00000    1.000
    C41      C        0.54860    0.17270    0.00000    1.000
    C42      C        0.25760    0.87830    0.75660    1.000
    C43      C        0.50000    0.50450    0.75225    1.000
    C44      C        0.25760    0.87830    0.12170    1.000
    C45      C        0.62970    0.57380    0.87790    1.000
    C46      C        0.84160    0.61350    0.43790    1.000
    C47      C        0.50000    0.49550    0.24775    1.000
    C48      C        0.37030    0.87790    0.30410    1.000
    C49      C        0.84160    0.17560    0.61350    1.000
    C50      C        0.15840    0.43790    0.82440    1.000
    C51      C        0.54860    0.82730    0.00000    1.000
    C52      C        0.15840    0.61350    0.43790    1.000
    C53      C        0.37030    0.69590    0.12210    1.000
    C54      C        0.50000    0.75225    0.24775    1.000
    C55      C        0.37030    0.57380    0.87790    1.000
    C56      C        0.95090    0.00000    0.32650    1.000
    C57      C        0.84160    0.82440    0.38650    1.000
    C58      C        0.45140    0.82730    0.82730    1.000
    C59      C        0.95090    0.67350    0.00000    1.000
    C60      C        0.74240    0.87830    0.12170    1.000
    C61      C        0.62970    0.42620    0.12210    1.000
    C62      C        0.15840    0.43790    0.61350    1.000
    C63      C        0.04910    0.32650    0.32650    1.000
    C64      C        0.84160    0.38650    0.82440    1.000
    C65      C        0.15840    0.17560    0.56210    1.000
    C66      C        0.54860    0.00000    0.17270    1.000
    C67      C        0.25760    0.75660    0.87830    1.000
    C68      C        0.15840    0.82440    0.38650    1.000
    C69      C        0.62970    0.42620    0.30410    1.000
    C70      C        0.84160    0.38650    0.56210    1.000
    C71      C        0.54860    0.00000    0.82730    1.000
    C72      C        0.15840    0.38650    0.56210    1.000
    C73      C        0.45140    0.17270    0.00000    1.000
    C74      C        0.00000    0.25165    0.50330    1.000
    C75      C        0.95090    0.67350    0.67350    1.000
    C76      C        0.45140    0.00000    0.17270    1.000
    C77      C        0.62970    0.69590    0.12210    1.000
    C78      C        0.54860    0.82730    0.82730    1.000
    C79      C        0.84160    0.82440    0.43790    1.000
    C80      C        0.00000    0.74835    0.49670    1.000
    C81      C        0.74240    0.87830    0.75660    1.000
    C82      C        0.15840    0.82440    0.43790    1.000
    C83      C        0.95090    0.32650    0.32650    1.000
    C84      C        0.45140    0.00000    0.82730    1.000
    C85      C        0.37030    0.42620    0.12210    1.000
    C86      C        0.04910    0.32650    0.00000    1.000
    C87      C        0.74240    0.75660    0.87830    1.000
    C88      C        0.84160    0.43790    0.61350    1.000
    C89      C        0.74240    0.24340    0.12170    1.000
    C90      C        0.84160    0.56210    0.38650    1.000
    C91      C        0.15840    0.38650    0.82440    1.000
    C92      C        0.95090    0.32650    0.00000    1.000
    C93      C        0.50000    0.24775    0.49550    1.000
    C94      C        0.62970    0.69590    0.57380    1.000
    C95      C        0.15840    0.56210    0.38650    1.000
    C96      C        0.04910    0.67350    0.00000    1.000
    N1       N        0.87240    0.80170    0.87590    1.000
    N2       N        0.04920    0.20715    0.41430    1.000
    N3       N        0.75320    0.62470    0.24940    1.000
    N4       N        0.95080    0.79285    0.58570    1.000
    N5       N        0.21340    0.56970    0.34790    1.000
    N6       N        0.41840    0.22090    0.00000    1.000
    N7       N        0.71050    0.84770    0.27630    1.000
    N8       N        0.24680    0.24940    0.62470    1.000
    N9       N        0.62650    0.07170    0.37570    1.000
    N10      N        0.20830    0.92770    0.77340    1.000
    N11      N        0.87240    0.19830    0.07420    1.000
    N12      N        0.58160    0.00000    0.77910    1.000
    N13      N        0.54960    0.70815    0.29185    1.000
    N14      N        0.79170    0.84570    0.77340    1.000
    N15      N        0.91880    0.53010    0.76505    1.000
    N16      N        0.20830    0.77340    0.84570    1.000
    N17      N        0.12760    0.80170    0.87590    1.000
    N18      N        0.00000    0.74950    0.74950    1.000
    N19      N        0.24510    0.87880    0.25590    1.000
    N20      N        0.21340    0.65210    0.22180    1.000
    N21      N        0.62650    0.30400    0.37570    1.000
    N22      N        0.70640    0.92840    0.27260    1.000
    N23      N        0.78660    0.22180    0.65210    1.000
    N24      N        0.91860    0.27830    0.00000    1.000
    N25      N        0.04920    0.79285    0.58570    1.000
    N26      N        0.20830    0.84570    0.77340    1.000
    N27      N        0.29360    0.65580    0.92840    1.000
    N28      N        0.20830    0.07230    0.84570    1.000
    N29      N        0.20830    0.07230    0.22660    1.000
    N30      N        0.29360    0.34420    0.27260    1.000
    N31      N        0.41760    0.73620    0.47240    1.000
    N32      N        0.00000    0.25050    0.25050    1.000
    N33      N        0.28950    0.42860    0.15230    1.000
    N34      N        0.29360    0.65580    0.72740    1.000
    N35      N        0.58240    0.73620    0.47240    1.000
    N36      N        0.37350    0.69600    0.62430    1.000
    N37      N        0.79170    0.22660    0.07230    1.000
    N38      N        0.75490    0.87880    0.62290    1.000
    N39      N        0.79170    0.22660    0.15430    1.000
    N40      N        0.04920    0.79285    0.20715    1.000
    N41      N        0.24680    0.62470    0.37530    1.000
    N42      N        0.79170    0.84570    0.07230    1.000
    N43      N        0.37350    0.62430    0.92830    1.000
    N44      N        0.75490    0.87880    0.25590    1.000
    N45      N        0.91860    0.27830    0.27830    1.000
    N46      N        0.37350    0.07170    0.37570    1.000
    N47      N        0.45040    0.29185    0.70815    1.000
    N48      N        0.21340    0.22180    0.65210    1.000
    N49      N        0.29360    0.34420    0.07160    1.000
    N50      N        0.12760    0.87590    0.80170    1.000
    N51      N        0.58240    0.26380    0.73620    1.000
    N52      N        0.62650    0.30400    0.92830    1.000
    N53      N        0.91860    0.72170    0.00000    1.000
    N54      N        0.95080    0.41430    0.20715    1.000
    N55      N        0.41840    0.22090    0.22090    1.000
    N56      N        0.95080    0.20715    0.79285    1.000
    N57      N        0.24680    0.37530    0.62470    1.000
    N58      N        0.12760    0.92580    0.12410    1.000
    N59      N        0.37350    0.92830    0.30400    1.000
    N60      N        0.71050    0.27630    0.42860    1.000
    N61      N        0.28950    0.42860    0.27630    1.000
    N62      N        0.87240    0.12410    0.19830    1.000
    N63      N        0.62650    0.92830    0.30400    1.000
    N64      N        0.75490    0.25590    0.87880    1.000
    N65      N        0.37350    0.30400    0.37570    1.000
    N66      N        0.58160    0.00000    0.22090    1.000
    N67      N        0.54960    0.41630    0.70815    1.000
    N68      N        0.70640    0.34420    0.27260    1.000
    N69      N        0.12760    0.87590    0.07420    1.000
    N70      N        0.75490    0.37710    0.12120    1.000
    N71      N        0.20830    0.92770    0.15430    1.000
    N72      N        0.71050    0.27630    0.84770    1.000
    N73      N        0.50000    0.74940    0.74940    1.000
    N74      N        0.78660    0.77820    0.34790    1.000
    N75      N        0.45040    0.41630    0.70815    1.000
    N76      N        0.29360    0.27260    0.34420    1.000
    N77      N        0.79170    0.07230    0.84570    1.000
    N78      N        0.75320    0.62470    0.37530    1.000
    N79      N        0.21340    0.34790    0.77820    1.000
    N80      N        0.87240    0.12410    0.92580    1.000
    N81      N        0.91880    0.76505    0.23495    1.000
    N82      N        0.79170    0.77340    0.84570    1.000
    N83      N        0.28950    0.72370    0.15230    1.000
    N84      N        0.20830    0.22660    0.15430    1.000
    N85      N        0.24680    0.62470    0.24940    1.000
    N86      N        0.54960    0.58370    0.29185    1.000
    N87      N        0.28950    0.84770    0.57140    1.000
    N88      N        0.04920    0.41430    0.20715    1.000
    N89      N        0.78660    0.77820    0.43030    1.000
    N90      N        0.08140    0.27830    0.00000    1.000
    N91      N        0.91860    0.00000    0.27830    1.000
    N92      N        0.28950    0.15230    0.72370    1.000
    N93      N        0.24510    0.37710    0.12120    1.000
    N94      N        0.62650    0.62430    0.69600    1.000
    N95      N        0.37350    0.30400    0.92830    1.000
    N96      N        0.95080    0.20715    0.41430    1.000
    N97      N        0.75490    0.12120    0.74410    1.000
    N98      N        0.71050    0.57140    0.72370    1.000
    N99      N        0.87240    0.07420    0.19830    1.000
    N100     N        0.21340    0.43030    0.77820    1.000
    N101     N        0.21340    0.22180    0.56970    1.000
    N102     N        0.00000    0.00000    0.25050    1.000
    N103     N        0.28950    0.84770    0.27630    1.000
    N104     N        0.28950    0.57140    0.84770    1.000
    N105     N        0.21340    0.34790    0.56970    1.000
    N106     N        0.62650    0.69600    0.62430    1.000
    N107     N        0.62650    0.92830    0.62430    1.000
    N108     N        0.20830    0.22660    0.07230    1.000
    N109     N        0.00000    0.00000    0.74950    1.000
    N110     N        0.50000    0.25060    0.00000    1.000
    N111     N        0.75490    0.74410    0.62290    1.000
    N112     N        0.70640    0.92840    0.65580    1.000
    N113     N        0.50000    0.00000    0.74940    1.000
    N114     N        0.41760    0.26380    0.52760    1.000
    N115     N        0.20830    0.77340    0.92770    1.000
    N116     N        0.12760    0.19830    0.07420    1.000
    N117     N        0.75320    0.37530    0.62470    1.000
    N118     N        0.08120    0.23495    0.76505    1.000
    N119     N        0.78660    0.43030    0.77820    1.000
    N120     N        0.75320    0.75060    0.37530    1.000
    N121     N        0.21340    0.56970    0.22180    1.000
    N122     N        0.24510    0.12120    0.37710    1.000
    N123     N        0.08140    0.00000    0.27830    1.000
    N124     N        0.24510    0.87880    0.62290    1.000
    N125     N        0.00000    0.74950    0.00000    1.000
    N126     N        0.78660    0.56970    0.34790    1.000
    N127     N        0.87240    0.19830    0.12410    1.000
    N128     N        0.58240    0.26380    0.52760    1.000
    N129     N        0.28950    0.57140    0.72370    1.000
    N130     N        0.29360    0.92840    0.65580    1.000
    N131     N        0.95080    0.58570    0.79285    1.000
    N132     N        0.24510    0.74410    0.62290    1.000
    N133     N        0.79170    0.92770    0.15430    1.000
    N134     N        0.37350    0.62430    0.69600    1.000
    N135     N        0.37350    0.07170    0.69600    1.000
    N136     N        0.28950    0.72370    0.57140    1.000
    N137     N        0.24510    0.62290    0.74410    1.000
    N138     N        0.54960    0.29185    0.70815    1.000
    N139     N        0.12760    0.12410    0.92580    1.000
    N140     N        0.12760    0.12410    0.19830    1.000
    N141     N        0.12760    0.80170    0.92580    1.000
    N142     N        0.79170    0.07230    0.22660    1.000
    N143     N        0.70640    0.34420    0.07160    1.000
    N144     N        0.91860    0.00000    0.72170    1.000
    N145     N        0.29360    0.27260    0.92840    1.000
    N146     N        0.71050    0.15230    0.72370    1.000
    N147     N        0.24510    0.62290    0.87880    1.000
    N148     N        0.71050    0.84770    0.57140    1.000
    N149     N        0.87240    0.07420    0.87590    1.000
    N150     N        0.62650    0.62430    0.92830    1.000
    N151     N        0.41760    0.52760    0.26380    1.000
    N152     N        0.78660    0.56970    0.22180    1.000
    N153     N        0.37350    0.69600    0.07170    1.000
    N154     N        0.91880    0.23495    0.46990    1.000
    N155     N        0.41760    0.26380    0.73620    1.000
    N156     N        0.79170    0.92770    0.77340    1.000
    N157     N        0.87240    0.87590    0.07420    1.000
    N158     N        0.08120    0.76505    0.53010    1.000
    N159     N        0.91860    0.72170    0.72170    1.000
    N160     N        0.58240    0.47240    0.73620    1.000
    N161     N        0.28950    0.27630    0.84770    1.000
    N162     N        0.75490    0.62290    0.74410    1.000
    N163     N        0.08120    0.76505    0.23495    1.000
    N164     N        0.45040    0.70815    0.29185    1.000
    N165     N        0.75490    0.37710    0.25590    1.000
    N166     N        0.71050    0.42860    0.27630    1.000
    N167     N        0.87240    0.92580    0.80170    1.000
    N168     N        0.70640    0.27260    0.34420    1.000
    N169     N        0.87240    0.87590    0.80170    1.000
    N170     N        0.54960    0.29185    0.58370    1.000
    N171     N        0.41760    0.73620    0.26380    1.000
    N172     N        0.91880    0.76505    0.53010    1.000
    N173     N        0.87240    0.92580    0.12410    1.000
    N174     N        0.78660    0.65210    0.22180    1.000
    N175     N        0.08120    0.23495    0.46990    1.000
    N176     N        0.21340    0.77820    0.34790    1.000
    N177     N        0.70640    0.27260    0.92840    1.000
    N178     N        0.08140    0.00000    0.72170    1.000
    N179     N        0.28950    0.27630    0.42860    1.000
    N180     N        0.58160    0.22090    0.22090    1.000
    N181     N        0.24510    0.74410    0.12120    1.000
    N182     N        0.37350    0.92830    0.62430    1.000
    N183     N        0.70640    0.65580    0.72740    1.000
    N184     N        0.75320    0.37530    0.75060    1.000
    N185     N        0.58240    0.52760    0.26380    1.000
    N186     N        0.24510    0.25590    0.37710    1.000
    N187     N        0.71050    0.72370    0.15230    1.000
    N188     N        0.70640    0.72740    0.07160    1.000
    N189     N        0.29360    0.92840    0.27260    1.000
    N190     N        0.75320    0.24940    0.62470    1.000
    N191     N        0.62650    0.69600    0.07170    1.000
    N192     N        0.12760    0.92580    0.80170    1.000
    N193     N        0.50000    0.25060    0.25060    1.000
    N194     N        0.71050    0.72370    0.57140    1.000
    N195     N        0.70640    0.07160    0.72740    1.000
    N196     N        0.58160    0.77910    0.00000    1.000
    N197     N        0.78660    0.65210    0.43030    1.000
    N198     N        0.75490    0.12120    0.37710    1.000
    N199     N        0.21340    0.77820    0.43030    1.000
    N200     N        0.41840    0.77910    0.00000    1.000
    N201     N        0.24510    0.12120    0.74410    1.000
    N202     N        0.70640    0.65580    0.92840    1.000
    N203     N        0.71050    0.42860    0.15230    1.000
    N204     N        0.24510    0.25590    0.87880    1.000
    N205     N        0.58240    0.73620    0.26380    1.000
    N206     N        0.37350    0.37570    0.30400    1.000
    N207     N        0.12760    0.19830    0.12410    1.000
    N208     N        0.62650    0.07170    0.69600    1.000
    N209     N        0.37350    0.37570    0.07170    1.000
    N210     N        0.78660    0.34790    0.77820    1.000
    N211     N        0.04920    0.58570    0.79285    1.000
    N212     N        0.29360    0.07160    0.34420    1.000
    N213     N        0.04920    0.20715    0.79285    1.000
    N214     N        0.21340    0.65210    0.43030    1.000
    N215     N        0.29360    0.07160    0.72740    1.000
    N216     N        0.41760    0.47240    0.73620    1.000
    N217     N        0.45040    0.70815    0.41630    1.000
    N218     N        0.21340    0.43030    0.65210    1.000
    N219     N        0.41840    0.00000    0.77910    1.000
    N220     N        0.29360    0.72740    0.07160    1.000
    N221     N        0.24680    0.75060    0.37530    1.000
    N222     N        0.75490    0.74410    0.12120    1.000
    N223     N        0.12760    0.07420    0.87590    1.000
    N224     N        0.08120    0.46990    0.23495    1.000
    N225     N        0.08140    0.72170    0.72170    1.000
    N226     N        0.71050    0.15230    0.42860    1.000
    N227     N        0.78660    0.34790    0.56970    1.000
    N228     N        0.87240    0.80170    0.92580    1.000
    N229     N        0.54960    0.70815    0.41630    1.000
    N230     N        0.08140    0.72170    0.00000    1.000
    N231     N        0.50000    0.00000    0.25060    1.000
    N232     N        0.20830    0.15430    0.22660    1.000
    N233     N        0.91880    0.46990    0.23495    1.000
    N234     N        0.08120    0.53010    0.76505    1.000
    N235     N        0.41840    0.77910    0.77910    1.000
    N236     N        0.78660    0.43030    0.65210    1.000
    N237     N        0.79170    0.15430    0.92770    1.000
    N238     N        0.08140    0.27830    0.27830    1.000
    N239     N        0.62650    0.37570    0.30400    1.000
    N240     N        0.29360    0.72740    0.65580    1.000
    N241     N        0.58160    0.77910    0.77910    1.000
    N242     N        0.78660    0.22180    0.56970    1.000
    N243     N        0.75490    0.62290    0.87880    1.000
    N244     N        0.45040    0.29185    0.58370    1.000
    N245     N        0.00000    0.25050    0.00000    1.000
    N246     N        0.75490    0.25590    0.37710    1.000
    N247     N        0.62650    0.37570    0.07170    1.000
    N248     N        0.71050    0.57140    0.84770    1.000
    N249     N        0.79170    0.77340    0.92770    1.000
    N250     N        0.50000    0.74940    0.00000    1.000
    N251     N        0.24680    0.37530    0.75060    1.000
    N252     N        0.70640    0.07160    0.34420    1.000
    N253     N        0.20830    0.84570    0.07230    1.000
    N254     N        0.20830    0.15430    0.92770    1.000
    N255     N        0.91880    0.23495    0.76505    1.000
    N256     N        0.45040    0.58370    0.29185    1.000
    N257     N        0.12760    0.07420    0.19830    1.000
    N258     N        0.41840    0.00000    0.22090    1.000
    N259     N        0.79170    0.15430    0.22660    1.000
    N260     N        0.24510    0.37710    0.25590    1.000
    N261     N        0.70640    0.72740    0.65580    1.000
    N262     N        0.58160    0.22090    0.00000    1.000
    N263     N        0.28950    0.15230    0.42860    1.000
    N264     N        0.95080    0.79285    0.20715    1.000
