data_functionalizedCrystal
_audit_creation_method	'EQeq! by Chris Wilmer'
_symmetry_space_group_name_H-M	'P1'
_symmetry_Int_Tables_number	1
_symmetry_cell_setting	triclinic
loop_
_symmetry_equiv_pos_as_xyz
  x,y,z
_cell_length_a	16.0231
_cell_length_b	16.0231
_cell_length_c	18.52
_cell_angle_alpha	90
_cell_angle_beta	90
_cell_angle_gamma	120
loop_
_atom_site_label
_atom_site_type_symbol
_atom_site_fract_x
_atom_site_fract_y
_atom_site_fract_z
_atom_site_charge
Mof_Cr	Cr	0.56327	0.56327	0.83333	1.368
Mof_Cr	Cr	4.01678e-18	0.43673	0.16667	1.275
Mof_Cr	Cr	0.43673	0	0.5	1.27
Mof_Co	Co	0.7806	0.50322	0.00233	1.147
Mof_Co	Co	0.72262	0.2194	0.33566	1.143
Mof_Co	Co	0.49678	0.27738	0.669	1.143
Mof_Co	Co	0.27738	0.49678	0.99767	1.139
Mof_Co	Co	0.50322	0.7806	0.66434	1.144
Mof_Co	Co	0.2194	0.72262	0.331	1.143
Mof_H 	H 	0.0232	0.6183	0.7509	-0.01
Mof_H 	H 	0.9837	0.7221	0.8031	0.069
Mof_H 	H 	0.8901	0.8266	0.9381	0.185
Mof_H 	H 	0.8805	0.7908	0.8563	0.176
Mof_H 	H 	0.9811	0.8322	0.8978	0.185
Mof_H 	H 	0.6627	0.6381	0.0804	-0.005
Mof_H 	H 	0.6217	0.4918	0.176	0.092
Mof_H 	H 	0.5804	0.4546	0.0966	0.075
Mof_H 	H 	0.7506	0.3074	0.1019	0.039
Mof_H 	H 	0.6374	0.2349	0.0901	0.053
Mof_H 	H 	0.8022	0.2383	0.9135	0.197
Mof_H 	H 	0.9112	0.3141	0.8922	0.205
Mof_H 	H 	0.8269	0.2837	0.8341	0.202
Mof_H 	H 	0.9583	0.4551	0.7968	0.097
Mof_H 	H 	0.5951	0.9768	0.08423	0.082
Mof_H 	H 	0.7384	0.0163	0.13643	0.026
Mof_H 	H 	0.9365	0.1099	0.27143	0.184
Mof_H 	H 	0.9103	0.1195	0.18963	0.178
Mof_H 	H 	0.8511	0.0189	0.23113	0.174
Mof_H 	H 	0.9754	0.3373	0.41373	0.004
Mof_H 	H 	0.8701	0.3783	0.50933	0.098
Mof_H 	H 	0.8742	0.4196	0.42993	0.081
Mof_H 	H 	0.5568	0.2494	0.43523	0.042
Mof_H 	H 	0.5975	0.3626	0.42343	0.056
Mof_H 	H 	0.4361	0.1978	0.24683	0.194
Mof_H 	H 	0.4029	0.0888	0.22553	0.188
Mof_H 	H 	0.4568	0.1731	0.16743	0.2
Mof_H 	H 	0.4968	0.0417	0.13013	0.063
Mof_H 	H 	0.3817	0.4049	0.41757	0.034
Mof_H 	H 	0.2779	0.2616	0.46977	0.044
Mof_H 	H 	0.1734	0.0635	0.60477	0.159
Mof_H 	H 	0.2092	0.0897	0.52297	0.155
Mof_H 	H 	0.1678	0.1489	0.56447	0.159
Mof_H 	H 	0.3619	0.0246	0.74707	-0.021
Mof_H 	H 	0.5082	0.1299	0.84267	0.083
Mof_H 	H 	0.5454	0.1258	0.76327	0.066
Mof_H 	H 	0.6926	0.4432	0.76857	0.041
Mof_H 	H 	0.7651	0.4025	0.75677	0.055
Mof_H 	H 	0.7617	0.5639	0.58017	0.203
Mof_H 	H 	0.6859	0.5971	0.55887	0.202
Mof_H 	H 	0.7163	0.5432	0.50077	0.208
Mof_H 	H 	0.5449	0.5032	0.46347	0.08
Mof_H 	H 	0.4049	0.3817	0.2491	0.034
Mof_H 	H 	0.2616	0.2779	0.1969	0.044
Mof_H 	H 	0.0635	0.1734	0.0619	0.163
Mof_H 	H 	0.0897	0.2092	0.1437	0.157
Mof_H 	H 	0.1489	0.1678	0.1022	0.161
Mof_H 	H 	0.0246	0.3619	0.9196	-0.022
Mof_H 	H 	0.1299	0.5082	0.824	0.083
Mof_H 	H 	0.1258	0.5454	0.9034	0.065
Mof_H 	H 	0.4432	0.6926	0.8981	0.044
Mof_H 	H 	0.4025	0.7651	0.9099	0.057
Mof_H 	H 	0.5639	0.7617	0.0865	0.204
Mof_H 	H 	0.5971	0.6859	0.1078	0.203
Mof_H 	H 	0.5432	0.7163	0.1659	0.208
Mof_H 	H 	0.5032	0.5449	0.2032	0.08
Mof_H 	H 	0.6183	0.0232	0.91577	-0.012
Mof_H 	H 	0.7221	0.9837	0.86357	0.069
Mof_H 	H 	0.8266	0.8901	0.72857	0.187
Mof_H 	H 	0.7908	0.8805	0.81037	0.177
Mof_H 	H 	0.8322	0.9811	0.76887	0.187
Mof_H 	H 	0.6381	0.6627	0.58627	-0.006
Mof_H 	H 	0.4918	0.6217	0.49067	0.092
Mof_H 	H 	0.4546	0.5804	0.57007	0.073
Mof_H 	H 	0.3074	0.7506	0.56477	0.042
Mof_H 	H 	0.2349	0.6374	0.57657	0.055
Mof_H 	H 	0.2383	0.8022	0.75317	0.198
Mof_H 	H 	0.3141	0.9112	0.77447	0.206
Mof_H 	H 	0.2837	0.8269	0.83257	0.202
Mof_H 	H 	0.4551	0.9583	0.86987	0.097
Mof_H 	H 	0.9768	0.5951	0.58243	0.08
Mof_H 	H 	0.0163	0.7384	0.53023	0.025
Mof_H 	H 	0.1099	0.9365	0.39523	0.184
Mof_H 	H 	0.1195	0.9103	0.47703	0.178
Mof_H 	H 	0.0189	0.8511	0.43553	0.174
Mof_H 	H 	0.3373	0.9754	0.25293	0.004
Mof_H 	H 	0.3783	0.8701	0.15733	0.099
Mof_H 	H 	0.4196	0.8742	0.23673	0.082
Mof_H 	H 	0.2494	0.5568	0.23143	0.042
Mof_H 	H 	0.3626	0.5975	0.24323	0.056
Mof_H 	H 	0.1978	0.4361	0.41983	0.193
Mof_H 	H 	0.0888	0.4029	0.44113	0.188
Mof_H 	H 	0.1731	0.4568	0.49923	0.199
Mof_H 	H 	0.0417	0.4968	0.53653	0.063
Mof_C 	C 	0.6221	0.5057	0.9033	-0.23
Mof_C 	C 	0.4399	0.5072	0.8946	-0.233
Mof_C 	C 	0.6228	0.6881	0.8948	-0.258
Mof_C 	C 	0.982	0.5981	0.7918	0.079
Mof_C 	C 	0.9609	0.6597	0.8231	-0.11
Mof_C 	C 	0.9058	0.6325	0.8848	0.02
Mof_C 	C 	0.881	0.6928	0.9298	0.154
Mof_C 	C 	0.9109	0.7949	0.903	-0.52
Mof_C 	C 	0.8088	0.7053	0.0417	0.011
Mof_C 	C 	0.719	0.6332	0.0747	0.079
Mof_C 	C 	0.6361	0.4725	0.129	-0.133
Mof_C 	C 	0.6467	0.3961	0.1386	0.125
Mof_C 	C 	0.6943	0.2938	0.0716	-0.024
Mof_C 	C 	0.712	0.2805	0.9984	0.026
Mof_C 	C 	0.8294	0.3767	0.9101	0.173
Mof_C 	C 	0.8436	0.2963	0.8853	-0.571
Mof_C 	C 	0.8841	0.4752	0.8779	0.016
Mof_C 	C 	0.9432	0.4994	0.8189	-0.109
Mof_C 	C 	0.8836	0.3779	0.23663	-0.197
Mof_C 	C 	0.0673	0.5601	0.22793	-0.222
Mof_C 	C 	0.0653	0.3772	0.22813	-0.25
Mof_C 	C 	0.6161	0.018	0.12513	-0.079
Mof_C 	C 	0.6988	0.0391	0.15643	-0.021
Mof_C 	C 	0.7267	0.0942	0.21813	-0.019
Mof_C 	C 	0.8118	0.119	0.26313	0.163
Mof_C 	C 	0.884	0.0891	0.23633	-0.521
Mof_C 	C 	0.8965	0.1912	0.37503	0.001
Mof_C 	C 	0.9142	0.281	0.40803	0.079
Mof_C 	C 	0.8364	0.3639	0.46233	-0.138
Mof_C 	C 	0.7494	0.3533	0.47193	0.126
Mof_C 	C 	0.5995	0.3057	0.40493	-0.036
Mof_C 	C 	0.5685	0.288	0.33173	0.036
Mof_C 	C 	0.5473	0.1706	0.24343	0.176
Mof_C 	C 	0.4527	0.1564	0.21863	-0.562
Mof_C 	C 	0.5911	0.1159	0.21123	-0.014
Mof_C 	C 	0.5562	0.0568	0.15223	-0.043
Mof_C 	C 	0.4943	0.1164	0.56997	-0.219
Mof_C 	C 	0.4928	0.9327	0.56127	-0.193
Mof_C 	C 	0.3119	0.9347	0.56147	-0.22
Mof_C 	C 	0.4019	0.3839	0.45847	-0
Mof_C 	C 	0.3403	0.3012	0.48977	-0.068
Mof_C 	C 	0.3675	0.2733	0.55147	0.005
Mof_C 	C 	0.3072	0.1882	0.59647	0.143
Mof_C 	C 	0.2051	0.116	0.56967	-0.484
Mof_C 	C 	0.2947	0.1035	0.70837	-0.019
Mof_C 	C 	0.3668	0.0858	0.74137	0.083
Mof_C 	C 	0.5275	0.1636	0.79567	-0.125
Mof_C 	C 	0.6039	0.2506	0.80527	0.118
Mof_C 	C 	0.7062	0.4005	0.73827	-0.037
Mof_C 	C 	0.7195	0.4315	0.66507	0.037
Mof_C 	C 	0.6233	0.4527	0.57677	0.178
Mof_C 	C 	0.7037	0.5473	0.55197	-0.577
Mof_C 	C 	0.5248	0.4089	0.54457	-0
Mof_C 	C 	0.5006	0.4438	0.48557	-0.076
Mof_C 	C 	0.1164	0.4943	0.0967	-0.218
Mof_C 	C 	0.9327	0.4928	0.1054	-0.194
Mof_C 	C 	0.9347	0.3119	0.1052	-0.221
Mof_C 	C 	0.3839	0.4019	0.2082	-0
Mof_C 	C 	0.3012	0.3403	0.1769	-0.068
Mof_C 	C 	0.2733	0.3675	0.1152	0.005
Mof_C 	C 	0.1882	0.3072	0.0702	0.145
Mof_C 	C 	0.116	0.2051	0.097	-0.487
Mof_C 	C 	0.1035	0.2947	0.9583	-0.026
Mof_C 	C 	0.0858	0.3668	0.9253	0.085
Mof_C 	C 	0.1636	0.5275	0.871	-0.124
Mof_C 	C 	0.2506	0.6039	0.8614	0.118
Mof_C 	C 	0.4005	0.7062	0.9284	-0.048
Mof_C 	C 	0.4315	0.7195	0.0016	0.047
Mof_C 	C 	0.4527	0.6233	0.0899	0.18
Mof_C 	C 	0.5473	0.7037	0.1147	-0.579
Mof_C 	C 	0.4089	0.5248	0.1221	0
Mof_C 	C 	0.4438	0.5006	0.1811	-0.076
Mof_C 	C 	0.5057	0.6221	0.76337	-0.229
Mof_C 	C 	0.5072	0.4399	0.77207	-0.231
Mof_C 	C 	0.6881	0.6228	0.77187	-0.257
Mof_C 	C 	0.5981	0.982	0.87487	0.081
Mof_C 	C 	0.6597	0.9609	0.84357	-0.112
Mof_C 	C 	0.6325	0.9058	0.78187	0.021
Mof_C 	C 	0.6928	0.881	0.73687	0.155
Mof_C 	C 	0.7949	0.9109	0.76367	-0.522
Mof_C 	C 	0.7053	0.8088	0.62497	0.004
Mof_C 	C 	0.6332	0.719	0.59197	0.08
Mof_C 	C 	0.4725	0.6361	0.53767	-0.132
Mof_C 	C 	0.3961	0.6467	0.52807	0.124
Mof_C 	C 	0.2938	0.6943	0.59507	-0.036
Mof_C 	C 	0.2805	0.712	0.66827	0.035
Mof_C 	C 	0.3767	0.8294	0.75657	0.174
Mof_C 	C 	0.2963	0.8436	0.78137	-0.571
Mof_C 	C 	0.4752	0.8841	0.78877	0.017
Mof_C 	C 	0.4994	0.9432	0.84777	-0.11
Mof_C 	C 	0.3779	0.8836	0.43003	-0.195
Mof_C 	C 	0.5601	0.0673	0.43873	-0.222
Mof_C 	C 	0.3772	0.0653	0.43853	-0.25
Mof_C 	C 	0.018	0.6161	0.54153	-0.079
Mof_C 	C 	0.0391	0.6988	0.51023	-0.021
Mof_C 	C 	0.0942	0.7267	0.44853	-0.019
Mof_C 	C 	0.119	0.8118	0.40353	0.163
Mof_C 	C 	0.0891	0.884	0.43033	-0.521
Mof_C 	C 	0.1912	0.8965	0.29163	0.002
Mof_C 	C 	0.281	0.9142	0.25863	0.079
Mof_C 	C 	0.3639	0.8364	0.20433	-0.138
Mof_C 	C 	0.3533	0.7494	0.19473	0.127
Mof_C 	C 	0.3057	0.5995	0.26173	-0.036
Mof_C 	C 	0.288	0.5685	0.33493	0.036
Mof_C 	C 	0.1706	0.5473	0.42323	0.176
Mof_C 	C 	0.1564	0.4527	0.44803	-0.561
Mof_C 	C 	0.1159	0.5911	0.45543	-0.014
Mof_C 	C 	0.0568	0.5562	0.51443	-0.044
Mof_N 	N 	0.6624	0.4828	0.9418	-0.16
Mof_N 	N 	0.3721	0.4844	0.9283	-0.158
Mof_N 	N 	0.6547	0.7561	0.9296	-0.048
Mof_N 	N 	0.8677	0.5412	0.9102	-0.221
Mof_N 	N 	0.8369	0.6557	0.9877	-0.239
Mof_N 	N 	0.7738	0.3715	0.9623	-0.238
Mof_N 	N 	0.8204	0.3376	0.27513	-0.164
Mof_N 	N 	0.1123	0.6279	0.26163	-0.161
Mof_N 	N 	0.1014	0.3453	0.26293	-0.056
Mof_N 	N 	0.6735	0.1323	0.24353	-0.209
Mof_N 	N 	0.8188	0.1631	0.32103	-0.238
Mof_N 	N 	0.5977	0.2262	0.29563	-0.239
Mof_N 	N 	0.5172	0.1796	0.60847	-0.163
Mof_N 	N 	0.5156	0.8877	0.59497	-0.162
Mof_N 	N 	0.2439	0.8986	0.59627	-0.053
Mof_N 	N 	0.4588	0.3265	0.57687	-0.215
Mof_N 	N 	0.3443	0.1812	0.65437	-0.233
Mof_N 	N 	0.6285	0.4023	0.62897	-0.239
Mof_N 	N 	0.1796	0.5172	0.0582	-0.16
Mof_N 	N 	0.8877	0.5156	0.0717	-0.16
Mof_N 	N 	0.8986	0.2439	0.0704	-0.051
Mof_N 	N 	0.3265	0.4588	0.0898	-0.214
Mof_N 	N 	0.1812	0.3443	0.0123	-0.228
Mof_N 	N 	0.4023	0.6285	0.0377	-0.238
Mof_N 	N 	0.4828	0.6624	0.72487	-0.158
Mof_N 	N 	0.4844	0.3721	0.73837	-0.156
Mof_N 	N 	0.7561	0.6547	0.73707	-0.046
Mof_N 	N 	0.5412	0.8677	0.75647	-0.22
Mof_N 	N 	0.6557	0.8369	0.67897	-0.235
Mof_N 	N 	0.3715	0.7738	0.70437	-0.238
Mof_N 	N 	0.3376	0.8204	0.39153	-0.164
Mof_N 	N 	0.6279	0.1123	0.40503	-0.161
Mof_N 	N 	0.3453	0.1014	0.40373	-0.057
Mof_N 	N 	0.1323	0.6735	0.42313	-0.209
Mof_N 	N 	0.1631	0.8188	0.34563	-0.238
Mof_N 	N 	0.2262	0.5977	0.37103	-0.238
Mof_O 	O 	0.7288	0.5608	0.0954	-0.269
Mof_O 	O 	0.6765	0.3774	0.0738	-0.297
Mof_O 	O 	0.832	0.2712	0.42873	-0.27
Mof_O 	O 	0.7009	0.3235	0.40713	-0.297
Mof_O 	O 	0.4392	0.168	0.76207	-0.278
Mof_O 	O 	0.6226	0.2991	0.74047	-0.297
Mof_O 	O 	0.168	0.4392	0.9046	-0.279
Mof_O 	O 	0.2991	0.6226	0.9262	-0.297
Mof_O 	O 	0.5608	0.7288	0.57127	-0.27
Mof_O 	O 	0.3774	0.6765	0.59287	-0.297
Mof_O 	O 	0.2712	0.832	0.23793	-0.27
Mof_O 	O 	0.3235	0.7009	0.25953	-0.297
Mof_Cl	Cl	0.3901	0	-0	-0.251
Mof_O 	O 	0.3326	0.9914	0.9374	-0.031
Mof_O 	O 	0.478	0.083	0.9882	-0.054
Mof_O 	O 	0.3412	0.0086	0.0626	-0.056
Mof_O 	O 	0.395	0.917	0.0118	-0.024
Mof_Cl	Cl	0.6099	0.6099	0.33333	-0.219
Mof_O 	O 	0.6588	0.6674	0.27073	-0.045
Mof_O 	O 	0.605	0.522	0.32153	-0.046
Mof_O 	O 	0.6674	0.6588	0.39593	-0.045
Mof_O 	O 	0.522	0.605	0.34513	-0.046
Mof_Cl	Cl	-1.15401e-17	0.3901	0.66667	-0.266
Mof_O 	O 	0.0086	0.3412	0.60407	-0.056
Mof_O 	O 	0.917	0.395	0.65487	-0.024
Mof_O 	O 	0.9914	0.3326	0.72927	-0.025
Mof_O 	O 	0.083	0.478	0.67847	-0.045
_end
