# CIF file generated by openbabel 3.1.0, see https://openbabel.org
data_I
_chemical_name_common 'LUNBIF_clean'
_cell_length_a 11.0355
_cell_length_b 15.693
_cell_length_c 16.914
_cell_angle_alpha 90
_cell_angle_beta 90
_cell_angle_gamma 90
_space_group_name_H-M_alt 'P 1'
_space_group_name_Hall 'P 1'
loop_
    _symmetry_equiv_pos_as_xyz
    x,y,z
loop_
    _atom_site_label
    _atom_site_type_symbol
    _atom_site_fract_x
    _atom_site_fract_y
    _atom_site_fract_z
    _atom_site_occupancy
    Zn1      Zn       0.50000    0.83540    0.28230    1.000
    Zn2      Zn       0.50000    0.16460    0.71770    1.000
    Zn3      Zn       0.00000    0.66460    0.78230    1.000
    Zn4      Zn       0.00000    0.33540    0.21770    1.000
    W1       W        0.62122    0.44993    0.06359    1.000
    W2       W        0.62122    0.55007    0.93641    1.000
    W3       W        0.87878    0.05007    0.56359    1.000
    W4       W        0.87878    0.94993    0.43641    1.000
    W5       W        0.37878    0.55007    0.93641    1.000
    W6       W        0.37878    0.44993    0.06359    1.000
    W7       W        0.12122    0.94993    0.43641    1.000
    W8       W        0.12122    0.05007    0.56359    1.000
    W9       W        0.50000    0.59732    0.06608    1.000
    W10      W        0.50000    0.40268    0.93392    1.000
    W11      W        0.00000    0.90268    0.56608    1.000
    W12      W        0.00000    0.09732    0.43392    1.000
    C1       C        0.76900    0.39730    0.13160    1.000
    C2       C        0.76900    0.60270    0.86840    1.000
    C3       C        0.73100    0.10270    0.63160    1.000
    C4       C        0.73100    0.89730    0.36840    1.000
    C5       C        0.23100    0.60270    0.86840    1.000
    C6       C        0.23100    0.39730    0.13160    1.000
    C7       C        0.26900    0.89730    0.36840    1.000
    C8       C        0.26900    0.10270    0.63160    1.000
    C9       C        0.50000    0.70000    0.14000    1.000
    C10      C        0.50000    0.30000    0.86000    1.000
    C11      C        0.00000    0.80000    0.64000    1.000
    C12      C        0.00000    0.20000    0.36000    1.000
    S1       S        0.72170    0.59050    0.06120    1.000
    S2       S        0.72170    0.40950    0.93880    1.000
    S3       S        0.77830    0.90950    0.56120    1.000
    S4       S        0.77830    0.09050    0.43880    1.000
    S5       S        0.27830    0.40950    0.93880    1.000
    S6       S        0.27830    0.59050    0.06120    1.000
    S7       S        0.22170    0.09050    0.43880    1.000
    S8       S        0.22170    0.90950    0.56120    1.000
    S9       S        0.50000    0.68100    0.94290    1.000
    S10      S        0.50000    0.49730    0.17690    1.000
    S11      S        0.50000    0.31900    0.05710    1.000
    S12      S        0.50000    0.50270    0.82310    1.000
    S13      S        0.00000    0.81900    0.44290    1.000
    S14      S        0.00000    0.00270    0.67690    1.000
    S15      S        0.00000    0.18100    0.55710    1.000
    S16      S        0.00000    0.99730    0.32310    1.000
    N1       N        0.84620    0.37210    0.17170    1.000
    N2       N        0.84620    0.62790    0.82830    1.000
    N3       N        0.65380    0.12790    0.67170    1.000
    N4       N        0.65380    0.87210    0.32830    1.000
    N5       N        0.15380    0.62790    0.82830    1.000
    N6       N        0.15380    0.37210    0.17170    1.000
    N7       N        0.34620    0.87210    0.32830    1.000
    N8       N        0.34620    0.12790    0.67170    1.000
    N9       N        0.50000    0.75800    0.19200    1.000
    N10      N        0.50000    0.24200    0.80800    1.000
    N11      N        0.00000    0.74200    0.69200    1.000
    N12      N        0.00000    0.25800    0.30800    1.000
