# CIF file generated by openbabel 3.1.0, see https://openbabel.org
data_I
_chemical_name_common 'image0'
_cell_length_a 8.7
_cell_length_b 18.146
_cell_length_c 9.087
_cell_angle_alpha 90
_cell_angle_beta 107.28
_cell_angle_gamma 90
_space_group_name_H-M_alt 'P 1'
_space_group_name_Hall 'P 1'
loop_
    _symmetry_equiv_pos_as_xyz
    x,y,z
loop_
    _atom_site_label
    _atom_site_type_symbol
    _atom_site_fract_x
    _atom_site_fract_y
    _atom_site_fract_z
    _atom_site_occupancy
    Ga1      Ga       0.08180    0.29520    0.29110    1.000
    Ga2      Ga       0.13640    0.10790    0.16100    1.000
    Ga3      Ga       0.52910    0.32090    0.19660    1.000
    P1       P        0.35020    0.42680    0.35960    1.000
    P2       P        0.81480    0.29300    0.48200    1.000
    P3       P        0.26700    0.16940    0.49650    1.000
    O1       O        0.03950    0.20500    0.18000    1.000
    O2       O        0.19830    0.38120    0.30190    1.000
    O3       O        0.26060    0.25000    0.44250    1.000
    O4       O        0.96440    0.30600    0.43230    1.000
    O5       O        0.42220    0.15610    0.62420    1.000
    O6       O        0.47120    0.40450    0.27320    1.000
    O7       O        0.84730    0.23200    0.60480    1.000
    O8       O        0.11970    0.15170    0.55000    1.000
    O9       O        0.67210    0.26650    0.34600    1.000
    O10      O        0.26270    0.11510    0.36640    1.000
    O11      O        0.42860    0.41440    0.53070    1.000
    O12      O        0.30150    0.50640    0.32350    1.000
    O13      O        0.77160    0.36480    0.54670    1.000
    H1       H        0.96360    0.21310    0.09630    1.000
    Ga4      Ga       0.41820    0.79520    0.20890    1.000
    Ga5      Ga       0.36360    0.60790    0.33900    1.000
    Ga6      Ga       0.97090    0.82090    0.30340    1.000
    P4       P        0.14980    0.92680    0.14040    1.000
    P5       P        0.68520    0.79300    0.01800    1.000
    P6       P        0.23300    0.66940    0.00350    1.000
    O14      O        0.46050    0.70500    0.32000    1.000
    O15      O        0.30170    0.88120    0.19810    1.000
    O16      O        0.23940    0.75000    0.05750    1.000
    O17      O        0.53560    0.80600    0.06770    1.000
    O18      O        0.07780    0.65610    0.87580    1.000
    O19      O        0.02880    0.90450    0.22680    1.000
    O20      O        0.65270    0.73200    0.89520    1.000
    O21      O        0.38030    0.65170    0.95000    1.000
    O22      O        0.82790    0.76650    0.15400    1.000
    O23      O        0.23730    0.61510    0.13360    1.000
    O24      O        0.07140    0.91440    0.96930    1.000
    O25      O        0.19850    0.00640    0.17650    1.000
    O26      O        0.72840    0.86480    0.95330    1.000
    H2       H        0.53640    0.71310    0.40370    1.000
    Ga7      Ga       0.91820    0.70480    0.70890    1.000
    Ga8      Ga       0.86360    0.89210    0.83900    1.000
    Ga9      Ga       0.47090    0.67910    0.80340    1.000
    P7       P        0.64980    0.57320    0.64040    1.000
    P8       P        0.18520    0.70700    0.51800    1.000
    P9       P        0.73300    0.83060    0.50350    1.000
    O27      O        0.96050    0.79500    0.82000    1.000
    O28      O        0.80170    0.61880    0.69810    1.000
    O29      O        0.73940    0.75000    0.55750    1.000
    O30      O        0.03560    0.69400    0.56770    1.000
    O31      O        0.57780    0.84390    0.37580    1.000
    O32      O        0.52880    0.59550    0.72680    1.000
    O33      O        0.15270    0.76800    0.39520    1.000
    O34      O        0.88030    0.84830    0.45000    1.000
    O35      O        0.32790    0.73350    0.65400    1.000
    O36      O        0.73730    0.88490    0.63360    1.000
    O37      O        0.57140    0.58560    0.46930    1.000
    O38      O        0.69850    0.49360    0.67650    1.000
    O39      O        0.22840    0.63520    0.45330    1.000
    H3       H        0.03640    0.78690    0.90370    1.000
    Ga10     Ga       0.58180    0.20480    0.79110    1.000
    Ga11     Ga       0.63640    0.39210    0.66100    1.000
    Ga12     Ga       0.02910    0.17910    0.69660    1.000
    P10      P        0.85020    0.07320    0.85960    1.000
    P11      P        0.31480    0.20700    0.98200    1.000
    P12      P        0.76700    0.33060    0.99650    1.000
    O40      O        0.53950    0.29500    0.68000    1.000
    O41      O        0.69830    0.11880    0.80190    1.000
    O42      O        0.76060    0.25000    0.94250    1.000
    O43      O        0.46440    0.19400    0.93230    1.000
    O44      O        0.92220    0.34390    0.12420    1.000
    O45      O        0.97120    0.09550    0.77320    1.000
    O46      O        0.34730    0.26800    0.10480    1.000
    O47      O        0.61970    0.34830    0.05000    1.000
    O48      O        0.17210    0.23350    0.84600    1.000
    O49      O        0.76270    0.38490    0.86640    1.000
    O50      O        0.92860    0.08560    0.03070    1.000
    O51      O        0.80150    0.99360    0.82350    1.000
    O52      O        0.27160    0.13520    0.04670    1.000
    H4       H        0.46360    0.28690    0.59630    1.000
