# CIF file generated by openbabel 3.1.0, see https://openbabel.org
data_I
_chemical_name_common 'UJOWEW_clean'
_cell_length_a 12.5477
_cell_length_b 15.3893
_cell_length_c 15.3893
_cell_angle_alpha 80.433
_cell_angle_beta 65.941
_cell_angle_gamma 65.941
_space_group_name_H-M_alt 'P 1'
_space_group_name_Hall 'P 1'
loop_
    _symmetry_equiv_pos_as_xyz
    x,y,z
loop_
    _atom_site_label
    _atom_site_type_symbol
    _atom_site_fract_x
    _atom_site_fract_y
    _atom_site_fract_z
    _atom_site_occupancy
    Cu1      Cu       0.50000    0.00000    0.00000    1.000
    Cu2      Cu       0.00000    0.50000    0.50000    1.000
    Cu3      Cu       0.50000    0.00000    0.50000    1.000
    Cu4      Cu       0.50000    0.50000    0.00000    1.000
    H1       H        0.56650    0.04640    0.78680    1.000
    H2       H        0.32140    0.20760    0.01240    1.000
    H3       H        0.27380    0.33850    0.91610    1.000
    H4       H        0.37120    0.32230    0.75230    1.000
    H5       H        0.52070    0.17220    0.68700    1.000
    H6       H        0.89970    0.45360    0.71320    1.000
    H7       H        0.04140    0.29240    0.48760    1.000
    H8       H        0.02840    0.16150    0.58390    1.000
    H9       H        0.94580    0.17770    0.74770    1.000
    H10      H        0.87990    0.32780    0.81300    1.000
    H11      H        0.35330    0.21320    0.54640    1.000
    H12      H        0.33380    0.98760    0.70760    1.000
    H13      H        0.18990    0.08390    0.83850    1.000
    H14      H        0.12350    0.24770    0.82230    1.000
    H15      H        0.20770    0.31300    0.67220    1.000
    H16      H        0.61290    0.28680    0.95360    1.000
    H17      H        0.52900    0.51240    0.79240    1.000
    H18      H        0.61230    0.41610    0.66150    1.000
    H19      H        0.69350    0.25230    0.67770    1.000
    H20      H        0.69290    0.18700    0.82780    1.000
    H21      H        0.43350    0.95360    0.21320    1.000
    H22      H        0.67860    0.79240    0.98760    1.000
    H23      H        0.72620    0.66150    0.08390    1.000
    H24      H        0.62880    0.67770    0.24770    1.000
    H25      H        0.47930    0.82780    0.31300    1.000
    H26      H        0.10030    0.54640    0.28680    1.000
    H27      H        0.95860    0.70760    0.51240    1.000
    H28      H        0.97160    0.83850    0.41610    1.000
    H29      H        0.05420    0.82230    0.25230    1.000
    H30      H        0.12010    0.67220    0.18700    1.000
    H31      H        0.64670    0.78680    0.45360    1.000
    H32      H        0.66620    0.01240    0.29240    1.000
    H33      H        0.81010    0.91610    0.16150    1.000
    H34      H        0.87650    0.75230    0.17770    1.000
    H35      H        0.79230    0.68700    0.32780    1.000
    H36      H        0.38710    0.71320    0.04640    1.000
    H37      H        0.47100    0.48760    0.20760    1.000
    H38      H        0.38770    0.58390    0.33850    1.000
    H39      H        0.30650    0.74770    0.32230    1.000
    H40      H        0.30710    0.81300    0.17220    1.000
    W1       W        0.62500    0.75000    0.75000    1.000
    W2       W        0.37500    0.25000    0.25000    1.000
    C1       C        0.56760    0.85550    0.85010    1.000
    C2       C        0.50570    0.10640    0.81400    1.000
    C3       C        0.76200    0.69000    0.81800    1.000
    C4       C        0.36350    0.20030    0.94530    1.000
    C5       C        0.33390    0.27860    0.88820    1.000
    C6       C        0.39100    0.26930    0.79250    1.000
    C7       C        0.47930    0.18070    0.75410    1.000
    C8       C        0.77320    0.64450    0.64990    1.000
    C9       C        0.92610    0.39360    0.68600    1.000
    C10      C        0.77000    0.81000    0.68200    1.000
    C11      C        0.00910    0.29970    0.55470    1.000
    C12      C        0.00070    0.22140    0.61180    1.000
    C13      C        0.95280    0.23070    0.70750    1.000
    C14      C        0.91410    0.31930    0.74590    1.000
    C15      C        0.41770    0.14990    0.35550    1.000
    C16      C        0.31970    0.18600    0.60640    1.000
    C17      C        0.58000    0.18200    0.19000    1.000
    C18      C        0.30880    0.05470    0.70030    1.000
    C19      C        0.22210    0.11180    0.77860    1.000
    C20      C        0.18350    0.20750    0.76930    1.000
    C21      C        0.23340    0.24590    0.68070    1.000
    C22      C        0.42310    0.35010    0.14450    1.000
    C23      C        0.61210    0.31400    0.89360    1.000
    C24      C        0.45200    0.31800    0.31000    1.000
    C25      C        0.56380    0.44530    0.79970    1.000
    C26      C        0.61250    0.38820    0.72140    1.000
    C27      C        0.66030    0.29250    0.73070    1.000
    C28      C        0.66000    0.25410    0.81930    1.000
    C29      C        0.43240    0.14450    0.14990    1.000
    C30      C        0.49430    0.89360    0.18600    1.000
    C31      C        0.23800    0.31000    0.18200    1.000
    C32      C        0.63650    0.79970    0.05470    1.000
    C33      C        0.66610    0.72140    0.11180    1.000
    C34      C        0.60900    0.73070    0.20750    1.000
    C35      C        0.52070    0.81930    0.24590    1.000
    C36      C        0.22680    0.35550    0.35010    1.000
    C37      C        0.07390    0.60640    0.31400    1.000
    C38      C        0.23000    0.19000    0.31800    1.000
    C39      C        0.99090    0.70030    0.44530    1.000
    C40      C        0.99930    0.77860    0.38820    1.000
    C41      C        0.04720    0.76930    0.29250    1.000
    C42      C        0.08590    0.68070    0.25410    1.000
    C43      C        0.58230    0.85010    0.64450    1.000
    C44      C        0.68030    0.81400    0.39360    1.000
    C45      C        0.42000    0.81800    0.81000    1.000
    C46      C        0.69120    0.94530    0.29970    1.000
    C47      C        0.77790    0.88820    0.22140    1.000
    C48      C        0.81650    0.79250    0.23070    1.000
    C49      C        0.76660    0.75410    0.31930    1.000
    C50      C        0.57690    0.64990    0.85550    1.000
    C51      C        0.38790    0.68600    0.10640    1.000
    C52      C        0.54800    0.68200    0.69000    1.000
    C53      C        0.43620    0.55470    0.20030    1.000
    C54      C        0.38750    0.61180    0.27860    1.000
    C55      C        0.33970    0.70750    0.26930    1.000
    C56      C        0.34000    0.74590    0.18070    1.000
    N1       N        0.44990    0.11350    0.90970    1.000
    N2       N        0.53790    0.91110    0.90550    1.000
    N3       N        0.83410    0.66050    0.85530    1.000
    N4       N        0.97310    0.38650    0.59030    1.000
    N5       N        0.85450    0.58890    0.59450    1.000
    N6       N        0.84990    0.83950    0.64470    1.000
    N7       N        0.35960    0.09030    0.61350    1.000
    N8       N        0.44340    0.09450    0.41110    1.000
    N9       N        0.68940    0.14470    0.16050    1.000
    N10      N        0.56340    0.40970    0.88650    1.000
    N11      N        0.44900    0.40550    0.08890    1.000
    N12      N        0.49460    0.35530    0.33950    1.000
    N13      N        0.55010    0.88650    0.09030    1.000
    N14      N        0.46210    0.08890    0.09450    1.000
    N15      N        0.16590    0.33950    0.14470    1.000
    N16      N        0.02690    0.61350    0.40970    1.000
    N17      N        0.14550    0.41110    0.40550    1.000
    N18      N        0.15010    0.16050    0.35530    1.000
    N19      N        0.64040    0.90970    0.38650    1.000
    N20      N        0.55660    0.90550    0.58890    1.000
    N21      N        0.31060    0.85530    0.83950    1.000
    N22      N        0.43660    0.59030    0.11350    1.000
    N23      N        0.55100    0.59450    0.91110    1.000
    N24      N        0.50540    0.64470    0.66050    1.000
