# CIF file generated by openbabel 3.1.0, see https://openbabel.org
data_I
_chemical_name_common 'NERVEL_clean'
_cell_length_a 10.5407
_cell_length_b 11.8266
_cell_length_c 14.1122
_cell_angle_alpha 106.878
_cell_angle_beta 102.411
_cell_angle_gamma 111.011
_space_group_name_H-M_alt 'P 1'
_space_group_name_Hall 'P 1'
loop_
    _symmetry_equiv_pos_as_xyz
    x,y,z
loop_
    _atom_site_label
    _atom_site_type_symbol
    _atom_site_fract_x
    _atom_site_fract_y
    _atom_site_fract_z
    _atom_site_occupancy
    Co1      Co       0.80670    0.50859    0.78733    1.000
    Co2      Co       0.54880    0.76918    0.30993    1.000
    Co3      Co       0.19330    0.49141    0.21267    1.000
    Co4      Co       0.45120    0.23082    0.69007    1.000
    H1       H        0.87800    0.82210    0.38570    1.000
    H2       H        0.05460    0.80620    0.31950    1.000
    H3       H        0.00250    0.72930    0.13770    1.000
    H4       H        0.59340    0.66730    0.10080    1.000
    H5       H        0.73260    0.99400    0.25010    1.000
    H6       H        0.84640    0.22040    0.31310    1.000
    H7       H        0.83350    0.34630    0.46680    1.000
    H8       H        0.61540    0.01200    0.49470    1.000
    H9       H        0.97620    0.81000    0.86420    1.000
    H10      H        0.00100    0.97760    0.80750    1.000
    H11      H        0.86020    0.92790    0.63650    1.000
    H12      H        0.69340    0.54630    0.58690    1.000
    H13      H        0.07450    0.54230    0.70900    1.000
    H14      H        0.31760    0.60540    0.77770    1.000
    H15      H        0.43270    0.67980    0.95990    1.000
    H16      H        0.04540    0.60400    0.98790    1.000
    H17      H        0.58140    0.48140    0.78840    1.000
    H18      H        0.52650    0.44830    0.69000    1.000
    H19      H        0.12200    0.17790    0.61430    1.000
    H20      H        0.94540    0.19380    0.68050    1.000
    H21      H        0.99750    0.27070    0.86230    1.000
    H22      H        0.40660    0.33270    0.89920    1.000
    H23      H        0.26740    0.00600    0.74990    1.000
    H24      H        0.15360    0.77960    0.68690    1.000
    H25      H        0.16650    0.65370    0.53320    1.000
    H26      H        0.38460    0.98800    0.50530    1.000
    H27      H        0.02380    0.19000    0.13580    1.000
    H28      H        0.99900    0.02240    0.19250    1.000
    H29      H        0.13980    0.07210    0.36350    1.000
    H30      H        0.30660    0.45370    0.41310    1.000
    H31      H        0.92550    0.45770    0.29100    1.000
    H32      H        0.68240    0.39460    0.22230    1.000
    H33      H        0.56730    0.32020    0.04010    1.000
    H34      H        0.95460    0.39600    0.01210    1.000
    H35      H        0.41860    0.51860    0.21160    1.000
    H36      H        0.47350    0.55170    0.31000    1.000
    C1       C        0.85460    0.78740    0.31260    1.000
    C2       C        0.96200    0.77970    0.27340    1.000
    C3       C        0.93080    0.73260    0.16550    1.000
    C4       C        0.79060    0.69040    0.09940    1.000
    C5       C        0.68840    0.69810    0.14540    1.000
    C6       C        0.74210    0.63380    0.98010    1.000
    C7       C        0.73100    0.04370    0.31400    1.000
    C8       C        0.79730    0.17960    0.35050    1.000
    C9       C        0.79070    0.25450    0.44210    1.000
    C10      C        0.71950    0.19150    0.49680    1.000
    C11      C        0.66060    0.05490    0.45670    1.000
    C12      C        0.69890    0.26580    0.59410    1.000
    C13      C        0.92160    0.78910    0.79490    1.000
    C14      C        0.93620    0.89050    0.76170    1.000
    C15      C        0.85380    0.86100    0.66000    1.000
    C16      C        0.76140    0.73010    0.59350    1.000
    C17      C        0.75480    0.63440    0.63210    1.000
    C18      C        0.66640    0.69040    0.48090    1.000
    C19      C        0.11860    0.56970    0.78160    1.000
    C20      C        0.26450    0.60800    0.82240    1.000
    C21      C        0.33300    0.65090    0.93080    1.000
    C22      C        0.24950    0.64950    0.99430    1.000
    C23      C        0.10220    0.60710    0.94570    1.000
    C24      C        0.30650    0.68180    0.11090    1.000
    C25      C        0.14540    0.21260    0.68740    1.000
    C26      C        0.03800    0.22030    0.72660    1.000
    C27      C        0.06920    0.26740    0.83450    1.000
    C28      C        0.20940    0.30960    0.90060    1.000
    C29      C        0.31160    0.30190    0.85460    1.000
    C30      C        0.25790    0.36620    0.01990    1.000
    C31      C        0.26900    0.95630    0.68600    1.000
    C32      C        0.20270    0.82040    0.64950    1.000
    C33      C        0.20930    0.74550    0.55790    1.000
    C34      C        0.28050    0.80850    0.50320    1.000
    C35      C        0.33940    0.94510    0.54330    1.000
    C36      C        0.30110    0.73420    0.40590    1.000
    C37      C        0.07840    0.21090    0.20510    1.000
    C38      C        0.06380    0.10950    0.23830    1.000
    C39      C        0.14620    0.13900    0.34000    1.000
    C40      C        0.23860    0.26990    0.40650    1.000
    C41      C        0.24520    0.36560    0.36790    1.000
    C42      C        0.33360    0.30960    0.51910    1.000
    C43      C        0.88140    0.43030    0.21840    1.000
    C44      C        0.73550    0.39200    0.17760    1.000
    C45      C        0.66700    0.34910    0.06920    1.000
    C46      C        0.75050    0.35050    0.00570    1.000
    C47      C        0.89780    0.39290    0.05430    1.000
    C48      C        0.69350    0.31820    0.88910    1.000
    N1       N        0.71860    0.74710    0.25007    1.000
    N2       N        0.66480    0.98120    0.36687    1.000
    N3       N        0.83250    0.66240    0.73170    1.000
    N4       N        0.03660    0.57030    0.84250    1.000
    N5       N        0.28140    0.25290    0.74993    1.000
    N6       N        0.33520    0.01880    0.63313    1.000
    N7       N        0.16750    0.33760    0.26830    1.000
    N8       N        0.96340    0.42970    0.15750    1.000
    O1       O        0.83700    0.63530    0.93974    1.000
    O2       O        0.60960    0.58670    0.92987    1.000
    O3       O        0.78270    0.38760    0.64073    1.000
    O4       O        0.60020    0.20010    0.61958    1.000
    O5       O        0.66650    0.78310    0.45485    1.000
    O6       O        0.59600    0.57020    0.42350    1.000
    O7       O        0.21480    0.63490    0.14962    1.000
    O8       O        0.44140    0.75160    0.16033    1.000
    O9       O        0.57400    0.44140    0.74252    1.000
    O10      O        0.16300    0.36470    0.06026    1.000
    O11      O        0.39040    0.41330    0.07013    1.000
    O12      O        0.21730    0.61240    0.35927    1.000
    O13      O        0.39980    0.79990    0.38042    1.000
    O14      O        0.33350    0.21690    0.54515    1.000
    O15      O        0.40400    0.42980    0.57650    1.000
    O16      O        0.78520    0.36510    0.85038    1.000
    O17      O        0.55860    0.24840    0.83967    1.000
    O18      O        0.42600    0.55860    0.25748    1.000
