# CIF file generated by openbabel 3.1.0, see https://openbabel.org
data_I
_chemical_name_common 'image0'
_cell_length_a 19.144
_cell_length_b 23.388
_cell_length_c 22.86
_cell_angle_alpha 90
_cell_angle_beta 102.838
_cell_angle_gamma 90
_space_group_name_H-M_alt 'P 1'
_space_group_name_Hall 'P 1'
loop_
    _symmetry_equiv_pos_as_xyz
    x,y,z
loop_
    _atom_site_label
    _atom_site_type_symbol
    _atom_site_fract_x
    _atom_site_fract_y
    _atom_site_fract_z
    _atom_site_occupancy
    W1       W        0.66970    0.81376    0.99447    1.000
    O1       O        0.74240    0.76010    0.03130    1.000
    O2       O        0.72360    0.87040    0.05030    1.000
    O3       O        0.64970    0.79360    0.09110    1.000
    O4       O        0.59070    0.86090    0.98850    1.000
    O5       O        0.60780    0.75170    0.96960    1.000
    W2       W        0.74784    0.73007    0.11233    1.000
    W3       W        0.72457    0.87134    0.13315    1.000
    P1       P        0.57440    0.77880    0.10500    1.000
    W4       W        0.48727    0.86861    0.98844    1.000
    W5       W        0.51375    0.71545    0.96268    1.000
    O6       O        0.78380    0.80420    0.14110    1.000
    O7       O        0.71960    0.71700    0.18390    1.000
    O8       O        0.68100    0.67450    0.07770    1.000
    O9       O        0.82730    0.69630    0.12590    1.000
    O10      O        0.78880    0.92230    0.15810    1.000
    O11      O        0.70030    0.84820    0.20630    1.000
    O12      O        0.63720    0.91100    0.11760    1.000
    O13      O        0.58440    0.76740    0.17230    1.000
    O14      O        0.54560    0.72670    0.06880    1.000
    O15      O        0.52730    0.83070    0.08550    1.000
    O16      O        0.47900    0.79070    0.96510    1.000
    O17      O        0.46520    0.90270    0.92000    1.000
    O18      O        0.51290    0.93190    0.04120    1.000
    O19      O        0.39760    0.86590    0.00700    1.000
    O20      O        0.50090    0.70120    0.88750    1.000
    O21      O        0.56370    0.64690    0.99400    1.000
    O22      O        0.42730    0.68880    0.97580    1.000
    W6       W        0.65106    0.69138    0.22993    1.000
    W7       W        0.59262    0.63183    0.07858    1.000
    Co1      Co       0.91575    0.65762    0.19153    1.000
    W8       W        0.62917    0.83144    0.25152    1.000
    W9       W        0.53977    0.92355    0.12642    1.000
    Co2      Co       0.41222    0.92175    0.83169    1.000
    W10      W        0.30712    0.83779    0.02047    1.000
    Na1      Na       0.54340    0.63140    0.82450    1.000
    W11      W        0.33207    0.68534    0.99314    1.000
    O23      O        0.61290    0.64650    0.16170    1.000
    O24      O        0.67210    0.76040    0.27690    1.000
    O25      O        0.56630    0.68060    0.25700    1.000
    O26      O        0.49970    0.61290    0.08090    1.000
    O27      O        0.57090    0.88530    0.20030    1.000
    O28      O        0.54540    0.80760    0.27460    1.000
    O29      O        0.66780    0.87350    0.31320    1.000
    O30      O        0.55190    0.99340    0.14720    1.000
    O31      O        0.44470    0.91530    0.13060    1.000
    N1       N        0.50440    0.90810    0.79980    1.000
    N2       N        0.35500    0.94600    0.74670    1.000
    N3       N        0.37800    0.83750    0.81750    1.000
    O32      O        0.30750    0.89890    0.07740    1.000
    O33      O        0.37750    0.80610    0.11130    1.000
    O34      O        0.23300    0.79760    0.04870    1.000
    O35      O        0.32930    0.76520    0.98920    1.000
    N4       N        0.51800    0.68280    0.74940    1.000
    O36      O        0.35690    0.61320    0.02950    1.000
    O37      O        0.39670    0.70030    0.09350    1.000
    O38      O        0.25200    0.68910    0.03070    1.000
    W12      W        0.47053    0.65816    0.25901    1.000
    W13      W        0.41234    0.60056    0.10803    1.000
    W14      W        0.44764    0.79749    0.28018    1.000
    Co3      Co       0.73710    0.92490    0.37920    1.000
    W15      W        0.35919    0.89259    0.15792    1.000
    C1       C        0.56490    0.93560    0.81210    1.000
    N5       N        0.50380    0.87980    0.74810    1.000
    C2       C        0.31800    0.99030    0.73240    1.000
    N6       N        0.34980    0.91460    0.69700    1.000
    C3       C        0.35230    0.80140    0.85450    1.000
    N7       N        0.38050    0.80550    0.76780    1.000
    P2       P        0.38330    0.74520    0.13720    1.000
    W16      W        0.19730    0.72982    0.07736    1.000
    C4       C        0.51600    0.74400    0.74400    1.000
    N8       N        0.48400    0.66520    0.69110    1.000
    O39      O        0.46440    0.62070    0.18630    1.000
    O40      O        0.46670    0.72360    0.31100    1.000
    O41      O        0.43770    0.74170    0.19650    1.000
    O42      O        0.36790    0.65250    0.24570    1.000
    O43      O        0.32480    0.60980    0.13780    1.000
    O44      O        0.42340    0.85880    0.22460    1.000
    O45      O        0.45440    0.83240    0.34680    1.000
    O46      O        0.34860    0.78280    0.26670    1.000
    N9       N        0.65870    0.91540    0.43080    1.000
    N10      N        0.70440    0.00510    0.32830    1.000
    O47      O        0.28520    0.84940    0.17980    1.000
    O48      O        0.34040    0.95750    0.18760    1.000
    H1       H        0.57780    0.95780    0.84650    1.000
    N11      N        0.60720    0.93090    0.77420    1.000
    C5       C        0.56920    0.89050    0.73580    1.000
    H2       H        0.30780    0.01660    0.75980    1.000
    C6       C        0.31310    0.94480    0.65070    1.000
    H3       H        0.34740    0.81070    0.89290    1.000
    N12      N        0.33500    0.75030    0.82780    1.000
    C7       C        0.35580    0.75500    0.77460    1.000
    O49      O        0.30610    0.73000    0.15110    1.000
    O50      O        0.19770    0.66300    0.12600    1.000
    O51      O        0.17920    0.77350    0.14480    1.000
    H4       H        0.54310    0.76770    0.77220    1.000
    N13      N        0.47100    0.76350    0.69150    1.000
    C8       C        0.45300    0.71700    0.65800    1.000
    K1       K        0.50220    0.58310    0.66370    1.000
    W17      W        0.27682    0.64466    0.19263    1.000
    Co4      Co       0.44821    0.85685    0.43237    1.000
    W18      W        0.25247    0.78668    0.21601    1.000
    C9       C        0.60790    0.87450    0.42390    1.000
    C10      C        0.63100    0.95890    0.46100    1.000
    Co5      Co       0.30350    0.02430    0.23800    1.000
    H5       H        0.58610    0.87270    0.70530    1.000
    N14      N        0.44410    0.87650    0.61080    1.000
    H6       H        0.30170    0.93310    0.61080    1.000
    H7       H        0.35260    0.72560    0.74670    1.000
    H8       H        0.42470    0.71760    0.61910    1.000
    O52      O        0.51320    0.59380    0.62910    1.000
    O53      O        0.24190    0.70640    0.23550    1.000
    O54      O        0.24140    0.58790    0.22220    1.000
    N15      N        0.55080    0.89190    0.44370    1.000
    N16      N        0.44930    0.87920    0.52100    1.000
    N17      N        0.40510    0.93420    0.39780    1.000
    O55      O        0.48250    0.78410    0.45230    1.000
    H9       H        0.61210    0.83860    0.40740    1.000
    H10      H        0.65530    0.99220    0.47530    1.000
    N18      N        0.56630    0.94630    0.46630    1.000
    N19      N        0.34940    0.99490    0.33140    1.000
    C11      C        0.43660    0.84690    0.56410    1.000
    N20      N        0.46430    0.93280    0.54510    1.000
    C12      C        0.36380    0.94260    0.34300    1.000
    N21      N        0.41970    0.98650    0.42360    1.000
    H11      H        0.52270    0.78390    0.47740    1.000
    C13      C        0.38360    0.02310    0.38170    1.000
    H12      H        0.42410    0.80840    0.56070    1.000
    C14      C        0.46100    0.92760    0.60020    1.000
    H13      H        0.34730    0.91310    0.31620    1.000
    H14      H        0.38230    0.06250    0.38660    1.000
    H15      H        0.46960    0.95690    0.62840    1.000
    K2       K        0.91930    0.92140    0.18670    1.000
    W19      W        0.83030    0.31376    0.50553    1.000
    O56      O        0.75760    0.26010    0.46870    1.000
    O57      O        0.77640    0.37040    0.44970    1.000
    O58      O        0.85030    0.29360    0.40890    1.000
    O59      O        0.90930    0.36090    0.51150    1.000
    O60      O        0.89220    0.25170    0.53040    1.000
    W20      W        0.75216    0.23007    0.38767    1.000
    W21      W        0.77543    0.37134    0.36685    1.000
    P3       P        0.92560    0.27880    0.39500    1.000
    W22      W        0.01273    0.36861    0.51156    1.000
    W23      W        0.98625    0.21545    0.53732    1.000
    O61      O        0.71620    0.30420    0.35890    1.000
    O62      O        0.78040    0.21700    0.31610    1.000
    O63      O        0.81900    0.17450    0.42230    1.000
    O64      O        0.67270    0.19630    0.37410    1.000
    O65      O        0.71120    0.42230    0.34190    1.000
    O66      O        0.79970    0.34820    0.29370    1.000
    O67      O        0.86280    0.41100    0.38240    1.000
    O68      O        0.91560    0.26740    0.32770    1.000
    O69      O        0.95440    0.22670    0.43120    1.000
    O70      O        0.97270    0.33070    0.41450    1.000
    O71      O        0.02100    0.29070    0.53490    1.000
    O72      O        0.03480    0.40270    0.58000    1.000
    O73      O        0.98710    0.43190    0.45880    1.000
    O74      O        0.10240    0.36590    0.49300    1.000
    O75      O        0.99910    0.20120    0.61250    1.000
    O76      O        0.93630    0.14690    0.50600    1.000
    O77      O        0.07270    0.18880    0.52420    1.000
    W24      W        0.84894    0.19138    0.27007    1.000
    W25      W        0.90738    0.13183    0.42142    1.000
    Co6      Co       0.58425    0.15762    0.30847    1.000
    W26      W        0.87083    0.33144    0.24848    1.000
    W27      W        0.96023    0.42355    0.37358    1.000
    Co7      Co       0.08778    0.42175    0.66831    1.000
    W28      W        0.19288    0.33779    0.47953    1.000
    Na2      Na       0.95660    0.13140    0.67550    1.000
    W29      W        0.16793    0.18534    0.50686    1.000
    O78      O        0.88710    0.14650    0.33830    1.000
    O79      O        0.82790    0.26040    0.22310    1.000
    O80      O        0.93370    0.18060    0.24300    1.000
    O81      O        0.00030    0.11290    0.41910    1.000
    O82      O        0.92910    0.38530    0.29970    1.000
    O83      O        0.95460    0.30760    0.22540    1.000
    O84      O        0.83220    0.37350    0.18680    1.000
    O85      O        0.94810    0.49340    0.35280    1.000
    O86      O        0.05530    0.41530    0.36940    1.000
    N22      N        0.99560    0.40810    0.70020    1.000
    N23      N        0.14500    0.44600    0.75330    1.000
    N24      N        0.12200    0.33750    0.68250    1.000
    O87      O        0.19250    0.39890    0.42260    1.000
    O88      O        0.12250    0.30610    0.38870    1.000
    O89      O        0.26700    0.29760    0.45130    1.000
    O90      O        0.17070    0.26520    0.51080    1.000
    N25      N        0.98200    0.18280    0.75060    1.000
    O91      O        0.14310    0.11320    0.47050    1.000
    O92      O        0.10330    0.20030    0.40650    1.000
    O93      O        0.24800    0.18910    0.46930    1.000
    W30      W        0.02947    0.15816    0.24099    1.000
    W31      W        0.08766    0.10056    0.39197    1.000
    W32      W        0.05236    0.29749    0.21982    1.000
    Co8      Co       0.76290    0.42490    0.12080    1.000
    W33      W        0.14081    0.39259    0.34208    1.000
    C15      C        0.93510    0.43560    0.68790    1.000
    N26      N        0.99620    0.37980    0.75190    1.000
    C16      C        0.18200    0.49030    0.76760    1.000
    N27      N        0.15020    0.41460    0.80300    1.000
    C17      C        0.14770    0.30140    0.64550    1.000
    N28      N        0.11950    0.30550    0.73220    1.000
    P4       P        0.11670    0.24520    0.36280    1.000
    W34      W        0.30270    0.22982    0.42264    1.000
    C18      C        0.98400    0.24400    0.75600    1.000
    N29      N        0.01600    0.16520    0.80890    1.000
    O94      O        0.03560    0.12070    0.31370    1.000
    O95      O        0.03330    0.22360    0.18900    1.000
    O96      O        0.06230    0.24170    0.30350    1.000
    O97      O        0.13210    0.15250    0.25430    1.000
    O98      O        0.17520    0.10980    0.36220    1.000
    O99      O        0.07660    0.35880    0.27540    1.000
    O100     O        0.04560    0.33240    0.15320    1.000
    O101     O        0.15140    0.28280    0.23330    1.000
    N30      N        0.84130    0.41540    0.06920    1.000
    N31      N        0.79560    0.50510    0.17170    1.000
    O102     O        0.21480    0.34940    0.32020    1.000
    O103     O        0.15960    0.45750    0.31240    1.000
    H16      H        0.92220    0.45780    0.65350    1.000
    N32      N        0.89280    0.43090    0.72580    1.000
    C19      C        0.93080    0.39050    0.76420    1.000
    H17      H        0.19220    0.51660    0.74020    1.000
    C20      C        0.18690    0.44480    0.84930    1.000
    H18      H        0.15260    0.31070    0.60710    1.000
    N33      N        0.16500    0.25030    0.67220    1.000
    C21      C        0.14420    0.25500    0.72540    1.000
    O104     O        0.19390    0.23000    0.34890    1.000
    O105     O        0.30230    0.16300    0.37400    1.000
    O106     O        0.32080    0.27350    0.35520    1.000
    H19      H        0.95690    0.26770    0.72780    1.000
    N34      N        0.02900    0.26350    0.80850    1.000
    C22      C        0.04700    0.21700    0.84200    1.000
    K3       K        0.99780    0.08310    0.83630    1.000
    W35      W        0.22318    0.14466    0.30737    1.000
    Co9      Co       0.05179    0.35685    0.06763    1.000
    W36      W        0.24753    0.28668    0.28399    1.000
    C23      C        0.89210    0.37450    0.07610    1.000
    C24      C        0.86900    0.45890    0.03900    1.000
    Co10     Co       0.19650    0.52430    0.26200    1.000
    H20      H        0.91390    0.37270    0.79470    1.000
    N35      N        0.05590    0.37650    0.88920    1.000
    H21      H        0.19830    0.43310    0.88920    1.000
    H22      H        0.14740    0.22560    0.75330    1.000
    H23      H        0.07530    0.21760    0.88090    1.000
    O107     O        0.98680    0.09380    0.87090    1.000
    O108     O        0.25810    0.20640    0.26450    1.000
    O109     O        0.25860    0.08790    0.27780    1.000
    N36      N        0.94920    0.39190    0.05630    1.000
    N37      N        0.05070    0.37920    0.97900    1.000
    N38      N        0.09490    0.43420    0.10220    1.000
    O110     O        0.01750    0.28410    0.04770    1.000
    H24      H        0.88790    0.33860    0.09260    1.000
    H25      H        0.84470    0.49220    0.02470    1.000
    N39      N        0.93370    0.44630    0.03370    1.000
    N40      N        0.15060    0.49490    0.16860    1.000
    C25      C        0.06340    0.34690    0.93590    1.000
    N41      N        0.03570    0.43280    0.95490    1.000
    C26      C        0.13620    0.44260    0.15700    1.000
    N42      N        0.08030    0.48650    0.07640    1.000
    H26      H        0.97730    0.28390    0.02260    1.000
    C27      C        0.11640    0.52310    0.11830    1.000
    H27      H        0.07590    0.30840    0.93930    1.000
    C28      C        0.03900    0.42760    0.89980    1.000
    H28      H        0.15270    0.41310    0.18380    1.000
    H29      H        0.11770    0.56250    0.11340    1.000
    H30      H        0.03040    0.45690    0.87160    1.000
    K4       K        0.58070    0.42140    0.31330    1.000
    W37      W        0.33030    0.18624    0.00553    1.000
    O111     O        0.25760    0.23990    0.96870    1.000
    O112     O        0.27640    0.12960    0.94970    1.000
    O113     O        0.35030    0.20640    0.90890    1.000
    O114     O        0.40930    0.13910    0.01150    1.000
    O115     O        0.39220    0.24830    0.03040    1.000
    W38      W        0.25216    0.26993    0.88767    1.000
    W39      W        0.27543    0.12866    0.86685    1.000
    P5       P        0.42560    0.22120    0.89500    1.000
    W40      W        0.51273    0.13139    0.01156    1.000
    W41      W        0.48625    0.28455    0.03732    1.000
    O116     O        0.21620    0.19580    0.85890    1.000
    O117     O        0.28040    0.28300    0.81610    1.000
    O118     O        0.31900    0.32550    0.92230    1.000
    O119     O        0.17270    0.30370    0.87410    1.000
    O120     O        0.21120    0.07770    0.84190    1.000
    O121     O        0.29970    0.15180    0.79370    1.000
    O122     O        0.36280    0.08900    0.88240    1.000
    O123     O        0.41560    0.23260    0.82770    1.000
    O124     O        0.45440    0.27330    0.93120    1.000
    O125     O        0.47270    0.16930    0.91450    1.000
    O126     O        0.52100    0.20930    0.03490    1.000
    O127     O        0.53480    0.09730    0.08000    1.000
    O128     O        0.48710    0.06810    0.95880    1.000
    O129     O        0.60240    0.13410    0.99300    1.000
    O130     O        0.49910    0.29880    0.11250    1.000
    O131     O        0.43630    0.35310    0.00600    1.000
    O132     O        0.57270    0.31120    0.02420    1.000
    W42      W        0.34894    0.30862    0.77007    1.000
    W43      W        0.40738    0.36817    0.92142    1.000
    Co11     Co       0.08425    0.34238    0.80847    1.000
    W44      W        0.37083    0.16856    0.74848    1.000
    W45      W        0.46023    0.07645    0.87358    1.000
    Co12     Co       0.58778    0.07825    0.16831    1.000
    W46      W        0.69288    0.16221    0.97953    1.000
    Na3      Na       0.45660    0.36860    0.17550    1.000
    W47      W        0.66793    0.31466    0.00686    1.000
    O133     O        0.38710    0.35350    0.83830    1.000
    O134     O        0.32790    0.23960    0.72310    1.000
    O135     O        0.43370    0.31940    0.74300    1.000
    O136     O        0.50030    0.38710    0.91910    1.000
    O137     O        0.42910    0.11470    0.79970    1.000
    O138     O        0.45460    0.19240    0.72540    1.000
    O139     O        0.33220    0.12650    0.68680    1.000
    O140     O        0.44810    0.00660    0.85280    1.000
    O141     O        0.55530    0.08470    0.86940    1.000
    N43      N        0.49560    0.09190    0.20020    1.000
    N44      N        0.64500    0.05400    0.25330    1.000
    N45      N        0.62200    0.16250    0.18250    1.000
    O142     O        0.69250    0.10110    0.92260    1.000
    O143     O        0.62250    0.19390    0.88870    1.000
    O144     O        0.76700    0.20240    0.95130    1.000
    O145     O        0.67070    0.23480    0.01080    1.000
    N46      N        0.48200    0.31720    0.25060    1.000
    O146     O        0.64310    0.38680    0.97050    1.000
    O147     O        0.60330    0.29970    0.90650    1.000
    O148     O        0.74800    0.31090    0.96930    1.000
    W48      W        0.52947    0.34184    0.74099    1.000
    W49      W        0.58766    0.39944    0.89197    1.000
    W50      W        0.55236    0.20251    0.71982    1.000
    Co13     Co       0.26290    0.07510    0.62080    1.000
    W51      W        0.64081    0.10741    0.84208    1.000
    C29      C        0.43510    0.06440    0.18790    1.000
    N47      N        0.49620    0.12020    0.25190    1.000
    C30      C        0.68200    0.00970    0.26760    1.000
    N48      N        0.65020    0.08540    0.30300    1.000
    C31      C        0.64770    0.19860    0.14550    1.000
    N49      N        0.61950    0.19450    0.23220    1.000
    P6       P        0.61670    0.25480    0.86280    1.000
    W52      W        0.80270    0.27018    0.92264    1.000
    C32      C        0.48400    0.25600    0.25600    1.000
    N50      N        0.51600    0.33480    0.30890    1.000
    O149     O        0.53560    0.37930    0.81370    1.000
    O150     O        0.53330    0.27640    0.68900    1.000
    O151     O        0.56230    0.25830    0.80350    1.000
    O152     O        0.63210    0.34750    0.75430    1.000
    O153     O        0.67520    0.39020    0.86220    1.000
    O154     O        0.57660    0.14120    0.77540    1.000
    O155     O        0.54560    0.16760    0.65320    1.000
    O156     O        0.65140    0.21720    0.73330    1.000
    N51      N        0.34130    0.08460    0.56920    1.000
    N52      N        0.29560    0.99490    0.67170    1.000
    O157     O        0.71480    0.15060    0.82020    1.000
    O158     O        0.65960    0.04250    0.81240    1.000
    H31      H        0.42220    0.04220    0.15350    1.000
    N53      N        0.39280    0.06910    0.22580    1.000
    C33      C        0.43080    0.10950    0.26420    1.000
    H32      H        0.69220    0.98340    0.24020    1.000
    C34      C        0.68690    0.05520    0.34930    1.000
    H33      H        0.65260    0.18930    0.10710    1.000
    N54      N        0.66500    0.24970    0.17220    1.000
    C35      C        0.64420    0.24500    0.22540    1.000
    O159     O        0.69390    0.27000    0.84890    1.000
    O160     O        0.80230    0.33700    0.87400    1.000
    O161     O        0.82080    0.22650    0.85520    1.000
    H34      H        0.45690    0.23230    0.22780    1.000
    N55      N        0.52900    0.23650    0.30850    1.000
    C36      C        0.54700    0.28300    0.34200    1.000
    K5       K        0.49780    0.41690    0.33630    1.000
    W53      W        0.72318    0.35534    0.80737    1.000
    Co14     Co       0.55179    0.14315    0.56763    1.000
    W54      W        0.74753    0.21332    0.78399    1.000
    C37      C        0.39210    0.12550    0.57610    1.000
    C38      C        0.36900    0.04110    0.53900    1.000
    Co15     Co       0.69650    0.97570    0.76200    1.000
    H35      H        0.41390    0.12730    0.29470    1.000
    N56      N        0.55590    0.12350    0.38920    1.000
    H36      H        0.69830    0.06690    0.38920    1.000
    H37      H        0.64740    0.27440    0.25330    1.000
    H38      H        0.57530    0.28240    0.38090    1.000
    O162     O        0.48680    0.40620    0.37090    1.000
    O163     O        0.75810    0.29360    0.76450    1.000
    O164     O        0.75860    0.41210    0.77780    1.000
    N57      N        0.44920    0.10810    0.55630    1.000
    N58      N        0.55070    0.12080    0.47900    1.000
    N59      N        0.59490    0.06580    0.60220    1.000
    O165     O        0.51750    0.21590    0.54770    1.000
    H39      H        0.38790    0.16140    0.59260    1.000
    H40      H        0.34470    0.00780    0.52470    1.000
    N60      N        0.43370    0.05370    0.53370    1.000
    N61      N        0.65060    0.00510    0.66860    1.000
    C39      C        0.56340    0.15310    0.43590    1.000
    N62      N        0.53570    0.06720    0.45490    1.000
    C40      C        0.63620    0.05740    0.65700    1.000
    N63      N        0.58030    0.01350    0.57640    1.000
    H41      H        0.47730    0.21610    0.52260    1.000
    C41      C        0.61640    0.97690    0.61830    1.000
    H42      H        0.57590    0.19160    0.43930    1.000
    C42      C        0.53900    0.07240    0.39980    1.000
    H43      H        0.65270    0.08690    0.68380    1.000
    H44      H        0.61770    0.93750    0.61340    1.000
    H45      H        0.53040    0.04310    0.37160    1.000
    K6       K        0.08070    0.07860    0.81330    1.000
    W55      W        0.16970    0.68624    0.49447    1.000
    O166     O        0.24240    0.73990    0.53130    1.000
    O167     O        0.22360    0.62960    0.55030    1.000
    O168     O        0.14970    0.70640    0.59110    1.000
    O169     O        0.09070    0.63910    0.48850    1.000
    O170     O        0.10780    0.74830    0.46960    1.000
    W56      W        0.24784    0.76993    0.61233    1.000
    W57      W        0.22457    0.62866    0.63315    1.000
    P7       P        0.07440    0.72120    0.60500    1.000
    W58      W        0.98727    0.63139    0.48844    1.000
    W59      W        0.01375    0.78455    0.46268    1.000
    O171     O        0.28380    0.69580    0.64110    1.000
    O172     O        0.21960    0.78300    0.68390    1.000
    O173     O        0.18100    0.82550    0.57770    1.000
    O174     O        0.32730    0.80370    0.62590    1.000
    O175     O        0.28880    0.57770    0.65810    1.000
    O176     O        0.20030    0.65180    0.70630    1.000
    O177     O        0.13720    0.58900    0.61760    1.000
    O178     O        0.08440    0.73260    0.67230    1.000
    O179     O        0.04560    0.77330    0.56880    1.000
    O180     O        0.02730    0.66930    0.58550    1.000
    O181     O        0.97900    0.70930    0.46510    1.000
    O182     O        0.96520    0.59730    0.42000    1.000
    O183     O        0.01290    0.56810    0.54120    1.000
    O184     O        0.89760    0.63410    0.50700    1.000
    O185     O        0.00090    0.79880    0.38750    1.000
    O186     O        0.06370    0.85310    0.49400    1.000
    O187     O        0.92730    0.81120    0.47580    1.000
    W60      W        0.15106    0.80862    0.72993    1.000
    W61      W        0.09262    0.86817    0.57858    1.000
    Co16     Co       0.41575    0.84238    0.69153    1.000
    W62      W        0.12917    0.66856    0.75152    1.000
    W63      W        0.03977    0.57645    0.62642    1.000
    Co17     Co       0.91222    0.57825    0.33169    1.000
    W64      W        0.80712    0.66221    0.52047    1.000
    Na4      Na       0.04340    0.86860    0.32450    1.000
    W65      W        0.83207    0.81466    0.49314    1.000
    O188     O        0.11290    0.85350    0.66170    1.000
    O189     O        0.17210    0.73960    0.77690    1.000
    O190     O        0.06630    0.81940    0.75700    1.000
    O191     O        0.99970    0.88710    0.58090    1.000
    O192     O        0.07090    0.61470    0.70030    1.000
    O193     O        0.04540    0.69240    0.77460    1.000
    O194     O        0.16780    0.62650    0.81320    1.000
    O195     O        0.05190    0.50660    0.64720    1.000
    O196     O        0.94470    0.58470    0.63060    1.000
    N64      N        0.00440    0.59190    0.29980    1.000
    N65      N        0.85500    0.55400    0.24670    1.000
    N66      N        0.87800    0.66250    0.31750    1.000
    O197     O        0.80750    0.60110    0.57740    1.000
    O198     O        0.87750    0.69390    0.61130    1.000
    O199     O        0.73300    0.70240    0.54870    1.000
    O200     O        0.82930    0.73480    0.48920    1.000
    N67      N        0.01800    0.81720    0.24940    1.000
    O201     O        0.85690    0.88680    0.52950    1.000
    O202     O        0.89670    0.79970    0.59350    1.000
    O203     O        0.75200    0.81090    0.53070    1.000
    W66      W        0.97053    0.84184    0.75901    1.000
    W67      W        0.91234    0.89944    0.60803    1.000
    W68      W        0.94764    0.70251    0.78018    1.000
    Co18     Co       0.23710    0.57510    0.87920    1.000
    W69      W        0.85919    0.60741    0.65792    1.000
    C43      C        0.06490    0.56440    0.31210    1.000
    N68      N        0.00380    0.62020    0.24810    1.000
    C44      C        0.81800    0.50970    0.23240    1.000
    N69      N        0.84980    0.58540    0.19700    1.000
    C45      C        0.85230    0.69860    0.35450    1.000
    N70      N        0.88050    0.69450    0.26780    1.000
    P8       P        0.88330    0.75480    0.63720    1.000
    W70      W        0.69730    0.77018    0.57736    1.000
    C46      C        0.01600    0.75600    0.24400    1.000
    N71      N        0.98400    0.83480    0.19110    1.000
    O204     O        0.96440    0.87930    0.68630    1.000
    O205     O        0.96670    0.77640    0.81100    1.000
    O206     O        0.93770    0.75830    0.69650    1.000
    O207     O        0.86790    0.84750    0.74570    1.000
    O208     O        0.82480    0.89020    0.63780    1.000
    O209     O        0.92340    0.64120    0.72460    1.000
    O210     O        0.95440    0.66760    0.84680    1.000
    O211     O        0.84860    0.71720    0.76670    1.000
    N72      N        0.15870    0.58460    0.93080    1.000
    N73      N        0.20440    0.49490    0.82830    1.000
    O212     O        0.78520    0.65060    0.67980    1.000
    O213     O        0.84040    0.54250    0.68760    1.000
    H46      H        0.07780    0.54220    0.34650    1.000
    N74      N        0.10720    0.56910    0.27420    1.000
    C47      C        0.06920    0.60950    0.23580    1.000
    H47      H        0.80780    0.48340    0.25980    1.000
    C48      C        0.81310    0.55520    0.15070    1.000
    H48      H        0.84740    0.68930    0.39290    1.000
    N75      N        0.83500    0.74970    0.32780    1.000
    C49      C        0.85580    0.74500    0.27460    1.000
    O214     O        0.80610    0.77000    0.65110    1.000
    O215     O        0.69770    0.83700    0.62600    1.000
    O216     O        0.67920    0.72650    0.64480    1.000
    H49      H        0.04310    0.73230    0.27220    1.000
    N76      N        0.97100    0.73650    0.19150    1.000
    C50      C        0.95300    0.78300    0.15800    1.000
    K7       K        0.00220    0.91690    0.16370    1.000
    W71      W        0.77682    0.85534    0.69263    1.000
    Co19     Co       0.94821    0.64315    0.93237    1.000
    W72      W        0.75247    0.71332    0.71601    1.000
    C51      C        0.10790    0.62550    0.92390    1.000
    C52      C        0.13100    0.54110    0.96100    1.000
    Co20     Co       0.80350    0.47570    0.73800    1.000
    H50      H        0.08610    0.62730    0.20530    1.000
    N77      N        0.94410    0.62350    0.11080    1.000
    H51      H        0.80170    0.56690    0.11080    1.000
    H52      H        0.85260    0.77440    0.24670    1.000
    H53      H        0.92470    0.78240    0.11910    1.000
    O217     O        0.01320    0.90620    0.12910    1.000
    O218     O        0.74190    0.79360    0.73550    1.000
    O219     O        0.74140    0.91210    0.72220    1.000
    N78      N        0.05080    0.60810    0.94370    1.000
    N79      N        0.94930    0.62080    0.02100    1.000
    N80      N        0.90510    0.56580    0.89780    1.000
    O220     O        0.98250    0.71590    0.95230    1.000
    H54      H        0.11210    0.66140    0.90740    1.000
    H55      H        0.15530    0.50780    0.97530    1.000
    N81      N        0.06630    0.55370    0.96630    1.000
    N82      N        0.84940    0.50510    0.83140    1.000
    C53      C        0.93660    0.65310    0.06410    1.000
    N83      N        0.96430    0.56720    0.04510    1.000
    C54      C        0.86380    0.55740    0.84300    1.000
    N84      N        0.91970    0.51350    0.92360    1.000
    H56      H        0.02270    0.71610    0.97740    1.000
    C55      C        0.88360    0.47690    0.88170    1.000
    H57      H        0.92410    0.69160    0.06070    1.000
    C56      C        0.96100    0.57240    0.10020    1.000
    H58      H        0.84730    0.58690    0.81620    1.000
    H59      H        0.88230    0.43750    0.88660    1.000
    H60      H        0.96960    0.54310    0.12840    1.000
    K8       K        0.41930    0.57860    0.68670    1.000
    Co21     Co       0.50000    0.00000    0.50000    1.000
    Co22     Co       0.00000    0.50000    0.00000    1.000
