data_functionalizedCrystal
_audit_creation_method	'EQeq! by Chris Wilmer'
_symmetry_space_group_name_H-M	'P1'
_symmetry_Int_Tables_number	1
_symmetry_cell_setting	triclinic
loop_
_symmetry_equiv_pos_as_xyz
  x,y,z
_cell_length_a	14.443
_cell_length_b	22.1987
_cell_length_c	17.7628
_cell_angle_alpha	90
_cell_angle_beta	103.975
_cell_angle_gamma	90
loop_
_atom_site_label
_atom_site_type_symbol
_atom_site_fract_x
_atom_site_fract_y
_atom_site_fract_z
_atom_site_charge
Mof_Co	Co	0.54385	0.05967	0.31916	1.127
Mof_Co	Co	0.49907	0.13654	0.4725	1.169
Mof_Co	Co	0.45128	0.10379	0.64844	1.128
Mof_O 	O 	0.55517	0.05981	0.43399	-0.811
Mof_O 	O 	0.43944	0.07577	0.53794	-0.788
Mof_O 	O 	0.0801	0.30938	0.91883	-0.467
Mof_O 	O 	0.3762	0.18351	0.61115	-0.49
Mof_N 	N 	0.5837	0.14556	0.6439	-0.212
Mof_N 	N 	0.7278	0.18116	0.6629	-0.152
Mof_O 	O 	0.1159	0.35863	0.8198	-0.496
Mof_O 	O 	0.4289	0.20934	0.5073	-0.475
Mof_O 	O 	0.7377	0.03133	0.5261	-0.348
Mof_O 	O 	0.62983	0.00804	0.59084	-0.455
Mof_N 	N 	0.7688	0.35393	0.7708	-0.147
Mof_C 	C 	0.2372	0.071	0.6456	0.094
Mof_H 	H 	0.215	0.1104	0.6369	-0.014
Mof_N 	N 	0.1819	0.02264	0.6516	-0.157
Mof_N 	N 	0.9096	0.39496	0.8053	-0.21
Mof_C 	C 	0.4963	0.30436	0.6371	0.21
Mof_C 	C 	0.8236	0.20136	0.7012	0.061
Mof_N 	N 	0.606	0.15112	0.5742	-0.203
Mof_C 	C 	0.4	0.2215	0.5661	0.489
Mof_C 	C 	0.6639	0.32535	0.6467	-0.008
Mof_H 	H 	0.7152	0.3283	0.6238	0.032
Mof_N 	N 	0.3283	0.99241	0.6651	-0.214
Mof_C 	C 	0.5739	0.3099	0.6024	-0.177
Mof_H 	H 	0.5648	0.3032	0.5495	0.096
Mof_C 	C 	0.8926	0.0172	0.6578	0.191
Mof_N 	N 	0.8905	0.3668	0.8688	-0.201
Mof_C 	C 	0.7139	0.0177	0.5871	0.456
Mof_C 	C 	0.0817	0.0221	0.6517	0.028
Mof_N 	N 	0.3251	0.05464	0.6537	-0.233
Mof_C 	C 	0.6761	0.3363	0.7253	0.038
Mof_C 	C 	0.8477	0.2062	0.7802	-0.035
Mof_H 	H 	0.8026	0.1993	0.8088	0.041
Mof_C 	C 	0.6018	0.3298	0.7605	-0.015
Mof_H 	H 	0.6112	0.3365	0.8135	0.033
Mof_C 	C 	0.242	0.9745	0.6635	0.124
Mof_H 	H 	0.2242	0.9349	0.6696	-0.015
Mof_C 	C 	0.0081	0.2333	0.7753	0.165
Mof_C 	C 	0.3981	0.2873	0.5895	-0.515
Mof_H 	H 	0.3808	0.3125	0.5436	0.18
Mof_H 	H 	0.3512	0.2932	0.6198	0.179
Mof_C 	C 	0.8359	0.3866	0.7469	0.097
Mof_H 	H 	0.8304	0.4008	0.6967	-0.031
Mof_C 	C 	0.6582	0.1644	0.6963	0.106
Mof_H 	H 	0.6621	0.166	0.7493	-0.031
Mof_C 	C 	0.1094	0.2514	0.8171	-0.491
Mof_H 	H 	0.1368	0.2215	0.8561	0.179
Mof_H 	H 	0.1493	0.2544	0.7806	0.174
Mof_C 	C 	0.8061	0.3427	0.8471	0.104
Mof_H 	H 	0.7759	0.321	0.8792	-0.005
Mof_C 	C 	0.1026	0.3122	0.8552	0.494
Mof_C 	C 	0.9407	0.2217	0.8171	-0.144
Mof_H 	H 	0.9581	0.2244	0.871	0.096
Mof_C 	C 	0.9296	0.9744	0.6166	-0.12
Mof_H 	H 	0.8901	0.9439	0.5911	0.083
Mof_C 	C 	0.0464	0.0648	0.6921	-0.029
Mof_H 	H 	0.0854	0.0955	0.7175	0.034
Mof_C 	C 	0.5117	0.3131	0.7156	-0.184
Mof_H 	H 	0.4616	0.3078	0.7395	0.084
Mof_C 	C 	0.692	0.1731	0.5862	0.112
Mof_H 	H 	0.7237	0.1819	0.5477	-0.005
Mof_C 	C 	0.9503	0.0617	0.6951	-0.162
Mof_H 	H 	0.9259	0.0905	0.7231	0.088
Mof_C 	C 	0.9811	0.2294	0.6965	-0.123
Mof_H 	H 	0.0255	0.2371	0.6674	0.057
Mof_C 	C 	0.7891	0.0124	0.6632	-0.525
Mof_H 	H 	0.7808	0.9739	0.6865	0.208
Mof_H 	H 	0.7774	0.0436	0.698	0.185
Mof_C 	C 	0.0238	0.9759	0.6124	-0.012
Mof_H 	H 	0.048	0.947	0.5843	0.044
Mof_C 	C 	0.8873	0.2137	0.6585	-0.05
Mof_H 	H 	0.869	0.2119	0.6046	0.049
Mof_O 	O 	0.46576	0.97523	0.30569	-0.621
Mof_H 	H 	0.38	0.074	0.521	0.265
Mof_H 	H 	0.614	0.062	0.454	0.292
Mof_H 	H 	0.429	0.974	0.261	0.224
Mof_Co	Co	0.95615	0.55967	0.18084	1.136
Mof_Co	Co	0.00093	0.63654	0.0275	1.148
Mof_Co	Co	0.04872	0.60379	0.85156	1.127
Mof_O 	O 	0.94483	0.55981	0.06601	-0.799
Mof_O 	O 	0.06056	0.57577	0.96206	-0.776
Mof_O 	O 	0.4199	0.80938	0.58117	-0.479
Mof_O 	O 	0.1238	0.68351	0.88885	-0.485
Mof_N 	N 	0.9163	0.64556	0.8561	-0.209
Mof_N 	N 	0.7722	0.68116	0.8371	-0.147
Mof_O 	O 	0.3841	0.85863	0.6802	-0.497
Mof_O 	O 	0.0711	0.70934	0.9927	-0.457
Mof_O 	O 	0.7623	0.53133	0.9739	-0.321
Mof_O 	O 	0.87017	0.50804	0.90916	-0.43
Mof_N 	N 	0.7312	0.85393	0.7292	-0.151
Mof_C 	C 	0.2628	0.571	0.8544	0.101
Mof_H 	H 	0.285	0.6104	0.8631	-0.012
Mof_N 	N 	0.3181	0.52264	0.8484	-0.143
Mof_N 	N 	0.5904	0.89496	0.6947	-0.209
Mof_C 	C 	0.0037	0.80436	0.8629	0.16
Mof_C 	C 	0.6764	0.70136	0.7988	0.033
Mof_N 	N 	0.894	0.65112	0.9258	-0.194
Mof_C 	C 	0.1	0.7215	0.9339	0.481
Mof_C 	C 	0.8361	0.82535	0.8533	-0.037
Mof_H 	H 	0.7848	0.8283	0.8762	0.047
Mof_N 	N 	0.1717	0.49241	0.8349	-0.221
Mof_C 	C 	0.9261	0.8099	0.8976	-0.131
Mof_H 	H 	0.9352	0.8032	0.9505	0.091
Mof_C 	C 	0.6074	0.5172	0.8422	0.226
Mof_N 	N 	0.6095	0.8668	0.6312	-0.205
Mof_C 	C 	0.7861	0.5177	0.9129	0.445
Mof_C 	C 	0.4183	0.5221	0.8483	0.041
Mof_N 	N 	0.1749	0.55464	0.8463	-0.224
Mof_C 	C 	0.8239	0.8363	0.7747	0.064
Mof_C 	C 	0.6523	0.7062	0.7198	0
Mof_H 	H 	0.6974	0.6993	0.6912	0.027
Mof_C 	C 	0.8982	0.8298	0.7395	-0.054
Mof_H 	H 	0.8888	0.8365	0.6865	0.047
Mof_C 	C 	0.258	0.4745	0.8365	0.101
Mof_H 	H 	0.2758	0.4349	0.8304	-0.008
Mof_C 	C 	0.4919	0.7333	0.7247	0.223
Mof_C 	C 	0.1019	0.7873	0.9105	-0.489
Mof_H 	H 	0.1192	0.8125	0.9564	0.181
Mof_H 	H 	0.1488	0.7932	0.8802	0.175
Mof_C 	C 	0.6641	0.8866	0.7531	0.1
Mof_H 	H 	0.6696	0.9008	0.8033	-0.026
Mof_C 	C 	0.8418	0.6644	0.8037	0.105
Mof_H 	H 	0.8379	0.666	0.7507	-0.031
Mof_C 	C 	0.3906	0.7514	0.6829	-0.523
Mof_H 	H 	0.3632	0.7215	0.6439	0.184
Mof_H 	H 	0.3507	0.7544	0.7194	0.184
Mof_C 	C 	0.6939	0.8427	0.6529	0.105
Mof_H 	H 	0.7241	0.821	0.6208	-0.011
Mof_C 	C 	0.3974	0.8122	0.6448	0.503
Mof_C 	C 	0.5593	0.7217	0.6829	-0.194
Mof_H 	H 	0.5419	0.7244	0.629	0.105
Mof_C 	C 	0.5704	0.4744	0.8834	-0.173
Mof_H 	H 	0.6099	0.4439	0.9089	0.1
Mof_C 	C 	0.4536	0.5648	0.8079	-0.005
Mof_H 	H 	0.4146	0.5955	0.7825	0.028
Mof_C 	C 	0.9883	0.8131	0.7844	-0.117
Mof_H 	H 	0.0384	0.8078	0.7605	0.055
Mof_C 	C 	0.808	0.6731	0.9138	0.111
Mof_H 	H 	0.7763	0.6819	0.9523	0.004
Mof_C 	C 	0.5497	0.5617	0.8049	-0.189
Mof_H 	H 	0.5741	0.5905	0.7769	0.096
Mof_C 	C 	0.5189	0.7294	0.8035	-0.193
Mof_H 	H 	0.4745	0.7371	0.8326	0.091
Mof_C 	C 	0.7109	0.5124	0.8368	-0.484
Mof_H 	H 	0.7192	0.4739	0.8135	0.178
Mof_H 	H 	0.7226	0.5436	0.802	0.175
Mof_C 	C 	0.4762	0.4759	0.8876	-0.004
Mof_H 	H 	0.452	0.447	0.9157	0.046
Mof_C 	C 	0.6127	0.7137	0.8415	-0.006
Mof_H 	H 	0.631	0.7119	0.8954	0.037
Mof_O 	O 	0.03424	0.47523	0.19431	-0.638
Mof_H 	H 	0.12	0.574	0.979	0.278
Mof_H 	H 	0.886	0.562	0.046	0.279
Mof_H 	H 	0.071	0.474	0.239	0.224
Mof_Co	Co	0.45615	0.94033	0.68084	1.138
Mof_Co	Co	0.50093	0.86346	0.5275	1.169
Mof_Co	Co	0.54872	0.89621	0.35156	1.13
Mof_O 	O 	0.44483	0.94019	0.56601	-0.796
Mof_O 	O 	0.56056	0.92423	0.46206	-0.781
Mof_O 	O 	0.9199	0.69062	0.08117	-0.489
Mof_O 	O 	0.6238	0.81649	0.38885	-0.49
Mof_N 	N 	0.4163	0.85444	0.3561	-0.212
Mof_N 	N 	0.2722	0.81884	0.3371	-0.141
Mof_O 	O 	0.8841	0.64137	0.1802	-0.504
Mof_O 	O 	0.5711	0.79066	0.4927	-0.475
Mof_O 	O 	0.2623	0.96867	0.4739	-0.331
Mof_O 	O 	0.37017	0.99196	0.40916	-0.429
Mof_N 	N 	0.2312	0.64607	0.2292	-0.147
Mof_C 	C 	0.7628	0.929	0.3544	0.101
Mof_H 	H 	0.785	0.8896	0.3631	-0.014
Mof_N 	N 	0.8181	0.97736	0.3484	-0.129
Mof_N 	N 	0.0904	0.60504	0.1947	-0.215
Mof_C 	C 	0.5037	0.69564	0.3629	0.211
Mof_C 	C 	0.1764	0.79864	0.2988	-0.007
Mof_N 	N 	0.394	0.84888	0.4258	-0.203
Mof_C 	C 	0.6	0.7785	0.4339	0.49
Mof_C 	C 	0.3361	0.67465	0.3533	-0.006
Mof_H 	H 	0.2848	0.6717	0.3762	0.03
Mof_N 	N 	0.6717	0.00759	0.3349	-0.23
Mof_C 	C 	0.4261	0.6901	0.3976	-0.179
Mof_H 	H 	0.4352	0.6968	0.4505	0.096
Mof_C 	C 	0.1074	0.9828	0.3422	0.263
Mof_N 	N 	0.1095	0.6332	0.1312	-0.211
Mof_C 	C 	0.2861	0.9823	0.4129	0.442
Mof_C 	C 	0.9183	0.9779	0.3483	0.044
Mof_N 	N 	0.6749	0.94536	0.3463	-0.216
Mof_C 	C 	0.3239	0.6637	0.2747	0.035
Mof_C 	C 	0.1523	0.7938	0.2198	0.049
Mof_H 	H 	0.1974	0.8007	0.1912	0.006
Mof_C 	C 	0.3982	0.6702	0.2395	-0.013
Mof_H 	H 	0.3888	0.6635	0.1865	0.026
Mof_C 	C 	0.758	0.0255	0.3365	0.07
Mof_H 	H 	0.7758	0.0651	0.3304	-0.004
Mof_C 	C 	0.9919	0.7667	0.2247	0.3
Mof_C 	C 	0.6019	0.7127	0.4105	-0.517
Mof_H 	H 	0.6192	0.6875	0.4564	0.181
Mof_H 	H 	0.6488	0.7068	0.3802	0.179
Mof_C 	C 	0.1641	0.6134	0.2531	0.096
Mof_H 	H 	0.1696	0.5992	0.3033	-0.033
Mof_C 	C 	0.3418	0.8356	0.3037	0.103
Mof_H 	H 	0.3379	0.834	0.2507	-0.032
Mof_C 	C 	0.8906	0.7486	0.1829	-0.567
Mof_H 	H 	0.8632	0.7785	0.1439	0.194
Mof_H 	H 	0.8507	0.7456	0.2194	0.194
Mof_C 	C 	0.1939	0.6573	0.1529	0.101
Mof_H 	H 	0.2241	0.679	0.1208	-0.018
Mof_C 	C 	0.8974	0.6878	0.1448	0.517
Mof_C 	C 	0.0593	0.7783	0.1829	-0.262
Mof_H 	H 	0.0419	0.7756	0.129	0.118
Mof_C 	C 	0.0704	0.0256	0.3834	-0.232
Mof_H 	H 	0.1099	0.0561	0.4089	0.108
Mof_C 	C 	0.9536	0.9352	0.3079	0.028
Mof_H 	H 	0.9146	0.9045	0.2825	0.019
Mof_C 	C 	0.4883	0.6869	0.2844	-0.187
Mof_H 	H 	0.5384	0.6922	0.2605	0.082
Mof_C 	C 	0.308	0.8269	0.4138	0.108
Mof_H 	H 	0.2763	0.8181	0.4523	-0.003
Mof_C 	C 	0.0497	0.9383	0.3049	-0.228
Mof_H 	H 	0.0741	0.9095	0.2769	0.107
Mof_C 	C 	0.0189	0.7706	0.3035	-0.287
Mof_H 	H 	0.9745	0.7629	0.3326	0.126
Mof_C 	C 	0.2109	0.9876	0.3368	-0.454
Mof_H 	H 	0.2192	0.0261	0.3135	0.151
Mof_H 	H 	0.2226	0.9564	0.302	0.167
Mof_C 	C 	0.9762	0.0241	0.3876	0.003
Mof_H 	H 	0.952	0.053	0.4157	0.034
Mof_C 	C 	0.1127	0.7863	0.3415	0.054
Mof_H 	H 	0.131	0.7881	0.3954	0.01
Mof_O 	O 	0.53424	0.02477	0.69431	-0.639
Mof_H 	H 	0.62	0.926	0.479	0.274
Mof_H 	H 	0.386	0.938	0.546	0.29
Mof_H 	H 	0.571	0.026	0.739	0.222
Mof_Co	Co	0.04385	0.44033	0.81916	1.129
Mof_Co	Co	0.99907	0.36346	0.9725	1.186
Mof_Co	Co	0.95128	0.39621	0.14844	1.133
Mof_O 	O 	0.05517	0.44019	0.93399	-0.803
Mof_O 	O 	0.93944	0.42423	0.03794	-0.788
Mof_O 	O 	0.5801	0.19062	0.41883	-0.479
Mof_O 	O 	0.8762	0.31649	0.11115	-0.495
Mof_N 	N 	0.0837	0.35444	0.1439	-0.216
Mof_N 	N 	0.2278	0.31884	0.1629	-0.147
Mof_O 	O 	0.6159	0.14137	0.3198	-0.502
Mof_O 	O 	0.9289	0.29066	0.0073	-0.492
Mof_O 	O 	0.2377	0.46867	0.0261	-0.359
Mof_O 	O 	0.12983	0.49196	0.09084	-0.453
Mof_N 	N 	0.2688	0.14607	0.2708	-0.142
Mof_C 	C 	0.7372	0.429	0.1456	0.094
Mof_H 	H 	0.715	0.3896	0.1369	-0.017
Mof_N 	N 	0.6819	0.47736	0.1516	-0.144
Mof_N 	N 	0.4096	0.10504	0.3053	-0.216
Mof_C 	C 	0.9963	0.19564	0.1371	0.273
Mof_C 	C 	0.3236	0.29864	0.2012	0.03
Mof_N 	N 	0.106	0.34888	0.0742	-0.213
Mof_C 	C 	0.9	0.2785	0.0661	0.5
Mof_C 	C 	0.1639	0.17465	0.1467	0.029
Mof_H 	H 	0.2152	0.1717	0.1238	0.012
Mof_N 	N 	0.8283	0.50759	0.1651	-0.222
Mof_C 	C 	0.0739	0.1901	0.1024	-0.234
Mof_H 	H 	0.0648	0.1968	0.0495	0.104
Mof_C 	C 	0.3926	0.4828	0.1578	0.227
Mof_N 	N 	0.3905	0.1332	0.3688	-0.207
Mof_C 	C 	0.2139	0.4823	0.0871	0.451
Mof_C 	C 	0.5817	0.4779	0.1517	0.031
Mof_N 	N 	0.8251	0.44536	0.1537	-0.224
Mof_C 	C 	0.1761	0.1637	0.2253	0.004
Mof_C 	C 	0.3477	0.2938	0.2802	0.002
Mof_H 	H 	0.3026	0.3007	0.3088	0.025
Mof_C 	C 	0.1018	0.1702	0.2605	0.034
Mof_H 	H 	0.1112	0.1635	0.3135	0.01
Mof_C 	C 	0.742	0.5255	0.1635	0.094
Mof_H 	H 	0.7242	0.5651	0.1696	-0.011
Mof_C 	C 	0.5081	0.2667	0.2753	0.223
Mof_C 	C 	0.8981	0.2127	0.0895	-0.549
Mof_H 	H 	0.8808	0.1875	0.0436	0.182
Mof_H 	H 	0.8512	0.2068	0.1198	0.185
Mof_C 	C 	0.3359	0.1134	0.2469	0.093
Mof_H 	H 	0.3304	0.0992	0.1967	-0.038
Mof_C 	C 	0.1582	0.3356	0.1963	0.105
Mof_H 	H 	0.1621	0.334	0.2493	-0.033
Mof_C 	C 	0.6094	0.2486	0.3171	-0.524
Mof_H 	H 	0.6368	0.2785	0.3561	0.185
Mof_H 	H 	0.6493	0.2456	0.2806	0.181
Mof_C 	C 	0.3061	0.1573	0.3471	0.1
Mof_H 	H 	0.2759	0.179	0.3792	-0.011
Mof_C 	C 	0.6026	0.1878	0.3552	0.504
Mof_C 	C 	0.4407	0.2783	0.3171	-0.195
Mof_H 	H 	0.4581	0.2756	0.371	0.105
Mof_C 	C 	0.4296	0.5256	0.1166	-0.18
Mof_H 	H 	0.3901	0.5561	0.0911	0.091
Mof_C 	C 	0.5464	0.4352	0.1921	-0.002
Mof_H 	H 	0.5854	0.4045	0.2175	0.026
Mof_C 	C 	0.0117	0.1869	0.2156	-0.267
Mof_H 	H 	0.9616	0.1922	0.2395	0.116
Mof_C 	C 	0.192	0.3269	0.0862	0.109
Mof_H 	H 	0.2237	0.3181	0.0477	-0.014
Mof_C 	C 	0.4503	0.4383	0.1951	-0.195
Mof_H 	H 	0.4259	0.4095	0.2231	0.097
Mof_C 	C 	0.4811	0.2706	0.1965	-0.196
Mof_H 	H 	0.5255	0.2629	0.1674	0.084
Mof_C 	C 	0.2891	0.4876	0.1632	-0.493
Mof_H 	H 	0.2808	0.5261	0.1865	0.179
Mof_H 	H 	0.2774	0.4564	0.198	0.176
Mof_C 	C 	0.5238	0.5241	0.1124	-0.005
Mof_H 	H 	0.548	0.553	0.0843	0.031
Mof_C 	C 	0.3873	0.2863	0.1585	-0.005
Mof_H 	H 	0.369	0.2881	0.1046	0.026
Mof_O 	O 	0.96576	0.52477	0.80569	-0.623
Mof_H 	H 	0.88	0.426	0.021	0.26
Mof_H 	H 	0.114	0.438	0.954	0.302
Mof_H 	H 	0.929	0.526	0.761	0.223
Mof_Co	Co	0.5	0	0.5	1.176
Mof_Co	Co	-0	0.5	-0	1.167
_end
