data_functionalizedCrystal
_audit_creation_method	'EQeq! by Chris Wilmer'
_symmetry_space_group_name_H-M	'P1'
_symmetry_Int_Tables_number	1
_symmetry_cell_setting	triclinic
loop_
_symmetry_equiv_pos_as_xyz
  x,y,z
_cell_length_a	28.32
_cell_length_b	28.32
_cell_length_c	12.835
_cell_angle_alpha	90
_cell_angle_beta	90
_cell_angle_gamma	120
loop_
_atom_site_label
_atom_site_type_symbol
_atom_site_fract_x
_atom_site_fract_y
_atom_site_fract_z
_atom_site_charge
Mof_O 	O 	0.31352	0.0676	0.24209	-0.513
Mof_O 	O 	0.04293	0.31024	0.19712	-0.5
Mof_O 	O 	0.08196	0.38617	0.10584	-0.399
Mof_C 	C 	0.29538	0.15668	0.22403	0.073
Mof_C 	C 	0.29538	0.20505	0.22403	-0.129
Mof_C 	C 	0.28498	0.29978	0.16396	-0.086
Mof_C 	C 	0.28498	0.34817	0.16396	0.017
Mof_C 	C 	0.23345	0.34817	0.16107	0.028
Mof_C 	C 	0.18843	0.30767	0.2103	-0.101
Mof_C 	C 	0.14008	0.30768	0.20759	0.026
Mof_C 	C 	0.13674	0.34819	0.15564	-0.128
Mof_C 	C 	0.18175	0.38869	0.10641	0.022
Mof_C 	C 	0.23011	0.38867	0.10912	-0.106
Mof_C 	C 	0.08486	0.3482	0.15273	0.298
Mof_H 	H 	0.26768	0.12517	0.26591	0.003
Mof_H 	H 	0.26768	0.20886	0.26591	0.06
Mof_H 	H 	0.24968	0.26448	0.16197	0.04
Mof_H 	H 	0.19087	0.27812	0.24822	0.052
Mof_H 	H 	0.10722	0.27813	0.24353	0.013
Mof_H 	H 	0.17931	0.41824	0.06849	0.007
Mof_H 	H 	0.26296	0.41823	0.07318	0.027
Mof_O 	O 	0.98019	0.40093	0.57542	-0.491
Mof_O 	O 	0.7096	0.64357	0.53045	-0.492
Mof_O 	O 	0.74863	0.7195	0.43917	-0.394
Mof_C 	C 	0.96205	0.49001	0.55736	0.096
Mof_C 	C 	0.96205	0.53838	0.55736	-0.102
Mof_C 	C 	0.95165	0.63311	0.49729	-0.067
Mof_C 	C 	0.95165	0.6815	0.49729	0.055
Mof_C 	C 	0.90012	0.6815	0.4944	0.026
Mof_C 	C 	0.8551	0.641	0.54363	-0.086
Mof_C 	C 	0.80675	0.64101	0.54092	0.021
Mof_C 	C 	0.80341	0.68152	0.48897	-0.108
Mof_C 	C 	0.84842	0.72202	0.43974	0.027
Mof_C 	C 	0.89678	0.722	0.44245	-0.083
Mof_C 	C 	0.75153	0.68153	0.48606	0.291
Mof_H 	H 	0.93435	0.4585	0.59924	0.004
Mof_H 	H 	0.93435	0.54219	0.59924	0.059
Mof_H 	H 	0.91635	0.59781	0.4953	0.05
Mof_H 	H 	0.85754	0.61145	0.58155	0.053
Mof_H 	H 	0.77389	0.61146	0.57686	0.023
Mof_H 	H 	0.84598	0.75157	0.40182	0.034
Mof_H 	H 	0.92963	0.75156	0.40651	0.052
Mof_O 	O 	0.64685	0.73427	0.90876	-0.448
Mof_O 	O 	0.37626	0.97691	0.86379	-0.424
Mof_O 	O 	0.41529	0.05284	0.77251	-0.391
Mof_C 	C 	0.62871	0.82335	0.8907	0.073
Mof_C 	C 	0.62871	0.87172	0.8907	-0.099
Mof_C 	C 	0.61831	0.96645	0.83063	-0.068
Mof_C 	C 	0.61831	0.01484	0.83063	0.032
Mof_C 	C 	0.56678	0.01484	0.82774	0.017
Mof_C 	C 	0.52176	0.97434	0.87697	-0.054
Mof_C 	C 	0.47341	0.97435	0.87426	0.046
Mof_C 	C 	0.47007	0.01486	0.82231	-0.108
Mof_C 	C 	0.51508	0.05536	0.77308	0.029
Mof_C 	C 	0.56344	0.05534	0.77579	-0.077
Mof_C 	C 	0.41819	0.01487	0.8194	0.267
Mof_H 	H 	0.60101	0.79184	0.93258	0.04
Mof_H 	H 	0.60101	0.87553	0.93258	0.084
Mof_H 	H 	0.58301	0.93115	0.82864	0.057
Mof_H 	H 	0.5242	0.94479	0.91489	0.069
Mof_H 	H 	0.44055	0.9448	0.9102	0.042
Mof_H 	H 	0.51264	0.08491	0.73516	0.037
Mof_H 	H 	0.59629	0.0849	0.73985	0.05
Mof_O 	O 	0.9324	0.24592	0.24209	-0.516
Mof_O 	O 	0.68976	0.73269	0.19712	-0.486
Mof_O 	O 	0.61383	0.69579	0.10584	-0.4
Mof_C 	C 	0.84332	0.1387	0.22403	0.078
Mof_C 	C 	0.79495	0.09033	0.22403	-0.134
Mof_C 	C 	0.70022	0.9852	0.16396	-0.054
Mof_C 	C 	0.65183	0.93681	0.16396	0.012
Mof_C 	C 	0.65183	0.88528	0.16107	0.034
Mof_C 	C 	0.69233	0.88076	0.2103	-0.101
Mof_C 	C 	0.69232	0.8324	0.20759	0.027
Mof_C 	C 	0.65181	0.78855	0.15564	-0.125
Mof_C 	C 	0.61131	0.79306	0.10641	0.023
Mof_C 	C 	0.61133	0.84144	0.10912	-0.107
Mof_C 	C 	0.6518	0.73666	0.15273	0.295
Mof_H 	H 	0.87483	0.14251	0.26591	0.004
Mof_H 	H 	0.79114	0.05882	0.26591	0.059
Mof_H 	H 	0.73552	0.9852	0.16197	0.04
Mof_H 	H 	0.72188	0.91275	0.24822	0.057
Mof_H 	H 	0.72187	0.82909	0.24353	0.019
Mof_H 	H 	0.58176	0.76107	0.06849	0.007
Mof_H 	H 	0.58177	0.84473	0.07318	0.028
Mof_O 	O 	0.59907	0.57925	0.57542	-0.518
Mof_O 	O 	0.35643	0.06602	0.53045	-0.501
Mof_O 	O 	0.2805	0.02912	0.43917	-0.402
Mof_C 	C 	0.50999	0.47203	0.55736	0.077
Mof_C 	C 	0.46162	0.42366	0.55736	-0.123
Mof_C 	C 	0.36689	0.31853	0.49729	-0.082
Mof_C 	C 	0.3185	0.27014	0.49729	0.03
Mof_C 	C 	0.3185	0.21861	0.4944	0.035
Mof_C 	C 	0.359	0.21409	0.54363	-0.093
Mof_C 	C 	0.35899	0.16573	0.54092	0.026
Mof_C 	C 	0.31848	0.12188	0.48897	-0.115
Mof_C 	C 	0.27798	0.12639	0.43974	0.032
Mof_C 	C 	0.278	0.17477	0.44245	-0.092
Mof_C 	C 	0.31847	0.06999	0.48606	0.296
Mof_H 	H 	0.5415	0.47584	0.59924	0.007
Mof_H 	H 	0.45781	0.39215	0.59924	0.062
Mof_H 	H 	0.40219	0.31853	0.4953	0.051
Mof_H 	H 	0.38855	0.24608	0.58155	0.055
Mof_H 	H 	0.38854	0.16242	0.57686	0.021
Mof_H 	H 	0.24843	0.0944	0.40182	0.027
Mof_H 	H 	0.24844	0.17806	0.40651	0.048
Mof_O 	O 	0.26573	0.91259	0.90876	-0.44
Mof_O 	O 	0.02309	0.39936	0.86379	-0.458
Mof_O 	O 	0.94716	0.36246	0.77251	-0.384
Mof_C 	C 	0.17665	0.80537	0.8907	0.078
Mof_C 	C 	0.12828	0.757	0.8907	-0.108
Mof_C 	C 	0.03355	0.65187	0.83063	-0.099
Mof_C 	C 	0.98516	0.60348	0.83063	0.061
Mof_C 	C 	0.98516	0.55195	0.82774	0.056
Mof_C 	C 	0.02566	0.54743	0.87697	-0.096
Mof_C 	C 	0.02565	0.49907	0.87426	0.007
Mof_C 	C 	0.98514	0.45522	0.82231	-0.074
Mof_C 	C 	0.94464	0.45973	0.77308	0.027
Mof_C 	C 	0.94466	0.50811	0.77579	-0.083
Mof_C 	C 	0.98513	0.40333	0.8194	0.308
Mof_H 	H 	0.20816	0.80918	0.93258	0.038
Mof_H 	H 	0.12447	0.72549	0.93258	0.086
Mof_H 	H 	0.06885	0.65187	0.82864	0.061
Mof_H 	H 	0.05521	0.57942	0.91489	0.075
Mof_H 	H 	0.0552	0.49576	0.9102	0.048
Mof_H 	H 	0.91509	0.42774	0.73516	0.038
Mof_H 	H 	0.9151	0.5114	0.73985	0.052
Mof_O 	O 	0.75408	0.68648	0.24209	-0.515
Mof_O 	O 	0.26731	0.95707	0.19712	-0.467
Mof_O 	O 	0.30421	0.91804	0.10584	-0.388
Mof_C 	C 	0.8613	0.70462	0.22403	0.074
Mof_C 	C 	0.90967	0.70462	0.22403	-0.122
Mof_C 	C 	0.0148	0.71502	0.16396	-0.117
Mof_C 	C 	0.06319	0.71502	0.16396	0.029
Mof_C 	C 	0.11472	0.76655	0.16107	0.021
Mof_C 	C 	0.11924	0.81157	0.2103	-0.092
Mof_C 	C 	0.1676	0.85992	0.20759	0.019
Mof_C 	C 	0.21145	0.86326	0.15564	-0.118
Mof_C 	C 	0.20694	0.81825	0.10641	0.016
Mof_C 	C 	0.15856	0.76989	0.10912	-0.099
Mof_C 	C 	0.26334	0.91514	0.15273	0.291
Mof_H 	H 	0.85749	0.73232	0.26591	0.007
Mof_H 	H 	0.94118	0.73232	0.26591	0.065
Mof_H 	H 	0.0148	0.75032	0.16197	0.045
Mof_H 	H 	0.08725	0.80913	0.24822	0.05
Mof_H 	H 	0.17091	0.89278	0.24353	0.021
Mof_H 	H 	0.23893	0.82069	0.06849	0.009
Mof_H 	H 	0.15527	0.73704	0.07318	0.025
Mof_O 	O 	0.42075	0.01981	0.57542	-0.524
Mof_O 	O 	0.93398	0.2904	0.53045	-0.484
Mof_O 	O 	0.97088	0.25137	0.43917	-0.388
Mof_C 	C 	0.52797	0.03795	0.55736	0.077
Mof_C 	C 	0.57634	0.03795	0.55736	-0.12
Mof_C 	C 	0.68147	0.04835	0.49729	-0.085
Mof_C 	C 	0.72986	0.04835	0.49729	0.04
Mof_C 	C 	0.78139	0.09988	0.4944	0.027
Mof_C 	C 	0.78591	0.1449	0.54363	-0.086
Mof_C 	C 	0.83427	0.19325	0.54092	0.02
Mof_C 	C 	0.87812	0.19659	0.48897	-0.105
Mof_C 	C 	0.87361	0.15158	0.43974	0.025
Mof_C 	C 	0.82523	0.10322	0.44245	-0.085
Mof_C 	C 	0.93001	0.24847	0.48606	0.288
Mof_H 	H 	0.52416	0.06565	0.59924	0.007
Mof_H 	H 	0.60785	0.06565	0.59924	0.061
Mof_H 	H 	0.68147	0.08365	0.4953	0.052
Mof_H 	H 	0.75392	0.14246	0.58155	0.053
Mof_H 	H 	0.83758	0.22611	0.57686	0.023
Mof_H 	H 	0.9056	0.15402	0.40182	0.034
Mof_H 	H 	0.82194	0.07037	0.40651	0.046
Mof_O 	O 	0.08741	0.35315	0.90876	-0.442
Mof_O 	O 	0.60064	0.62374	0.86379	-0.447
Mof_O 	O 	0.63754	0.58471	0.77251	-0.388
Mof_C 	C 	0.19463	0.37129	0.8907	0.075
Mof_C 	C 	0.243	0.37129	0.8907	-0.103
Mof_C 	C 	0.34813	0.38169	0.83063	-0.083
Mof_C 	C 	0.39652	0.38169	0.83063	0.045
Mof_C 	C 	0.44805	0.43322	0.82774	0.036
Mof_C 	C 	0.45257	0.47824	0.87697	-0.075
Mof_C 	C 	0.50093	0.52659	0.87426	0.028
Mof_C 	C 	0.54478	0.52993	0.82231	-0.093
Mof_C 	C 	0.54027	0.48492	0.77308	0.029
Mof_C 	C 	0.49189	0.43656	0.77579	-0.081
Mof_C 	C 	0.59667	0.58181	0.8194	0.288
Mof_H 	H 	0.19082	0.39899	0.93258	0.04
Mof_H 	H 	0.27451	0.39899	0.93258	0.085
Mof_H 	H 	0.34813	0.41699	0.82864	0.059
Mof_H 	H 	0.42058	0.4758	0.91489	0.072
Mof_H 	H 	0.50424	0.55945	0.9102	0.044
Mof_H 	H 	0.57226	0.48736	0.73516	0.037
Mof_H 	H 	0.4886	0.40371	0.73985	0.051
Mof_O 	O 	0.0676	0.31352	0.75791	-0.499
Mof_O 	O 	0.31024	0.04293	0.80288	-0.478
Mof_O 	O 	0.38617	0.08196	0.89416	-0.34
Mof_C 	C 	0.15668	0.29538	0.77597	0.071
Mof_C 	C 	0.20505	0.29538	0.77597	-0.11
Mof_C 	C 	0.29978	0.28498	0.83604	-0.08
Mof_C 	C 	0.34817	0.28498	0.83604	0.045
Mof_C 	C 	0.34817	0.23345	0.83893	0.039
Mof_C 	C 	0.30767	0.18843	0.7897	-0.084
Mof_C 	C 	0.30768	0.14008	0.79241	0.028
Mof_C 	C 	0.34819	0.13674	0.84436	-0.098
Mof_C 	C 	0.38869	0.18175	0.89359	0.039
Mof_C 	C 	0.38867	0.23011	0.89088	-0.076
Mof_C 	C 	0.3482	0.08486	0.84727	0.301
Mof_H 	H 	0.12517	0.26768	0.73409	0.014
Mof_H 	H 	0.20886	0.26768	0.73409	0.061
Mof_H 	H 	0.26448	0.24968	0.83803	0.063
Mof_H 	H 	0.27812	0.19087	0.75178	0.056
Mof_H 	H 	0.27813	0.10722	0.75647	0.025
Mof_H 	H 	0.41824	0.17931	0.93151	0.058
Mof_H 	H 	0.41823	0.26296	0.92682	0.074
Mof_O 	O 	0.73427	0.64685	0.09124	-0.521
Mof_O 	O 	0.97691	0.37626	0.13621	-0.462
Mof_O 	O 	0.05284	0.41529	0.22749	-0.397
Mof_C 	C 	0.82335	0.62871	0.1093	0.068
Mof_C 	C 	0.87172	0.62871	0.1093	-0.13
Mof_C 	C 	0.96645	0.61831	0.16937	-0.068
Mof_C 	C 	0.01484	0.61831	0.16937	0.006
Mof_C 	C 	0.01484	0.56678	0.17226	0.006
Mof_C 	C 	0.97434	0.52176	0.12303	-0.078
Mof_C 	C 	0.97435	0.47341	0.12574	0.035
Mof_C 	C 	0.01486	0.47007	0.17769	-0.134
Mof_C 	C 	0.05536	0.51508	0.22692	0.025
Mof_C 	C 	0.05534	0.56344	0.22421	-0.092
Mof_C 	C 	0.01487	0.41819	0.1806	0.262
Mof_H 	H 	0.79184	0.60101	0.06742	-0.02
Mof_H 	H 	0.87553	0.60101	0.06742	0.037
Mof_H 	H 	0.93115	0.58301	0.17136	0.044
Mof_H 	H 	0.94479	0.5242	0.08511	0.033
Mof_H 	H 	0.9448	0.44055	0.0898	0.002
Mof_H 	H 	0.08491	0.51264	0.26484	0.029
Mof_H 	H 	0.0849	0.59629	0.26015	0.046
Mof_O 	O 	0.40093	0.98019	0.42458	-0.491
Mof_O 	O 	0.64357	0.7096	0.46955	-0.491
Mof_O 	O 	0.7195	0.74863	0.56083	-0.393
Mof_C 	C 	0.49001	0.96205	0.44264	0.096
Mof_C 	C 	0.53838	0.96205	0.44264	-0.101
Mof_C 	C 	0.63311	0.95165	0.50271	-0.067
Mof_C 	C 	0.6815	0.95165	0.50271	0.054
Mof_C 	C 	0.6815	0.90012	0.5056	0.026
Mof_C 	C 	0.641	0.8551	0.45637	-0.085
Mof_C 	C 	0.64101	0.80675	0.45908	0.021
Mof_C 	C 	0.68152	0.80341	0.51103	-0.107
Mof_C 	C 	0.72202	0.84842	0.56026	0.025
Mof_C 	C 	0.722	0.89678	0.55755	-0.084
Mof_C 	C 	0.68153	0.75153	0.51394	0.29
Mof_H 	H 	0.4585	0.93435	0.40076	0.004
Mof_H 	H 	0.54219	0.93435	0.40076	0.059
Mof_H 	H 	0.59781	0.91635	0.5047	0.051
Mof_H 	H 	0.61145	0.85754	0.41845	0.053
Mof_H 	H 	0.61146	0.77389	0.42314	0.023
Mof_H 	H 	0.75157	0.84598	0.59818	0.038
Mof_H 	H 	0.75156	0.92963	0.59349	0.055
Mof_O 	O 	0.24592	0.9324	0.75791	-0.503
Mof_O 	O 	0.73269	0.68976	0.80288	-0.466
Mof_O 	O 	0.69579	0.61383	0.89416	-0.343
Mof_C 	C 	0.1387	0.84332	0.77597	0.075
Mof_C 	C 	0.09033	0.79495	0.77597	-0.115
Mof_C 	C 	0.9852	0.70022	0.83604	-0.05
Mof_C 	C 	0.93681	0.65183	0.83604	0.038
Mof_C 	C 	0.88528	0.65183	0.83893	0.043
Mof_C 	C 	0.88076	0.69233	0.7897	-0.084
Mof_C 	C 	0.8324	0.69232	0.79241	0.03
Mof_C 	C 	0.78855	0.65181	0.84436	-0.096
Mof_C 	C 	0.79306	0.61131	0.89359	0.039
Mof_C 	C 	0.84144	0.61133	0.89088	-0.078
Mof_C 	C 	0.73666	0.6518	0.84727	0.298
Mof_H 	H 	0.14251	0.87483	0.73409	0.015
Mof_H 	H 	0.05882	0.79114	0.73409	0.06
Mof_H 	H 	0.9852	0.73552	0.83803	0.063
Mof_H 	H 	0.91275	0.72188	0.75178	0.061
Mof_H 	H 	0.82909	0.72187	0.75647	0.03
Mof_H 	H 	0.76107	0.58176	0.93151	0.057
Mof_H 	H 	0.84473	0.58177	0.92682	0.074
Mof_O 	O 	0.91259	0.26573	0.09124	-0.512
Mof_O 	O 	0.39936	0.02309	0.13621	-0.499
Mof_O 	O 	0.36246	0.94716	0.22749	-0.39
Mof_C 	C 	0.80537	0.17665	0.1093	0.073
Mof_C 	C 	0.757	0.12828	0.1093	-0.139
Mof_C 	C 	0.65187	0.03355	0.16937	-0.101
Mof_C 	C 	0.60348	0.98516	0.16937	0.037
Mof_C 	C 	0.55195	0.98516	0.17226	0.048
Mof_C 	C 	0.54743	0.02566	0.12303	-0.122
Mof_C 	C 	0.49907	0.02565	0.12574	-0.006
Mof_C 	C 	0.45522	0.98514	0.17769	-0.098
Mof_C 	C 	0.45973	0.94464	0.22692	0.023
Mof_C 	C 	0.50811	0.94466	0.22421	-0.098
Mof_C 	C 	0.40333	0.98513	0.1806	0.306
Mof_H 	H 	0.80918	0.20816	0.06742	-0.022
Mof_H 	H 	0.72549	0.12447	0.06742	0.039
Mof_H 	H 	0.65187	0.06885	0.17136	0.048
Mof_H 	H 	0.57942	0.05521	0.08511	0.039
Mof_H 	H 	0.49576	0.0552	0.0898	0.008
Mof_H 	H 	0.42774	0.91509	0.26484	0.03
Mof_H 	H 	0.5114	0.9151	0.26015	0.049
Mof_O 	O 	0.57925	0.59907	0.42458	-0.517
Mof_O 	O 	0.06602	0.35643	0.46955	-0.5
Mof_O 	O 	0.02912	0.2805	0.56083	-0.401
Mof_C 	C 	0.47203	0.50999	0.44264	0.078
Mof_C 	C 	0.42366	0.46162	0.44264	-0.122
Mof_C 	C 	0.31853	0.36689	0.50271	-0.081
Mof_C 	C 	0.27014	0.3185	0.50271	0.03
Mof_C 	C 	0.21861	0.3185	0.5056	0.034
Mof_C 	C 	0.21409	0.359	0.45637	-0.092
Mof_C 	C 	0.16573	0.35899	0.45908	0.027
Mof_C 	C 	0.12188	0.31848	0.51103	-0.114
Mof_C 	C 	0.12639	0.27798	0.56026	0.03
Mof_C 	C 	0.17477	0.278	0.55755	-0.093
Mof_C 	C 	0.06999	0.31847	0.51394	0.295
Mof_H 	H 	0.47584	0.5415	0.40076	0.007
Mof_H 	H 	0.39215	0.45781	0.40076	0.062
Mof_H 	H 	0.31853	0.40219	0.5047	0.052
Mof_H 	H 	0.24608	0.38855	0.41845	0.055
Mof_H 	H 	0.16242	0.38854	0.42314	0.02
Mof_H 	H 	0.0944	0.24843	0.59818	0.031
Mof_H 	H 	0.17806	0.24844	0.59349	0.05
Mof_O 	O 	0.68648	0.75408	0.75791	-0.502
Mof_O 	O 	0.95707	0.26731	0.80288	-0.448
Mof_O 	O 	0.91804	0.30421	0.89416	-0.332
Mof_C 	C 	0.70462	0.8613	0.77597	0.071
Mof_C 	C 	0.70462	0.90967	0.77597	-0.104
Mof_C 	C 	0.71502	0.0148	0.83604	-0.11
Mof_C 	C 	0.71502	0.06319	0.83604	0.054
Mof_C 	C 	0.76655	0.11472	0.83893	0.032
Mof_C 	C 	0.81157	0.11924	0.7897	-0.076
Mof_C 	C 	0.85992	0.1676	0.79241	0.023
Mof_C 	C 	0.86326	0.21145	0.84436	-0.089
Mof_C 	C 	0.81825	0.20694	0.89359	0.033
Mof_C 	C 	0.76989	0.15856	0.89088	-0.071
Mof_C 	C 	0.91514	0.26334	0.84727	0.295
Mof_H 	H 	0.73232	0.85749	0.73409	0.018
Mof_H 	H 	0.73232	0.94118	0.73409	0.066
Mof_H 	H 	0.75032	0.0148	0.83803	0.068
Mof_H 	H 	0.80913	0.08725	0.75178	0.054
Mof_H 	H 	0.89278	0.17091	0.75647	0.033
Mof_H 	H 	0.82069	0.23893	0.93151	0.059
Mof_H 	H 	0.73704	0.15527	0.92682	0.071
Mof_O 	O 	0.35315	0.08741	0.09124	-0.515
Mof_O 	O 	0.62374	0.60064	0.13621	-0.487
Mof_O 	O 	0.58471	0.63754	0.22749	-0.395
Mof_C 	C 	0.37129	0.19463	0.1093	0.07
Mof_C 	C 	0.37129	0.243	0.1093	-0.134
Mof_C 	C 	0.38169	0.34813	0.16937	-0.084
Mof_C 	C 	0.38169	0.39652	0.16937	0.02
Mof_C 	C 	0.43322	0.44805	0.17226	0.027
Mof_C 	C 	0.47824	0.45257	0.12303	-0.101
Mof_C 	C 	0.52659	0.50093	0.12574	0.015
Mof_C 	C 	0.52993	0.54478	0.17769	-0.118
Mof_C 	C 	0.48492	0.54027	0.22692	0.024
Mof_C 	C 	0.43656	0.49189	0.22421	-0.096
Mof_C 	C 	0.58181	0.59667	0.1806	0.285
Mof_H 	H 	0.39899	0.19082	0.06742	-0.021
Mof_H 	H 	0.39899	0.27451	0.06742	0.037
Mof_H 	H 	0.41699	0.34813	0.17136	0.046
Mof_H 	H 	0.4758	0.42058	0.08511	0.036
Mof_H 	H 	0.55945	0.50424	0.0898	0.005
Mof_H 	H 	0.48736	0.57226	0.26484	0.029
Mof_H 	H 	0.40371	0.4886	0.26015	0.048
Mof_O 	O 	0.01981	0.42075	0.42458	-0.524
Mof_O 	O 	0.2904	0.93398	0.46955	-0.483
Mof_O 	O 	0.25137	0.97088	0.56083	-0.387
Mof_C 	C 	0.03795	0.52797	0.44264	0.079
Mof_C 	C 	0.03795	0.57634	0.44264	-0.12
Mof_C 	C 	0.04835	0.68147	0.50271	-0.085
Mof_C 	C 	0.04835	0.72986	0.50271	0.041
Mof_C 	C 	0.09988	0.78139	0.5056	0.026
Mof_C 	C 	0.1449	0.78591	0.45637	-0.085
Mof_C 	C 	0.19325	0.83427	0.45908	0.02
Mof_C 	C 	0.19659	0.87812	0.51103	-0.104
Mof_C 	C 	0.15158	0.87361	0.56026	0.023
Mof_C 	C 	0.10322	0.82523	0.55755	-0.085
Mof_C 	C 	0.24847	0.93001	0.51394	0.287
Mof_H 	H 	0.06565	0.52416	0.40076	0.007
Mof_H 	H 	0.06565	0.60785	0.40076	0.061
Mof_H 	H 	0.08365	0.68147	0.5047	0.053
Mof_H 	H 	0.14246	0.75392	0.41845	0.053
Mof_H 	H 	0.22611	0.83758	0.42314	0.023
Mof_H 	H 	0.15402	0.9056	0.59818	0.038
Mof_H 	H 	0.07037	0.82194	0.59349	0.048
Mof_La	La	0.32245	0	-0	1.669
Mof_La	La	0.98912	0.33333	0.33333	2.027
Mof_La	La	0.65578	0.66667	0.66667	1.977
Mof_La	La	-0	0.32245	-0	1.669
Mof_La	La	0.66667	0.65578	0.33333	1.968
Mof_La	La	0.33333	0.98912	0.66667	2.033
Mof_La	La	0.67755	0.67755	-0	1.73
Mof_La	La	0.34422	0.01088	0.33333	1.91
Mof_La	La	0.01088	0.34422	0.66667	1.92
Mof_C 	C 	0.33333	0.09957	0.16667	0.438
Mof_C 	C 	0.33333	0.15147	0.16667	-0.204
Mof_C 	C 	0.33333	0.24823	0.16667	0.055
Mof_C 	C 	0.33333	0.29978	0.16667	0.012
Mof_C 	C 	0.33333	0.39652	0.16667	-0.092
Mof_H 	H 	0.33333	0.43183	0.16667	0.043
Mof_C 	C 	-2.2462e-18	0.4329	0.5	0.425
Mof_C 	C 	-2.77513e-17	0.48481	0.5	-0.214
Mof_C 	C 	-2.77513e-17	0.58157	0.5	0.038
Mof_C 	C 	-2.77513e-17	0.63312	0.5	0.008
Mof_C 	C 	2.32589e-17	0.72986	0.5	-0.121
Mof_H 	H 	-2.77513e-17	0.76517	0.5	0.056
Mof_C 	C 	0.90043	0.23376	0.16667	0.442
Mof_C 	C 	0.84853	0.18186	0.16667	-0.207
Mof_C 	C 	0.75177	0.0851	0.16667	0.062
Mof_C 	C 	0.70022	0.03355	0.16667	-0.011
Mof_C 	C 	0.60348	0.93681	0.16667	-0.09
Mof_H 	H 	0.56817	0.9015	0.16667	0.043
Mof_C 	C 	0.5671	0.5671	0.5	0.447
Mof_C 	C 	0.51519	0.5152	0.5	-0.196
Mof_C 	C 	0.41844	0.41844	0.5	0.06
Mof_C 	C 	0.36688	0.36688	0.5	0.023
Mof_C 	C 	0.27014	0.27014	0.5	-0.088
Mof_H 	H 	0.23483	0.23483	0.5	0.05
Mof_C 	C 	0.76624	0.66667	0.16667	0.441
Mof_C 	C 	0.81814	0.66667	0.16667	-0.203
Mof_C 	C 	0.9149	0.66667	0.16667	0.049
Mof_C 	C 	0.96645	0.66667	0.16667	0.036
Mof_C 	C 	0.06319	0.66667	0.16667	-0.095
Mof_H 	H 	0.0985	0.66667	0.16667	0.044
Mof_C 	C 	0.4329	0	0.5	0.425
Mof_C 	C 	0.48481	0	0.5	-0.214
Mof_C 	C 	0.58157	0	0.5	0.039
Mof_C 	C 	0.63312	0	0.5	0.009
Mof_C 	C 	0.72986	0	0.5	-0.12
Mof_H 	H 	0.76517	0	0.5	0.056
Mof_C 	C 	0.09957	0.33333	0.83333	0.428
Mof_C 	C 	0.15147	0.33333	0.83333	-0.17
Mof_C 	C 	0.24823	0.33333	0.83333	0.059
Mof_C 	C 	0.29978	0.33333	0.83333	0.038
Mof_C 	C 	0.39652	0.33333	0.83333	-0.087
Mof_H 	H 	0.43183	0.33333	0.83333	0.061
Mof_C 	C 	0.23376	0.90043	0.83333	0.433
Mof_C 	C 	0.18186	0.84853	0.83333	-0.173
Mof_C 	C 	0.0851	0.75177	0.83333	0.066
Mof_C 	C 	0.03355	0.70022	0.83333	0.016
Mof_C 	C 	0.93681	0.60348	0.83333	-0.086
Mof_H 	H 	0.9015	0.56817	0.83333	0.061
Mof_C 	C 	0.66667	0.76624	0.83333	0.432
Mof_C 	C 	0.66667	0.81814	0.83333	-0.169
Mof_C 	C 	0.66667	0.9149	0.83333	0.053
Mof_C 	C 	0.66667	0.96645	0.83333	0.06
Mof_C 	C 	0.66667	0.06319	0.83333	-0.09
Mof_H 	H 	0.66667	0.0985	0.83333	0.062
_end
