data_functionalizedCrystal
_audit_creation_method	'EQeq! by Chris Wilmer'
_symmetry_space_group_name_H-M	'P1'
_symmetry_Int_Tables_number	1
_symmetry_cell_setting	triclinic
loop_
_symmetry_equiv_pos_as_xyz
  x,y,z
_cell_length_a	15.5918
_cell_length_b	15.3726
_cell_length_c	18.2802
_cell_angle_alpha	90
_cell_angle_beta	90
_cell_angle_gamma	90
loop_
_atom_site_label
_atom_site_type_symbol
_atom_site_fract_x
_atom_site_fract_y
_atom_site_fract_z
_atom_site_charge
Mof_O 	O 	0.4092	0.7413	0.1898	-0.303
Mof_O 	O 	0.0905	0.4251	0.3111	-0.308
Mof_C 	C 	0.2823	0.6155	0.3163	-0.163
Mof_H 	H 	0.3024	0.6388	0.36	0.118
Mof_C 	C 	0.2187	0.5505	0.3173	0.207
Mof_N 	N 	0.194	0.528	0.3794	-0.12
Mof_O 	O 	0.9092	0.2413	0.1898	-0.255
Mof_O 	O 	0.5905	0.9251	0.3111	-0.306
Mof_C 	C 	0.7823	0.1155	0.3163	-0.171
Mof_H 	H 	0.8024	0.1388	0.36	0.133
Mof_C 	C 	0.7187	0.0505	0.3173	0.219
Mof_N 	N 	0.694	0.028	0.3794	-0.117
Mof_O 	O 	0.5908	0.7413	0.3102	-0.3
Mof_O 	O 	0.9095	0.4251	0.1889	-0.259
Mof_C 	C 	0.7177	0.6155	0.1837	-0.156
Mof_H 	H 	0.6976	0.6388	0.14	0.122
Mof_C 	C 	0.7813	0.5505	0.1827	0.211
Mof_N 	N 	0.806	0.528	0.1206	-0.104
Mof_O 	O 	0.0908	0.2413	0.3102	-0.306
Mof_O 	O 	0.4095	0.9251	0.1889	-0.309
Mof_C 	C 	0.2177	0.1155	0.1837	-0.165
Mof_H 	H 	0.1976	0.1388	0.14	0.117
Mof_C 	C 	0.2813	0.0505	0.1827	0.207
Mof_N 	N 	0.306	0.028	0.1206	-0.122
Mof_O 	O 	0.4092	0.7413	0.3102	-0.303
Mof_O 	O 	0.0905	0.4251	0.1889	-0.308
Mof_C 	C 	0.2823	0.6155	0.1837	-0.163
Mof_H 	H 	0.3024	0.6388	0.14	0.118
Mof_C 	C 	0.2187	0.5505	0.1827	0.207
Mof_N 	N 	0.194	0.528	0.1206	-0.12
Mof_O 	O 	0.9092	0.2413	0.3102	-0.255
Mof_O 	O 	0.5905	0.9251	0.1889	-0.306
Mof_C 	C 	0.7823	0.1155	0.1837	-0.171
Mof_H 	H 	0.8024	0.1388	0.14	0.132
Mof_C 	C 	0.7187	0.0505	0.1827	0.219
Mof_N 	N 	0.694	0.028	0.1206	-0.117
Mof_O 	O 	0.5908	0.7413	0.1898	-0.301
Mof_O 	O 	0.9095	0.4251	0.3111	-0.259
Mof_C 	C 	0.7177	0.6155	0.3163	-0.156
Mof_H 	H 	0.6976	0.6388	0.36	0.122
Mof_C 	C 	0.7813	0.5505	0.3173	0.211
Mof_N 	N 	0.806	0.528	0.3794	-0.104
Mof_O 	O 	0.0908	0.2413	0.1898	-0.306
Mof_O 	O 	0.4095	0.9251	0.3111	-0.309
Mof_C 	C 	0.2177	0.1155	0.3163	-0.165
Mof_H 	H 	0.1976	0.1388	0.36	0.117
Mof_C 	C 	0.2813	0.0505	0.3173	0.207
Mof_N 	N 	0.306	0.028	0.3794	-0.122
Mof_Cd	Cd	0.5	0.83372	0.17023	0.551
Mof_N 	N 	0.5	0.8371	0.061	-0.178
Mof_C 	C 	0.5	0.9162	0.0209	0.223
Mof_C 	C 	0.5	0.763	0.0193	0.118
Mof_H 	H 	0.5	0.9674	0.048	-0.077
Mof_C 	C 	0.5	0.9243	0.9495	-0.262
Mof_C 	C 	0.5	0.776	0.9407	-0.207
Mof_H 	H 	0.5	0.7078	0.0401	0.01
Mof_C 	C 	0.5	0.847	0.9076	0.175
Mof_H 	H 	0.5	0.9787	0.9273	0.177
Mof_H 	H 	0.5	0.7263	0.9119	0.122
Mof_C 	C 	0.5	0.854	0.8331	0.026
Mof_N 	N 	0.5	0.8068	0.7867	-0.076
Mof_Cd	Cd	-6.4534e-33	0.33372	0.17023	0.491
Mof_N 	N 	-2.61254e-33	0.3371	0.061	-0.183
Mof_C 	C 	-2.06864e-33	0.4162	0.0209	0.207
Mof_C 	C 	-4.55288e-34	0.263	0.0193	0.107
Mof_H 	H 	4.53203e-33	0.4674	0.048	-0.075
Mof_C 	C 	2.72194e-32	0.4243	0.9495	-0.264
Mof_C 	C 	-7.38753e-33	0.276	0.9407	-0.211
Mof_H 	H 	1.25653e-33	0.2078	0.0401	-0.002
Mof_C 	C 	1.55124e-32	0.347	0.9076	0.167
Mof_H 	H 	4.0763e-33	0.4787	0.9273	0.167
Mof_H 	H 	-7.51413e-33	0.2263	0.9119	0.111
Mof_C 	C 	-7.86053e-33	0.354	0.8331	0.008
Mof_N 	N 	-8.0645e-33	0.3068	0.7867	-0.082
Mof_Cd	Cd	0.5	0.83372	0.32977	0.551
Mof_N 	N 	0.5	0.8371	0.439	-0.179
Mof_C 	C 	0.5	0.9162	0.4791	0.225
Mof_C 	C 	0.5	0.763	0.4807	0.12
Mof_H 	H 	0.5	0.9674	0.452	-0.078
Mof_C 	C 	0.5	0.9243	0.5505	-0.264
Mof_C 	C 	0.5	0.776	0.5593	-0.209
Mof_H 	H 	0.5	0.7078	0.4599	0.009
Mof_C 	C 	0.5	0.847	0.5924	0.177
Mof_H 	H 	0.5	0.9787	0.5727	0.178
Mof_H 	H 	0.5	0.7263	0.5881	0.122
Mof_C 	C 	0.5	0.854	0.6669	0.026
Mof_N 	N 	0.5	0.8068	0.7133	-0.076
Mof_Cd	Cd	-1.43105e-33	0.33372	0.32977	0.49
Mof_N 	N 	1.92979e-33	0.3371	0.439	-0.182
Mof_C 	C 	2.10607e-33	0.4162	0.4791	0.206
Mof_C 	C 	2.1131e-33	0.263	0.4807	0.106
Mof_H 	H 	7.74831e-33	0.4674	0.452	-0.075
Mof_C 	C 	2.41994e-33	0.4243	0.5505	-0.262
Mof_C 	C 	-3.30275e-33	0.276	0.5593	-0.21
Mof_H 	H 	2.02167e-33	0.2078	0.4599	-0.002
Mof_C 	C 	2.60412e-33	0.347	0.5924	0.166
Mof_H 	H 	2.51752e-33	0.4787	0.5727	0.166
Mof_H 	H 	8.34659e-33	0.2263	0.5881	0.11
Mof_C 	C 	2.93162e-33	0.354	0.6669	0.008
Mof_N 	N 	3.13559e-33	0.3068	0.7133	-0.083
Mof_C 	C 	0.3832	0.7159	0.25	0.316
Mof_C 	C 	0.3152	0.6451	0.25	0.043
Mof_C 	C 	0.1868	0.5191	0.25	-0.198
Mof_C 	C 	0.117	0.4532	0.25	0.377
Mof_C 	C 	0.8832	0.2159	0.25	0.3
Mof_C 	C 	0.8152	0.1451	0.25	0.067
Mof_C 	C 	0.6868	0.0191	0.25	-0.201
Mof_C 	C 	0.617	0.9532	0.25	0.386
Mof_C 	C 	0.6168	0.7159	0.25	0.318
Mof_C 	C 	0.6848	0.6451	0.25	0.046
Mof_C 	C 	0.8132	0.5191	0.25	-0.182
Mof_C 	C 	0.883	0.4532	0.25	0.374
Mof_C 	C 	0.1168	0.2159	0.25	0.309
Mof_C 	C 	0.1848	0.1451	0.25	0.042
Mof_C 	C 	0.3132	0.0191	0.25	-0.201
Mof_C 	C 	0.383	0.9532	0.25	0.383
Mof_O 	O 	0.5908	0.2587	0.6898	-0.3
Mof_O 	O 	0.9095	0.5749	0.8111	-0.259
Mof_C 	C 	0.7177	0.3845	0.8163	-0.156
Mof_H 	H 	0.6976	0.3612	0.86	0.122
Mof_C 	C 	0.7813	0.4495	0.8173	0.211
Mof_N 	N 	0.806	0.472	0.8794	-0.104
Mof_O 	O 	0.0908	0.7587	0.6898	-0.306
Mof_O 	O 	0.4095	0.0749	0.8111	-0.309
Mof_C 	C 	0.2177	0.8845	0.8163	-0.165
Mof_H 	H 	0.1976	0.8612	0.86	0.117
Mof_C 	C 	0.2813	0.9495	0.8173	0.207
Mof_N 	N 	0.306	0.972	0.8794	-0.122
Mof_O 	O 	0.4092	0.2587	0.8102	-0.303
Mof_O 	O 	0.0905	0.5749	0.6889	-0.308
Mof_C 	C 	0.2823	0.3845	0.6837	-0.163
Mof_H 	H 	0.3024	0.3612	0.64	0.118
Mof_C 	C 	0.2187	0.4495	0.6827	0.207
Mof_N 	N 	0.194	0.472	0.6206	-0.12
Mof_O 	O 	0.9092	0.7587	0.8102	-0.255
Mof_O 	O 	0.5905	0.0749	0.6889	-0.306
Mof_C 	C 	0.7823	0.8845	0.6837	-0.171
Mof_H 	H 	0.8024	0.8612	0.64	0.133
Mof_C 	C 	0.7187	0.9495	0.6827	0.219
Mof_N 	N 	0.694	0.972	0.6206	-0.117
Mof_O 	O 	0.5908	0.2587	0.8102	-0.301
Mof_O 	O 	0.9095	0.5749	0.6889	-0.259
Mof_C 	C 	0.7177	0.3845	0.6837	-0.156
Mof_H 	H 	0.6976	0.3612	0.64	0.122
Mof_C 	C 	0.7813	0.4495	0.6827	0.211
Mof_N 	N 	0.806	0.472	0.6206	-0.104
Mof_O 	O 	0.0908	0.7587	0.8102	-0.306
Mof_O 	O 	0.4095	0.0749	0.6889	-0.309
Mof_C 	C 	0.2177	0.8845	0.6837	-0.165
Mof_H 	H 	0.1976	0.8612	0.64	0.117
Mof_C 	C 	0.2813	0.9495	0.6827	0.207
Mof_N 	N 	0.306	0.972	0.6206	-0.122
Mof_O 	O 	0.4092	0.2587	0.6898	-0.303
Mof_O 	O 	0.0905	0.5749	0.8111	-0.308
Mof_C 	C 	0.2823	0.3845	0.8163	-0.163
Mof_H 	H 	0.3024	0.3612	0.86	0.118
Mof_C 	C 	0.2187	0.4495	0.8173	0.207
Mof_N 	N 	0.194	0.472	0.8794	-0.12
Mof_O 	O 	0.9092	0.7587	0.6898	-0.255
Mof_O 	O 	0.5905	0.0749	0.8111	-0.306
Mof_C 	C 	0.7823	0.8845	0.8163	-0.171
Mof_H 	H 	0.8024	0.8612	0.86	0.132
Mof_C 	C 	0.7187	0.9495	0.8173	0.219
Mof_N 	N 	0.694	0.972	0.8794	-0.117
Mof_Cd	Cd	0.5	0.16628	0.67023	0.551
Mof_N 	N 	0.5	0.1629	0.561	-0.179
Mof_C 	C 	0.5	0.0838	0.5209	0.225
Mof_C 	C 	0.5	0.237	0.5193	0.12
Mof_H 	H 	0.5	0.0326	0.548	-0.078
Mof_C 	C 	0.5	0.0757	0.4495	-0.264
Mof_C 	C 	0.5	0.224	0.4407	-0.209
Mof_H 	H 	0.5	0.2922	0.5401	0.009
Mof_C 	C 	0.5	0.153	0.4076	0.177
Mof_H 	H 	0.5	0.0213	0.4273	0.178
Mof_H 	H 	0.5	0.2737	0.4119	0.122
Mof_C 	C 	0.5	0.146	0.3331	0.026
Mof_N 	N 	0.5	0.1932	0.2867	-0.076
Mof_Cd	Cd	-2.81512e-33	0.66628	0.67023	0.49
Mof_N 	N 	2.46609e-33	0.6629	0.561	-0.182
Mof_C 	C 	8.05119e-33	0.5838	0.5209	0.206
Mof_C 	C 	-3.47859e-33	0.737	0.5193	0.106
Mof_H 	H 	8.17032e-33	0.5326	0.548	-0.075
Mof_C 	C 	-3.78542e-33	0.5757	0.4495	-0.262
Mof_C 	C 	1.346e-32	0.724	0.4407	-0.21
Mof_H 	H 	-3.38715e-33	0.7922	0.5401	-0.002
Mof_C 	C 	-3.96961e-33	0.653	0.4076	0.166
Mof_H 	H 	1.87836e-33	0.5213	0.4273	0.166
Mof_H 	H 	1.81067e-33	0.7737	0.4119	0.11
Mof_C 	C 	-4.2971e-33	0.646	0.3331	0.008
Mof_N 	N 	-1.02624e-32	0.6932	0.2867	-0.083
Mof_Cd	Cd	0.5	0.16628	0.82977	0.551
Mof_N 	N 	0.5	0.1629	0.939	-0.178
Mof_C 	C 	0.5	0.0838	0.9791	0.223
Mof_C 	C 	0.5	0.237	0.9807	0.118
Mof_H 	H 	0.5	0.0326	0.952	-0.077
Mof_C 	C 	0.5	0.0757	0.0505	-0.262
Mof_C 	C 	0.5	0.224	0.0593	-0.207
Mof_H 	H 	0.5	0.2922	0.9599	0.01
Mof_C 	C 	0.5	0.153	0.0924	0.175
Mof_H 	H 	0.5	0.0213	0.0727	0.177
Mof_H 	H 	0.5	0.2737	0.0881	0.122
Mof_C 	C 	0.5	0.146	0.1669	0.026
Mof_N 	N 	0.5	0.1932	0.2133	-0.076
Mof_Cd	Cd	3.64757e-33	0.66628	0.82977	0.491
Mof_N 	N 	-7.39501e-33	0.6629	0.939	-0.183
Mof_C 	C 	-7.21873e-33	0.5838	0.9791	0.207
Mof_C 	C 	4.31105e-33	0.737	0.9807	0.107
Mof_H 	H 	4.18488e-33	0.5326	0.952	-0.075
Mof_C 	C 	-4.81921e-33	0.5757	0.0505	-0.264
Mof_C 	C 	-1.17967e-33	0.724	0.0593	-0.211
Mof_H 	H 	-7.30313e-33	0.7922	0.9599	-0.002
Mof_C 	C 	4.0618e-34	0.653	0.0924	0.167
Mof_H 	H 	-1.12076e-33	0.5213	0.0727	0.167
Mof_H 	H 	-3.21358e-33	0.7737	0.0881	0.111
Mof_C 	C 	7.33673e-34	0.646	0.1669	0.008
Mof_N 	N 	-7.70441e-33	0.6932	0.2133	-0.082
Mof_C 	C 	0.6168	0.2841	0.75	0.318
Mof_C 	C 	0.6848	0.3549	0.75	0.046
Mof_C 	C 	0.8132	0.4809	0.75	-0.182
Mof_C 	C 	0.883	0.5468	0.75	0.374
Mof_C 	C 	0.1168	0.7841	0.75	0.309
Mof_C 	C 	0.1848	0.8549	0.75	0.042
Mof_C 	C 	0.3132	0.9809	0.75	-0.201
Mof_C 	C 	0.383	0.0468	0.75	0.383
Mof_C 	C 	0.3832	0.2841	0.75	0.316
Mof_C 	C 	0.3152	0.3549	0.75	0.043
Mof_C 	C 	0.1868	0.4809	0.75	-0.198
Mof_C 	C 	0.117	0.5468	0.75	0.377
Mof_C 	C 	0.8832	0.7841	0.75	0.3
Mof_C 	C 	0.8152	0.8549	0.75	0.067
Mof_C 	C 	0.6868	0.9809	0.75	-0.201
Mof_C 	C 	0.617	0.0468	0.75	0.386
_end
