# CIF file generated by openbabel 3.1.0, see https://openbabel.org
data_I
_chemical_name_common 'image0'
_cell_length_a 13.919
_cell_length_b 17.8965
_cell_length_c 16.1361
_cell_angle_alpha 90
_cell_angle_beta 98.619
_cell_angle_gamma 90
_space_group_name_H-M_alt 'P 1'
_space_group_name_Hall 'P 1'
loop_
    _symmetry_equiv_pos_as_xyz
    x,y,z
loop_
    _atom_site_label
    _atom_site_type_symbol
    _atom_site_fract_x
    _atom_site_fract_y
    _atom_site_fract_z
    _atom_site_occupancy
    C1       C        0.99460    0.30050    0.23610    1.000
    C2       C        0.00460    0.50090    0.16660    1.000
    C3       C        0.99460    0.43230    0.30840    1.000
    C4       C        0.00450    0.36870    0.08780    1.000
    C5       C        0.13960    0.39700    0.22220    1.000
    C6       C        0.86050    0.40240    0.17610    1.000
    C7       C        0.78260    0.44740    0.44410    1.000
    H1       H        0.81490    0.41180    0.41650    1.000
    C8       C        0.68400    0.43960    0.44100    1.000
    H2       H        0.65150    0.39990    0.41210    1.000
    C9       C        0.63350    0.49110    0.48110    1.000
    C10      C        0.68570    0.54960    0.52070    1.000
    H3       H        0.65420    0.58680    0.54670    1.000
    C11      C        0.78530    0.55290    0.52160    1.000
    H4       H        0.81940    0.59220    0.55000    1.000
    C12      C        0.52590    0.48120    0.47920    1.000
    H5       H        0.49540    0.44420    0.44430    1.000
    N1       N        0.99140    0.24240    0.26780    1.000
    N2       N        0.00780    0.56260    0.15120    1.000
    N3       N        0.99250    0.44930    0.37600    1.000
    N4       N        0.00730    0.35080    0.01910    1.000
    N5       N        0.22190    0.39610    0.23740    1.000
    N6       N        0.77710    0.40450    0.16640    1.000
    N7       N        0.83520    0.50260    0.48390    1.000
    Co1      Co       0.99839    0.17827    0.38682    1.000
    Cr1      Cr       0.99974    0.39971    0.19847    1.000
    C13      C        0.00540    0.80050    0.26390    1.000
    C14      C        0.99540    0.00090    0.33340    1.000
    C15      C        0.00540    0.93230    0.19160    1.000
    C16      C        0.99550    0.86870    0.41220    1.000
    C17      C        0.86040    0.89700    0.27780    1.000
    C18      C        0.13950    0.90240    0.32390    1.000
    C19      C        0.21740    0.94740    0.05590    1.000
    H6       H        0.18510    0.91180    0.08350    1.000
    C20      C        0.31600    0.93960    0.05900    1.000
    H7       H        0.34850    0.89990    0.08790    1.000
    C21      C        0.36650    0.99110    0.01890    1.000
    C22      C        0.31430    0.04960    0.97930    1.000
    H8       H        0.34580    0.08680    0.95330    1.000
    C23      C        0.21470    0.05290    0.97840    1.000
    H9       H        0.18060    0.09220    0.95000    1.000
    C24      C        0.47410    0.98120    0.02080    1.000
    H10      H        0.50460    0.94420    0.05570    1.000
    N8       N        0.00860    0.74240    0.23220    1.000
    N9       N        0.99220    0.06260    0.34880    1.000
    N10      N        0.00750    0.94930    0.12400    1.000
    N11      N        0.99270    0.85080    0.48090    1.000
    N12      N        0.77810    0.89610    0.26260    1.000
    N13      N        0.22290    0.90450    0.33360    1.000
    N14      N        0.16480    0.00260    0.01610    1.000
    Co2      Co       0.00161    0.67827    0.11318    1.000
    Cr2      Cr       0.00026    0.89971    0.30153    1.000
    C25      C        0.00540    0.69950    0.76390    1.000
    C26      C        0.99540    0.49910    0.83340    1.000
    C27      C        0.00540    0.56770    0.69160    1.000
    C28      C        0.99550    0.63130    0.91220    1.000
    C29      C        0.86040    0.60300    0.77780    1.000
    C30      C        0.13950    0.59760    0.82390    1.000
    C31      C        0.21740    0.55260    0.55590    1.000
    H11      H        0.18510    0.58820    0.58350    1.000
    C32      C        0.31600    0.56040    0.55900    1.000
    H12      H        0.34850    0.60010    0.58790    1.000
    C33      C        0.36650    0.50890    0.51890    1.000
    C34      C        0.31430    0.45040    0.47930    1.000
    H13      H        0.34580    0.41320    0.45330    1.000
    C35      C        0.21470    0.44710    0.47840    1.000
    H14      H        0.18060    0.40780    0.45000    1.000
    C36      C        0.47410    0.51880    0.52080    1.000
    H15      H        0.50460    0.55580    0.55570    1.000
    N15      N        0.00860    0.75760    0.73220    1.000
    N16      N        0.99220    0.43740    0.84880    1.000
    N17      N        0.00750    0.55070    0.62400    1.000
    N18      N        0.99270    0.64920    0.98090    1.000
    N19      N        0.77810    0.60390    0.76260    1.000
    N20      N        0.22290    0.59550    0.83360    1.000
    N21      N        0.16480    0.49740    0.51610    1.000
    Co3      Co       0.00161    0.82173    0.61318    1.000
    Cr3      Cr       0.00026    0.60029    0.80153    1.000
    C37      C        0.99460    0.19950    0.73610    1.000
    C38      C        0.00460    0.99910    0.66660    1.000
    C39      C        0.99460    0.06770    0.80840    1.000
    C40      C        0.00450    0.13130    0.58780    1.000
    C41      C        0.13960    0.10300    0.72220    1.000
    C42      C        0.86050    0.09760    0.67610    1.000
    C43      C        0.78260    0.05260    0.94410    1.000
    H16      H        0.81490    0.08820    0.91650    1.000
    C44      C        0.68400    0.06040    0.94100    1.000
    H17      H        0.65150    0.10010    0.91210    1.000
    C45      C        0.63350    0.00890    0.98110    1.000
    C46      C        0.68570    0.95040    0.02070    1.000
    H18      H        0.65420    0.91320    0.04670    1.000
    C47      C        0.78530    0.94710    0.02160    1.000
    H19      H        0.81940    0.90780    0.05000    1.000
    C48      C        0.52590    0.01880    0.97920    1.000
    H20      H        0.49540    0.05580    0.94430    1.000
    N22      N        0.99140    0.25760    0.76780    1.000
    N23      N        0.00780    0.93740    0.65120    1.000
    N24      N        0.99250    0.05070    0.87600    1.000
    N25      N        0.00730    0.14920    0.51910    1.000
    N26      N        0.22190    0.10390    0.73740    1.000
    N27      N        0.77710    0.09550    0.66640    1.000
    N28      N        0.83520    0.99740    0.98390    1.000
    Co4      Co       0.99839    0.32173    0.88682    1.000
    Cr4      Cr       0.99974    0.10029    0.69847    1.000
    Co5      Co       0.00000    0.50000    0.50000    1.000
    Co6      Co       0.00000    0.00000    0.00000    1.000
