data_functionalizedCrystal
_audit_creation_method	'EQeq! by Chris Wilmer'
_symmetry_space_group_name_H-M	'P1'
_symmetry_Int_Tables_number	1
_symmetry_cell_setting	triclinic
loop_
_symmetry_equiv_pos_as_xyz
  x,y,z
_cell_length_a	16.469
_cell_length_b	15.5386
_cell_length_c	14.54
_cell_angle_alpha	90
_cell_angle_beta	117.5
_cell_angle_gamma	90
loop_
_atom_site_label
_atom_site_type_symbol
_atom_site_fract_x
_atom_site_fract_y
_atom_site_fract_z
_atom_site_charge
Mof_O 	O 	0.58799	0.58415	0.75518	-0.498
Mof_O 	O 	0.57563	0.59357	0.59774	-0.518
Mof_O 	O 	0.91706	0.90533	0.9149	-0.424
Mof_O 	O 	0.91903	0.8985	0.76338	-0.445
Mof_O 	O 	0.41553	0.48161	0.57755	-1.14
Mof_H 	H 	0.3643	0.5076	0.543	0.422
Mof_H 	H 	0.407	0.4312	0.574	0.466
Mof_C 	C 	0.60618	0.61723	0.6889	0.472
Mof_C 	C 	0.67375	0.68976	0.7234	-0.142
Mof_C 	C 	0.7563	0.67662	0.8098	0.026
Mof_H 	H 	0.7664	0.6258	0.8473	0.031
Mof_C 	C 	0.82505	0.73884	0.8415	-0.021
Mof_H 	H 	0.8806	0.7287	0.8999	0.072
Mof_C 	C 	0.81237	0.81395	0.78872	-0.09
Mof_C 	C 	0.72647	0.83208	0.7019	0.035
Mof_C 	C 	0.7077	0.91255	0.6502	-0.061
Mof_H 	H 	0.7533	0.9543	0.6714	0.076
Mof_C 	C 	0.6241	0.9295	0.5701	-0.038
Mof_H 	H 	0.6126	0.9827	0.5371	0.069
Mof_C 	C 	0.5551	0.8671	0.537	0.003
Mof_H 	H 	0.498	0.8791	0.4818	0.041
Mof_C 	C 	0.5706	0.7889	0.5846	-0.104
Mof_H 	H 	0.5239	0.7482	0.5614	0.085
Mof_C 	C 	0.65671	0.76871	0.6688	0.078
Mof_C 	C 	0.88857	0.87817	0.8247	0.433
Mof_O 	O 	0.08799	0.08415	0.75518	-0.567
Mof_O 	O 	0.07563	0.09357	0.59774	-0.577
Mof_O 	O 	0.41706	0.40533	0.9149	-0.505
Mof_O 	O 	0.41903	0.3985	0.76338	-0.519
Mof_O 	O 	0.91553	0.98161	0.57755	-0.912
Mof_H 	H 	0.8643	0.0076	0.543	0.306
Mof_H 	H 	0.907	0.9312	0.574	0.418
Mof_C 	C 	0.10618	0.11723	0.6889	0.441
Mof_C 	C 	0.17375	0.18976	0.7234	-0.061
Mof_C 	C 	0.2563	0.17662	0.8098	-0.074
Mof_H 	H 	0.2664	0.1258	0.8473	0.04
Mof_C 	C 	0.32505	0.23884	0.8415	0.069
Mof_H 	H 	0.3806	0.2287	0.8999	0.012
Mof_C 	C 	0.31237	0.31395	0.78872	-0.21
Mof_C 	C 	0.22647	0.33208	0.7019	0.211
Mof_C 	C 	0.2077	0.41255	0.6502	-0.352
Mof_H 	H 	0.2533	0.4543	0.6714	0.15
Mof_C 	C 	0.1241	0.4295	0.5701	0.346
Mof_H 	H 	0.1126	0.4827	0.5371	-0.122
Mof_C 	C 	0.0551	0.3671	0.537	-0.6
Mof_H 	H 	0.998	0.3791	0.4818	0.326
Mof_C 	C 	0.0706	0.2889	0.5846	0.253
Mof_H 	H 	0.0239	0.2482	0.5614	-0.092
Mof_C 	C 	0.15671	0.26871	0.6688	-0.137
Mof_C 	C 	0.38857	0.37817	0.8247	0.477
Mof_O 	O 	0.41201	0.58415	0.74482	-0.503
Mof_O 	O 	0.42437	0.59357	0.90226	-0.509
Mof_O 	O 	0.08294	0.90533	0.5851	-0.533
Mof_O 	O 	0.08097	0.8985	0.73662	-0.533
Mof_O 	O 	0.58447	0.48161	0.92245	-1.144
Mof_H 	H 	0.6357	0.5076	0.957	0.44
Mof_H 	H 	0.593	0.4312	0.926	0.477
Mof_C 	C 	0.39382	0.61723	0.8111	0.469
Mof_C 	C 	0.32625	0.68976	0.7766	-0.15
Mof_C 	C 	0.2437	0.67662	0.6902	0.008
Mof_H 	H 	0.2336	0.6258	0.6527	0.025
Mof_C 	C 	0.17495	0.73884	0.6585	-0.007
Mof_H 	H 	0.1194	0.7287	0.6001	0.014
Mof_C 	C 	0.18763	0.81395	0.71128	-0.122
Mof_C 	C 	0.27353	0.83208	0.7981	0.019
Mof_C 	C 	0.2923	0.91255	0.8498	-0.021
Mof_H 	H 	0.2467	0.9543	0.8286	0.062
Mof_C 	C 	0.3759	0.9295	0.9299	-0.107
Mof_H 	H 	0.3874	0.9827	0.9629	0.099
Mof_C 	C 	0.4449	0.8671	0.963	0.119
Mof_H 	H 	0.502	0.8791	0.0182	-0.021
Mof_C 	C 	0.4294	0.7889	0.9154	-0.169
Mof_H 	H 	0.4761	0.7482	0.9386	0.114
Mof_C 	C 	0.34329	0.76871	0.8312	0.103
Mof_C 	C 	0.11143	0.87817	0.6753	0.449
Mof_O 	O 	0.91201	0.08415	0.74482	-0.499
Mof_O 	O 	0.92437	0.09357	0.90226	-0.504
Mof_O 	O 	0.58294	0.40533	0.5851	-0.497
Mof_O 	O 	0.58097	0.3985	0.73662	-0.495
Mof_O 	O 	0.08447	0.98161	0.92245	-1.001
Mof_H 	H 	0.1357	0.0076	0.957	0.319
Mof_H 	H 	0.093	0.9312	0.926	0.415
Mof_C 	C 	0.89382	0.11723	0.8111	0.506
Mof_C 	C 	0.82625	0.18976	0.7766	-0.257
Mof_C 	C 	0.7437	0.17662	0.6902	0.116
Mof_H 	H 	0.7336	0.1258	0.6527	-0.022
Mof_C 	C 	0.67495	0.23884	0.6585	-0.116
Mof_H 	H 	0.6194	0.2287	0.6001	0.07
Mof_C 	C 	0.68763	0.31395	0.71128	-0.008
Mof_C 	C 	0.77353	0.33208	0.7981	-0.174
Mof_C 	C 	0.7923	0.41255	0.8498	0.262
Mof_H 	H 	0.7467	0.4543	0.8286	-0.057
Mof_C 	C 	0.8759	0.4295	0.9299	-0.509
Mof_H 	H 	0.8874	0.4827	0.9629	0.235
Mof_C 	C 	0.9449	0.3671	0.963	0.705
Mof_H 	H 	0.002	0.3791	0.0182	-0.329
Mof_C 	C 	0.9294	0.2889	0.9154	-0.538
Mof_H 	H 	0.9761	0.2482	0.9386	0.287
Mof_C 	C 	0.84329	0.26871	0.8312	0.32
Mof_C 	C 	0.61143	0.37817	0.6753	0.407
Mof_O 	O 	0.41201	0.41585	0.24482	-0.507
Mof_O 	O 	0.42437	0.40643	0.40226	-0.52
Mof_O 	O 	0.08294	0.09467	0.0851	-0.593
Mof_O 	O 	0.08097	0.1015	0.23662	-0.574
Mof_O 	O 	0.58447	0.51839	0.42245	-1.146
Mof_H 	H 	0.6357	0.4924	0.457	0.432
Mof_H 	H 	0.593	0.5688	0.426	0.473
Mof_C 	C 	0.39382	0.38277	0.3111	0.462
Mof_C 	C 	0.32625	0.31024	0.2766	-0.133
Mof_C 	C 	0.2437	0.32338	0.1902	-0.021
Mof_H 	H 	0.2336	0.3742	0.1527	0.03
Mof_C 	C 	0.17495	0.26116	0.1585	0.016
Mof_H 	H 	0.1194	0.2713	0.1001	-0.003
Mof_C 	C 	0.18763	0.18605	0.21128	-0.161
Mof_C 	C 	0.27353	0.16792	0.2981	0.049
Mof_C 	C 	0.2923	0.08745	0.3498	-0.097
Mof_H 	H 	0.2467	0.0457	0.3286	0.038
Mof_C 	C 	0.3759	0.0705	0.4299	-0.039
Mof_H 	H 	0.3874	0.0173	0.4629	0.007
Mof_C 	C 	0.4449	0.1329	0.463	-0.027
Mof_H 	H 	0.502	0.1209	0.5182	0.02
Mof_C 	C 	0.4294	0.2111	0.4154	-0.097
Mof_H 	H 	0.4761	0.2518	0.4386	0.075
Mof_C 	C 	0.34329	0.23129	0.3312	0.051
Mof_C 	C 	0.11143	0.12183	0.1753	0.462
Mof_O 	O 	0.91201	0.91585	0.24482	-0.435
Mof_O 	O 	0.92437	0.90643	0.40226	-0.456
Mof_O 	O 	0.58294	0.59467	0.0851	-0.514
Mof_O 	O 	0.58097	0.6015	0.23662	-0.5
Mof_O 	O 	0.08447	0.01839	0.42245	-1.383
Mof_H 	H 	0.1357	0.9924	0.457	0.561
Mof_H 	H 	0.093	0.0688	0.426	0.524
Mof_C 	C 	0.89382	0.88277	0.3111	0.489
Mof_C 	C 	0.82625	0.81024	0.2766	-0.21
Mof_C 	C 	0.7437	0.82338	0.1902	0.076
Mof_H 	H 	0.7336	0.8742	0.1527	0.022
Mof_C 	C 	0.67495	0.76116	0.1585	-0.071
Mof_H 	H 	0.6194	0.7713	0.1001	0.058
Mof_C 	C 	0.68763	0.68605	0.21128	-0.043
Mof_C 	C 	0.77353	0.66792	0.2981	-0.122
Mof_C 	C 	0.7923	0.58745	0.3498	0.187
Mof_H 	H 	0.7467	0.5457	0.3286	-0.033
Mof_C 	C 	0.8759	0.5705	0.4299	-0.411
Mof_H 	H 	0.8874	0.5173	0.4629	0.193
Mof_C 	C 	0.9449	0.6329	0.463	0.56
Mof_H 	H 	0.002	0.6209	0.5182	-0.257
Mof_C 	C 	0.9294	0.7111	0.4154	-0.444
Mof_H 	H 	0.9761	0.7518	0.4386	0.246
Mof_C 	C 	0.84329	0.73129	0.3312	0.26
Mof_C 	C 	0.61143	0.62183	0.1753	0.422
Mof_O 	O 	0.58799	0.41585	0.25518	-0.501
Mof_O 	O 	0.57563	0.40643	0.09774	-0.527
Mof_O 	O 	0.91706	0.09467	0.4149	-0.471
Mof_O 	O 	0.91903	0.1015	0.26338	-0.473
Mof_O 	O 	0.41553	0.51839	0.07755	-1.139
Mof_H 	H 	0.3643	0.4924	0.043	0.413
Mof_H 	H 	0.407	0.5688	0.074	0.461
Mof_C 	C 	0.60618	0.38277	0.1889	0.464
Mof_C 	C 	0.67375	0.31024	0.2234	-0.125
Mof_C 	C 	0.7563	0.32338	0.3098	-0.001
Mof_H 	H 	0.7664	0.3742	0.3473	0.037
Mof_C 	C 	0.82505	0.26116	0.3415	0
Mof_H 	H 	0.8806	0.2713	0.3999	0.058
Mof_C 	C 	0.81237	0.18605	0.28872	-0.124
Mof_C 	C 	0.72647	0.16792	0.2019	0.065
Mof_C 	C 	0.7077	0.08745	0.1502	-0.135
Mof_H 	H 	0.7533	0.0457	0.1714	0.056
Mof_C 	C 	0.6241	0.0705	0.0701	0.031
Mof_H 	H 	0.6126	0.0173	0.0371	-0.022
Mof_C 	C 	0.5551	0.1329	0.037	-0.142
Mof_H 	H 	0.498	0.1209	0.9818	0.081
Mof_C 	C 	0.5706	0.2111	0.0846	-0.033
Mof_H 	H 	0.5239	0.2518	0.0614	0.045
Mof_C 	C 	0.65671	0.23129	0.1688	0.027
Mof_C 	C 	0.88857	0.12183	0.3247	0.444
Mof_O 	O 	0.08799	0.91585	0.25518	-0.494
Mof_O 	O 	0.07563	0.90643	0.09774	-0.52
Mof_O 	O 	0.41706	0.59467	0.4149	-0.522
Mof_O 	O 	0.41903	0.6015	0.26338	-0.524
Mof_O 	O 	0.91553	0.01839	0.07755	-1.246
Mof_H 	H 	0.8643	0.9924	0.043	0.518
Mof_H 	H 	0.907	0.0688	0.074	0.517
Mof_C 	C 	0.10618	0.88277	0.1889	0.423
Mof_C 	C 	0.17375	0.81024	0.2234	-0.016
Mof_C 	C 	0.2563	0.82338	0.3098	-0.111
Mof_H 	H 	0.2664	0.8742	0.3473	0.085
Mof_C 	C 	0.32505	0.76116	0.3415	0.111
Mof_H 	H 	0.3806	0.7713	0.3999	-0
Mof_C 	C 	0.31237	0.68605	0.28872	-0.242
Mof_C 	C 	0.22647	0.66792	0.2019	0.256
Mof_C 	C 	0.2077	0.58745	0.1502	-0.414
Mof_H 	H 	0.2533	0.5457	0.1714	0.17
Mof_C 	C 	0.1241	0.5705	0.0701	0.425
Mof_H 	H 	0.1126	0.5173	0.0371	-0.157
Mof_C 	C 	0.0551	0.6329	0.037	-0.717
Mof_H 	H 	0.998	0.6209	0.9818	0.383
Mof_C 	C 	0.0706	0.7111	0.0846	0.33
Mof_H 	H 	0.0239	0.7518	0.0614	-0.123
Mof_C 	C 	0.15671	0.73129	0.1688	-0.188
Mof_C 	C 	0.38857	0.62183	0.3247	0.49
Mof_Mg	Mg	0.5	0.49169	0.75	1.482
Mof_Mg	Mg	3.62905e-33	0.99169	0.75	1.475
Mof_Mg	Mg	0.5	0.50831	0.25	1.482
Mof_Mg	Mg	1.20968e-33	0.00831	0.25	1.465
Mof_Mg	Mg	0.5	0.5	0.5	1.484
Mof_Mg	Mg	2.41937e-33	0	0.5	1.465
Mof_Mg	Mg	0.5	0.5	-0	1.482
Mof_Mg	Mg	-0	0	-0	1.462
_end
