data_functionalizedCrystal
_audit_creation_method	'EQeq! by Chris Wilmer'
_symmetry_space_group_name_H-M	'P1'
_symmetry_Int_Tables_number	1
_symmetry_cell_setting	triclinic
loop_
_symmetry_equiv_pos_as_xyz
  x,y,z
_cell_length_a	23.4939
_cell_length_b	23.4954
_cell_length_c	31.9724
_cell_angle_alpha	90
_cell_angle_beta	90
_cell_angle_gamma	90
loop_
_atom_site_label
_atom_site_type_symbol
_atom_site_fract_x
_atom_site_fract_y
_atom_site_fract_z
_atom_site_charge
Mof_O 	O 	0.46901	0.0907	0.76008	-0.488
Mof_O 	O 	0.48221	0.06064	0.69547	-0.478
Mof_O 	O 	0.09071	0.46928	0.76009	-0.489
Mof_O 	O 	0.06053	0.48218	0.69505	-0.468
Mof_C 	C 	0.46801	0.09864	0.72049	0.296
Mof_N 	N 	0.4915	0.5041	0.56224	-0.111
Mof_C 	C 	0.42675	0.42669	0.57532	-0.142
Mof_C 	C 	0.4488	0.15612	0.70376	-0.038
Mof_C 	C 	0.41064	0.26062	0.67391	-0.001
Mof_C 	C 	0.41435	0.41494	0.53498	0.117
Mof_C 	C 	0.4286	0.1962	0.73139	-0.017
Mof_H 	H 	0.4283	0.1887	0.7599	0.06
Mof_C 	C 	0.26056	0.41037	0.67403	-0.004
Mof_C 	C 	0.38794	0.31538	0.657	0.101
Mof_C 	C 	0.39504	0.39488	0.60981	0.135
Mof_C 	C 	0.31525	0.38749	0.65673	0.103
Mof_C 	C 	0.33919	0.33916	0.67228	-0.172
Mof_H 	H 	0.3213	0.3213	0.6946	0.094
Mof_C 	C 	0.34448	0.41733	0.62529	-0.185
Mof_H 	H 	0.3303	0.4515	0.615	0.097
Mof_C 	C 	0.1972	0.4284	0.73094	-0.016
Mof_H 	H 	0.1904	0.4289	0.7596	0.058
Mof_C 	C 	0.46738	0.46801	0.5889	0.105
Mof_C 	C 	0.40808	0.2497	0.71579	-0.059
Mof_H 	H 	0.3932	0.2766	0.7341	0.054
Mof_C 	C 	0.24837	0.407	0.7162	-0.059
Mof_H 	H 	0.2743	0.3905	0.7345	0.054
Mof_C 	C 	0.4517	0.16756	0.66157	-0.015
Mof_H 	H 	0.4655	0.1402	0.6432	0.059
Mof_C 	C 	0.4339	0.2202	0.64655	-0.059
Mof_H 	H 	0.4375	0.2287	0.6182	0.054
Mof_C 	C 	0.4179	0.34395	0.62525	-0.182
Mof_H 	H 	0.4519	0.3295	0.6148	0.096
Mof_C 	C 	0.21928	0.4344	0.64656	-0.06
Mof_H 	H 	0.2272	0.4378	0.6182	0.054
Mof_C 	C 	0.37367	0.37413	0.52128	-0.089
Mof_H 	H 	0.3511	0.3515	0.5384	0.067
Mof_C 	C 	0.16787	0.4524	0.66208	-0.013
Mof_H 	H 	0.1407	0.4671	0.6439	0.058
Mof_C 	C 	0.47986	0.4804	0.6312	-0.086
Mof_H 	H 	0.4629	0.4641	0.6546	0.065
Mof_C 	C 	0.0988	0.46797	0.7212	0.286
Mof_C 	C 	0.1558	0.44911	0.70378	-0.038
Mof_O 	O 	0.53099	0.9093	0.76008	-0.509
Mof_O 	O 	0.51779	0.93936	0.69547	-0.502
Mof_O 	O 	0.90929	0.53072	0.76009	-0.507
Mof_O 	O 	0.93947	0.51782	0.69505	-0.487
Mof_C 	C 	0.53199	0.90136	0.72049	0.299
Mof_N 	N 	0.5085	0.4959	0.56224	-0.116
Mof_C 	C 	0.57325	0.57331	0.57532	-0.142
Mof_C 	C 	0.5512	0.84388	0.70376	-0.051
Mof_C 	C 	0.58936	0.73938	0.67391	0
Mof_C 	C 	0.58565	0.58506	0.53498	0.115
Mof_C 	C 	0.5714	0.8038	0.73139	-0.014
Mof_H 	H 	0.5717	0.8113	0.7599	0.051
Mof_C 	C 	0.73944	0.58963	0.67403	-0.002
Mof_C 	C 	0.61206	0.68462	0.657	0.095
Mof_C 	C 	0.60496	0.60512	0.60981	0.132
Mof_C 	C 	0.68475	0.61251	0.65673	0.096
Mof_C 	C 	0.66081	0.66084	0.67228	-0.168
Mof_H 	H 	0.6787	0.6787	0.6946	0.088
Mof_C 	C 	0.65552	0.58267	0.62529	-0.182
Mof_H 	H 	0.6697	0.5485	0.615	0.095
Mof_C 	C 	0.8028	0.5716	0.73094	-0.013
Mof_H 	H 	0.8096	0.5711	0.7596	0.05
Mof_C 	C 	0.53262	0.53199	0.5889	0.105
Mof_C 	C 	0.59192	0.7503	0.71579	-0.067
Mof_H 	H 	0.6068	0.7234	0.7341	0.052
Mof_C 	C 	0.75163	0.593	0.7162	-0.067
Mof_H 	H 	0.7257	0.6095	0.7345	0.051
Mof_C 	C 	0.5483	0.83244	0.66157	-0.01
Mof_H 	H 	0.5345	0.8598	0.6432	0.05
Mof_C 	C 	0.5661	0.7798	0.64655	-0.067
Mof_H 	H 	0.5625	0.7713	0.6182	0.053
Mof_C 	C 	0.5821	0.65605	0.62525	-0.18
Mof_H 	H 	0.5481	0.6705	0.6148	0.094
Mof_C 	C 	0.78072	0.5656	0.64656	-0.067
Mof_H 	H 	0.7728	0.5622	0.6182	0.053
Mof_C 	C 	0.62633	0.62587	0.52128	-0.09
Mof_H 	H 	0.6489	0.6485	0.5384	0.063
Mof_C 	C 	0.83213	0.5476	0.66208	-0.009
Mof_H 	H 	0.8593	0.5329	0.6439	0.051
Mof_C 	C 	0.52014	0.5196	0.6312	-0.086
Mof_H 	H 	0.5371	0.5359	0.6546	0.065
Mof_C 	C 	0.9012	0.53203	0.7212	0.289
Mof_C 	C 	0.8442	0.55089	0.70378	-0.049
Mof_O 	O 	0.03099	0.5907	0.73992	-0.49
Mof_O 	O 	0.01779	0.56064	0.80453	-0.479
Mof_O 	O 	0.40929	0.96928	0.73991	-0.509
Mof_O 	O 	0.43947	0.98218	0.80495	-0.49
Mof_C 	C 	0.03199	0.59864	0.77951	0.294
Mof_N 	N 	0.0085	0.0041	0.93776	-2.133
Mof_C 	C 	0.07325	0.92669	0.92468	-0.288
Mof_C 	C 	0.0512	0.65612	0.79624	-0.036
Mof_C 	C 	0.08936	0.76062	0.82609	-0.016
Mof_C 	C 	0.08565	0.91494	0.96502	0.184
Mof_C 	C 	0.0714	0.6962	0.76861	-0.024
Mof_H 	H 	0.0717	0.6887	0.7401	0.059
Mof_C 	C 	0.23944	0.91037	0.82597	-0.012
Mof_C 	C 	0.11206	0.81538	0.843	0.121
Mof_C 	C 	0.10496	0.89488	0.89019	0.193
Mof_C 	C 	0.18475	0.88749	0.84327	0.122
Mof_C 	C 	0.16081	0.83916	0.82772	-0.195
Mof_H 	H 	0.1787	0.8213	0.8054	0.099
Mof_C 	C 	0.15552	0.91733	0.87471	-0.222
Mof_H 	H 	0.1697	0.9515	0.885	0.121
Mof_C 	C 	0.3028	0.9284	0.76906	-0.017
Mof_H 	H 	0.3096	0.9289	0.7404	0.053
Mof_C 	C 	0.03262	0.96801	0.9111	0.46
Mof_C 	C 	0.09192	0.7497	0.78421	-0.052
Mof_H 	H 	0.1068	0.7766	0.7659	0.048
Mof_C 	C 	0.25163	0.907	0.7838	-0.058
Mof_H 	H 	0.2257	0.8905	0.7655	0.05
Mof_C 	C 	0.0483	0.66756	0.83843	-0.022
Mof_H 	H 	0.0345	0.6402	0.8568	0.059
Mof_C 	C 	0.0661	0.7202	0.85345	-0.052
Mof_H 	H 	0.0625	0.7287	0.8818	0.047
Mof_C 	C 	0.0821	0.84395	0.87475	-0.225
Mof_H 	H 	0.0481	0.8295	0.8852	0.1
Mof_C 	C 	0.28072	0.9344	0.85344	-0.059
Mof_H 	H 	0.2728	0.9378	0.8818	0.053
Mof_C 	C 	0.12633	0.87413	0.97872	-0.109
Mof_H 	H 	0.1489	0.8515	0.9616	0.074
Mof_C 	C 	0.33213	0.9524	0.83792	-0.013
Mof_H 	H 	0.3593	0.9671	0.8561	0.053
Mof_C 	C 	0.02014	0.9804	0.8688	-0.438
Mof_H 	H 	0.0371	0.9641	0.8454	0.188
Mof_C 	C 	0.4012	0.96797	0.7788	0.288
Mof_C 	C 	0.3442	0.94911	0.79622	-0.045
Mof_O 	O 	0.96901	0.4093	0.73992	-0.504
Mof_O 	O 	0.98221	0.43936	0.80453	-0.498
Mof_O 	O 	0.59071	0.03072	0.73991	-0.492
Mof_O 	O 	0.56053	0.01782	0.80495	-0.469
Mof_C 	C 	0.96801	0.40136	0.77951	0.3
Mof_N 	N 	0.9915	0.9959	0.93776	1.897
Mof_C 	C 	0.92675	0.07331	0.92468	-0.002
Mof_C 	C 	0.9488	0.34388	0.79624	-0.053
Mof_C 	C 	0.91064	0.23938	0.82609	0.014
Mof_C 	C 	0.91435	0.08506	0.96502	0.048
Mof_C 	C 	0.9286	0.3038	0.76861	-0.007
Mof_H 	H 	0.9283	0.3113	0.7401	0.051
Mof_C 	C 	0.76056	0.08963	0.82597	0.006
Mof_C 	C 	0.88794	0.18462	0.843	0.075
Mof_C 	C 	0.89504	0.10512	0.89019	0.076
Mof_C 	C 	0.81525	0.11251	0.84327	0.077
Mof_C 	C 	0.83919	0.16084	0.82772	-0.146
Mof_H 	H 	0.8213	0.1787	0.8054	0.083
Mof_C 	C 	0.84448	0.08267	0.87471	-0.145
Mof_H 	H 	0.8303	0.0485	0.885	0.072
Mof_C 	C 	0.6972	0.0716	0.76906	-0.011
Mof_H 	H 	0.6904	0.0711	0.7404	0.055
Mof_C 	C 	0.96738	0.03199	0.9111	-0.249
Mof_C 	C 	0.90808	0.2503	0.78421	-0.074
Mof_H 	H 	0.8932	0.2234	0.7659	0.058
Mof_C 	C 	0.74837	0.093	0.7838	-0.068
Mof_H 	H 	0.7743	0.1095	0.7655	0.056
Mof_C 	C 	0.9517	0.33244	0.83843	-0.003
Mof_H 	H 	0.9655	0.3598	0.8568	0.05
Mof_C 	C 	0.9339	0.2798	0.85345	-0.074
Mof_H 	H 	0.9375	0.2713	0.8818	0.059
Mof_C 	C 	0.9179	0.15605	0.87475	-0.139
Mof_H 	H 	0.9519	0.1705	0.8852	0.091
Mof_C 	C 	0.71928	0.0656	0.85344	-0.068
Mof_H 	H 	0.7272	0.0622	0.8818	0.054
Mof_C 	C 	0.87367	0.12587	0.97872	-0.063
Mof_H 	H 	0.8511	0.1485	0.9616	0.055
Mof_C 	C 	0.66787	0.0476	0.83792	-0.009
Mof_H 	H 	0.6407	0.0329	0.8561	0.056
Mof_C 	C 	0.97986	0.0196	0.8688	0.267
Mof_H 	H 	0.9629	0.0359	0.8454	-0.057
Mof_C 	C 	0.5988	0.03203	0.7788	0.287
Mof_C 	C 	0.6558	0.05089	0.79622	-0.042
Mof_O 	O 	0.53099	0.9093	0.23992	-0.509
Mof_O 	O 	0.51779	0.93936	0.30453	-0.501
Mof_O 	O 	0.90929	0.53072	0.23991	-0.507
Mof_O 	O 	0.93947	0.51782	0.30495	-0.487
Mof_C 	C 	0.53199	0.90136	0.27951	0.299
Mof_N 	N 	0.5085	0.4959	0.43776	-0.116
Mof_C 	C 	0.57325	0.57331	0.42468	-0.142
Mof_C 	C 	0.5512	0.84388	0.29624	-0.051
Mof_C 	C 	0.58936	0.73938	0.32609	0
Mof_C 	C 	0.58565	0.58506	0.46502	0.115
Mof_C 	C 	0.5714	0.8038	0.26861	-0.014
Mof_H 	H 	0.5717	0.8113	0.2401	0.051
Mof_C 	C 	0.73944	0.58963	0.32597	-0.002
Mof_C 	C 	0.61206	0.68462	0.343	0.095
Mof_C 	C 	0.60496	0.60512	0.39019	0.132
Mof_C 	C 	0.68475	0.61251	0.34327	0.096
Mof_C 	C 	0.66081	0.66084	0.32772	-0.168
Mof_H 	H 	0.6787	0.6787	0.3054	0.087
Mof_C 	C 	0.65552	0.58267	0.37471	-0.182
Mof_H 	H 	0.6697	0.5485	0.385	0.095
Mof_C 	C 	0.8028	0.5716	0.26906	-0.013
Mof_H 	H 	0.8096	0.5711	0.2404	0.05
Mof_C 	C 	0.53262	0.53199	0.4111	0.105
Mof_C 	C 	0.59192	0.7503	0.28421	-0.067
Mof_H 	H 	0.6068	0.7234	0.2659	0.052
Mof_C 	C 	0.75163	0.593	0.2838	-0.067
Mof_H 	H 	0.7257	0.6095	0.2655	0.051
Mof_C 	C 	0.5483	0.83244	0.33843	-0.01
Mof_H 	H 	0.5345	0.8598	0.3568	0.05
Mof_C 	C 	0.5661	0.7798	0.35345	-0.067
Mof_H 	H 	0.5625	0.7713	0.3818	0.053
Mof_C 	C 	0.5821	0.65605	0.37475	-0.18
Mof_H 	H 	0.5481	0.6705	0.3852	0.094
Mof_C 	C 	0.78072	0.5656	0.35344	-0.067
Mof_H 	H 	0.7728	0.5622	0.3818	0.053
Mof_C 	C 	0.62633	0.62587	0.47872	-0.09
Mof_H 	H 	0.6489	0.6485	0.4616	0.063
Mof_C 	C 	0.83213	0.5476	0.33792	-0.009
Mof_H 	H 	0.8593	0.5329	0.3561	0.051
Mof_C 	C 	0.52014	0.5196	0.3688	-0.086
Mof_H 	H 	0.5371	0.5359	0.3454	0.065
Mof_C 	C 	0.9012	0.53203	0.2788	0.289
Mof_C 	C 	0.8442	0.55089	0.29622	-0.049
Mof_O 	O 	0.46901	0.0907	0.23992	-0.489
Mof_O 	O 	0.48221	0.06064	0.30453	-0.479
Mof_O 	O 	0.09071	0.46928	0.23991	-0.491
Mof_O 	O 	0.06053	0.48218	0.30495	-0.469
Mof_C 	C 	0.46801	0.09864	0.27951	0.295
Mof_N 	N 	0.4915	0.5041	0.43776	-0.112
Mof_C 	C 	0.42675	0.42669	0.42468	-0.143
Mof_C 	C 	0.4488	0.15612	0.29624	-0.039
Mof_C 	C 	0.41064	0.26062	0.32609	-0.002
Mof_C 	C 	0.41435	0.41494	0.46502	0.116
Mof_C 	C 	0.4286	0.1962	0.26861	-0.017
Mof_H 	H 	0.4283	0.1887	0.2401	0.06
Mof_C 	C 	0.26056	0.41037	0.32597	-0.004
Mof_C 	C 	0.38794	0.31538	0.343	0.101
Mof_C 	C 	0.39504	0.39488	0.39019	0.135
Mof_C 	C 	0.31525	0.38749	0.34327	0.102
Mof_C 	C 	0.33919	0.33916	0.32772	-0.172
Mof_H 	H 	0.3213	0.3213	0.3054	0.094
Mof_C 	C 	0.34448	0.41733	0.37471	-0.185
Mof_H 	H 	0.3303	0.4515	0.385	0.097
Mof_C 	C 	0.1972	0.4284	0.26906	-0.016
Mof_H 	H 	0.1904	0.4289	0.2404	0.058
Mof_C 	C 	0.46738	0.46801	0.4111	0.105
Mof_C 	C 	0.40808	0.2497	0.28421	-0.059
Mof_H 	H 	0.3932	0.2766	0.2659	0.054
Mof_C 	C 	0.24837	0.407	0.2838	-0.059
Mof_H 	H 	0.2743	0.3905	0.2655	0.054
Mof_C 	C 	0.4517	0.16756	0.33843	-0.015
Mof_H 	H 	0.4655	0.1402	0.3568	0.059
Mof_C 	C 	0.4339	0.2202	0.35345	-0.059
Mof_H 	H 	0.4375	0.2287	0.3818	0.054
Mof_C 	C 	0.4179	0.34395	0.37475	-0.182
Mof_H 	H 	0.4519	0.3295	0.3852	0.096
Mof_C 	C 	0.21928	0.4344	0.35344	-0.06
Mof_H 	H 	0.2272	0.4378	0.3818	0.054
Mof_C 	C 	0.37367	0.37413	0.47872	-0.088
Mof_H 	H 	0.3511	0.3515	0.4616	0.067
Mof_C 	C 	0.16787	0.4524	0.33792	-0.013
Mof_H 	H 	0.1407	0.4671	0.3561	0.058
Mof_C 	C 	0.47986	0.4804	0.3688	-0.086
Mof_H 	H 	0.4629	0.4641	0.3454	0.065
Mof_C 	C 	0.0988	0.46797	0.2788	0.286
Mof_C 	C 	0.1558	0.44911	0.29622	-0.039
Mof_O 	O 	0.96901	0.4093	0.26008	-0.504
Mof_O 	O 	0.98221	0.43936	0.19547	-0.498
Mof_O 	O 	0.59071	0.03072	0.26009	-0.492
Mof_O 	O 	0.56053	0.01782	0.19505	-0.469
Mof_C 	C 	0.96801	0.40136	0.22049	0.3
Mof_N 	N 	0.9915	0.9959	0.06224	1.871
Mof_C 	C 	0.92675	0.07331	0.07532	-0.005
Mof_C 	C 	0.9488	0.34388	0.20376	-0.053
Mof_C 	C 	0.91064	0.23938	0.17391	0.014
Mof_C 	C 	0.91435	0.08506	0.03498	0.049
Mof_C 	C 	0.9286	0.3038	0.23139	-0.007
Mof_H 	H 	0.9283	0.3113	0.2599	0.051
Mof_C 	C 	0.76056	0.08963	0.17403	0.006
Mof_C 	C 	0.88794	0.18462	0.157	0.075
Mof_C 	C 	0.89504	0.10512	0.10981	0.077
Mof_C 	C 	0.81525	0.11251	0.15673	0.078
Mof_C 	C 	0.83919	0.16084	0.17228	-0.146
Mof_H 	H 	0.8213	0.1787	0.1946	0.083
Mof_C 	C 	0.84448	0.08267	0.12529	-0.146
Mof_H 	H 	0.8303	0.0485	0.115	0.072
Mof_C 	C 	0.6972	0.0716	0.23094	-0.011
Mof_H 	H 	0.6904	0.0711	0.2596	0.055
Mof_C 	C 	0.96738	0.03199	0.0889	-0.245
Mof_C 	C 	0.90808	0.2503	0.21579	-0.074
Mof_H 	H 	0.8932	0.2234	0.2341	0.057
Mof_C 	C 	0.74837	0.093	0.2162	-0.068
Mof_H 	H 	0.7743	0.1095	0.2345	0.055
Mof_C 	C 	0.9517	0.33244	0.16157	-0.004
Mof_H 	H 	0.9655	0.3598	0.1432	0.05
Mof_C 	C 	0.9339	0.2798	0.14655	-0.074
Mof_H 	H 	0.9375	0.2713	0.1182	0.059
Mof_C 	C 	0.9179	0.15605	0.12525	-0.139
Mof_H 	H 	0.9519	0.1705	0.1148	0.091
Mof_C 	C 	0.71928	0.0656	0.14656	-0.068
Mof_H 	H 	0.7272	0.0622	0.1182	0.054
Mof_C 	C 	0.87367	0.12587	0.02128	-0.072
Mof_H 	H 	0.8511	0.1485	0.0384	0.058
Mof_C 	C 	0.66787	0.0476	0.16208	-0.009
Mof_H 	H 	0.6407	0.0329	0.1439	0.056
Mof_C 	C 	0.97986	0.0196	0.1312	0.262
Mof_H 	H 	0.9629	0.0359	0.1546	-0.056
Mof_C 	C 	0.5988	0.03203	0.2212	0.287
Mof_C 	C 	0.6558	0.05089	0.20378	-0.042
Mof_O 	O 	0.03099	0.5907	0.26008	-0.49
Mof_O 	O 	0.01779	0.56064	0.19547	-0.479
Mof_O 	O 	0.40929	0.96928	0.26009	-0.508
Mof_O 	O 	0.43947	0.98218	0.19505	-0.491
Mof_C 	C 	0.03199	0.59864	0.22049	0.294
Mof_N 	N 	0.0085	0.0041	0.06224	-2.108
Mof_C 	C 	0.07325	0.92669	0.07532	-0.286
Mof_C 	C 	0.0512	0.65612	0.20376	-0.037
Mof_C 	C 	0.08936	0.76062	0.17391	-0.016
Mof_C 	C 	0.08565	0.91494	0.03498	0.184
Mof_C 	C 	0.0714	0.6962	0.23139	-0.024
Mof_H 	H 	0.0717	0.6887	0.2599	0.059
Mof_C 	C 	0.23944	0.91037	0.17403	-0.012
Mof_C 	C 	0.11206	0.81538	0.157	0.121
Mof_C 	C 	0.10496	0.89488	0.10981	0.192
Mof_C 	C 	0.18475	0.88749	0.15673	0.122
Mof_C 	C 	0.16081	0.83916	0.17228	-0.194
Mof_H 	H 	0.1787	0.8213	0.1946	0.099
Mof_C 	C 	0.15552	0.91733	0.12529	-0.222
Mof_H 	H 	0.1697	0.9515	0.115	0.12
Mof_C 	C 	0.3028	0.9284	0.23094	-0.017
Mof_H 	H 	0.3096	0.9289	0.2596	0.053
Mof_C 	C 	0.03262	0.96801	0.0889	0.455
Mof_C 	C 	0.09192	0.7497	0.21579	-0.053
Mof_H 	H 	0.1068	0.7766	0.2341	0.049
Mof_C 	C 	0.25163	0.907	0.2162	-0.058
Mof_H 	H 	0.2257	0.8905	0.2345	0.05
Mof_C 	C 	0.0483	0.66756	0.16157	-0.022
Mof_H 	H 	0.0345	0.6402	0.1432	0.059
Mof_C 	C 	0.0661	0.7202	0.14655	-0.052
Mof_H 	H 	0.0625	0.7287	0.1182	0.047
Mof_C 	C 	0.0821	0.84395	0.12525	-0.224
Mof_H 	H 	0.0481	0.8295	0.1148	0.099
Mof_C 	C 	0.28072	0.9344	0.14656	-0.059
Mof_H 	H 	0.2728	0.9378	0.1182	0.053
Mof_C 	C 	0.12633	0.87413	0.02128	-0.116
Mof_H 	H 	0.1489	0.8515	0.0384	0.075
Mof_C 	C 	0.33213	0.9524	0.16208	-0.013
Mof_H 	H 	0.3593	0.9671	0.1439	0.052
Mof_C 	C 	0.02014	0.9804	0.1312	-0.434
Mof_H 	H 	0.0371	0.9641	0.1546	0.186
Mof_C 	C 	0.4012	0.96797	0.2212	0.288
Mof_C 	C 	0.3442	0.94911	0.20378	-0.045
Mof_In	In	0.5	0	0.75001	2.566
Mof_In	In	-7.61585e-33	0.5	0.74999	2.551
Mof_In	In	0.5	0	0.24999	2.566
Mof_In	In	-1.0167e-32	0.5	0.25001	2.55
Mof_Mn	Mn	0.5	0.5	0.5	0.735
Mof_Mn	Mn	-0	0	-0	0.796
Mof_N 	N 	0.43851	0.43921	0.5	-0.229
Mof_N 	N 	0.56149	0.56079	0.5	-0.229
Mof_N 	N 	0.06149	0.93921	-0	-0.25
Mof_N 	N 	0.93851	0.06079	-0	-0.227
_end
