# CIF file generated by openbabel 3.1.0, see https://openbabel.org
data_I
_chemical_name_common 'DEKHEH_clean'
_cell_length_a 9.317
_cell_length_b 11.742
_cell_length_c 13.251
_cell_angle_alpha 90
_cell_angle_beta 90.195
_cell_angle_gamma 90
_space_group_name_H-M_alt 'P 1'
_space_group_name_Hall 'P 1'
loop_
    _symmetry_equiv_pos_as_xyz
    x,y,z
loop_
    _atom_site_label
    _atom_site_type_symbol
    _atom_site_fract_x
    _atom_site_fract_y
    _atom_site_fract_z
    _atom_site_occupancy
    Mn1      Mn       0.25000    0.05513    0.00000    1.000
    Mn2      Mn       0.75000    0.94487    0.00000    1.000
    H1       H        0.56980    0.79340    0.73870    1.000
    H2       H        0.47390    0.70720    0.59570    1.000
    H3       H        0.16150    0.94170    0.58950    1.000
    H4       H        0.25830    0.02760    0.73170    1.000
    H5       H        0.35290    0.83590    0.12750    1.000
    H6       H        0.35790    0.64220    0.13120    1.000
    H7       H        0.42650    0.46600    0.08620    1.000
    H8       H        0.42380    0.27240    0.08060    1.000
    H9       H        0.93020    0.79340    0.26130    1.000
    H10      H        0.02610    0.70720    0.40430    1.000
    H11      H        0.33850    0.94170    0.41050    1.000
    H12      H        0.24170    0.02760    0.26830    1.000
    H13      H        0.14710    0.83590    0.87250    1.000
    H14      H        0.14210    0.64220    0.86880    1.000
    H15      H        0.07350    0.46600    0.91380    1.000
    H16      H        0.07620    0.27240    0.91940    1.000
    H17      H        0.43020    0.20660    0.26130    1.000
    H18      H        0.52610    0.29280    0.40430    1.000
    H19      H        0.83850    0.05830    0.41050    1.000
    H20      H        0.74170    0.97240    0.26830    1.000
    H21      H        0.64710    0.16410    0.87250    1.000
    H22      H        0.64210    0.35780    0.86880    1.000
    H23      H        0.57350    0.53400    0.91380    1.000
    H24      H        0.57620    0.72760    0.91940    1.000
    H25      H        0.06980    0.20660    0.73870    1.000
    H26      H        0.97390    0.29280    0.59570    1.000
    H27      H        0.66150    0.05830    0.58950    1.000
    H28      H        0.75830    0.97240    0.73170    1.000
    H29      H        0.85290    0.16410    0.12750    1.000
    H30      H        0.85790    0.35780    0.13120    1.000
    H31      H        0.92650    0.53400    0.08620    1.000
    H32      H        0.92380    0.72760    0.08060    1.000
    C1       C        0.48080    0.97180    0.84560    1.000
    C2       C        0.42380    0.91850    0.75060    1.000
    C3       C        0.48750    0.82330    0.70900    1.000
    C4       C        0.43060    0.77130    0.62350    1.000
    C5       C        0.30830    0.81720    0.58080    1.000
    C6       C        0.24350    0.91190    0.61970    1.000
    C7       C        0.30160    0.96300    0.70490    1.000
    C8       C        0.31040    0.79620    0.07450    1.000
    C9       C        0.31350    0.67940    0.07750    1.000
    C10      C        0.35440    0.42870    0.05040    1.000
    C11      C        0.35120    0.31200    0.04750    1.000
    C12      C        0.01920    0.97180    0.15440    1.000
    C13      C        0.07620    0.91850    0.24940    1.000
    C14      C        0.01250    0.82330    0.29100    1.000
    C15      C        0.06940    0.77130    0.37650    1.000
    C16      C        0.19170    0.81720    0.41920    1.000
    C17      C        0.25650    0.91190    0.38030    1.000
    C18      C        0.19840    0.96300    0.29510    1.000
    C19      C        0.18960    0.79620    0.92550    1.000
    C20      C        0.18650    0.67940    0.92250    1.000
    C21      C        0.14560    0.42870    0.94960    1.000
    C22      C        0.14880    0.31200    0.95250    1.000
    C23      C        0.51920    0.02820    0.15440    1.000
    C24      C        0.57620    0.08150    0.24940    1.000
    C25      C        0.51250    0.17670    0.29100    1.000
    C26      C        0.56940    0.22870    0.37650    1.000
    C27      C        0.69170    0.18280    0.41920    1.000
    C28      C        0.75650    0.08810    0.38030    1.000
    C29      C        0.69840    0.03700    0.29510    1.000
    C30      C        0.68960    0.20380    0.92550    1.000
    C31      C        0.68650    0.32060    0.92250    1.000
    C32      C        0.64560    0.57130    0.94960    1.000
    C33      C        0.64880    0.68800    0.95250    1.000
    C34      C        0.98080    0.02820    0.84560    1.000
    C35      C        0.92380    0.08150    0.75060    1.000
    C36      C        0.98750    0.17670    0.70900    1.000
    C37      C        0.93060    0.22870    0.62350    1.000
    C38      C        0.80830    0.18280    0.58080    1.000
    C39      C        0.74350    0.08810    0.61970    1.000
    C40      C        0.80160    0.03700    0.70490    1.000
    C41      C        0.81040    0.20380    0.07450    1.000
    C42      C        0.81350    0.32060    0.07750    1.000
    C43      C        0.85440    0.57130    0.05040    1.000
    C44      C        0.85120    0.68800    0.04750    1.000
    C45      C        0.25000    0.61670    0.00000    1.000
    C46      C        0.25000    0.49140    0.00000    1.000
    C47      C        0.75000    0.38330    0.00000    1.000
    C48      C        0.75000    0.50860    0.00000    1.000
    N1       N        0.25000    0.85640    0.00000    1.000
    N2       N        0.25000    0.25200    0.00000    1.000
    N3       N        0.75000    0.14360    0.00000    1.000
    N4       N        0.75000    0.74800    0.00000    1.000
    O1       O        0.41260    0.05218    0.88403    1.000
    O2       O        0.59660    0.93081    0.87942    1.000
    O3       O        0.08740    0.05218    0.11597    1.000
    O4       O        0.90340    0.93081    0.12058    1.000
    O5       O        0.58740    0.94782    0.11597    1.000
    O6       O        0.40340    0.06919    0.12058    1.000
    O7       O        0.91260    0.94782    0.88403    1.000
    O8       O        0.09660    0.06919    0.87942    1.000
    O9       O        0.25000    0.75670    0.50000    1.000
    O10      O        0.75000    0.24330    0.50000    1.000
