# CIF file generated by openbabel 3.1.0, see https://openbabel.org
data_I
_chemical_name_common 'image0'
_cell_length_a 16.9751
_cell_length_b 10.9659
_cell_length_c 22.442
_cell_angle_alpha 90
_cell_angle_beta 109.714
_cell_angle_gamma 90
_space_group_name_H-M_alt 'P 1'
_space_group_name_Hall 'P 1'
loop_
    _symmetry_equiv_pos_as_xyz
    x,y,z
loop_
    _atom_site_label
    _atom_site_type_symbol
    _atom_site_fract_x
    _atom_site_fract_y
    _atom_site_fract_z
    _atom_site_occupancy
    Zn1      Zn       0.19942    0.03070    0.28337    1.000
    Zn2      Zn       0.07200    0.07541    0.13554    1.000
    O1       O        0.20610    0.04690    0.37157    1.000
    O2       O        0.33560    0.10990    0.38801    1.000
    O3       O        0.11820    0.93740    0.55530    1.000
    O4       O        0.17830    0.03600    0.64348    1.000
    O5       O        0.44023    0.25600    0.68064    1.000
    O6       O        0.47907    0.30560    0.59860    1.000
    O7       O        0.07781    0.02560    0.22959    1.000
    C1       C        0.28650    0.09930    0.47556    1.000
    C2       C        0.22720    0.04810    0.49899    1.000
    H1       H        0.18110    0.00690    0.47190    1.000
    C3       C        0.23760    0.05900    0.56267    1.000
    C4       C        0.30520    0.12420    0.60272    1.000
    H2       H        0.31110    0.13250    0.64530    1.000
    C5       C        0.36340    0.17670    0.58013    1.000
    C6       C        0.35330    0.16390    0.51620    1.000
    H3       H        0.39210    0.19930    0.50050    1.000
    C7       C        0.27630    0.08600    0.40710    1.000
    C8       C        0.17420    0.00670    0.58840    1.000
    C9       C        0.43300    0.25340    0.62332    1.000
    C10      C        0.26560    0.27950    0.26102    1.000
    H4       H        0.30920    0.28300    0.29960    1.000
    C11      C        0.17900    0.32490    0.17190    1.000
    H5       H        0.15020    0.36730    0.13500    1.000
    N1       N        0.15910    0.21510    0.18397    1.000
    N2       N        0.21610    0.18480    0.24158    1.000
    N3       N        0.24570    0.37070    0.21846    1.000
    Zn3      Zn       0.69942    0.53070    0.28337    1.000
    Zn4      Zn       0.57200    0.57541    0.13554    1.000
    O8       O        0.70610    0.54690    0.37157    1.000
    O9       O        0.83560    0.60990    0.38801    1.000
    O10      O        0.61820    0.43740    0.55530    1.000
    O11      O        0.67830    0.53600    0.64348    1.000
    O12      O        0.94023    0.75600    0.68064    1.000
    O13      O        0.97907    0.80560    0.59860    1.000
    O14      O        0.57781    0.52560    0.22959    1.000
    C12      C        0.78650    0.59930    0.47556    1.000
    C13      C        0.72720    0.54810    0.49899    1.000
    H6       H        0.68110    0.50690    0.47190    1.000
    C14      C        0.73760    0.55900    0.56267    1.000
    C15      C        0.80520    0.62420    0.60272    1.000
    H7       H        0.81110    0.63250    0.64530    1.000
    C16      C        0.86340    0.67670    0.58013    1.000
    C17      C        0.85330    0.66390    0.51620    1.000
    H8       H        0.89210    0.69930    0.50050    1.000
    C18      C        0.77630    0.58600    0.40710    1.000
    C19      C        0.67420    0.50670    0.58840    1.000
    C20      C        0.93300    0.75340    0.62332    1.000
    C21      C        0.76560    0.77950    0.26102    1.000
    H9       H        0.80920    0.78300    0.29960    1.000
    C22      C        0.67900    0.82490    0.17190    1.000
    H10      H        0.65020    0.86730    0.13500    1.000
    N4       N        0.65910    0.71510    0.18397    1.000
    N5       N        0.71610    0.68480    0.24158    1.000
    N6       N        0.74570    0.87070    0.21846    1.000
    Zn5      Zn       0.80058    0.03070    0.21663    1.000
    Zn6      Zn       0.92800    0.07541    0.36446    1.000
    O15      O        0.79390    0.04690    0.12843    1.000
    O16      O        0.66440    0.10990    0.11199    1.000
    O17      O        0.88180    0.93740    0.94470    1.000
    O18      O        0.82170    0.03600    0.85652    1.000
    O19      O        0.55977    0.25600    0.81936    1.000
    O20      O        0.52093    0.30560    0.90140    1.000
    O21      O        0.92219    0.02560    0.27041    1.000
    C23      C        0.71350    0.09930    0.02444    1.000
    C24      C        0.77280    0.04810    0.00101    1.000
    H11      H        0.81890    0.00690    0.02810    1.000
    C25      C        0.76240    0.05900    0.93733    1.000
    C26      C        0.69480    0.12420    0.89728    1.000
    H12      H        0.68890    0.13250    0.85470    1.000
    C27      C        0.63660    0.17670    0.91987    1.000
    C28      C        0.64670    0.16390    0.98380    1.000
    H13      H        0.60790    0.19930    0.99950    1.000
    C29      C        0.72370    0.08600    0.09290    1.000
    C30      C        0.82580    0.00670    0.91160    1.000
    C31      C        0.56700    0.25340    0.87668    1.000
    C32      C        0.73440    0.27950    0.23898    1.000
    H14      H        0.69080    0.28300    0.20040    1.000
    C33      C        0.82100    0.32490    0.32810    1.000
    H15      H        0.84980    0.36730    0.36500    1.000
    N7       N        0.84090    0.21510    0.31603    1.000
    N8       N        0.78390    0.18480    0.25842    1.000
    N9       N        0.75430    0.37070    0.28154    1.000
    Zn7      Zn       0.30058    0.53070    0.21663    1.000
    Zn8      Zn       0.42800    0.57541    0.36446    1.000
    O22      O        0.29390    0.54690    0.12843    1.000
    O23      O        0.16440    0.60990    0.11199    1.000
    O24      O        0.38180    0.43740    0.94470    1.000
    O25      O        0.32170    0.53600    0.85652    1.000
    O26      O        0.05977    0.75600    0.81936    1.000
    O27      O        0.02093    0.80560    0.90140    1.000
    O28      O        0.42219    0.52560    0.27041    1.000
    C34      C        0.21350    0.59930    0.02444    1.000
    C35      C        0.27280    0.54810    0.00101    1.000
    H16      H        0.31890    0.50690    0.02810    1.000
    C36      C        0.26240    0.55900    0.93733    1.000
    C37      C        0.19480    0.62420    0.89728    1.000
    H17      H        0.18890    0.63250    0.85470    1.000
    C38      C        0.13660    0.67670    0.91987    1.000
    C39      C        0.14670    0.66390    0.98380    1.000
    H18      H        0.10790    0.69930    0.99950    1.000
    C40      C        0.22370    0.58600    0.09290    1.000
    C41      C        0.32580    0.50670    0.91160    1.000
    C42      C        0.06700    0.75340    0.87668    1.000
    C43      C        0.23440    0.77950    0.23898    1.000
    H19      H        0.19080    0.78300    0.20040    1.000
    C44      C        0.32100    0.82490    0.32810    1.000
    H20      H        0.34980    0.86730    0.36500    1.000
    N10      N        0.34090    0.71510    0.31603    1.000
    N11      N        0.28390    0.68480    0.25842    1.000
    N12      N        0.25430    0.87070    0.28154    1.000
    Zn9      Zn       0.80058    0.96930    0.71663    1.000
    Zn10     Zn       0.92800    0.92459    0.86446    1.000
    O29      O        0.79390    0.95310    0.62843    1.000
    O30      O        0.66440    0.89010    0.61199    1.000
    O31      O        0.88180    0.06260    0.44470    1.000
    O32      O        0.82170    0.96400    0.35652    1.000
    O33      O        0.55977    0.74400    0.31936    1.000
    O34      O        0.52093    0.69440    0.40140    1.000
    O35      O        0.92219    0.97440    0.77041    1.000
    C45      C        0.71350    0.90070    0.52444    1.000
    C46      C        0.77280    0.95190    0.50101    1.000
    H21      H        0.81890    0.99310    0.52810    1.000
    C47      C        0.76240    0.94100    0.43733    1.000
    C48      C        0.69480    0.87580    0.39728    1.000
    H22      H        0.68890    0.86750    0.35470    1.000
    C49      C        0.63660    0.82330    0.41987    1.000
    C50      C        0.64670    0.83610    0.48380    1.000
    H23      H        0.60790    0.80070    0.49950    1.000
    C51      C        0.72370    0.91400    0.59290    1.000
    C52      C        0.82580    0.99330    0.41160    1.000
    C53      C        0.56700    0.74660    0.37668    1.000
    C54      C        0.73440    0.72050    0.73898    1.000
    H24      H        0.69080    0.71700    0.70040    1.000
    C55      C        0.82100    0.67510    0.82810    1.000
    H25      H        0.84980    0.63270    0.86500    1.000
    N13      N        0.84090    0.78490    0.81603    1.000
    N14      N        0.78390    0.81520    0.75842    1.000
    N15      N        0.75430    0.62930    0.78154    1.000
    Zn11     Zn       0.30058    0.46930    0.71663    1.000
    Zn12     Zn       0.42800    0.42459    0.86446    1.000
    O36      O        0.29390    0.45310    0.62843    1.000
    O37      O        0.16440    0.39010    0.61199    1.000
    O38      O        0.38180    0.56260    0.44470    1.000
    O39      O        0.32170    0.46400    0.35652    1.000
    O40      O        0.05977    0.24400    0.31936    1.000
    O41      O        0.02093    0.19440    0.40140    1.000
    O42      O        0.42219    0.47440    0.77041    1.000
    C56      C        0.21350    0.40070    0.52444    1.000
    C57      C        0.27280    0.45190    0.50101    1.000
    H26      H        0.31890    0.49310    0.52810    1.000
    C58      C        0.26240    0.44100    0.43733    1.000
    C59      C        0.19480    0.37580    0.39728    1.000
    H27      H        0.18890    0.36750    0.35470    1.000
    C60      C        0.13660    0.32330    0.41987    1.000
    C61      C        0.14670    0.33610    0.48380    1.000
    H28      H        0.10790    0.30070    0.49950    1.000
    C62      C        0.22370    0.41400    0.59290    1.000
    C63      C        0.32580    0.49330    0.41160    1.000
    C64      C        0.06700    0.24660    0.37668    1.000
    C65      C        0.23440    0.22050    0.73898    1.000
    H29      H        0.19080    0.21700    0.70040    1.000
    C66      C        0.32100    0.17510    0.82810    1.000
    H30      H        0.34980    0.13270    0.86500    1.000
    N16      N        0.34090    0.28490    0.81603    1.000
    N17      N        0.28390    0.31520    0.75842    1.000
    N18      N        0.25430    0.12930    0.78154    1.000
    Zn13     Zn       0.19942    0.96930    0.78337    1.000
    Zn14     Zn       0.07200    0.92459    0.63554    1.000
    O43      O        0.20610    0.95310    0.87157    1.000
    O44      O        0.33560    0.89010    0.88801    1.000
    O45      O        0.11820    0.06260    0.05530    1.000
    O46      O        0.17830    0.96400    0.14348    1.000
    O47      O        0.44023    0.74400    0.18064    1.000
    O48      O        0.47907    0.69440    0.09860    1.000
    O49      O        0.07781    0.97440    0.72959    1.000
    C67      C        0.28650    0.90070    0.97556    1.000
    C68      C        0.22720    0.95190    0.99899    1.000
    H31      H        0.18110    0.99310    0.97190    1.000
    C69      C        0.23760    0.94100    0.06267    1.000
    C70      C        0.30520    0.87580    0.10272    1.000
    H32      H        0.31110    0.86750    0.14530    1.000
    C71      C        0.36340    0.82330    0.08013    1.000
    C72      C        0.35330    0.83610    0.01620    1.000
    H33      H        0.39210    0.80070    0.00050    1.000
    C73      C        0.27630    0.91400    0.90710    1.000
    C74      C        0.17420    0.99330    0.08840    1.000
    C75      C        0.43300    0.74660    0.12332    1.000
    C76      C        0.26560    0.72050    0.76102    1.000
    H34      H        0.30920    0.71700    0.79960    1.000
    C77      C        0.17900    0.67510    0.67190    1.000
    H35      H        0.15020    0.63270    0.63500    1.000
    N19      N        0.15910    0.78490    0.68397    1.000
    N20      N        0.21610    0.81520    0.74158    1.000
    N21      N        0.24570    0.62930    0.71846    1.000
    Zn15     Zn       0.69942    0.46930    0.78337    1.000
    Zn16     Zn       0.57200    0.42459    0.63554    1.000
    O50      O        0.70610    0.45310    0.87157    1.000
    O51      O        0.83560    0.39010    0.88801    1.000
    O52      O        0.61820    0.56260    0.05530    1.000
    O53      O        0.67830    0.46400    0.14348    1.000
    O54      O        0.94023    0.24400    0.18064    1.000
    O55      O        0.97907    0.19440    0.09860    1.000
    O56      O        0.57781    0.47440    0.72959    1.000
    C78      C        0.78650    0.40070    0.97556    1.000
    C79      C        0.72720    0.45190    0.99899    1.000
    H36      H        0.68110    0.49310    0.97190    1.000
    C80      C        0.73760    0.44100    0.06267    1.000
    C81      C        0.80520    0.37580    0.10272    1.000
    H37      H        0.81110    0.36750    0.14530    1.000
    C82      C        0.86340    0.32330    0.08013    1.000
    C83      C        0.85330    0.33610    0.01620    1.000
    H38      H        0.89210    0.30070    0.00050    1.000
    C84      C        0.77630    0.41400    0.90710    1.000
    C85      C        0.67420    0.49330    0.08840    1.000
    C86      C        0.93300    0.24660    0.12332    1.000
    C87      C        0.76560    0.22050    0.76102    1.000
    H39      H        0.80920    0.21700    0.79960    1.000
    C88      C        0.67900    0.17510    0.67190    1.000
    H40      H        0.65020    0.13270    0.63500    1.000
    N22      N        0.65910    0.28490    0.68397    1.000
    N23      N        0.71610    0.31520    0.74158    1.000
    N24      N        0.74570    0.12930    0.71846    1.000
    Zn17     Zn       0.00000    0.13695    0.25000    1.000
    Zn18     Zn       0.50000    0.63695    0.25000    1.000
    Zn19     Zn       0.00000    0.86305    0.75000    1.000
    Zn20     Zn       0.50000    0.36305    0.75000    1.000
