data_functionalizedCrystal
_audit_creation_method	'EQeq! by Chris Wilmer'
_symmetry_space_group_name_H-M	'P1'
_symmetry_Int_Tables_number	1
_symmetry_cell_setting	triclinic
loop_
_symmetry_equiv_pos_as_xyz
  x,y,z
_cell_length_a	19.127
_cell_length_b	19.127
_cell_length_c	19.127
_cell_angle_alpha	109.471
_cell_angle_beta	109.471
_cell_angle_gamma	109.471
loop_
_atom_site_label
_atom_site_type_symbol
_atom_site_fract_x
_atom_site_fract_y
_atom_site_fract_z
_atom_site_charge
Mof_In	In	0.73606	0.23606	0.5	2.107
Mof_In	In	0.26394	0.76394	0.5	2.107
Mof_In	In	0.5	0.26394	0.76394	2.107
Mof_In	In	0.5	0.73606	0.23606	2.107
Mof_In	In	0.23606	0.5	0.73606	2.107
Mof_In	In	0.76394	0.5	0.26394	2.107
Mof_H 	H 	0.9169	0.2672	0.6057	-0.017
Mof_H 	H 	0.9979	0.1987	0.6056	0.118
Mof_H 	H 	0.7805	0.9699	0.4332	0.117
Mof_H 	H 	0.6995	0.0384	0.4333	0.006
Mof_H 	H 	0.6615	0.3112	0.3943	-0.017
Mof_H 	H 	0.5931	0.3923	0.3944	0.118
Mof_H 	H 	0.5367	0.3473	0.5668	0.117
Mof_H 	H 	0.6051	0.2662	0.5667	0.006
Mof_H 	H 	0.3385	0.7328	0.6497	-0.017
Mof_H 	H 	0.4069	0.8013	0.7992	0.118
Mof_H 	H 	0.4633	0.0301	0.8106	0.117
Mof_H 	H 	0.3949	0.9616	0.6611	0.006
Mof_H 	H 	0.0831	0.6888	0.3503	-0.017
Mof_H 	H 	0.0021	0.6077	0.2008	0.118
Mof_H 	H 	0.2195	0.6527	0.1894	0.117
Mof_H 	H 	0.3005	0.7338	0.3389	0.006
Mof_H 	H 	0.6497	0.3385	0.7328	-0.017
Mof_H 	H 	0.7992	0.4069	0.8013	0.118
Mof_H 	H 	0.8106	0.4633	0.0301	0.117
Mof_H 	H 	0.6611	0.3949	0.9616	0.006
Mof_H 	H 	0.3503	0.0831	0.6888	-0.017
Mof_H 	H 	0.2008	0.0021	0.6077	0.118
Mof_H 	H 	0.1894	0.2195	0.6527	0.117
Mof_H 	H 	0.3389	0.3005	0.7338	0.006
Mof_H 	H 	0.6057	0.9169	0.2672	-0.018
Mof_H 	H 	0.6056	0.9979	0.1987	0.117
Mof_H 	H 	0.4332	0.7805	0.9699	0.116
Mof_H 	H 	0.4333	0.6995	0.0384	0.005
Mof_H 	H 	0.3943	0.6615	0.3112	-0.018
Mof_H 	H 	0.3944	0.5931	0.3923	0.117
Mof_H 	H 	0.5668	0.5367	0.3473	0.116
Mof_H 	H 	0.5667	0.6051	0.2662	0.005
Mof_H 	H 	0.3112	0.3943	0.6615	-0.018
Mof_H 	H 	0.3923	0.3944	0.5931	0.117
Mof_H 	H 	0.3473	0.5668	0.5367	0.116
Mof_H 	H 	0.2662	0.5667	0.6051	0.005
Mof_H 	H 	0.2672	0.6057	0.9169	-0.018
Mof_H 	H 	0.1987	0.6056	0.9979	0.117
Mof_H 	H 	0.9699	0.4332	0.7805	0.116
Mof_H 	H 	0.0384	0.4333	0.6995	0.005
Mof_H 	H 	0.6888	0.3503	0.0831	-0.018
Mof_H 	H 	0.6077	0.2008	0.0021	0.117
Mof_H 	H 	0.6527	0.1894	0.2195	0.116
Mof_H 	H 	0.7338	0.3389	0.3005	0.005
Mof_H 	H 	0.7328	0.6497	0.3385	-0.018
Mof_H 	H 	0.8013	0.7992	0.4069	0.117
Mof_H 	H 	0.0301	0.8106	0.4633	0.116
Mof_H 	H 	0.9616	0.6611	0.3949	0.005
Mof_C 	C 	0.9507	0.0373	0.5342	0.093
Mof_C 	C 	0.8892	0.2069	0.5707	0.076
Mof_C 	C 	0.9373	0.1661	0.5706	-0.127
Mof_C 	C 	0.8969	0.0779	0.5194	0.081
Mof_C 	C 	0.8082	0.0302	0.4682	-0.142
Mof_C 	C 	0.76	0.0709	0.4683	0.107
Mof_C 	C 	0.5031	0.4165	0.4658	0.093
Mof_C 	C 	0.6362	0.3185	0.4293	0.076
Mof_C 	C 	0.5955	0.3667	0.4294	-0.127
Mof_C 	C 	0.5585	0.3775	0.4806	0.081
Mof_C 	C 	0.562	0.34	0.5318	-0.142
Mof_C 	C 	0.6026	0.2917	0.5317	0.107
Mof_C 	C 	0.4969	0.9627	0.9134	0.093
Mof_C 	C 	0.3638	0.7931	0.6823	0.076
Mof_C 	C 	0.4045	0.8339	0.7712	-0.127
Mof_C 	C 	0.4415	0.9221	0.819	0.081
Mof_C 	C 	0.438	0.9698	0.778	-0.142
Mof_C 	C 	0.3974	0.9291	0.6891	0.107
Mof_C 	C 	0.0493	0.5835	0.0866	0.093
Mof_C 	C 	0.1108	0.6815	0.3177	0.076
Mof_C 	C 	0.0627	0.6333	0.2288	-0.127
Mof_C 	C 	0.1031	0.6225	0.181	0.081
Mof_C 	C 	0.1918	0.66	0.222	-0.142
Mof_C 	C 	0.24	0.7083	0.3109	0.107
Mof_C 	C 	0.9134	0.4969	0.9627	0.093
Mof_C 	C 	0.6823	0.3638	0.7931	0.076
Mof_C 	C 	0.7712	0.4045	0.8339	-0.127
Mof_C 	C 	0.819	0.4415	0.9221	0.081
Mof_C 	C 	0.778	0.438	0.9698	-0.142
Mof_C 	C 	0.6891	0.3974	0.9291	0.107
Mof_C 	C 	0.0866	0.0493	0.5835	0.093
Mof_C 	C 	0.3177	0.1108	0.6815	0.076
Mof_C 	C 	0.2288	0.0627	0.6333	-0.127
Mof_C 	C 	0.181	0.1031	0.6225	0.081
Mof_C 	C 	0.222	0.1918	0.66	-0.142
Mof_C 	C 	0.3109	0.24	0.7083	0.107
Mof_C 	C 	0.5342	0.9507	0.0373	0.093
Mof_C 	C 	0.5707	0.8892	0.2069	0.076
Mof_C 	C 	0.5706	0.9373	0.1661	-0.127
Mof_C 	C 	0.5194	0.8969	0.0779	0.081
Mof_C 	C 	0.4682	0.8082	0.0302	-0.142
Mof_C 	C 	0.4683	0.76	0.0709	0.107
Mof_C 	C 	0.4658	0.5031	0.4165	0.093
Mof_C 	C 	0.4293	0.6362	0.3185	0.076
Mof_C 	C 	0.4294	0.5955	0.3667	-0.127
Mof_C 	C 	0.4806	0.5585	0.3775	0.081
Mof_C 	C 	0.5318	0.562	0.34	-0.142
Mof_C 	C 	0.5317	0.6026	0.2917	0.107
Mof_C 	C 	0.4165	0.4658	0.5031	0.093
Mof_C 	C 	0.3185	0.4293	0.6362	0.076
Mof_C 	C 	0.3667	0.4294	0.5955	-0.127
Mof_C 	C 	0.3775	0.4806	0.5585	0.081
Mof_C 	C 	0.34	0.5318	0.562	-0.142
Mof_C 	C 	0.2917	0.5317	0.6026	0.107
Mof_C 	C 	0.0373	0.5342	0.9507	0.093
Mof_C 	C 	0.2069	0.5707	0.8892	0.076
Mof_C 	C 	0.1661	0.5706	0.9373	-0.127
Mof_C 	C 	0.0779	0.5194	0.8969	0.081
Mof_C 	C 	0.0302	0.4682	0.8082	-0.142
Mof_C 	C 	0.0709	0.4683	0.76	0.107
Mof_C 	C 	0.5835	0.0866	0.0493	0.093
Mof_C 	C 	0.6815	0.3177	0.1108	0.076
Mof_C 	C 	0.6333	0.2288	0.0627	-0.127
Mof_C 	C 	0.6225	0.181	0.1031	0.081
Mof_C 	C 	0.66	0.222	0.1918	-0.142
Mof_C 	C 	0.7083	0.3109	0.24	0.107
Mof_C 	C 	0.9627	0.9134	0.4969	0.093
Mof_C 	C 	0.7931	0.6823	0.3638	0.076
Mof_C 	C 	0.8339	0.7712	0.4045	-0.127
Mof_C 	C 	0.9221	0.819	0.4415	0.081
Mof_C 	C 	0.9698	0.778	0.438	-0.142
Mof_C 	C 	0.9291	0.6891	0.3974	0.107
Mof_N 	N 	0.9103	0.9488	0.4893	-0.119
Mof_N 	N 	0.8005	0.1592	0.5195	-0.295
Mof_N 	N 	0.4595	0.421	0.5107	-0.119
Mof_N 	N 	0.6397	0.281	0.4805	-0.295
Mof_N 	N 	0.5405	0.0512	0.9615	-0.119
Mof_N 	N 	0.3603	0.8408	0.6413	-0.295
Mof_N 	N 	0.0897	0.579	0.0385	-0.119
Mof_N 	N 	0.1995	0.719	0.3587	-0.295
Mof_N 	N 	0.9615	0.5405	0.0512	-0.119
Mof_N 	N 	0.6413	0.3603	0.8408	-0.295
Mof_N 	N 	0.0385	0.0897	0.579	-0.119
Mof_N 	N 	0.3587	0.1995	0.719	-0.295
Mof_N 	N 	0.4893	0.9103	0.9488	-0.119
Mof_N 	N 	0.5195	0.8005	0.1592	-0.295
Mof_N 	N 	0.5107	0.4595	0.421	-0.119
Mof_N 	N 	0.4805	0.6397	0.281	-0.295
Mof_N 	N 	0.421	0.5107	0.4595	-0.119
Mof_N 	N 	0.281	0.4805	0.6397	-0.295
Mof_N 	N 	0.9488	0.4893	0.9103	-0.119
Mof_N 	N 	0.1592	0.5195	0.8005	-0.295
Mof_N 	N 	0.579	0.0385	0.0897	-0.119
Mof_N 	N 	0.719	0.3587	0.1995	-0.295
Mof_N 	N 	0.0512	0.9615	0.5405	-0.119
Mof_N 	N 	0.8408	0.6413	0.3603	-0.295
Mof_Cl	Cl	0.80166	0.3139	0.65596	-0.638
Mof_Cl	Cl	0.65794	0.1457	0.34404	-0.638
Mof_Cl	Cl	0.34206	0.6861	0.48776	-0.638
Mof_Cl	Cl	0.19834	0.8543	0.51224	-0.638
Mof_Cl	Cl	0.48776	0.34206	0.6861	-0.638
Mof_Cl	Cl	0.51224	0.19834	0.8543	-0.638
Mof_Cl	Cl	0.65596	0.80166	0.3139	-0.638
Mof_Cl	Cl	0.34404	0.65794	0.1457	-0.638
Mof_Cl	Cl	0.1457	0.34404	0.65794	-0.638
Mof_Cl	Cl	0.3139	0.65596	0.80166	-0.638
Mof_Cl	Cl	0.8543	0.51224	0.19834	-0.638
Mof_Cl	Cl	0.6861	0.48776	0.34206	-0.638
Mof_Cl	Cl	0.6308	0.1308	0.5	-0.623
Mof_Cl	Cl	0.3692	0.8692	0.5	-0.623
Mof_Cl	Cl	0.5	0.3692	0.8692	-0.623
Mof_Cl	Cl	0.5	0.6308	0.1308	-0.623
Mof_Cl	Cl	0.1308	0.5	0.6308	-0.623
Mof_Cl	Cl	0.8692	0.5	0.3692	-0.623
_end
