data_functionalizedCrystal
_audit_creation_method	'EQeq! by Chris Wilmer'
_symmetry_space_group_name_H-M	'P1'
_symmetry_Int_Tables_number	1
_symmetry_cell_setting	triclinic
loop_
_symmetry_equiv_pos_as_xyz
  x,y,z
_cell_length_a	9.509
_cell_length_b	15.18
_cell_length_c	12.246
_cell_angle_alpha	90
_cell_angle_beta	93.835
_cell_angle_gamma	90
loop_
_atom_site_label
_atom_site_type_symbol
_atom_site_fract_x
_atom_site_fract_y
_atom_site_fract_z
_atom_site_charge
Mof_Zn	Zn	0.14215	0.07827	0.44761	1.241
Mof_O 	O 	0.97616	0.07106	0.34236	-0.451
Mof_O 	O 	0.3138	0.06654	0.3707	-0.413
Mof_O 	O 	0.82106	0.02645	0.4599	-0.476
Mof_O 	O 	0.58776	0.3256	0.04185	-0.428
Mof_C 	C 	0.5192	0.20645	0.20338	0.036
Mof_H 	H 	0.4469	0.24	0.1694	0.058
Mof_C 	C 	0.3405	0.136	0.31792	0.329
Mof_O 	O 	0.25548	0.19676	0.29921	-0.279
Mof_C 	C 	0.488	0.14399	0.28116	-0.082
Mof_C 	C 	0.7356	0.10802	0.30724	-0.112
Mof_C 	C 	0.5962	0.09459	0.33271	0.051
Mof_H 	H 	0.5757	0.0524	0.3844	0.055
Mof_C 	C 	0.6576	0.21942	0.17573	-0.085
Mof_C 	C 	0.853	0.0637	0.37421	0.408
Mof_O 	O 	0.81628	0.31415	0.08961	-0.278
Mof_C 	C 	0.7654	0.16964	0.22781	0.048
Mof_H 	H 	0.8578	0.1776	0.2094	0.056
Mof_C 	C 	0.6919	0.29087	0.0968	0.329
Mof_Zn	Zn	0.35785	0.57827	0.05239	1.241
Mof_O 	O 	0.52384	0.57106	0.15764	-0.454
Mof_O 	O 	0.1862	0.56654	0.1293	-0.414
Mof_O 	O 	0.67894	0.52645	0.0401	-0.478
Mof_O 	O 	0.91224	0.8256	0.45815	-0.43
Mof_C 	C 	0.9808	0.70645	0.29662	0.033
Mof_H 	H 	0.0531	0.74	0.3306	0.06
Mof_C 	C 	0.1595	0.636	0.18208	0.329
Mof_O 	O 	0.24452	0.69676	0.20079	-0.278
Mof_C 	C 	0.012	0.64399	0.21884	-0.081
Mof_C 	C 	0.7644	0.60802	0.19276	-0.113
Mof_C 	C 	0.9038	0.59459	0.16729	0.05
Mof_H 	H 	0.9243	0.5524	0.1156	0.055
Mof_C 	C 	0.8424	0.71942	0.32427	-0.084
Mof_C 	C 	0.647	0.5637	0.12579	0.408
Mof_O 	O 	0.68372	0.81415	0.41039	-0.279
Mof_C 	C 	0.7346	0.66964	0.27219	0.047
Mof_H 	H 	0.6422	0.6776	0.2906	0.055
Mof_C 	C 	0.8081	0.79087	0.4032	0.328
Mof_Zn	Zn	0.85785	0.92173	0.55239	1.24
Mof_O 	O 	0.02384	0.92894	0.65764	-0.452
Mof_O 	O 	0.6862	0.93346	0.6293	-0.414
Mof_O 	O 	0.17894	0.97355	0.5401	-0.477
Mof_O 	O 	0.41224	0.6744	0.95815	-0.428
Mof_C 	C 	0.4808	0.79355	0.79662	0.036
Mof_H 	H 	0.5531	0.76	0.8306	0.058
Mof_C 	C 	0.6595	0.864	0.68208	0.329
Mof_O 	O 	0.74452	0.80324	0.70079	-0.279
Mof_C 	C 	0.512	0.85601	0.71884	-0.082
Mof_C 	C 	0.2644	0.89198	0.69276	-0.112
Mof_C 	C 	0.4038	0.90541	0.66729	0.051
Mof_H 	H 	0.4243	0.9476	0.6156	0.055
Mof_C 	C 	0.3424	0.78058	0.82427	-0.085
Mof_C 	C 	0.147	0.9363	0.62579	0.408
Mof_O 	O 	0.18372	0.68585	0.91039	-0.278
Mof_C 	C 	0.2346	0.83036	0.77219	0.048
Mof_H 	H 	0.1422	0.8224	0.7906	0.056
Mof_C 	C 	0.3081	0.70913	0.9032	0.329
Mof_Zn	Zn	0.64215	0.42173	0.94761	1.241
Mof_O 	O 	0.47616	0.42894	0.84236	-0.454
Mof_O 	O 	0.8138	0.43346	0.8707	-0.414
Mof_O 	O 	0.32106	0.47355	0.9599	-0.478
Mof_O 	O 	0.08776	0.1744	0.54185	-0.43
Mof_C 	C 	0.0192	0.29355	0.70338	0.033
Mof_H 	H 	0.9469	0.26	0.6694	0.06
Mof_C 	C 	0.8405	0.364	0.81792	0.329
Mof_O 	O 	0.75548	0.30324	0.79921	-0.278
Mof_C 	C 	0.988	0.35601	0.78116	-0.081
Mof_C 	C 	0.2356	0.39198	0.80724	-0.113
Mof_C 	C 	0.0962	0.40541	0.83271	0.05
Mof_H 	H 	0.0757	0.4476	0.8844	0.055
Mof_C 	C 	0.1576	0.28058	0.67573	-0.084
Mof_C 	C 	0.353	0.4363	0.87421	0.408
Mof_O 	O 	0.31628	0.18585	0.58961	-0.279
Mof_C 	C 	0.2654	0.33036	0.72781	0.047
Mof_H 	H 	0.3578	0.3224	0.7094	0.055
Mof_C 	C 	0.1919	0.20913	0.5968	0.328
_end
