# CIF file generated by openbabel 3.1.0, see https://openbabel.org
data_I
_chemical_name_common 'OVICUS_clean'
_cell_length_a 11.174
_cell_length_b 12.8365
_cell_length_c 12.8365
_cell_angle_alpha 117.852
_cell_angle_beta 96.1197
_cell_angle_gamma 83.8803
_space_group_name_H-M_alt 'P 1'
_space_group_name_Hall 'P 1'
loop_
    _symmetry_equiv_pos_as_xyz
    x,y,z
loop_
    _atom_site_label
    _atom_site_type_symbol
    _atom_site_fract_x
    _atom_site_fract_y
    _atom_site_fract_z
    _atom_site_occupancy
    Zn1      Zn       0.86561    0.49841    0.97321    1.000
    Zn2      Zn       0.63439    0.97321    0.49841    1.000
    Zn3      Zn       0.13439    0.50159    0.02679    1.000
    Zn4      Zn       0.36561    0.02679    0.50159    1.000
    H1       H        0.76510    0.79670    0.30950    1.000
    H2       H        0.11090    0.74620    0.39780    1.000
    H3       H        0.08110    0.88920    0.58900    1.000
    H4       H        0.18070    0.80360    0.96160    1.000
    H5       H        0.84670    0.74080    0.82740    1.000
    H6       H        0.85030    0.87980    0.76380    1.000
    H7       H        0.73490    0.30950    0.79670    1.000
    H8       H        0.38910    0.39780    0.74620    1.000
    H9       H        0.41890    0.58900    0.88920    1.000
    H10      H        0.31930    0.96160    0.80360    1.000
    H11      H        0.65330    0.82740    0.74080    1.000
    H12      H        0.64970    0.76380    0.87980    1.000
    H13      H        0.23490    0.20330    0.69050    1.000
    H14      H        0.88910    0.25380    0.60220    1.000
    H15      H        0.91890    0.11080    0.41100    1.000
    H16      H        0.81930    0.19640    0.03840    1.000
    H17      H        0.15330    0.25920    0.17260    1.000
    H18      H        0.14970    0.12020    0.23620    1.000
    H19      H        0.26510    0.69050    0.20330    1.000
    H20      H        0.61090    0.60220    0.25380    1.000
    H21      H        0.58110    0.41100    0.11080    1.000
    H22      H        0.68070    0.03840    0.19640    1.000
    H23      H        0.34670    0.17260    0.25920    1.000
    H24      H        0.35030    0.23620    0.12020    1.000
    C1       C        0.95480    0.66060    0.21000    1.000
    C2       C        0.94000    0.75490    0.33330    1.000
    C3       C        0.82970    0.81590    0.36590    1.000
    C4       C        0.03510    0.78450    0.41770    1.000
    C5       C        0.01800    0.87000    0.53120    1.000
    C6       C        0.90470    0.92730    0.55750    1.000
    C7       C        0.01200    0.92750    0.83530    1.000
    C8       C        0.11180    0.81810    0.92170    1.000
    C9       C        0.01360    0.75210    0.89850    1.000
    C10      C        0.91640    0.78060    0.84240    1.000
    C11      C        0.01420    0.65990    0.93630    1.000
    C12      C        0.91650    0.86580    0.80700    1.000
    C13      C        0.54520    0.21000    0.66060    1.000
    C14      C        0.56000    0.33330    0.75490    1.000
    C15      C        0.67030    0.36590    0.81590    1.000
    C16      C        0.46490    0.41770    0.78450    1.000
    C17      C        0.48200    0.53120    0.87000    1.000
    C18      C        0.59530    0.55750    0.92730    1.000
    C19      C        0.48800    0.83530    0.92750    1.000
    C20      C        0.38820    0.92170    0.81810    1.000
    C21      C        0.48640    0.89850    0.75210    1.000
    C22      C        0.58360    0.84240    0.78060    1.000
    C23      C        0.48580    0.93630    0.65990    1.000
    C24      C        0.58350    0.80700    0.86580    1.000
    C25      C        0.04520    0.33940    0.79000    1.000
    C26      C        0.06000    0.24510    0.66670    1.000
    C27      C        0.17030    0.18410    0.63410    1.000
    C28      C        0.96490    0.21550    0.58230    1.000
    C29      C        0.98200    0.13000    0.46880    1.000
    C30      C        0.09530    0.07270    0.44250    1.000
    C31      C        0.98800    0.07250    0.16470    1.000
    C32      C        0.88820    0.18190    0.07830    1.000
    C33      C        0.98640    0.24790    0.10150    1.000
    C34      C        0.08360    0.21940    0.15760    1.000
    C35      C        0.98580    0.34010    0.06370    1.000
    C36      C        0.08350    0.13420    0.19300    1.000
    C37      C        0.45480    0.79000    0.33940    1.000
    C38      C        0.44000    0.66670    0.24510    1.000
    C39      C        0.32970    0.63410    0.18410    1.000
    C40      C        0.53510    0.58230    0.21550    1.000
    C41      C        0.51800    0.46880    0.13000    1.000
    C42      C        0.40470    0.44250    0.07270    1.000
    C43      C        0.51200    0.16470    0.07250    1.000
    C44      C        0.61180    0.07830    0.18190    1.000
    C45      C        0.51360    0.10150    0.24790    1.000
    C46      C        0.41640    0.15760    0.21940    1.000
    C47      C        0.51420    0.06370    0.34010    1.000
    C48      C        0.41650    0.19300    0.13420    1.000
    S1       S        0.02025    0.04631    0.80157    1.000
    S2       S        0.86831    0.04051    0.69987    1.000
    S3       S        0.47975    0.80157    0.04631    1.000
    S4       S        0.63169    0.69987    0.04051    1.000
    S5       S        0.97975    0.95369    0.19843    1.000
    S6       S        0.13169    0.95949    0.30013    1.000
    S7       S        0.52025    0.19843    0.95369    1.000
    S8       S        0.36831    0.30013    0.95949    1.000
    N1       N        0.11030    0.90490    0.88750    1.000
    N2       N        0.81170    0.90230    0.47610    1.000
    N3       N        0.38970    0.88750    0.90490    1.000
    N4       N        0.68830    0.47610    0.90230    1.000
    N5       N        0.88970    0.09510    0.11250    1.000
    N6       N        0.18830    0.09770    0.52390    1.000
    N7       N        0.61030    0.11250    0.09510    1.000
    N8       N        0.31170    0.52390    0.09770    1.000
    O1       O        0.11340    0.62740    0.97300    1.000
    O2       O        0.91420    0.62010    0.92970    1.000
    O3       O        0.06090    0.62560    0.18140    1.000
    O4       O        0.86170    0.62220    0.14380    1.000
    O5       O        0.38660    0.97300    0.62740    1.000
    O6       O        0.58580    0.92970    0.62010    1.000
    O7       O        0.43910    0.18140    0.62560    1.000
    O8       O        0.63830    0.14380    0.62220    1.000
    O9       O        0.88660    0.37260    0.02700    1.000
    O10      O        0.08580    0.37990    0.07030    1.000
    O11      O        0.93910    0.37440    0.81860    1.000
    O12      O        0.13830    0.37780    0.85620    1.000
    O13      O        0.61340    0.02700    0.37260    1.000
    O14      O        0.41420    0.07030    0.37990    1.000
    O15      O        0.56090    0.81860    0.37440    1.000
    O16      O        0.36170    0.85620    0.37780    1.000
