# CIF file generated by openbabel 3.1.0, see https://openbabel.org
data_I
_chemical_name_common 'QUSBEM_charged'
_cell_length_a 6.5909
_cell_length_b 10.3821
_cell_length_c 17.6921
_cell_angle_alpha 92.2787
_cell_angle_beta 100.735
_cell_angle_gamma 77.6749
_space_group_name_H-M_alt 'P 1'
_space_group_name_Hall 'P 1'
loop_
    _symmetry_equiv_pos_as_xyz
    x,y,z
loop_
    _atom_site_label
    _atom_site_type_symbol
    _atom_site_fract_x
    _atom_site_fract_y
    _atom_site_fract_z
    _atom_site_occupancy
    Li1      Li       0.37707    0.75000    0.75414    1.000
    Li2      Li       0.62293    0.25000    0.24586    1.000
    Cd1      Cd       0.87992    0.75000    0.75984    1.000
    Cd2      Cd       0.12008    0.25000    0.24016    1.000
    H1       H        0.29340    0.60540    0.58060    1.000
    H2       H        0.87530    0.47090    0.53400    1.000
    H3       H        0.31420    0.88480    0.90580    1.000
    H4       H        0.82680    0.03980    0.98860    1.000
    H5       H        0.28720    0.89460    0.58060    1.000
    H6       H        0.65870    0.02910    0.53400    1.000
    H7       H        0.59160    0.61520    0.90580    1.000
    H8       H        0.16180    0.46020    0.98860    1.000
    H9       H        0.70660    0.39460    0.41940    1.000
    H10      H        0.12470    0.52910    0.46600    1.000
    H11      H        0.68580    0.11520    0.09420    1.000
    H12      H        0.17320    0.96020    0.01140    1.000
    H13      H        0.71280    0.10540    0.41940    1.000
    H14      H        0.34130    0.97090    0.46600    1.000
    H15      H        0.40840    0.38480    0.09420    1.000
    H16      H        0.83820    0.53980    0.01140    1.000
    C1       C        0.68094    0.60240    0.64608    1.000
    C2       C        0.58503    0.54890    0.57026    1.000
    C3       C        0.36858    0.56500    0.54876    1.000
    C4       C        0.71689    0.48390    0.52098    1.000
    C5       C        0.68802    0.89530    0.86924    1.000
    C6       C        0.58831    0.95071    0.93622    1.000
    C7       C        0.39415    0.92720    0.94470    1.000
    C8       C        0.69272    0.02450    0.99184    1.000
    C9       C        0.96514    0.89760    0.64608    1.000
    C10      C        0.98523    0.95110    0.57026    1.000
    C11      C        0.18018    0.93500    0.54876    1.000
    C12      C        0.80409    0.01610    0.52098    1.000
    C13      C        0.18122    0.60470    0.86924    1.000
    C14      C        0.34791    0.54929    0.93622    1.000
    C15      C        0.55055    0.57280    0.94470    1.000
    C16      C        0.29912    0.47550    0.99184    1.000
    C17      C        0.31906    0.39760    0.35392    1.000
    C18      C        0.41497    0.45110    0.42974    1.000
    C19      C        0.63142    0.43500    0.45124    1.000
    C20      C        0.28311    0.51610    0.47902    1.000
    C21      C        0.31198    0.10470    0.13076    1.000
    C22      C        0.41169    0.04929    0.06378    1.000
    C23      C        0.60585    0.07280    0.05530    1.000
    C24      C        0.30728    0.97550    0.00816    1.000
    C25      C        0.03486    0.10240    0.35392    1.000
    C26      C        0.01477    0.04890    0.42974    1.000
    C27      C        0.81982    0.06500    0.45124    1.000
    C28      C        0.19591    0.98390    0.47902    1.000
    C29      C        0.81878    0.39530    0.13076    1.000
    C30      C        0.65209    0.45071    0.06378    1.000
    C31      C        0.44945    0.42720    0.05530    1.000
    C32      C        0.70088    0.52450    0.00816    1.000
    O1       O        0.87581    0.59750    0.66002    1.000
    O2       O        0.56186    0.65080    0.69132    1.000
    O3       O        0.58572    0.83297    0.81824    1.000
    O4       O        0.86850    0.90992    0.86500    1.000
    O5       O        0.78421    0.90250    0.66002    1.000
    O6       O        0.12946    0.84920    0.69132    1.000
    O7       O        0.23252    0.66703    0.81824    1.000
    O8       O        0.99650    0.59008    0.86500    1.000
    O9       O        0.12419    0.40250    0.33998    1.000
    O10      O        0.43814    0.34920    0.30868    1.000
    O11      O        0.41428    0.16703    0.18176    1.000
    O12      O        0.13150    0.09008    0.13500    1.000
    O13      O        0.21579    0.09750    0.33998    1.000
    O14      O        0.87054    0.15080    0.30868    1.000
    O15      O        0.76748    0.33297    0.18176    1.000
    O16      O        0.00350    0.40992    0.13500    1.000
    H17      H        0.73700    0.88260    0.23960    1.000
    H18      H        0.60170    0.93340    0.30300    1.000
    H19      H        0.49170    0.89420    0.22140    1.000
    H20      H        0.50260    0.61740    0.23960    1.000
    H21      H        0.70130    0.56660    0.30300    1.000
    H22      H        0.72970    0.60580    0.22140    1.000
    C33      C        0.61620    0.87380    0.26040    1.000
    C34      C        0.64420    0.62620    0.26040    1.000
    N1       N        0.64238    0.75000    0.28476    1.000
    H23      H        0.26300    0.11740    0.76040    1.000
    H24      H        0.39830    0.06660    0.69700    1.000
    H25      H        0.50830    0.10580    0.77860    1.000
    H26      H        0.49740    0.38260    0.76040    1.000
    H27      H        0.29870    0.43340    0.69700    1.000
    H28      H        0.27030    0.39420    0.77860    1.000
    C35      C        0.38380    0.12620    0.73960    1.000
    C36      C        0.35580    0.37380    0.73960    1.000
    N2       N        0.35762    0.25000    0.71524    1.000
