# CIF file generated by openbabel 3.1.0, see https://openbabel.org
data_I
_chemical_name_common 'MIMVEJ_clean'
_cell_length_a 6.9183
_cell_length_b 15.4887
_cell_length_c 15.4887
_cell_angle_alpha 87.141
_cell_angle_beta 77.0951
_cell_angle_gamma 77.0951
_space_group_name_H-M_alt 'P 1'
_space_group_name_Hall 'P 1'
loop_
    _symmetry_equiv_pos_as_xyz
    x,y,z
loop_
    _atom_site_label
    _atom_site_type_symbol
    _atom_site_fract_x
    _atom_site_fract_y
    _atom_site_fract_z
    _atom_site_occupancy
    Zn1      Zn       0.12500    0.76077    0.73923    1.000
    Zn2      Zn       0.62500    0.23923    0.26077    1.000
    Zn3      Zn       0.13577    0.73923    0.23923    1.000
    Zn4      Zn       0.11423    0.26077    0.76077    1.000
    H1       H        0.57380    0.73750    0.15250    1.000
    H2       H        0.77660    0.74740    0.01120    1.000
    H3       H        0.63690    0.75210    0.88750    1.000
    H4       H        0.09720    0.74550    0.05090    1.000
    H5       H        0.46380    0.26250    0.84750    1.000
    H6       H        0.53520    0.25260    0.98880    1.000
    H7       H        0.27650    0.24790    0.11250    1.000
    H8       H        0.89360    0.25450    0.94910    1.000
    H9       H        0.27370    0.15250    0.26250    1.000
    H10      H        0.21220    0.01120    0.25260    1.000
    H11      H        0.47560    0.88750    0.24790    1.000
    H12      H        0.85190    0.05090    0.25450    1.000
    H13      H        0.68870    0.84750    0.73750    1.000
    H14      H        0.47600    0.98880    0.74740    1.000
    H15      H        0.61100    0.11250    0.75210    1.000
    H16      H        0.15730    0.94910    0.74550    1.000
    H17      H        0.78620    0.65250    0.23750    1.000
    H18      H        0.71480    0.51120    0.24740    1.000
    H19      H        0.97350    0.38750    0.25210    1.000
    H20      H        0.35640    0.55090    0.24550    1.000
    H21      H        0.67620    0.34750    0.76250    1.000
    H22      H        0.47340    0.48880    0.75260    1.000
    H23      H        0.61310    0.61250    0.74790    1.000
    H24      H        0.15280    0.44910    0.75450    1.000
    H25      H        0.56130    0.76250    0.65250    1.000
    H26      H        0.77400    0.75260    0.51120    1.000
    H27      H        0.63900    0.74790    0.38750    1.000
    H28      H        0.09270    0.75450    0.55090    1.000
    H29      H        0.97630    0.23750    0.34750    1.000
    H30      H        0.03780    0.24740    0.48880    1.000
    H31      H        0.77440    0.25210    0.61250    1.000
    H32      H        0.39810    0.24550    0.44910    1.000
    C1       C        0.51430    0.74170    0.10250    1.000
    C2       C        0.63710    0.74670    0.01790    1.000
    C3       C        0.55450    0.75040    0.94520    1.000
    C4       C        0.34800    0.75170    0.95630    1.000
    C5       C        0.23700    0.74650    0.04250    1.000
    C6       C        0.24730    0.75810    0.88090    1.000
    C7       C        0.35850    0.25830    0.89750    1.000
    C8       C        0.40170    0.25330    0.98210    1.000
    C9       C        0.25010    0.24960    0.05480    1.000
    C10      C        0.05600    0.24830    0.04370    1.000
    C11      C        0.02600    0.25350    0.95750    1.000
    C12      C        0.88630    0.24190    0.11910    1.000
    C13      C        0.38320    0.10250    0.25830    1.000
    C14      C        0.34500    0.01790    0.25330    1.000
    C15      C        0.50030    0.94520    0.24960    1.000
    C16      C        0.69570    0.95630    0.24830    1.000
    C17      C        0.72050    0.04250    0.25350    1.000
    C18      C        0.87180    0.88090    0.24190    1.000
    C19      C        0.74400    0.89750    0.74170    1.000
    C20      C        0.61620    0.98210    0.74670    1.000
    C21      C        0.69510    0.05480    0.75040    1.000
    C22      C        0.90030    0.04370    0.75170    1.000
    C23      C        0.01650    0.95750    0.74650    1.000
    C24      C        0.99460    0.11910    0.75810    1.000
    C25      C        0.89150    0.60250    0.24170    1.000
    C26      C        0.84830    0.51790    0.24670    1.000
    C27      C        0.99990    0.44520    0.25040    1.000
    C28      C        0.19400    0.45630    0.25170    1.000
    C29      C        0.22400    0.54250    0.24650    1.000
    C30      C        0.36370    0.38090    0.25810    1.000
    C31      C        0.73570    0.39750    0.75830    1.000
    C32      C        0.61290    0.48210    0.75330    1.000
    C33      C        0.69550    0.55480    0.74960    1.000
    C34      C        0.90200    0.54370    0.74830    1.000
    C35      C        0.01300    0.45750    0.75350    1.000
    C36      C        0.00270    0.61910    0.74190    1.000
    C37      C        0.50600    0.75830    0.60250    1.000
    C38      C        0.63380    0.75330    0.51790    1.000
    C39      C        0.55490    0.74960    0.44520    1.000
    C40      C        0.34970    0.74830    0.45630    1.000
    C41      C        0.23350    0.75350    0.54250    1.000
    C42      C        0.25540    0.74190    0.38090    1.000
    C43      C        0.86680    0.24170    0.39750    1.000
    C44      C        0.90500    0.24670    0.48210    1.000
    C45      C        0.74970    0.25040    0.55480    1.000
    C46      C        0.55430    0.25170    0.54370    1.000
    C47      C        0.52950    0.24650    0.45750    1.000
    C48      C        0.37820    0.25810    0.61910    1.000
    N1       N        0.31670    0.74270    0.11470    1.000
    N2       N        0.17410    0.25730    0.88530    1.000
    N3       N        0.56860    0.11470    0.25730    1.000
    N4       N        0.94060    0.88530    0.74270    1.000
    N5       N        0.07590    0.61470    0.24270    1.000
    N6       N        0.93330    0.38530    0.75730    1.000
    N7       N        0.30940    0.75730    0.61470    1.000
    N8       N        0.68140    0.24270    0.38530    1.000
    O1       O        0.34689    0.77161    0.80441    1.000
    O2       O        0.06567    0.75087    0.89399    1.000
    O3       O        0.92291    0.22839    0.19559    1.000
    O4       O        0.71053    0.24913    0.10601    1.000
    O5       O        0.84870    0.80441    0.22839    1.000
    O6       O        0.04034    0.89399    0.24913    1.000
    O7       O        0.88150    0.19559    0.77161    1.000
    O8       O        0.18346    0.10601    0.75087    1.000
    O9       O        0.32709    0.30441    0.27161    1.000
    O10      O        0.53947    0.39399    0.25087    1.000
    O11      O        0.90311    0.69559    0.72839    1.000
    O12      O        0.18433    0.60601    0.74913    1.000
    O13      O        0.36850    0.72839    0.30441    1.000
    O14      O        0.06654    0.74913    0.39399    1.000
    O15      O        0.40130    0.27161    0.69559    1.000
    O16      O        0.20966    0.25087    0.60601    1.000
