data_functionalizedCrystal
_audit_creation_method	'EQeq! by Chris Wilmer'
_symmetry_space_group_name_H-M	'P1'
_symmetry_Int_Tables_number	1
_symmetry_cell_setting	triclinic
loop_
_symmetry_equiv_pos_as_xyz
  x,y,z
_cell_length_a	7.7719
_cell_length_b	12.6613
_cell_length_c	12.6613
_cell_angle_alpha	64.0745
_cell_angle_beta	78.1933
_cell_angle_gamma	101.807
loop_
_atom_site_label
_atom_site_type_symbol
_atom_site_fract_x
_atom_site_fract_y
_atom_site_fract_z
_atom_site_charge
Mof_Cu	Cu	0.5	0.5	-0	0.871
Mof_Cu	Cu	0.5	0	0.5	0.875
Mof_Cu	Cu	-2.74923e-17	0.5	0.5	0.889
Mof_H 	H 	0.083	0.615	0.992	0.054
Mof_H 	H 	0.561	0.843	0.74	0.042
Mof_H 	H 	0.12	0.842	0.64	0.02
Mof_H 	H 	0.075	0.992	0.393	0.085
Mof_H 	H 	0.301	0.74	0.417	0.024
Mof_H 	H 	0.76	0.64	0.518	0.019
Mof_H 	H 	0.468	0.393	0.615	0.038
Mof_H 	H 	0.718	0.417	0.843	0.044
Mof_H 	H 	0.278	0.518	0.842	0.034
Mof_H 	H 	0.917	0.385	0.008	0.026
Mof_H 	H 	0.439	0.157	0.26	-0
Mof_H 	H 	0.88	0.158	0.36	0.026
Mof_H 	H 	0.925	0.008	0.607	-0.005
Mof_H 	H 	0.699	0.26	0.583	0.016
Mof_H 	H 	0.24	0.36	0.482	0.027
Mof_H 	H 	0.532	0.607	0.385	0.041
Mof_H 	H 	0.282	0.583	0.157	-0.002
Mof_H 	H 	0.722	0.482	0.158	0.013
Mof_C 	C 	0.8537	0.66944	0.84814	0.401
Mof_C 	C 	0.06034	0.71776	0.82254	-0.167
Mof_C 	C 	0.14854	0.67626	0.91034	0.11
Mof_C 	C 	0.43017	0.81107	0.76426	0.114
Mof_C 	C 	0.17144	0.81174	0.70472	0.118
Mof_C 	C 	0.70184	0.84814	0.48242	0.325
Mof_C 	C 	0.88288	0.82254	0.4597	-0.047
Mof_C 	C 	0.05888	0.91034	0.4134	0.001
Mof_C 	C 	0.19443	0.76426	0.42467	0.092
Mof_C 	C 	0.87616	0.70472	0.48354	0.116
Mof_C 	C 	0.18426	0.48242	0.66944	0.349
Mof_C 	C 	0.34258	0.4597	0.71776	-0.121
Mof_C 	C 	0.47228	0.4134	0.67626	0.083
Mof_C 	C 	0.6191	0.42467	0.81107	0.106
Mof_C 	C 	0.3597	0.48354	0.81174	0.095
Mof_C 	C 	0.1463	0.33056	0.15186	0.291
Mof_C 	C 	0.93966	0.28224	0.17746	-0.072
Mof_C 	C 	0.85146	0.32374	0.08966	0.053
Mof_C 	C 	0.56983	0.18893	0.23574	0.094
Mof_C 	C 	0.82856	0.18826	0.29528	0.059
Mof_C 	C 	0.29816	0.15186	0.51758	0.365
Mof_C 	C 	0.11712	0.17746	0.5403	-0.189
Mof_C 	C 	0.94112	0.08966	0.5866	0.16
Mof_C 	C 	0.80557	0.23574	0.57533	0.115
Mof_C 	C 	0.12384	0.29528	0.51646	0.06
Mof_C 	C 	0.81574	0.51758	0.33056	0.343
Mof_C 	C 	0.65742	0.5403	0.28224	-0.117
Mof_C 	C 	0.52772	0.5866	0.32374	0.08
Mof_C 	C 	0.3809	0.57533	0.18893	0.101
Mof_C 	C 	0.6403	0.51646	0.18826	0.082
Mof_N 	N 	0.35664	0.85966	0.67404	-0.202
Mof_N 	N 	0.33453	0.72267	0.88118	-0.124
Mof_N 	N 	0.03068	0.67404	0.4663	-0.245
Mof_N 	N 	0.21571	0.88118	0.39615	-0.117
Mof_N 	N 	0.49698	0.4663	0.85966	-0.197
Mof_N 	N 	0.61186	0.39615	0.72267	-0.136
Mof_N 	N 	0.64336	0.14034	0.32596	-0.226
Mof_N 	N 	0.66547	0.27733	0.11882	-0.159
Mof_N 	N 	0.96932	0.32596	0.5337	-0.187
Mof_N 	N 	0.78429	0.11882	0.60385	-0.166
Mof_N 	N 	0.50302	0.5337	0.14034	-0.229
Mof_N 	N 	0.38814	0.60385	0.27733	-0.148
Mof_O 	O 	0.76882	0.561	0.94454	-0.334
Mof_O 	O 	0.78281	0.73342	0.77859	-0.264
Mof_O 	O 	0.71336	0.94454	0.49446	-0.328
Mof_O 	O 	0.5614	0.77859	0.48799	-0.272
Mof_O 	O 	0.20782	0.49446	0.561	-0.397
Mof_O 	O 	0.04939	0.48799	0.73342	-0.302
Mof_O 	O 	0.23118	0.439	0.05546	-0.427
Mof_O 	O 	0.21719	0.26658	0.22141	-0.304
Mof_O 	O 	0.28664	0.05546	0.50554	-0.435
Mof_O 	O 	0.4386	0.22141	0.51201	-0.297
Mof_O 	O 	0.79218	0.50554	0.439	-0.372
Mof_O 	O 	0.95061	0.51201	0.26658	-0.269
_end
