data_functionalizedCrystal
_audit_creation_method	'EQeq! by Chris Wilmer'
_symmetry_space_group_name_H-M	'P1'
_symmetry_Int_Tables_number	1
_symmetry_cell_setting	triclinic
loop_
_symmetry_equiv_pos_as_xyz
  x,y,z
_cell_length_a	9.5211
_cell_length_b	9.9835
_cell_length_c	11.4843
_cell_angle_alpha	96.342
_cell_angle_beta	97.063
_cell_angle_gamma	111.763
loop_
_atom_site_label
_atom_site_type_symbol
_atom_site_fract_x
_atom_site_fract_y
_atom_site_fract_z
_atom_site_charge
Mof_Nd	Nd	0.71371	0.95488	0.00921	2.257
Mof_Nd	Nd	0.28629	0.04512	0.99079	2.257
Mof_H 	H 	0.3191	0.4961	0.0287	0.009
Mof_H 	H 	0.1943	0.7933	0.2134	0.019
Mof_H 	H 	0.9204	0.3622	0.1571	0.062
Mof_H 	H 	0.1712	0.5913	0.4195	0.081
Mof_H 	H 	0.2569	0.7069	0.6186	0.018
Mof_H 	H 	0.9467	0.8949	0.5862	0.051
Mof_H 	H 	0.8322	0.8473	0.3185	0.131
Mof_H 	H 	0.7379	0.6962	0.3154	0.125
Mof_H 	H 	0.6809	0.5039	0.9713	0.01
Mof_H 	H 	0.8057	0.2067	0.7866	0.02
Mof_H 	H 	0.0796	0.6378	0.8429	0.062
Mof_H 	H 	0.8288	0.4087	0.5805	0.081
Mof_H 	H 	0.7431	0.2931	0.3814	0.018
Mof_H 	H 	0.0533	0.1051	0.4138	0.051
Mof_H 	H 	0.1678	0.1527	0.6815	0.131
Mof_H 	H 	0.2621	0.3038	0.6846	0.125
Mof_C 	C 	0.0776	0.2524	0.0253	0.516
Mof_C 	C 	0.1117	0.4072	0.0817	-0.153
Mof_C 	C 	0.2476	0.5184	0.0698	0.065
Mof_C 	C 	0.2782	0.663	0.1185	-0.137
Mof_C 	C 	0.4224	0.7827	0.1012	0.41
Mof_C 	C 	0.1762	0.695	0.1824	-0.042
Mof_C 	C 	0.0484	0.581	0.1999	0.116
Mof_C 	C 	0.0124	0.4382	0.1477	-0.056
Mof_C 	C 	0.0074	0.6759	0.3855	0.127
Mof_C 	C 	0.1259	0.653	0.4534	-0.145
Mof_C 	C 	0.1765	0.722	0.5714	0.035
Mof_C 	C 	0.1111	0.8127	0.6211	-0.078
Mof_C 	C 	0.1718	0.8942	0.7446	0.314
Mof_C 	C 	0.9918	0.8332	0.5522	-0.06
Mof_C 	C 	0.9383	0.7642	0.4343	0.03
Mof_C 	C 	0.9224	0.7476	0.9747	0.516
Mof_C 	C 	0.8883	0.5928	0.9183	-0.153
Mof_C 	C 	0.7524	0.4816	0.9302	0.065
Mof_C 	C 	0.7218	0.337	0.8815	-0.137
Mof_C 	C 	0.5776	0.2173	0.8988	0.41
Mof_C 	C 	0.8238	0.305	0.8176	-0.042
Mof_C 	C 	0.9516	0.419	0.8001	0.116
Mof_C 	C 	0.9876	0.5618	0.8523	-0.056
Mof_C 	C 	0.9926	0.3241	0.6145	0.127
Mof_C 	C 	0.8741	0.347	0.5466	-0.145
Mof_C 	C 	0.8235	0.278	0.4286	0.035
Mof_C 	C 	0.8889	0.1873	0.3789	-0.078
Mof_C 	C 	0.8282	0.1058	0.2554	0.314
Mof_C 	C 	0.0082	0.1668	0.4478	-0.06
Mof_C 	C 	0.0617	0.2358	0.5657	0.03
Mof_N 	N 	0.8117	0.776	0.3647	-0.243
Mof_N 	N 	0.1883	0.224	0.6353	-0.243
Mof_O 	O 	0.5446	0.7609	0.1104	-0.492
Mof_O 	O 	0.1196	0.9873	0.785	-0.424
Mof_O 	O 	0.1852	0.2277	0.9877	-0.603
Mof_O 	O 	0.9456	0.1588	0.0188	-0.59
Mof_O 	O 	0.4165	0.9023	0.0768	-0.648
Mof_O 	O 	0.9467	0.6097	0.2679	-0.238
Mof_O 	O 	0.2774	0.8737	0.8097	-0.458
Mof_O 	O 	0.4554	0.2391	0.8896	-0.492
Mof_O 	O 	0.8804	0.0127	0.215	-0.424
Mof_O 	O 	0.8148	0.7723	0.0123	-0.603
Mof_O 	O 	0.0544	0.8412	0.9812	-0.59
Mof_O 	O 	0.5835	0.0977	0.9232	-0.648
Mof_O 	O 	0.0533	0.3903	0.7321	-0.238
Mof_O 	O 	0.7226	0.1263	0.1903	-0.458
_end
