# CIF file generated by openbabel 3.1.0, see https://openbabel.org
data_I
_chemical_name_common 'ic025743v_s1_clean'
_cell_length_a 8.444
_cell_length_b 13.506
_cell_length_c 13.58
_cell_angle_alpha 103.83
_cell_angle_beta 90
_cell_angle_gamma 90
_space_group_name_H-M_alt 'P 1'
_space_group_name_Hall 'P 1'
loop_
    _symmetry_equiv_pos_as_xyz
    x,y,z
loop_
    _atom_site_label
    _atom_site_type_symbol
    _atom_site_fract_x
    _atom_site_fract_y
    _atom_site_fract_z
    _atom_site_occupancy
    Cu1      Cu       0.63729    0.78128    0.15652    1.000
    Cu2      Cu       0.13729    0.71872    0.34348    1.000
    Cu3      Cu       0.67059    0.64925    0.77041    1.000
    Cu4      Cu       0.32941    0.35075    0.22959    1.000
    Cu5      Cu       0.17059    0.85075    0.72959    1.000
    Cu6      Cu       0.86271    0.28128    0.65652    1.000
    Cu7      Cu       0.82941    0.14925    0.27041    1.000
    Cu8      Cu       0.36271    0.21872    0.84348    1.000
    C1       C        0.70490    0.93300    0.17140    1.000
    C2       C        0.14910    0.79130    0.48690    1.000
    C3       C        0.53460    0.28590    0.24700    1.000
    C4       C        0.56440    0.21920    0.76750    1.000
    C5       C        0.81900    0.72870    0.22580    1.000
    C6       C        0.64910    0.70870    0.01310    1.000
    C7       C        0.03460    0.21410    0.25300    1.000
    C8       C        0.96540    0.78590    0.74700    1.000
    C9       C        0.64890    0.24400    0.25430    1.000
    C10      C        0.75590    0.01340    0.20550    1.000
    C11      C        0.14890    0.25600    0.24570    1.000
    C12      C        0.29510    0.06700    0.82860    1.000
    C13      C        0.68100    0.22870    0.72580    1.000
    C14      C        0.35090    0.29130    0.98690    1.000
    C15      C        0.43560    0.78080    0.23250    1.000
    C16      C        0.24410    0.98660    0.79450    1.000
    C17      C        0.85110    0.74400    0.75430    1.000
    C18      C        0.46540    0.71410    0.75300    1.000
    C19      C        0.85090    0.20870    0.51310    1.000
    C20      C        0.66340    0.67100    0.92860    1.000
    C21      C        0.79510    0.43300    0.67140    1.000
    C22      C        0.93560    0.71920    0.26750    1.000
    C23      C        0.18100    0.27130    0.77420    1.000
    C24      C        0.74410    0.51340    0.70550    1.000
    C25      C        0.83660    0.17100    0.42860    1.000
    C26      C        0.20490    0.56700    0.32860    1.000
    C27      C        0.16340    0.82900    0.57140    1.000
    C28      C        0.31900    0.77130    0.27420    1.000
    C29      C        0.35110    0.75600    0.74570    1.000
    C30      C        0.25590    0.48660    0.29450    1.000
    C31      C        0.33660    0.32900    0.07140    1.000
    C32      C        0.06440    0.28080    0.73250    1.000
