# CIF file generated by openbabel 3.1.0, see https://openbabel.org
data_I
_chemical_name_common 'image0'
_cell_length_a 10.39
_cell_length_b 11.803
_cell_length_c 11.934
_cell_angle_alpha 82.967
_cell_angle_beta 81.366
_cell_angle_gamma 87.884
_space_group_name_H-M_alt 'P 1'
_space_group_name_Hall 'P 1'
loop_
    _symmetry_equiv_pos_as_xyz
    x,y,z
loop_
    _atom_site_label
    _atom_site_type_symbol
    _atom_site_fract_x
    _atom_site_fract_y
    _atom_site_fract_z
    _atom_site_occupancy
    Eu1      Eu       0.98046    0.23992    0.07532    1.000
    P1       P        0.70541    0.27650    0.31429    1.000
    P2       P        0.11627    0.50548    0.11598    1.000
    P3       P        0.84736    0.96613    0.10555    1.000
    O1       O        0.80040    0.25870    0.21110    1.000
    O2       O        0.56660    0.24220    0.29960    1.000
    H1       H        0.55340    0.17630    0.32870    1.000
    O3       O        0.74410    0.21900    0.42500    1.000
    O4       O        0.81990    0.46970    0.32810    1.000
    H2       H        0.81730    0.53940    0.32630    1.000
    O5       O        0.07830    0.62480    0.07250    1.000
    O6       O        0.00950    0.42010    0.15140    1.000
    O7       O        0.19420    0.51370    0.21870    1.000
    H3       H        0.19850    0.45050    0.25530    1.000
    O8       O        0.20270    0.32980    0.00910    1.000
    H4       H        0.24340    0.31290    0.94590    1.000
    O9       O        0.89560    0.85230    0.07010    1.000
    O10      O        0.94530    0.04210    0.13830    1.000
    O11      O        0.73390    0.94200    0.20820    1.000
    H5       H        0.75700    0.95900    0.26670    1.000
    O12      O        0.80070    0.16430    0.98860    1.000
    H6       H        0.75920    0.21170    0.94710    1.000
    C1       C        0.69530    0.43060    0.31850    1.000
    H7       H        0.67150    0.46630    0.24570    1.000
    C2       C        0.59430    0.46700    0.41340    1.000
    C3       C        0.47280    0.50300    0.39020    1.000
    H8       H        0.45390    0.50520    0.31620    1.000
    C4       C        0.62190    0.46400    0.52480    1.000
    H9       H        0.70380    0.43990    0.54180    1.000
    C5       C        0.22700    0.44830    0.00030    1.000
    H10      H        0.20260    0.48390    0.92770    1.000
    C6       C        0.36910    0.47350    0.00020    1.000
    C7       C        0.41480    0.58250    0.95860    1.000
    H11      H        0.35840    0.63870    0.93140    1.000
    C8       C        0.45400    0.39270    0.04200    1.000
    H12      H        0.42390    0.32030    0.07130    1.000
    C9       C        0.77490    0.04580    0.98720    1.000
    H13      H        0.82050    0.02220    0.91550    1.000
    C10      C        0.63160    0.02370    0.99280    1.000
    C11      C        0.53930    0.07920    0.06410    1.000
    H14      H        0.56520    0.13250    0.10720    1.000
    C12      C        0.59120    0.94440    0.92860    1.000
    H15      H        0.65260    0.90700    0.88030    1.000
    Eu2      Eu       0.01954    0.76008    0.92468    1.000
    P4       P        0.29459    0.72350    0.68571    1.000
    P5       P        0.88373    0.49452    0.88402    1.000
    P6       P        0.15264    0.03387    0.89445    1.000
    O13      O        0.19960    0.74130    0.78890    1.000
    O14      O        0.43340    0.75780    0.70040    1.000
    H16      H        0.44660    0.82370    0.67130    1.000
    O15      O        0.25590    0.78100    0.57500    1.000
    O16      O        0.18010    0.53030    0.67190    1.000
    H17      H        0.18270    0.46060    0.67370    1.000
    O17      O        0.92170    0.37520    0.92750    1.000
    O18      O        0.99050    0.57990    0.84860    1.000
    O19      O        0.80580    0.48630    0.78130    1.000
    H18      H        0.80150    0.54950    0.74470    1.000
    O20      O        0.79730    0.67020    0.99090    1.000
    H19      H        0.75660    0.68710    0.05410    1.000
    O21      O        0.10440    0.14770    0.92990    1.000
    O22      O        0.05470    0.95790    0.86170    1.000
    O23      O        0.26610    0.05800    0.79180    1.000
    H20      H        0.24300    0.04100    0.73330    1.000
    O24      O        0.19930    0.83570    0.01140    1.000
    H21      H        0.24080    0.78830    0.05290    1.000
    C13      C        0.30470    0.56940    0.68150    1.000
    H22      H        0.32850    0.53370    0.75430    1.000
    C14      C        0.40570    0.53300    0.58660    1.000
    C15      C        0.52720    0.49700    0.60980    1.000
    H23      H        0.54610    0.49480    0.68380    1.000
    C16      C        0.37810    0.53600    0.47520    1.000
    H24      H        0.29620    0.56010    0.45820    1.000
    C17      C        0.77300    0.55170    0.99970    1.000
    H25      H        0.79740    0.51610    0.07230    1.000
    C18      C        0.63090    0.52650    0.99980    1.000
    C19      C        0.58520    0.41750    0.04140    1.000
    H26      H        0.64160    0.36130    0.06860    1.000
    C20      C        0.54600    0.60730    0.95800    1.000
    H27      H        0.57610    0.67970    0.92870    1.000
    C21      C        0.22510    0.95420    0.01280    1.000
    H28      H        0.17950    0.97780    0.08450    1.000
    C22      C        0.36840    0.97630    0.00720    1.000
    C23      C        0.46070    0.92080    0.93590    1.000
    H29      H        0.43480    0.86750    0.89280    1.000
    C24      C        0.40880    0.05560    0.07140    1.000
    H30      H        0.34740    0.09300    0.11970    1.000
