data_functionalizedCrystal
_audit_creation_method	'EQeq! by Chris Wilmer'
_symmetry_space_group_name_H-M	'P1'
_symmetry_Int_Tables_number	1
_symmetry_cell_setting	triclinic
loop_
_symmetry_equiv_pos_as_xyz
  x,y,z
_cell_length_a	12.3111
_cell_length_b	20.0139
_cell_length_c	20.0139
_cell_angle_alpha	102.552
_cell_angle_beta	95.1227
_cell_angle_gamma	95.1227
loop_
_atom_site_label
_atom_site_type_symbol
_atom_site_fract_x
_atom_site_fract_y
_atom_site_fract_z
_atom_site_charge
Mof_Zn	Zn	0.40189	0.52985	0.01754	1.213
Mof_Zn	Zn	0.09811	0.98246	0.47015	1.211
Mof_Zn	Zn	0.79621	0.20835	0.94256	1.214
Mof_Zn	Zn	0.29621	0.94256	0.20835	1.214
Mof_Zn	Zn	0.59811	0.47015	0.98246	1.213
Mof_Zn	Zn	0.90189	0.01754	0.52985	1.211
Mof_Zn	Zn	0.70379	0.05744	0.79165	1.214
Mof_Zn	Zn	0.20379	0.79165	0.05744	1.214
Mof_H 	H 	0.2173	0.862	0.6134	0.036
Mof_H 	H 	0.1688	0.5454	0.954	0.042
Mof_H 	H 	0.9798	0.328	0.966	0.032
Mof_H 	H 	0.8449	0.0705	0.6735	0.041
Mof_H 	H 	0.3906	0.847	0.2972	0.04
Mof_H 	H 	0.4107	0.8098	0.8874	0.069
Mof_H 	H 	0.9674	0.8423	0.9013	0.048
Mof_H 	H 	0.5696	0.7787	0.3097	0.066
Mof_H 	H 	0.2868	0.6536	0.9948	0.047
Mof_H 	H 	0.6551	0.3265	0.9295	0.042
Mof_H 	H 	0.3312	0.046	0.4546	0.041
Mof_H 	H 	0.2631	0.8331	0.2973	0.031
Mof_H 	H 	0.0344	0.0425	0.7509	0.041
Mof_H 	H 	0.7868	0.9948	0.6536	0.049
Mof_H 	H 	0.5453	0.0965	0.5263	0.044
Mof_H 	H 	0.2369	0.7027	0.1669	0.031
Mof_H 	H 	0.281	0.2539	0.9585	0.071
Mof_H 	H 	0.7606	0.4734	0.8782	0.045
Mof_H 	H 	0.719	0.7461	0.0415	0.071
Mof_H 	H 	0.2394	0.5266	0.1218	0.045
Mof_H 	H 	0.5527	0.6801	0.2069	0.057
Mof_H 	H 	0.1551	0.9295	0.3265	0.041
Mof_H 	H 	0.9304	0.6903	0.2213	0.067
Mof_H 	H 	0.2286	0.7799	0.8117	0.064
Mof_H 	H 	0.5888	0.9104	0.2072	0.046
Mof_H 	H 	0.1094	0.7028	0.153	0.039
Mof_H 	H 	0.5065	0.8913	0.4039	0.039
Mof_H 	H 	0.0202	0.672	0.034	0.032
Mof_H 	H 	0.4112	0.0896	0.7928	0.046
Mof_H 	H 	0.4798	0.966	0.328	0.033
Mof_H 	H 	0.4656	0.2491	0.9575	0.037
Mof_H 	H 	0.5202	0.034	0.672	0.033
Mof_H 	H 	0.0893	0.1126	0.1902	0.066
Mof_H 	H 	0.6502	0.0037	0.4957	0.04
Mof_H 	H 	0.6849	0.4035	0.8519	0.044
Mof_H 	H 	0.7369	0.1669	0.7027	0.031
Mof_H 	H 	0.7173	0.6134	0.862	0.036
Mof_H 	H 	0.0065	0.4039	0.8913	0.043
Mof_H 	H 	0.2827	0.3866	0.138	0.036
Mof_H 	H 	0.2606	0.8782	0.4734	0.044
Mof_H 	H 	0.591	0.9728	0.6524	0.041
Mof_H 	H 	0.7132	0.3464	0.0052	0.047
Mof_H 	H 	0.5326	0.0987	0.1577	0.044
Mof_H 	H 	0.7658	0.7005	0.8099	0.07
Mof_H 	H 	0.9107	0.8874	0.8098	0.066
Mof_H 	H 	0.7342	0.1901	0.2995	0.07
Mof_H 	H 	0.7394	0.1218	0.5266	0.044
Mof_H 	H 	0.0544	0.0851	0.3027	0.07
Mof_H 	H 	0.1755	0.3921	0.8601	0.033
Mof_H 	H 	0.7631	0.2973	0.8331	0.031
Mof_H 	H 	0.4547	0.9035	0.4737	0.044
Mof_H 	H 	0.2342	0.2995	0.1901	0.07
Mof_H 	H 	0.6688	0.954	0.5454	0.041
Mof_H 	H 	0.0453	0.5263	0.0965	0.045
Mof_H 	H 	0.8245	0.6079	0.1399	0.033
Mof_H 	H 	0.4304	0.2213	0.6903	0.066
Mof_H 	H 	0.4473	0.3199	0.7931	0.057
Mof_H 	H 	0.3245	0.1399	0.6079	0.034
Mof_H 	H 	0.9112	0.7928	0.0896	0.05
Mof_H 	H 	0.4674	0.9013	0.8423	0.044
Mof_H 	H 	0.9935	0.5961	0.1087	0.043
Mof_H 	H 	0.9473	0.7931	0.3199	0.058
Mof_H 	H 	0.781	0.9585	0.2539	0.069
Mof_H 	H 	0.8498	0.5043	0.9963	0.04
Mof_H 	H 	0.0527	0.2069	0.6801	0.058
Mof_H 	H 	0.9547	0.4737	0.9035	0.045
Mof_H 	H 	0.8312	0.4546	0.046	0.042
Mof_H 	H 	0.0326	0.1577	0.0987	0.048
Mof_H 	H 	0.5893	0.1902	0.1126	0.069
Mof_H 	H 	0.2658	0.8099	0.7005	0.07
Mof_H 	H 	0.9456	0.9149	0.6973	0.07
Mof_H 	H 	0.4935	0.1087	0.5961	0.039
Mof_H 	H 	0.6094	0.153	0.7028	0.04
Mof_H 	H 	0.1502	0.4957	0.0037	0.04
Mof_H 	H 	0.3151	0.5965	0.1481	0.044
Mof_H 	H 	0.9656	0.9575	0.2491	0.041
Mof_H 	H 	0.4456	0.6973	0.9149	0.066
Mof_H 	H 	0.5344	0.7509	0.0425	0.037
Mof_H 	H 	0.909	0.3476	0.0272	0.042
Mof_H 	H 	0.1849	0.8519	0.4035	0.044
Mof_H 	H 	0.091	0.6524	0.9728	0.042
Mof_H 	H 	0.5544	0.3027	0.0851	0.066
Mof_H 	H 	0.7286	0.8117	0.7799	0.063
Mof_H 	H 	0.2714	0.1883	0.2201	0.063
Mof_H 	H 	0.7714	0.2201	0.1883	0.064
Mof_H 	H 	0.3449	0.6735	0.0705	0.042
Mof_H 	H 	0.2132	0.0052	0.3464	0.049
Mof_H 	H 	0.6755	0.8601	0.3921	0.034
Mof_H 	H 	0.7827	0.138	0.3866	0.036
Mof_H 	H 	0.3498	0.9963	0.5043	0.04
Mof_H 	H 	0.8151	0.1481	0.5965	0.044
Mof_H 	H 	0.0696	0.3097	0.7787	0.067
Mof_H 	H 	0.219	0.0415	0.7461	0.069
Mof_H 	H 	0.409	0.0272	0.3476	0.041
Mof_H 	H 	0.8906	0.2972	0.847	0.039
Mof_H 	H 	0.0888	0.2072	0.9104	0.05
Mof_C 	C 	0.009	0.83923	0.86439	-0.009
Mof_C 	C 	0.4755	0.81004	0.86688	-0.085
Mof_C 	C 	0.9755	0.86688	0.81004	-0.077
Mof_C 	C 	0.1658	0.80245	0.81129	-0.059
Mof_C 	C 	0.8712	0.78988	0.31766	-0.031
Mof_C 	C 	0.2982	0.29922	0.16858	-0.102
Mof_C 	C 	0.5763	0.64744	0.89472	-0.092
Mof_C 	C 	0.7088	0.82993	0.36007	0.023
Mof_C 	C 	0.9163	0.35042	0.98	-0.025
Mof_C 	C 	0.3633	0.24477	0.16857	0.038
Mof_C 	C 	0.6157	0.87771	0.17411	-0.021
Mof_C 	C 	0.5773	0.16567	0.87285	0.408
Mof_C 	C 	0.3076	0.26711	0.73709	0.028
Mof_C 	C 	0.1764	0.16385	0.63675	-0.088
Mof_C 	C 	0.6045	0.86508	0.80664	-0.062
Mof_C 	C 	0.3065	0.2207	0.92536	-0.098
Mof_C 	C 	0.7307	0.87682	0.17388	0.024
Mof_C 	C 	0.1471	0.78342	0.92854	0.315
Mof_C 	C 	0.0571	0.57417	0.09383	-0.011
Mof_C 	C 	0.0763	0.89472	0.64744	-0.089
Mof_C 	C 	0.2693	0.12318	0.82612	0.024
Mof_C 	C 	0.6455	0.7808	0.31124	-0.094
Mof_C 	C 	0.8387	0.45633	0.99853	-0.022
Mof_C 	C 	0.3545	0.2192	0.68876	-0.094
Mof_C 	C 	0.6094	0.5849	0.10628	0.382
Mof_C 	C 	0.0439	0.12668	0.83164	-0.099
Mof_C 	C 	0.2307	0.17388	0.87682	0.03
Mof_C 	C 	0.1288	0.21012	0.68234	-0.031
Mof_C 	C 	0.1935	0.07464	0.7793	-0.091
Mof_C 	C 	0.8843	0.82589	0.12229	-0.029
Mof_C 	C 	0.2018	0.83142	0.70078	-0.102
Mof_C 	C 	0.6613	0.00147	0.54367	-0.022
Mof_C 	C 	0.9165	0.92458	0.21824	0.025
Mof_C 	C 	0.1094	0.10628	0.5849	0.381
Mof_C 	C 	0.5106	0.69889	0.89457	-0.033
Mof_C 	C 	0.9894	0.10543	0.30111	-0.039
Mof_C 	C 	0.0469	0.9304	0.5906	0.383
Mof_C 	C 	0.1045	0.80664	0.86508	-0.058
Mof_C 	C 	0.8272	0.13765	0.35135	0.024
Mof_C 	C 	0.1728	0.86235	0.64865	0.024
Mof_C 	C 	0.7018	0.70078	0.83142	-0.102
Mof_C 	C 	0.509	0.86439	0.83923	0
Mof_C 	C 	0.4165	0.21824	0.92458	0.032
Mof_C 	C 	0.5571	0.09383	0.57417	-0.005
Mof_C 	C 	0.8633	0.16857	0.24477	0.039
Mof_C 	C 	0.2785	0.65071	0.04183	-0.047
Mof_C 	C 	0.2912	0.17007	0.63993	0.023
Mof_C 	C 	0.5837	0.02	0.64958	-0.023
Mof_C 	C 	0.491	0.13561	0.16077	0
Mof_C 	C 	0.7982	0.16858	0.29922	-0.102
Mof_C 	C 	0.9429	0.42583	0.90617	-0.011
Mof_C 	C 	0.6935	0.7793	0.07464	-0.098
Mof_C 	C 	0.7693	0.82612	0.12318	0.03
Mof_C 	C 	0.8529	0.21658	0.07146	0.315
Mof_C 	C 	0.6288	0.68234	0.21012	-0.03
Mof_C 	C 	0.0395	0.8642	0.75434	0.02
Mof_C 	C 	0.6924	0.73289	0.26291	0.028
Mof_C 	C 	0.991	0.16077	0.13561	-0.009
Mof_C 	C 	0.4237	0.35256	0.10528	-0.092
Mof_C 	C 	0.4429	0.90617	0.42583	-0.005
Mof_C 	C 	0.9237	0.10528	0.35256	-0.089
Mof_C 	C 	0.2215	0.95817	0.34929	-0.05
Mof_C 	C 	0.1367	0.83143	0.75523	0.039
Mof_C 	C 	0.6367	0.75523	0.83143	0.038
Mof_C 	C 	0.3387	0.99853	0.45633	-0.022
Mof_C 	C 	0.7785	0.04183	0.65071	-0.05
Mof_C 	C 	0.0773	0.87285	0.16567	0.4
Mof_C 	C 	0.2088	0.36007	0.82993	0.025
Mof_C 	C 	0.5469	0.5906	0.9304	0.39
Mof_C 	C 	0.1455	0.31124	0.7808	-0.096
Mof_C 	C 	0.3272	0.35135	0.13765	0.026
Mof_C 	C 	0.0106	0.89457	0.69889	-0.039
Mof_C 	C 	0.4894	0.30111	0.10543	-0.033
Mof_C 	C 	0.4531	0.4094	0.0696	0.39
Mof_C 	C 	0.5835	0.78176	0.07542	0.032
Mof_C 	C 	0.3236	0.36325	0.83615	-0.089
Mof_C 	C 	0.1924	0.26291	0.73289	0.03
Mof_C 	C 	0.0837	0.64958	0.02	-0.025
Mof_C 	C 	0.7494	0.11838	0.57438	-0.028
Mof_C 	C 	0.8284	0.32003	0.86301	-0.018
Mof_C 	C 	0.9561	0.87332	0.16836	-0.099
Mof_C 	C 	0.1613	0.54367	0.00147	-0.022
Mof_C 	C 	0.8545	0.68876	0.2192	-0.096
Mof_C 	C 	0.9531	0.0696	0.4094	0.383
Mof_C 	C 	0.0245	0.13312	0.18996	-0.077
Mof_C 	C 	0.6764	0.63675	0.16385	-0.089
Mof_C 	C 	0.5395	0.75434	0.8642	0.023
Mof_C 	C 	0.8955	0.19336	0.13492	-0.058
Mof_C 	C 	0.4227	0.83433	0.12715	0.408
Mof_C 	C 	0.4163	0.98	0.35042	-0.023
Mof_C 	C 	0.0835	0.07542	0.78176	0.025
Mof_C 	C 	0.7506	0.42562	0.88162	-0.029
Mof_C 	C 	0.5439	0.83164	0.12668	-0.109
Mof_C 	C 	0.3284	0.86301	0.32003	-0.019
Mof_C 	C 	0.8236	0.83615	0.36325	-0.088
Mof_C 	C 	0.2494	0.57438	0.11838	-0.029
Mof_C 	C 	0.8342	0.19755	0.18871	-0.059
Mof_C 	C 	0.9605	0.1358	0.24566	0.02
Mof_C 	C 	0.3342	0.18871	0.19755	-0.056
Mof_C 	C 	0.3529	0.07146	0.21658	0.317
Mof_C 	C 	0.3955	0.13492	0.19336	-0.062
Mof_C 	C 	0.6728	0.64865	0.86235	0.026
Mof_C 	C 	0.5245	0.18996	0.13312	-0.085
Mof_C 	C 	0.7215	0.34929	0.95817	-0.047
Mof_C 	C 	0.4605	0.24566	0.1358	0.023
Mof_C 	C 	0.2506	0.88162	0.42562	-0.028
Mof_C 	C 	0.6716	0.13699	0.67997	-0.019
Mof_C 	C 	0.1157	0.17411	0.87771	-0.029
Mof_C 	C 	0.7912	0.63993	0.17007	0.025
Mof_C 	C 	0.8076	0.73709	0.26711	0.03
Mof_C 	C 	0.3712	0.31766	0.78988	-0.03
Mof_C 	C 	0.8906	0.89372	0.4151	0.381
Mof_C 	C 	0.8065	0.92536	0.2207	-0.091
Mof_C 	C 	0.3843	0.12229	0.82589	-0.021
Mof_C 	C 	0.6658	0.81129	0.80245	-0.056
Mof_C 	C 	0.1716	0.67997	0.13699	-0.018
Mof_C 	C 	0.3906	0.4151	0.89372	0.382
Mof_C 	C 	0.4561	0.16836	0.87332	-0.109
Mof_C 	C 	0.9227	0.12715	0.83433	0.4
Mof_C 	C 	0.6471	0.92854	0.78342	0.317
Mof_N 	N 	0.31648	0.93502	0.31338	-0.191
Mof_N 	N 	0.0664	0.57737	0.02323	-0.093
Mof_N 	N 	0.6556	0.14153	0.60819	-0.093
Mof_N 	N 	0.9336	0.42263	0.97677	-0.093
Mof_N 	N 	0.3444	0.85847	0.39181	-0.093
Mof_N 	N 	0.73602	0.42282	0.95438	-0.194
Mof_N 	N 	0.5664	0.02323	0.57737	-0.093
Mof_N 	N 	0.81648	0.31338	0.93502	-0.191
Mof_N 	N 	0.18352	0.68662	0.06498	-0.191
Mof_N 	N 	0.8444	0.39181	0.85847	-0.092
Mof_N 	N 	0.68352	0.06498	0.68662	-0.191
Mof_N 	N 	0.23602	0.95438	0.42282	-0.195
Mof_N 	N 	0.76398	0.04562	0.57718	-0.195
Mof_N 	N 	0.4336	0.97677	0.42263	-0.093
Mof_N 	N 	0.1556	0.60819	0.14153	-0.092
Mof_N 	N 	0.26398	0.57718	0.04562	-0.194
Mof_O 	O 	0.6128	0.54589	0.93045	-0.466
Mof_O 	O 	0.1598	0.06872	0.54214	-0.464
Mof_O 	O 	0.86306	0.07394	0.80216	-0.507
Mof_O 	O 	0.3402	0.45786	0.93128	-0.466
Mof_O 	O 	0.2225	0.74711	0.92751	-0.335
Mof_O 	O 	0.8872	0.06955	0.45411	-0.465
Mof_O 	O 	0.49224	0.41183	0.90179	-0.457
Mof_O 	O 	0.36306	0.80216	0.07394	-0.508
Mof_O 	O 	0.3872	0.45411	0.06955	-0.466
Mof_O 	O 	0.50776	0.58817	0.09821	-0.457
Mof_O 	O 	0.6039	0.98243	0.80537	-0.461
Mof_O 	O 	0.3961	0.01757	0.19463	-0.461
Mof_O 	O 	0.63694	0.19784	0.92606	-0.508
Mof_O 	O 	0.9609	0.95875	0.59189	-0.469
Mof_O 	O 	0.61174	0.1331	0.81952	-0.512
Mof_O 	O 	0.99224	0.90179	0.41183	-0.455
Mof_O 	O 	0.00776	0.09821	0.58817	-0.455
Mof_O 	O 	0.7775	0.25289	0.07249	-0.335
Mof_O 	O 	0.6598	0.54214	0.06872	-0.466
Mof_O 	O 	0.38826	0.8669	0.18048	-0.512
Mof_O 	O 	0.0391	0.04125	0.40811	-0.469
Mof_O 	O 	0.13694	0.92606	0.19784	-0.507
Mof_O 	O 	0.2775	0.07249	0.25289	-0.335
Mof_O 	O 	0.8402	0.93128	0.45786	-0.464
Mof_O 	O 	0.11174	0.81952	0.1331	-0.511
Mof_O 	O 	0.4609	0.59189	0.95875	-0.474
Mof_O 	O 	0.5391	0.40811	0.04125	-0.474
Mof_O 	O 	0.1039	0.80537	0.98243	-0.461
Mof_O 	O 	0.88826	0.18048	0.8669	-0.511
Mof_O 	O 	0.8961	0.19463	0.01757	-0.461
Mof_O 	O 	0.7225	0.92751	0.74711	-0.335
Mof_O 	O 	0.1128	0.93045	0.54589	-0.465
_end
