data_functionalizedCrystal
_audit_creation_method	'EQeq! by Chris Wilmer'
_symmetry_space_group_name_H-M	'P1'
_symmetry_Int_Tables_number	1
_symmetry_cell_setting	triclinic
loop_
_symmetry_equiv_pos_as_xyz
  x,y,z
_cell_length_a	20.6712
_cell_length_b	21.0386
_cell_length_c	21.6281
_cell_angle_alpha	62.477
_cell_angle_beta	79.558
_cell_angle_gamma	67.086
loop_
_atom_site_label
_atom_site_type_symbol
_atom_site_fract_x
_atom_site_fract_y
_atom_site_fract_z
_atom_site_charge
Mof_O 	O 	0.66217	0.46465	0.76776	-0.464
Mof_O 	O 	0.74807	0.4056	0.84336	-0.512
Mof_N 	N 	0.8982	0.4882	0.4795	-0.187
Mof_H 	H 	0.8979	0.5097	0.5061	0.11
Mof_N 	N 	0.027	0.3843	0.5992	-0.187
Mof_H 	H 	0.0008	0.4309	0.5941	0.11
Mof_C 	C 	0.8866	0.5263	0.409	0.003
Mof_C 	C 	0.8931	0.4724	0.387	-0.04
Mof_H 	H 	0.889	0.4817	0.3403	0.024
Mof_C 	C 	0.9067	0.4009	0.4458	-0.091
Mof_H 	H 	0.9122	0.3539	0.4459	0.045
Mof_C 	C 	0.9107	0.4114	0.5028	0.07
Mof_C 	C 	0.9279	0.3539	0.5781	0.002
Mof_C 	C 	0.003	0.3345	0.5943	0.071
Mof_C 	C 	0.0598	0.2692	0.6048	-0.092
Mof_H 	H 	0.0593	0.2244	0.6044	0.048
Mof_C 	C 	0.12	0.2796	0.6164	-0.041
Mof_H 	H 	0.1665	0.2436	0.6248	0.023
Mof_C 	C 	0.0979	0.3514	0.6131	0.001
Mof_C 	C 	0.1385	0.3873	0.6292	0.18
Mof_C 	C 	0.9186	0.2797	0.5889	-0.369
Mof_H 	H 	0.8688	0.2897	0.5846	0.126
Mof_H 	H 	0.9354	0.2394	0.6354	0.126
Mof_H 	H 	0.9458	0.2632	0.5535	0.122
Mof_C 	C 	0.217	0.3557	0.6087	-0.499
Mof_H 	H 	0.2374	0.301	0.6394	0.155
Mof_H 	H 	0.2433	0.3831	0.6136	0.159
Mof_H 	H 	0.2197	0.3631	0.5602	0.163
Mof_C 	C 	0.1337	0.3631	0.7086	-0.501
Mof_H 	H 	0.0865	0.3905	0.7205	0.159
Mof_H 	H 	0.1684	0.3755	0.7222	0.154
Mof_H 	H 	0.1433	0.3078	0.7335	0.154
Mof_C 	C 	0.8762	0.3801	0.6302	0.05
Mof_C 	C 	0.8051	0.4208	0.6133	-0.116
Mof_H 	H 	0.7896	0.4382	0.5676	0.065
Mof_C 	C 	0.7571	0.4359	0.663	0.028
Mof_H 	H 	0.7088	0.4633	0.651	0.028
Mof_C 	C 	0.7784	0.4117	0.7293	-0.103
Mof_C 	C 	0.8485	0.3724	0.7464	0.026
Mof_H 	H 	0.8636	0.3559	0.792	0.021
Mof_C 	C 	0.8975	0.3568	0.6969	-0.113
Mof_H 	H 	0.9458	0.3299	0.709	0.056
Mof_C 	C 	0.7257	0.4281	0.7833	0.329
Mof_O 	O 	0.33099	0.64613	0.99643	-0.676
Mof_O 	O 	0.3609	0.7316	0.89899	-0.538
Mof_C 	C 	0.9077	0.9005	0.9437	-0.093
Mof_H 	H 	0.8848	0.9076	0.9055	0.045
Mof_N 	N 	0.0478	0.023	0.8911	-0.191
Mof_H 	H 	0.0684	0.9934	0.9321	0.113
Mof_C 	C 	0.8804	0.8876	0.0107	-0.032
Mof_H 	H 	0.8358	0.8828	0.0261	0.029
Mof_C 	C 	0.9281	0.883	0.0512	0.001
Mof_N 	N 	0.985	0.8912	0.0102	-0.183
Mof_H 	H 	0.0232	0.8905	0.0234	0.109
Mof_C 	C 	0.9742	0.9009	0.9437	0.067
Mof_C 	C 	0.0256	0.9178	0.8853	-0.014
Mof_C 	C 	0.0221	0.0001	0.8574	0.087
Mof_C 	C 	0.9919	0.0647	0.795	-0.101
Mof_H 	H 	0.9684	0.0658	0.7605	0.047
Mof_C 	C 	0.0033	0.1258	0.7941	-0.027
Mof_H 	H 	0.9892	0.1765	0.758	0.024
Mof_C 	C 	0.0381	0.1014	0.8531	-0
Mof_C 	C 	0.0714	0.1405	0.8733	0.179
Mof_C 	C 	0.1018	0.8631	0.9033	0.076
Mof_C 	C 	0.1568	0.8859	0.863	-0.157
Mof_H 	H 	0.1467	0.936	0.8261	0.076
Mof_C 	C 	0.225	0.8367	0.8765	0.083
Mof_H 	H 	0.2616	0.8524	0.8477	0.006
Mof_C 	C 	0.2412	0.7644	0.9314	-0.19
Mof_C 	C 	0.187	0.7412	0.9744	0.092
Mof_H 	H 	0.198	0.692	0.0126	-0.02
Mof_C 	C 	0.1179	0.79	0.961	-0.158
Mof_H 	H 	0.0813	0.7745	0.9902	0.076
Mof_C 	C 	0.3151	0.7124	0.9434	0.435
Mof_C 	C 	0.0047	0.9069	0.8266	-0.34
Mof_H 	H 	0.9925	0.8605	0.8471	0.112
Mof_H 	H 	0.0441	0.9019	0.7943	0.115
Mof_H 	H 	0.964	0.9513	0.8014	0.111
Mof_C 	C 	0.149	0.123	0.8418	-0.491
Mof_H 	H 	0.1722	0.1519	0.8487	0.153
Mof_H 	H 	0.1466	0.1382	0.7918	0.159
Mof_H 	H 	0.1758	0.0681	0.8655	0.164
Mof_C 	C 	0.0326	0.2279	0.8355	-0.509
Mof_H 	H 	0.9867	0.2418	0.8575	0.168
Mof_H 	H 	0.026	0.2425	0.7864	0.167
Mof_H 	H 	0.0605	0.2547	0.8387	0.16
Mof_O 	O 	0.50569	0.52833	0.85161	-0.687
Mof_O 	O 	0.4374	0.64826	0.79554	-0.492
Mof_N 	N 	0.4879	0.4092	0.60699	-0.186
Mof_H 	H 	0.5065	0.4451	0.591	0.112
Mof_N 	N 	0.3941	0.5931	0.50763	-0.186
Mof_H 	H 	0.4353	0.5864	0.5202	0.111
Mof_C 	C 	0.5242	0.3348	0.6173	-0.006
Mof_C 	C 	0.4767	0.2975	0.6416	-0.035
Mof_H 	H 	0.4867	0.2452	0.6531	0.026
Mof_C 	C 	0.4097	0.3511	0.6464	-0.093
Mof_H 	H 	0.3672	0.3411	0.6616	0.04
Mof_C 	C 	0.4182	0.4199	0.6252	0.073
Mof_C 	C 	0.3671	0.4945	0.6245	-0.013
Mof_C 	C 	0.3493	0.5559	0.5506	0.075
Mof_C 	C 	0.2905	0.5823	0.512	-0.097
Mof_H 	H 	0.2505	0.5672	0.5278	0.054
Mof_C 	C 	0.3008	0.6359	0.4443	-0.031
Mof_H 	H 	0.2686	0.6631	0.4066	0.026
Mof_C 	C 	0.365	0.642	0.4424	-0.006
Mof_C 	C 	0.3971	0.6973	0.3849	0.21
Mof_C 	C 	0.2983	0.4819	0.6612	-0.348
Mof_H 	H 	0.2783	0.4651	0.6361	0.113
Mof_H 	H 	0.2645	0.5299	0.6613	0.117
Mof_H 	H 	0.3087	0.4426	0.7093	0.112
Mof_C 	C 	0.3698	0.7159	0.3137	-0.538
Mof_H 	H 	0.3924	0.7488	0.2756	0.174
Mof_H 	H 	0.3188	0.7425	0.3112	0.172
Mof_H 	H 	0.381	0.6682	0.3097	0.183
Mof_C 	C 	0.3728	0.7712	0.393	-0.542
Mof_H 	H 	0.3866	0.7599	0.4391	0.177
Mof_H 	H 	0.3216	0.7949	0.3884	0.17
Mof_H 	H 	0.3947	0.8063	0.3568	0.17
Mof_C 	C 	0.3958	0.5186	0.6677	0.075
Mof_C 	C 	0.3701	0.5939	0.6589	-0.15
Mof_H 	H 	0.3367	0.632	0.6234	0.072
Mof_C 	C 	0.3928	0.6141	0.7015	0.074
Mof_H 	H 	0.3741	0.6658	0.6951	0.006
Mof_C 	C 	0.4428	0.5599	0.7538	-0.177
Mof_C 	C 	0.4678	0.4848	0.7628	0.088
Mof_H 	H 	0.5016	0.4469	0.798	-0.004
Mof_C 	C 	0.4445	0.4639	0.7215	-0.157
Mof_H 	H 	0.4616	0.4117	0.7296	0.081
Mof_C 	C 	0.4632	0.5813	0.8011	0.414
Mof_O 	O 	0.5385	0.66454	0.8675	-0.596
Mof_O 	O 	0.6171	0.59341	0.817	-0.604
Mof_N 	N 	0.6112	0.9115	0.5118	-0.188
Mof_H 	H 	0.573	0.9015	0.5316	0.112
Mof_N 	N 	0.5141	0.0133	0.5981	-0.188
Mof_H 	H 	0.4987	0.9809	0.5959	0.112
Mof_C 	C 	0.6367	0.9144	0.4469	0.003
Mof_C 	C 	0.6949	0.9333	0.4354	-0.035
Mof_H 	H 	0.7234	0.9401	0.3948	0.027
Mof_C 	C 	0.7067	0.9415	0.4945	-0.095
Mof_H 	H 	0.7437	0.9546	0.5	0.049
Mof_C 	C 	0.6544	0.9267	0.5407	0.079
Mof_C 	C 	0.6402	0.9281	0.6117	-0.018
Mof_C 	C 	0.5826	0.9992	0.6075	0.076
Mof_C 	C 	0.584	0.065	0.6081	-0.098
Mof_H 	H 	0.6243	0.0727	0.6138	0.043
Mof_C 	C 	0.5164	0.1161	0.5988	-0.031
Mof_H 	H 	0.5022	0.1657	0.5969	0.025
Mof_C 	C 	0.4723	0.0845	0.5925	-0.003
Mof_C 	C 	0.3958	0.1107	0.5919	0.187
Mof_C 	C 	0.7085	0.9238	0.6363	-0.346
Mof_H 	H 	0.7222	0.9671	0.602	0.114
Mof_H 	H 	0.7461	0.8758	0.6408	0.117
Mof_H 	H 	0.7002	0.9259	0.6815	0.112
Mof_C 	C 	0.3646	0.1996	0.5581	-0.517
Mof_H 	H 	0.3748	0.2184	0.5878	0.165
Mof_H 	H 	0.3137	0.2166	0.5532	0.167
Mof_H 	H 	0.3857	0.2198	0.512	0.173
Mof_C 	C 	0.3679	0.081	0.6691	-0.509
Mof_H 	H 	0.3881	0.025	0.6922	0.17
Mof_H 	H 	0.3166	0.0972	0.6688	0.162
Mof_H 	H 	0.3817	0.1023	0.6943	0.165
Mof_C 	C 	0.6242	0.8567	0.667	0.088
Mof_C 	C 	0.5814	0.859	0.7238	-0.167
Mof_H 	H 	0.56	0.9058	0.7279	0.077
Mof_C 	C 	0.5695	0.7937	0.7748	0.098
Mof_H 	H 	0.5406	0.796	0.8138	-0.004
Mof_C 	C 	0.6001	0.7248	0.769	-0.209
Mof_C 	C 	0.644	0.7217	0.7134	0.099
Mof_H 	H 	0.6667	0.6745	0.7101	-0.005
Mof_C 	C 	0.6553	0.7875	0.6624	-0.165
Mof_H 	H 	0.6847	0.785	0.6237	0.08
Mof_C 	C 	0.5839	0.6556	0.8218	0.511
Mof_O 	O 	0.5953	0.36004	0.89434	-0.559
Mof_O 	O 	0.5235	0.37416	0.98122	-0.629
Mof_N 	N 	0.4001	0.0904	0.02068	-0.187
Mof_H 	H 	0.4442	0.0825	0.0262	0.11
Mof_N 	N 	0.5076	0.0849	0.8862	-0.188
Mof_H 	H 	0.5264	0.0788	0.9228	0.112
Mof_C 	C 	0.359	0.054	0.0711	-0.001
Mof_C 	C 	0.2945	0.081	0.0432	-0.042
Mof_H 	H 	0.2557	0.0657	0.0661	0.029
Mof_C 	C 	0.296	0.1367	0.9728	-0.087
Mof_H 	H 	0.2581	0.1654	0.9407	0.042
Mof_C 	C 	0.3617	0.1416	0.9599	0.07
Mof_C 	C 	0.394	0.1876	0.8937	-0.01
Mof_C 	C 	0.4419	0.1347	0.8609	0.075
Mof_C 	C 	0.4322	0.1271	0.804	-0.091
Mof_H 	H 	0.3915	0.1546	0.7755	0.04
Mof_C 	C 	0.4941	0.0705	0.7954	-0.041
Mof_H 	H 	0.5019	0.0532	0.7602	0.029
Mof_C 	C 	0.5402	0.0455	0.8463	-0
Mof_C 	C 	0.617	0.9967	0.8543	0.198
Mof_C 	C 	0.3337	0.2501	0.8425	-0.348
Mof_H 	H 	0.3091	0.2258	0.8303	0.111
Mof_H 	H 	0.353	0.2821	0.8001	0.117
Mof_H 	H 	0.3007	0.2818	0.8645	0.113
Mof_C 	C 	0.6318	0.9454	0.8167	-0.537
Mof_H 	H 	0.6817	0.9135	0.8213	0.17
Mof_H 	H 	0.6199	0.9776	0.7673	0.172
Mof_H 	H 	0.6034	0.9126	0.8378	0.177
Mof_C 	C 	0.6599	0.0504	0.8188	-0.518
Mof_H 	H 	0.6515	0.0824	0.8431	0.169
Mof_H 	H 	0.6453	0.0832	0.77	0.161
Mof_H 	H 	0.71	0.0198	0.8208	0.163
Mof_C 	C 	0.4337	0.2284	0.9067	0.079
Mof_C 	C 	0.4877	0.2472	0.8617	-0.153
Mof_H 	H 	0.5	0.2335	0.8238	0.074
Mof_C 	C 	0.5238	0.2859	0.8711	0.082
Mof_H 	H 	0.5609	0.2975	0.8404	0.003
Mof_C 	C 	0.5054	0.3076	0.9259	-0.195
Mof_C 	C 	0.4508	0.2902	0.97	0.088
Mof_H 	H 	0.4374	0.3054	0.0069	-0.007
Mof_C 	C 	0.4151	0.2506	0.9606	-0.159
Mof_H 	H 	0.378	0.2389	0.9914	0.075
Mof_C 	C 	0.544	0.3497	0.9347	0.488
Mof_O 	O 	0.56503	0.50504	0.97291	-0.89
Mof_Pr	Pr	0.63163	0.4598	0.88764	2.463
Mof_Pr	Pr	0.45233	0.60465	0.92593	2.591
Mof_O 	O 	0.3539	0.5659	0.9089	-0.302
Mof_N 	N 	0.2714	0.5503	0.8681	-0.014
Mof_C 	C 	0.337	0.5308	0.8885	0.138
Mof_C 	C 	0.2164	0.6205	0.8716	0.457
Mof_H 	H 	0.1715	0.6282	0.8555	-0.118
Mof_H 	H 	0.2116	0.6143	0.9198	-0.144
Mof_H 	H 	0.2303	0.6651	0.8418	0.008
Mof_C 	C 	0.2607	0.4985	0.8441	-0.513
Mof_H 	H 	0.2116	0.5177	0.8306	0.125
Mof_H 	H 	0.2912	0.4974	0.804	0.172
Mof_H 	H 	0.2725	0.4467	0.8821	0.133
Mof_O 	O 	0.356	0.5794	0.8988	-0.141
Mof_N 	N 	0.2578	0.6046	0.8477	-0.267
Mof_C 	C 	0.3089	0.6225	0.8585	0.137
Mof_C 	C 	0.2603	0.5246	0.8895	-0.103
Mof_H 	H 	0.2213	0.5168	0.8775	0.133
Mof_H 	H 	0.3049	0.4871	0.8844	0.094
Mof_H 	H 	0.2551	0.5181	0.9378	0.016
Mof_C 	C 	0.2074	0.6716	0.7943	-0.485
Mof_H 	H 	0.1718	0.6542	0.7895	0.167
Mof_H 	H 	0.1845	0.7162	0.8044	0.142
Mof_H 	H 	0.2341	0.6856	0.7507	0.17
Mof_O 	O 	0.33783	0.53535	0.23224	-0.465
Mof_O 	O 	0.25193	0.5944	0.15664	-0.513
Mof_N 	N 	0.1018	0.5118	0.5205	-0.187
Mof_H 	H 	0.1021	0.4903	0.4939	0.11
Mof_N 	N 	0.973	0.6157	0.4008	-0.187
Mof_H 	H 	0.9992	0.5691	0.4059	0.11
Mof_C 	C 	0.1134	0.4737	0.591	0.003
Mof_C 	C 	0.1069	0.5276	0.613	-0.04
Mof_H 	H 	0.111	0.5183	0.6597	0.024
Mof_C 	C 	0.0933	0.5991	0.5542	-0.091
Mof_H 	H 	0.0878	0.6461	0.5541	0.045
Mof_C 	C 	0.0893	0.5886	0.4972	0.07
Mof_C 	C 	0.0721	0.6461	0.4219	0.002
Mof_C 	C 	0.997	0.6655	0.4057	0.071
Mof_C 	C 	0.9402	0.7308	0.3952	-0.092
Mof_H 	H 	0.9407	0.7756	0.3956	0.048
Mof_C 	C 	0.88	0.7204	0.3836	-0.041
Mof_H 	H 	0.8335	0.7564	0.3752	0.023
Mof_C 	C 	0.9021	0.6486	0.3869	0.001
Mof_C 	C 	0.8615	0.6127	0.3708	0.18
Mof_C 	C 	0.0814	0.7203	0.4111	-0.369
Mof_H 	H 	0.1312	0.7103	0.4154	0.126
Mof_H 	H 	0.0646	0.7606	0.3646	0.126
Mof_H 	H 	0.0542	0.7368	0.4465	0.122
Mof_C 	C 	0.783	0.6443	0.3913	-0.499
Mof_H 	H 	0.7626	0.699	0.3606	0.155
Mof_H 	H 	0.7567	0.6169	0.3864	0.159
Mof_H 	H 	0.7803	0.6369	0.4398	0.163
Mof_C 	C 	0.8663	0.6369	0.2914	-0.501
Mof_H 	H 	0.9135	0.6095	0.2795	0.159
Mof_H 	H 	0.8316	0.6245	0.2778	0.154
Mof_H 	H 	0.8567	0.6922	0.2665	0.154
Mof_C 	C 	0.1238	0.6199	0.3698	0.05
Mof_C 	C 	0.1949	0.5792	0.3867	-0.116
Mof_H 	H 	0.2104	0.5618	0.4324	0.065
Mof_C 	C 	0.2429	0.5641	0.337	0.028
Mof_H 	H 	0.2912	0.5367	0.349	0.028
Mof_C 	C 	0.2216	0.5883	0.2707	-0.103
Mof_C 	C 	0.1515	0.6276	0.2536	0.026
Mof_H 	H 	0.1364	0.6441	0.208	0.021
Mof_C 	C 	0.1025	0.6432	0.3031	-0.113
Mof_H 	H 	0.0542	0.6701	0.291	0.056
Mof_C 	C 	0.2743	0.5719	0.2167	0.329
Mof_O 	O 	0.66901	0.35387	0.00357	-0.676
Mof_O 	O 	0.6391	0.2684	0.10101	-0.538
Mof_C 	C 	0.0923	0.0995	0.0563	-0.093
Mof_H 	H 	0.1152	0.0924	0.0945	0.045
Mof_N 	N 	0.9522	0.977	0.1089	-0.191
Mof_H 	H 	0.9316	0.0066	0.0679	0.113
Mof_C 	C 	0.1196	0.1124	0.9893	-0.032
Mof_H 	H 	0.1642	0.1172	0.9739	0.029
Mof_C 	C 	0.0719	0.117	0.9488	0.001
Mof_N 	N 	0.015	0.1088	0.9898	-0.183
Mof_H 	H 	0.9768	0.1095	0.9766	0.109
Mof_C 	C 	0.0258	0.0991	0.0563	0.067
Mof_C 	C 	0.9744	0.0822	0.1147	-0.014
Mof_C 	C 	0.9779	0.9999	0.1426	0.087
Mof_C 	C 	0.0081	0.9353	0.205	-0.101
Mof_H 	H 	0.0316	0.9342	0.2395	0.047
Mof_C 	C 	0.9967	0.8742	0.2059	-0.027
Mof_H 	H 	0.0108	0.8235	0.242	0.024
Mof_C 	C 	0.9619	0.8986	0.1469	-0
Mof_C 	C 	0.9286	0.8595	0.1267	0.179
Mof_C 	C 	0.8982	0.1369	0.0967	0.076
Mof_C 	C 	0.8432	0.1141	0.137	-0.157
Mof_H 	H 	0.8533	0.064	0.1739	0.076
Mof_C 	C 	0.775	0.1633	0.1235	0.083
Mof_H 	H 	0.7384	0.1476	0.1523	0.006
Mof_C 	C 	0.7588	0.2356	0.0686	-0.19
Mof_C 	C 	0.813	0.2588	0.0256	0.092
Mof_H 	H 	0.802	0.308	0.9874	-0.02
Mof_C 	C 	0.8821	0.21	0.039	-0.158
Mof_H 	H 	0.9187	0.2255	0.0098	0.076
Mof_C 	C 	0.6849	0.2876	0.0566	0.435
Mof_C 	C 	0.9953	0.0931	0.1734	-0.34
Mof_H 	H 	0.0075	0.1395	0.1529	0.112
Mof_H 	H 	0.9559	0.0981	0.2057	0.115
Mof_H 	H 	0.036	0.0487	0.1986	0.111
Mof_C 	C 	0.851	0.877	0.1582	-0.491
Mof_H 	H 	0.8278	0.8481	0.1513	0.153
Mof_H 	H 	0.8534	0.8618	0.2082	0.159
Mof_H 	H 	0.8242	0.9319	0.1345	0.164
Mof_C 	C 	0.9674	0.7721	0.1645	-0.509
Mof_H 	H 	0.0133	0.7582	0.1425	0.168
Mof_H 	H 	0.974	0.7575	0.2136	0.167
Mof_H 	H 	0.9395	0.7453	0.1613	0.16
Mof_O 	O 	0.49431	0.47167	0.14839	-0.687
Mof_O 	O 	0.5626	0.35174	0.20446	-0.492
Mof_N 	N 	0.5121	0.5908	0.39301	-0.186
Mof_H 	H 	0.4935	0.5549	0.409	0.112
Mof_N 	N 	0.6059	0.4069	0.49237	-0.186
Mof_H 	H 	0.5647	0.4136	0.4798	0.111
Mof_C 	C 	0.4758	0.6652	0.3827	-0.006
Mof_C 	C 	0.5233	0.7025	0.3584	-0.035
Mof_H 	H 	0.5133	0.7548	0.3469	0.026
Mof_C 	C 	0.5903	0.6489	0.3536	-0.093
Mof_H 	H 	0.6328	0.6589	0.3384	0.04
Mof_C 	C 	0.5818	0.5801	0.3748	0.073
Mof_C 	C 	0.6329	0.5055	0.3755	-0.013
Mof_C 	C 	0.6507	0.4441	0.4494	0.075
Mof_C 	C 	0.7095	0.4177	0.488	-0.097
Mof_H 	H 	0.7495	0.4328	0.4722	0.054
Mof_C 	C 	0.6992	0.3641	0.5557	-0.031
Mof_H 	H 	0.7314	0.3369	0.5934	0.026
Mof_C 	C 	0.635	0.358	0.5576	-0.006
Mof_C 	C 	0.6029	0.3027	0.6151	0.21
Mof_C 	C 	0.7017	0.5181	0.3388	-0.348
Mof_H 	H 	0.7217	0.5349	0.3639	0.113
Mof_H 	H 	0.7355	0.4701	0.3387	0.117
Mof_H 	H 	0.6913	0.5574	0.2907	0.112
Mof_C 	C 	0.6302	0.2841	0.6863	-0.538
Mof_H 	H 	0.6076	0.2512	0.7244	0.174
Mof_H 	H 	0.6812	0.2575	0.6888	0.172
Mof_H 	H 	0.619	0.3318	0.6903	0.183
Mof_C 	C 	0.6272	0.2288	0.607	-0.542
Mof_H 	H 	0.6134	0.2401	0.5609	0.177
Mof_H 	H 	0.6784	0.2051	0.6116	0.17
Mof_H 	H 	0.6053	0.1937	0.6432	0.17
Mof_C 	C 	0.6042	0.4814	0.3323	0.075
Mof_C 	C 	0.6299	0.4061	0.3411	-0.15
Mof_H 	H 	0.6633	0.368	0.3766	0.072
Mof_C 	C 	0.6072	0.3859	0.2985	0.074
Mof_H 	H 	0.6259	0.3342	0.3049	0.006
Mof_C 	C 	0.5572	0.4401	0.2462	-0.177
Mof_C 	C 	0.5322	0.5152	0.2372	0.088
Mof_H 	H 	0.4984	0.5531	0.202	-0.004
Mof_C 	C 	0.5555	0.5361	0.2785	-0.157
Mof_H 	H 	0.5384	0.5883	0.2704	0.081
Mof_C 	C 	0.5368	0.4187	0.1989	0.414
Mof_O 	O 	0.4615	0.33546	0.1325	-0.596
Mof_O 	O 	0.3829	0.40659	0.183	-0.604
Mof_N 	N 	0.3888	0.0885	0.4882	-0.188
Mof_H 	H 	0.427	0.0985	0.4684	0.112
Mof_N 	N 	0.4859	0.9867	0.4019	-0.188
Mof_H 	H 	0.5013	0.0191	0.4041	0.112
Mof_C 	C 	0.3633	0.0856	0.5531	0.003
Mof_C 	C 	0.3051	0.0667	0.5646	-0.035
Mof_H 	H 	0.2766	0.0599	0.6052	0.027
Mof_C 	C 	0.2933	0.0585	0.5055	-0.095
Mof_H 	H 	0.2563	0.0454	0.5	0.049
Mof_C 	C 	0.3456	0.0733	0.4593	0.079
Mof_C 	C 	0.3598	0.0719	0.3883	-0.018
Mof_C 	C 	0.4174	0.0008	0.3925	0.076
Mof_C 	C 	0.416	0.935	0.3919	-0.098
Mof_H 	H 	0.3757	0.9273	0.3862	0.043
Mof_C 	C 	0.4836	0.8839	0.4012	-0.031
Mof_H 	H 	0.4978	0.8343	0.4031	0.025
Mof_C 	C 	0.5277	0.9155	0.4075	-0.003
Mof_C 	C 	0.6042	0.8893	0.4081	0.187
Mof_C 	C 	0.2915	0.0762	0.3637	-0.346
Mof_H 	H 	0.2778	0.0329	0.398	0.114
Mof_H 	H 	0.2539	0.1242	0.3592	0.117
Mof_H 	H 	0.2998	0.0741	0.3185	0.112
Mof_C 	C 	0.6354	0.8004	0.4419	-0.517
Mof_H 	H 	0.6252	0.7816	0.4122	0.165
Mof_H 	H 	0.6863	0.7834	0.4468	0.167
Mof_H 	H 	0.6143	0.7802	0.488	0.173
Mof_C 	C 	0.6321	0.919	0.3309	-0.509
Mof_H 	H 	0.6119	0.975	0.3078	0.17
Mof_H 	H 	0.6834	0.9028	0.3312	0.162
Mof_H 	H 	0.6183	0.8977	0.3057	0.165
Mof_C 	C 	0.3758	0.1433	0.333	0.088
Mof_C 	C 	0.4186	0.141	0.2762	-0.167
Mof_H 	H 	0.44	0.0942	0.2721	0.077
Mof_C 	C 	0.4305	0.2063	0.2252	0.098
Mof_H 	H 	0.4594	0.204	0.1862	-0.004
Mof_C 	C 	0.3999	0.2752	0.231	-0.209
Mof_C 	C 	0.356	0.2783	0.2866	0.099
Mof_H 	H 	0.3333	0.3255	0.2899	-0.005
Mof_C 	C 	0.3447	0.2125	0.3376	-0.165
Mof_H 	H 	0.3153	0.215	0.3763	0.08
Mof_C 	C 	0.4161	0.3444	0.1782	0.511
Mof_O 	O 	0.4047	0.63996	0.10566	-0.559
Mof_O 	O 	0.4765	0.62584	0.01878	-0.629
Mof_N 	N 	0.5999	0.9096	0.97932	-0.187
Mof_H 	H 	0.5558	0.9175	0.9738	0.11
Mof_N 	N 	0.4924	0.9151	0.1138	-0.188
Mof_H 	H 	0.4736	0.9212	0.0772	0.112
Mof_C 	C 	0.641	0.946	0.9289	-0.001
Mof_C 	C 	0.7055	0.919	0.9568	-0.042
Mof_H 	H 	0.7443	0.9343	0.9339	0.029
Mof_C 	C 	0.704	0.8633	0.0272	-0.087
Mof_H 	H 	0.7419	0.8346	0.0593	0.042
Mof_C 	C 	0.6383	0.8584	0.0401	0.07
Mof_C 	C 	0.606	0.8124	0.1063	-0.01
Mof_C 	C 	0.5581	0.8653	0.1391	0.075
Mof_C 	C 	0.5678	0.8729	0.196	-0.091
Mof_H 	H 	0.6085	0.8454	0.2245	0.04
Mof_C 	C 	0.5059	0.9295	0.2046	-0.041
Mof_H 	H 	0.4981	0.9468	0.2398	0.029
Mof_C 	C 	0.4598	0.9545	0.1537	-0
Mof_C 	C 	0.383	0.0033	0.1457	0.198
Mof_C 	C 	0.6663	0.7499	0.1575	-0.348
Mof_H 	H 	0.6909	0.7742	0.1697	0.111
Mof_H 	H 	0.647	0.7179	0.1999	0.117
Mof_H 	H 	0.6993	0.7182	0.1355	0.113
Mof_C 	C 	0.3682	0.0546	0.1833	-0.537
Mof_H 	H 	0.3183	0.0865	0.1787	0.17
Mof_H 	H 	0.3801	0.0224	0.2327	0.172
Mof_H 	H 	0.3966	0.0874	0.1622	0.177
Mof_C 	C 	0.3401	0.9496	0.1812	-0.518
Mof_H 	H 	0.3485	0.9176	0.1569	0.169
Mof_H 	H 	0.3547	0.9168	0.23	0.161
Mof_H 	H 	0.29	0.9802	0.1792	0.163
Mof_C 	C 	0.5663	0.7716	0.0933	0.079
Mof_C 	C 	0.5123	0.7528	0.1383	-0.153
Mof_H 	H 	0.5	0.7665	0.1762	0.074
Mof_C 	C 	0.4762	0.7141	0.1289	0.082
Mof_H 	H 	0.4391	0.7025	0.1596	0.003
Mof_C 	C 	0.4946	0.6924	0.0741	-0.195
Mof_C 	C 	0.5492	0.7098	0.03	0.088
Mof_H 	H 	0.5626	0.6946	0.9931	-0.007
Mof_C 	C 	0.5849	0.7494	0.0394	-0.159
Mof_H 	H 	0.622	0.7611	0.0086	0.075
Mof_C 	C 	0.456	0.6503	0.0653	0.488
Mof_O 	O 	0.43497	0.49496	0.02709	-0.89
Mof_Pr	Pr	0.36837	0.5402	0.11236	2.463
Mof_Pr	Pr	0.54767	0.39535	0.07407	2.591
Mof_O 	O 	0.6461	0.4341	0.0911	-0.302
Mof_N 	N 	0.7286	0.4497	0.1319	-0.014
Mof_C 	C 	0.663	0.4692	0.1115	0.138
Mof_C 	C 	0.7836	0.3795	0.1284	0.457
Mof_H 	H 	0.8285	0.3718	0.1445	-0.118
Mof_H 	H 	0.7884	0.3857	0.0802	-0.144
Mof_H 	H 	0.7697	0.3349	0.1582	0.008
Mof_C 	C 	0.7393	0.5015	0.1559	-0.513
Mof_H 	H 	0.7884	0.4823	0.1694	0.125
Mof_H 	H 	0.7088	0.5026	0.196	0.172
Mof_H 	H 	0.7275	0.5533	0.1179	0.133
Mof_O 	O 	0.644	0.4206	0.1012	-0.141
Mof_N 	N 	0.7422	0.3954	0.1523	-0.267
Mof_C 	C 	0.6911	0.3775	0.1415	0.137
Mof_C 	C 	0.7397	0.4754	0.1105	-0.103
Mof_H 	H 	0.7787	0.4832	0.1225	0.133
Mof_H 	H 	0.6951	0.5129	0.1156	0.094
Mof_H 	H 	0.7449	0.4819	0.0622	0.016
Mof_C 	C 	0.7926	0.3284	0.2057	-0.485
Mof_H 	H 	0.8282	0.3458	0.2105	0.167
Mof_H 	H 	0.8155	0.2838	0.1956	0.142
Mof_H 	H 	0.7659	0.3144	0.2493	0.17
_end
