# CIF file generated by openbabel 3.1.0, see https://openbabel.org
data_I
_chemical_name_common 'cm071462f-file004_clean'
_cell_length_a 16.0828
_cell_length_b 16.0828
_cell_length_c 18.746
_cell_angle_alpha 115.402
_cell_angle_beta 115.402
_cell_angle_gamma 90.0003
_space_group_name_H-M_alt 'P 1'
_space_group_name_Hall 'P 1'
loop_
    _symmetry_equiv_pos_as_xyz
    x,y,z
loop_
    _atom_site_label
    _atom_site_type_symbol
    _atom_site_fract_x
    _atom_site_fract_y
    _atom_site_fract_z
    _atom_site_occupancy
    Zn1      Zn       0.48558    0.29187    0.44278    1.000
    Zn2      Zn       0.95720    0.15091    0.44278    1.000
    Zn3      Zn       0.05098    0.53926    0.91928    1.000
    Zn4      Zn       0.19902    0.36998    0.58072    1.000
    Zn5      Zn       0.46074    0.13170    0.08072    1.000
    Zn6      Zn       0.86830    0.38002    0.91928    1.000
    Zn7      Zn       0.29280    0.45813    0.05722    1.000
    Zn8      Zn       0.38170    0.21074    0.58072    1.000
    Zn9      Zn       0.45202    0.37500    0.25000    1.000
    Zn10     Zn       0.61998    0.94902    0.08072    1.000
    Zn11     Zn       0.79798    0.87500    0.25000    1.000
    Zn12     Zn       0.12500    0.54798    0.75000    1.000
    Zn13     Zn       0.54187    0.23558    0.94278    1.000
    Zn14     Zn       0.70813    0.04280    0.55722    1.000
    Zn15     Zn       0.76442    0.59909    0.05722    1.000
    Zn16     Zn       0.63002    0.61830    0.41928    1.000
    Zn17     Zn       0.62500    0.20202    0.75000    1.000
    Zn18     Zn       0.40091    0.70720    0.94278    1.000
    Zn19     Zn       0.78926    0.80098    0.41928    1.000
    Zn20     Zn       0.84909    0.51442    0.55722    1.000
    P1       P        0.83889    0.63876    0.45892    1.000
    P2       P        0.88876    0.58889    0.95892    1.000
    P3       P        0.82957    0.04303    0.22714    1.000
    P4       P        0.62997    0.11124    0.04108    1.000
    P5       P        0.42412    0.30239    0.05248    1.000
    P6       P        0.17984    0.16111    0.54108    1.000
    P7       P        0.95697    0.60243    0.77286    1.000
    P8       P        0.62164    0.44761    0.44752    1.000
    P9       P        0.81589    0.17043    0.77286    1.000
    P10      P        0.62836    0.75009    0.05248    1.000
    P11      P        0.55239    0.17412    0.55248    1.000
    P12      P        0.41111    0.92984    0.04108    1.000
    P13      P        0.69761    0.37164    0.94752    1.000
    P14      P        0.29303    0.57957    0.72714    1.000
    P15      P        0.07016    0.37003    0.95892    1.000
    P16      P        0.82588    0.99991    0.44752    1.000
    P17      P        0.62003    0.82016    0.45892    1.000
    P18      P        0.42043    0.56589    0.27286    1.000
    P19      P        0.85243    0.70697    0.27286    1.000
    P20      P        0.43411    0.14757    0.72714    1.000
    P21      P        0.36124    0.37997    0.54108    1.000
    P22      P        0.39757    0.18411    0.22714    1.000
    P23      P        0.00009    0.37836    0.55248    1.000
    P24      P        0.24991    0.57588    0.94752    1.000
    H1       H        0.76670    0.11780    0.11000    1.000
    H2       H        0.24220    0.09330    0.61000    1.000
    H3       H        0.88220    0.65670    0.89000    1.000
    H4       H        0.90670    0.63220    0.39000    1.000
    H5       H        0.34330    0.99220    0.11000    1.000
    H6       H        0.44450    0.70130    0.36020    1.000
    H7       H        0.34110    0.55550    0.63980    1.000
    H8       H        0.00780    0.23330    0.89000    1.000
    H9       H        0.95130    0.19450    0.86020    1.000
    H10      H        0.36780    0.51670    0.61000    1.000
    H11      H        0.33430    0.04870    0.13980    1.000
    H12      H        0.91570    0.65890    0.36020    1.000
    H13      H        0.80550    0.09110    0.13980    1.000
    H14      H        0.90890    0.66570    0.86020    1.000
    H15      H        0.29870    0.08430    0.63980    1.000
    H16      H        0.48330    0.75780    0.39000    1.000
    O1       O        0.04675    0.63795    0.77590    1.000
    O2       O        0.61808    0.55258    0.48056    1.000
    O3       O        0.59392    0.08802    0.52304    1.000
    O4       O        0.76635    0.94575    0.34370    1.000
    O5       O        0.68600    0.47280    0.98700    1.000
    O6       O        0.99605    0.60645    0.99550    1.000
    O7       O        0.61095    0.00395    0.00450    1.000
    O8       O        0.86955    0.62225    0.03870    1.000
    O9       O        0.80258    0.36808    0.98056    1.000
    O10      O        0.31037    0.59527    0.65874    1.000
    O11      O        0.81621    0.62201    0.18042    1.000
    O12      O        0.43379    0.19159    0.31958    1.000
    O13      O        0.06270    0.26330    0.91020    1.000
    O14      O        0.86205    0.95325    0.22410    1.000
    O15      O        0.76420    0.05100    0.48700    1.000
    O16      O        0.19575    0.51635    0.84370    1.000
    O17      O        0.47669    0.16959    0.20098    1.000
    O18      O        0.17798    0.61248    0.98056    1.000
    O19      O        0.36421    0.55841    0.18042    1.000
    O20      O        0.38752    0.19742    0.01944    1.000
    O21      O        0.40762    0.34152    0.60764    1.000
    O22      O        0.73388    0.59238    0.39236    1.000
    O23      O        0.52085    0.11205    0.72410    1.000
    O24      O        0.84527    0.06037    0.15874    1.000
    O25      O        0.39355    0.00055    0.00450    1.000
    O26      O        0.65608    0.31498    0.97696    1.000
    O27      O        0.41959    0.22669    0.70098    1.000
    O28      O        0.35310    0.93730    0.08980    1.000
    O29      O        0.05425    0.42265    0.65630    1.000
    O30      O        0.93963    0.68653    0.84126    1.000
    O31      O        0.80841    0.11421    0.68042    1.000
    O32      O        0.38045    0.33355    0.46130    1.000
    O33      O        0.90163    0.15473    0.84126    1.000
    O34      O        0.30100    0.51420    0.98700    1.000
    O35      O        0.64795    0.32735    0.84370    1.000
    O36      O        0.32088    0.66198    0.97696    1.000
    O37      O        0.25055    0.14355    0.50450    1.000
    O38      O        0.25395    0.36095    0.50450    1.000
    O39      O        0.20002    0.26612    0.60764    1.000
    O40      O        0.20325    0.61205    0.72410    1.000
    O41      O        0.91198    0.07088    0.47696    1.000
    O42      O        0.34837    0.06347    0.65874    1.000
    O43      O        0.84238    0.48388    0.89236    1.000
    O44      O        0.56498    0.40608    0.47696    1.000
    O45      O        0.72280    0.43600    0.48700    1.000
    O46      O        0.58355    0.13045    0.96130    1.000
    O47      O        0.56400    0.23580    0.51300    1.000
    O48      O        0.37775    0.83085    0.96130    1.000
    O49      O        0.51330    0.81270    0.41020    1.000
    O50      O        0.08085    0.12775    0.46130    1.000
    O51      O        0.52720    0.69900    0.01300    1.000
    O52      O        0.51612    0.95002    0.10764    1.000
    O53      O        0.18730    0.10310    0.58980    1.000
    O54      O        0.38795    0.47915    0.27590    1.000
    O55      O        0.92912    0.43502    0.52304    1.000
    O56      O        0.93653    0.68963    0.34126    1.000
    O57      O        0.83041    0.27571    0.79902    1.000
    O58      O        0.63192    0.82202    0.01944    1.000
    O59      O        0.88579    0.12799    0.31958    1.000
    O60      O        0.73670    0.15250    0.08980    1.000
    O61      O        0.52571    0.58041    0.29902    1.000
    O62      O        0.40473    0.65163    0.34126    1.000
    O63      O        0.63905    0.74945    0.49550    1.000
    O64      O        0.84750    0.64690    0.91020    1.000
    O65      O        0.77331    0.71861    0.29902    1.000
    O66      O        0.44742    0.13752    0.51944    1.000
    O67      O        0.65848    0.79998    0.39236    1.000
    O68      O        0.67265    0.80425    0.15630    1.000
    O69      O        0.85645    0.74605    0.49550    1.000
    O70      O        0.99945    0.38905    0.99550    1.000
    O71      O        0.40250    0.48670    0.58980    1.000
    O72      O        0.72915    0.13795    0.77590    1.000
    O73      O        0.36205    0.27085    0.22410    1.000
    O74      O        0.88795    0.79675    0.27590    1.000
    O75      O        0.57735    0.39795    0.34370    1.000
    O76      O        0.96861    0.52331    0.79902    1.000
    O77      O        0.04998    0.40848    0.89236    1.000
    O78      O        0.89690    0.59750    0.41020    1.000
    O79      O        0.72429    0.03139    0.20098    1.000
    O80      O        0.37799    0.63579    0.81958    1.000
    O81      O        0.33802    0.34392    0.02304    1.000
    O82      O        0.66645    0.91915    0.53870    1.000
    O83      O        0.31347    0.09837    0.15874    1.000
    O84      O        0.28139    0.47429    0.70098    1.000
    O85      O        0.16915    0.41645    0.03870    1.000
    O86      O        0.48365    0.35205    0.15630    1.000
    O87      O        0.87201    0.56621    0.68042    1.000
    O88      O        0.60205    0.23365    0.65630    1.000
    O89      O        0.44159    0.18379    0.81958    1.000
    O90      O        0.86248    0.92798    0.48056    1.000
    O91      O        0.94900    0.27720    0.51300    1.000
    O92      O        0.48580    0.31400    0.01300    1.000
    O93      O        0.59152    0.15762    0.10764    1.000
    O94      O        0.68502    0.67912    0.02304    1.000
    O95      O        0.07202    0.38192    0.51944    1.000
    O96      O        0.87225    0.61955    0.53870    1.000
