# CIF file generated by openbabel 3.1.0, see https://openbabel.org
data_I
_chemical_name_common 'image0'
_cell_length_a 14.183
_cell_length_b 26.983
_cell_length_c 7.615
_cell_angle_alpha 90
_cell_angle_beta 90
_cell_angle_gamma 90
_space_group_name_H-M_alt 'P 1'
_space_group_name_Hall 'P 1'
loop_
    _symmetry_equiv_pos_as_xyz
    x,y,z
loop_
    _atom_site_label
    _atom_site_type_symbol
    _atom_site_fract_x
    _atom_site_fract_y
    _atom_site_fract_z
    _atom_site_occupancy
    Cd1      Cd       0.21721    0.11490    0.12333    1.000
    N1       N        0.24000    0.17110    0.89400    1.000
    N2       N        0.24370    0.17120    0.33500    1.000
    N3       N        0.36680    0.07960    0.11700    1.000
    N4       N        0.17530    0.05620    0.90300    1.000
    N5       N        0.05260    0.12650    0.07900    1.000
    C1       C        0.24070    0.20090    0.78900    1.000
    C2       C        0.24650    0.20110    0.44100    1.000
    C3       C        0.41830    0.05000    0.07400    1.000
    C4       C        0.07500    0.05780    0.87600    1.000
    C5       C        0.02200    0.09420    0.93800    1.000
    C6       C        0.91510    0.09290    0.90600    1.000
    N6       N        0.33450    0.94690    0.83900    1.000
    C7       C        0.39680    0.96700    0.90100    1.000
    Cd2      Cd       0.78279    0.61490    0.87667    1.000
    N7       N        0.76000    0.67110    0.10600    1.000
    N8       N        0.75630    0.67120    0.66500    1.000
    N9       N        0.63320    0.57960    0.88300    1.000
    N10      N        0.82470    0.55620    0.09700    1.000
    N11      N        0.94740    0.62650    0.92100    1.000
    C8       C        0.75930    0.70090    0.21100    1.000
    C9       C        0.75350    0.70110    0.55900    1.000
    C10      C        0.58170    0.55000    0.92600    1.000
    C11      C        0.92500    0.55780    0.12400    1.000
    C12      C        0.97800    0.59420    0.06200    1.000
    C13      C        0.08490    0.59290    0.09400    1.000
    N12      N        0.66550    0.44690    0.16100    1.000
    C14      C        0.60320    0.46700    0.09900    1.000
    Cd3      Cd       0.78279    0.88510    0.87667    1.000
    N13      N        0.76000    0.82890    0.10600    1.000
    N14      N        0.75630    0.82880    0.66500    1.000
    N15      N        0.63320    0.92040    0.88300    1.000
    N16      N        0.82470    0.94380    0.09700    1.000
    N17      N        0.94740    0.87350    0.92100    1.000
    C15      C        0.75930    0.79910    0.21100    1.000
    C16      C        0.75350    0.79890    0.55900    1.000
    C17      C        0.58170    0.95000    0.92600    1.000
    C18      C        0.92500    0.94220    0.12400    1.000
    C19      C        0.97800    0.90580    0.06200    1.000
    C20      C        0.08490    0.90710    0.09400    1.000
    N18      N        0.66550    0.05310    0.16100    1.000
    C21      C        0.60320    0.03300    0.09900    1.000
    Cd4      Cd       0.21721    0.38510    0.12333    1.000
    N19      N        0.24000    0.32890    0.89400    1.000
    N20      N        0.24370    0.32880    0.33500    1.000
    N21      N        0.36680    0.42040    0.11700    1.000
    N22      N        0.17530    0.44380    0.90300    1.000
    N23      N        0.05260    0.37350    0.07900    1.000
    C22      C        0.24070    0.29910    0.78900    1.000
    C23      C        0.24650    0.29890    0.44100    1.000
    C24      C        0.41830    0.45000    0.07400    1.000
    C25      C        0.07500    0.44220    0.87600    1.000
    C26      C        0.02200    0.40580    0.93800    1.000
    C27      C        0.91510    0.40710    0.90600    1.000
    N24      N        0.33450    0.55310    0.83900    1.000
    C28      C        0.39680    0.53300    0.90100    1.000
    Ni1      Ni       0.24580    0.25000    0.61390    1.000
    Ni2      Ni       0.75420    0.75000    0.38610    1.000
    Ni3      Ni       0.50000    0.00000    0.00000    1.000
    Ni4      Ni       0.50000    0.50000    0.00000    1.000
    N25      N        0.16550    0.05310    0.33900    1.000
    C29      C        0.10320    0.03300    0.40100    1.000
    Cd5      Cd       0.28279    0.88510    0.62333    1.000
    N26      N        0.26000    0.82890    0.39400    1.000
    N27      N        0.25630    0.82880    0.83500    1.000
    N28      N        0.13320    0.92040    0.61700    1.000
    N29      N        0.32470    0.94380    0.40300    1.000
    N30      N        0.44740    0.87350    0.57900    1.000
    C30      C        0.25930    0.79910    0.28900    1.000
    C31      C        0.25350    0.79890    0.94100    1.000
    C32      C        0.08170    0.95000    0.57400    1.000
    C33      C        0.42500    0.94220    0.37600    1.000
    C34      C        0.47800    0.90580    0.43800    1.000
    C35      C        0.58490    0.90710    0.40600    1.000
    N31      N        0.83450    0.55310    0.66100    1.000
    C36      C        0.89680    0.53300    0.59900    1.000
    Cd6      Cd       0.71721    0.38510    0.37667    1.000
    N32      N        0.74000    0.32890    0.60600    1.000
    N33      N        0.74370    0.32880    0.16500    1.000
    N34      N        0.86680    0.42040    0.38300    1.000
    N35      N        0.67530    0.44380    0.59700    1.000
    N36      N        0.55260    0.37350    0.42100    1.000
    C37      C        0.74070    0.29910    0.71100    1.000
    C38      C        0.74650    0.29890    0.05900    1.000
    C39      C        0.91830    0.45000    0.42600    1.000
    C40      C        0.57500    0.44220    0.62400    1.000
    C41      C        0.52200    0.40580    0.56200    1.000
    C42      C        0.41510    0.40710    0.59400    1.000
    N37      N        0.83450    0.94690    0.66100    1.000
    C43      C        0.89680    0.96700    0.59900    1.000
    Cd7      Cd       0.71721    0.11490    0.37667    1.000
    N38      N        0.74000    0.17110    0.60600    1.000
    N39      N        0.74370    0.17120    0.16500    1.000
    N40      N        0.86680    0.07960    0.38300    1.000
    N41      N        0.67530    0.05620    0.59700    1.000
    N42      N        0.55260    0.12650    0.42100    1.000
    C44      C        0.74070    0.20090    0.71100    1.000
    C45      C        0.74650    0.20110    0.05900    1.000
    C46      C        0.91830    0.05000    0.42600    1.000
    C47      C        0.57500    0.05780    0.62400    1.000
    C48      C        0.52200    0.09420    0.56200    1.000
    C49      C        0.41510    0.09290    0.59400    1.000
    N43      N        0.16550    0.44690    0.33900    1.000
    C50      C        0.10320    0.46700    0.40100    1.000
    Cd8      Cd       0.28279    0.61490    0.62333    1.000
    N44      N        0.26000    0.67110    0.39400    1.000
    N45      N        0.25630    0.67120    0.83500    1.000
    N46      N        0.13320    0.57960    0.61700    1.000
    N47      N        0.32470    0.55620    0.40300    1.000
    N48      N        0.44740    0.62650    0.57900    1.000
    C51      C        0.25930    0.70090    0.28900    1.000
    C52      C        0.25350    0.70110    0.94100    1.000
    C53      C        0.08170    0.55000    0.57400    1.000
    C54      C        0.42500    0.55780    0.37600    1.000
    C55      C        0.47800    0.59420    0.43800    1.000
    C56      C        0.58490    0.59290    0.40600    1.000
    Ni5      Ni       0.25420    0.75000    0.11390    1.000
    Ni6      Ni       0.74580    0.25000    0.88610    1.000
    Ni7      Ni       0.00000    0.00000    0.50000    1.000
    Ni8      Ni       0.00000    0.50000    0.50000    1.000
