# CIF file generated by openbabel 3.1.0, see https://openbabel.org
data_I
_chemical_name_common 'image0'
_cell_length_a 26.4461
_cell_length_b 16.5489
_cell_length_c 13.4894
_cell_angle_alpha 90
_cell_angle_beta 104.288
_cell_angle_gamma 90
_space_group_name_H-M_alt 'P 1'
_space_group_name_Hall 'P 1'
loop_
    _symmetry_equiv_pos_as_xyz
    x,y,z
loop_
    _atom_site_label
    _atom_site_type_symbol
    _atom_site_fract_x
    _atom_site_fract_y
    _atom_site_fract_z
    _atom_site_occupancy
    C1       C        0.43490    0.95320    0.04690    1.000
    C2       C        0.48130    0.89810    0.07960    1.000
    C3       C        0.47870    0.81980    0.03990    1.000
    H1       H        0.44870    0.80220    0.99320    1.000
    C4       C        0.52260    0.76700    0.07170    1.000
    C5       C        0.56960    0.79270    0.14390    1.000
    C6       C        0.57110    0.87140    0.18120    1.000
    C7       C        0.52700    0.92300    0.14950    1.000
    H2       H        0.52860    0.97510    0.17620    1.000
    C8       C        0.61980    0.74350    0.16490    1.000
    C9       C        0.63760    0.69220    0.25090    1.000
    C10      C        0.68600    0.65440    0.27120    1.000
    H3       H        0.69690    0.62220    0.32900    1.000
    C11      C        0.71830    0.66550    0.20290    1.000
    C12      C        0.70170    0.71600    0.11900    1.000
    H4       H        0.72300    0.72390    0.07430    1.000
    C13      C        0.65330    0.75540    0.10050    1.000
    C14      C        0.63800    0.81250    0.00910    1.000
    C15      C        0.77230    0.62490    0.22390    1.000
    C16      C        0.61880    0.90260    0.26080    1.000
    N1       N        0.51630    0.68580    0.02930    1.000
    N2       N        0.60390    0.67640    0.32260    1.000
    O1       O        0.43151    0.01000    0.11020    1.000
    O2       O        0.40214    0.94050    0.96140    1.000
    O3       O        0.55750    0.69250    0.29740    1.000
    O4       O        0.62470    0.64970    0.40880    1.000
    O5       O        0.48280    0.67360    0.95240    1.000
    O6       O        0.54730    0.63310    0.06890    1.000
    O7       O        0.79240    0.60300    0.31500    1.000
    O8       O        0.79310    0.61850    0.14960    1.000
    O9       O        0.65130    0.88620    0.02390    1.000
    O10      O        0.61520    0.78790    0.92310    1.000
    O11      O        0.63627    0.97310    0.24380    1.000
    O12      O        0.63745    0.86180    0.33940    1.000
    Mn1      Mn       0.87010    0.57834    0.14851    1.000
    Mn2      Mn       0.82817    0.49661    0.38608    1.000
    C17      C        0.93490    0.45320    0.04690    1.000
    C18      C        0.98130    0.39810    0.07960    1.000
    C19      C        0.97870    0.31980    0.03990    1.000
    H5       H        0.94870    0.30220    0.99320    1.000
    C20      C        0.02260    0.26700    0.07170    1.000
    C21      C        0.06960    0.29270    0.14390    1.000
    C22      C        0.07110    0.37140    0.18120    1.000
    C23      C        0.02700    0.42300    0.14950    1.000
    H6       H        0.02860    0.47510    0.17620    1.000
    C24      C        0.11980    0.24350    0.16490    1.000
    C25      C        0.13760    0.19220    0.25090    1.000
    C26      C        0.18600    0.15440    0.27120    1.000
    H7       H        0.19690    0.12220    0.32900    1.000
    C27      C        0.21830    0.16550    0.20290    1.000
    C28      C        0.20170    0.21600    0.11900    1.000
    H8       H        0.22300    0.22390    0.07430    1.000
    C29      C        0.15330    0.25540    0.10050    1.000
    C30      C        0.13800    0.31250    0.00910    1.000
    C31      C        0.27230    0.12490    0.22390    1.000
    C32      C        0.11880    0.40260    0.26080    1.000
    N3       N        0.01630    0.18580    0.02930    1.000
    N4       N        0.10390    0.17640    0.32260    1.000
    O13      O        0.93151    0.51000    0.11020    1.000
    O14      O        0.90214    0.44050    0.96140    1.000
    O15      O        0.05750    0.19250    0.29740    1.000
    O16      O        0.12470    0.14970    0.40880    1.000
    O17      O        0.98280    0.17360    0.95240    1.000
    O18      O        0.04730    0.13310    0.06890    1.000
    O19      O        0.29240    0.10300    0.31500    1.000
    O20      O        0.29310    0.11850    0.14960    1.000
    O21      O        0.15130    0.38620    0.02390    1.000
    O22      O        0.11520    0.28790    0.92310    1.000
    O23      O        0.13627    0.47310    0.24380    1.000
    O24      O        0.13745    0.36180    0.33940    1.000
    Mn3      Mn       0.37010    0.07834    0.14851    1.000
    Mn4      Mn       0.32817    0.99661    0.38608    1.000
    C33      C        0.56510    0.95320    0.45310    1.000
    C34      C        0.51870    0.89810    0.42040    1.000
    C35      C        0.52130    0.81980    0.46010    1.000
    H9       H        0.55130    0.80220    0.50680    1.000
    C36      C        0.47740    0.76700    0.42830    1.000
    C37      C        0.43040    0.79270    0.35610    1.000
    C38      C        0.42890    0.87140    0.31880    1.000
    C39      C        0.47300    0.92300    0.35050    1.000
    H10      H        0.47140    0.97510    0.32380    1.000
    C40      C        0.38020    0.74350    0.33510    1.000
    C41      C        0.36240    0.69220    0.24910    1.000
    C42      C        0.31400    0.65440    0.22880    1.000
    H11      H        0.30310    0.62220    0.17100    1.000
    C43      C        0.28170    0.66550    0.29710    1.000
    C44      C        0.29830    0.71600    0.38100    1.000
    H12      H        0.27700    0.72390    0.42570    1.000
    C45      C        0.34670    0.75540    0.39950    1.000
    C46      C        0.36200    0.81250    0.49090    1.000
    C47      C        0.22770    0.62490    0.27610    1.000
    C48      C        0.38120    0.90260    0.23920    1.000
    N5       N        0.48370    0.68580    0.47070    1.000
    N6       N        0.39610    0.67640    0.17740    1.000
    O25      O        0.56849    0.01000    0.38980    1.000
    O26      O        0.59786    0.94050    0.53860    1.000
    O27      O        0.44250    0.69250    0.20260    1.000
    O28      O        0.37530    0.64970    0.09120    1.000
    O29      O        0.51720    0.67360    0.54760    1.000
    O30      O        0.45270    0.63310    0.43110    1.000
    O31      O        0.20760    0.60300    0.18500    1.000
    O32      O        0.20690    0.61850    0.35040    1.000
    O33      O        0.34870    0.88620    0.47610    1.000
    O34      O        0.38480    0.78790    0.57690    1.000
    O35      O        0.36373    0.97310    0.25620    1.000
    O36      O        0.36255    0.86180    0.16060    1.000
    Mn5      Mn       0.12990    0.57834    0.35149    1.000
    Mn6      Mn       0.17183    0.49661    0.11392    1.000
    C49      C        0.06510    0.45320    0.45310    1.000
    C50      C        0.01870    0.39810    0.42040    1.000
    C51      C        0.02130    0.31980    0.46010    1.000
    H13      H        0.05130    0.30220    0.50680    1.000
    C52      C        0.97740    0.26700    0.42830    1.000
    C53      C        0.93040    0.29270    0.35610    1.000
    C54      C        0.92890    0.37140    0.31880    1.000
    C55      C        0.97300    0.42300    0.35050    1.000
    H14      H        0.97140    0.47510    0.32380    1.000
    C56      C        0.88020    0.24350    0.33510    1.000
    C57      C        0.86240    0.19220    0.24910    1.000
    C58      C        0.81400    0.15440    0.22880    1.000
    H15      H        0.80310    0.12220    0.17100    1.000
    C59      C        0.78170    0.16550    0.29710    1.000
    C60      C        0.79830    0.21600    0.38100    1.000
    H16      H        0.77700    0.22390    0.42570    1.000
    C61      C        0.84670    0.25540    0.39950    1.000
    C62      C        0.86200    0.31250    0.49090    1.000
    C63      C        0.72770    0.12490    0.27610    1.000
    C64      C        0.88120    0.40260    0.23920    1.000
    N7       N        0.98370    0.18580    0.47070    1.000
    N8       N        0.89610    0.17640    0.17740    1.000
    O37      O        0.06849    0.51000    0.38980    1.000
    O38      O        0.09786    0.44050    0.53860    1.000
    O39      O        0.94250    0.19250    0.20260    1.000
    O40      O        0.87530    0.14970    0.09120    1.000
    O41      O        0.01720    0.17360    0.54760    1.000
    O42      O        0.95270    0.13310    0.43110    1.000
    O43      O        0.70760    0.10300    0.18500    1.000
    O44      O        0.70690    0.11850    0.35040    1.000
    O45      O        0.84870    0.38620    0.47610    1.000
    O46      O        0.88480    0.28790    0.57690    1.000
    O47      O        0.86373    0.47310    0.25620    1.000
    O48      O        0.86255    0.36180    0.16060    1.000
    Mn7      Mn       0.62990    0.07834    0.35149    1.000
    Mn8      Mn       0.67183    0.99661    0.11392    1.000
    C65      C        0.56510    0.04680    0.95310    1.000
    C66      C        0.51870    0.10190    0.92040    1.000
    C67      C        0.52130    0.18020    0.96010    1.000
    H17      H        0.55130    0.19780    0.00680    1.000
    C68      C        0.47740    0.23300    0.92830    1.000
    C69      C        0.43040    0.20730    0.85610    1.000
    C70      C        0.42890    0.12860    0.81880    1.000
    C71      C        0.47300    0.07700    0.85050    1.000
    H18      H        0.47140    0.02490    0.82380    1.000
    C72      C        0.38020    0.25650    0.83510    1.000
    C73      C        0.36240    0.30780    0.74910    1.000
    C74      C        0.31400    0.34560    0.72880    1.000
    H19      H        0.30310    0.37780    0.67100    1.000
    C75      C        0.28170    0.33450    0.79710    1.000
    C76      C        0.29830    0.28400    0.88100    1.000
    H20      H        0.27700    0.27610    0.92570    1.000
    C77      C        0.34670    0.24460    0.89950    1.000
    C78      C        0.36200    0.18750    0.99090    1.000
    C79      C        0.22770    0.37510    0.77610    1.000
    C80      C        0.38120    0.09740    0.73920    1.000
    N9       N        0.48370    0.31420    0.97070    1.000
    N10      N        0.39610    0.32360    0.67740    1.000
    O49      O        0.56849    0.99000    0.88980    1.000
    O50      O        0.59786    0.05950    0.03860    1.000
    O51      O        0.44250    0.30750    0.70260    1.000
    O52      O        0.37530    0.35030    0.59120    1.000
    O53      O        0.51720    0.32640    0.04760    1.000
    O54      O        0.45270    0.36690    0.93110    1.000
    O55      O        0.20760    0.39700    0.68500    1.000
    O56      O        0.20690    0.38150    0.85040    1.000
    O57      O        0.34870    0.11380    0.97610    1.000
    O58      O        0.38480    0.21210    0.07690    1.000
    O59      O        0.36373    0.02690    0.75620    1.000
    O60      O        0.36255    0.13820    0.66060    1.000
    Mn9      Mn       0.12990    0.42166    0.85149    1.000
    Mn10     Mn       0.17183    0.50339    0.61392    1.000
    C81      C        0.06510    0.54680    0.95310    1.000
    C82      C        0.01870    0.60190    0.92040    1.000
    C83      C        0.02130    0.68020    0.96010    1.000
    H21      H        0.05130    0.69780    0.00680    1.000
    C84      C        0.97740    0.73300    0.92830    1.000
    C85      C        0.93040    0.70730    0.85610    1.000
    C86      C        0.92890    0.62860    0.81880    1.000
    C87      C        0.97300    0.57700    0.85050    1.000
    H22      H        0.97140    0.52490    0.82380    1.000
    C88      C        0.88020    0.75650    0.83510    1.000
    C89      C        0.86240    0.80780    0.74910    1.000
    C90      C        0.81400    0.84560    0.72880    1.000
    H23      H        0.80310    0.87780    0.67100    1.000
    C91      C        0.78170    0.83450    0.79710    1.000
    C92      C        0.79830    0.78400    0.88100    1.000
    H24      H        0.77700    0.77610    0.92570    1.000
    C93      C        0.84670    0.74460    0.89950    1.000
    C94      C        0.86200    0.68750    0.99090    1.000
    C95      C        0.72770    0.87510    0.77610    1.000
    C96      C        0.88120    0.59740    0.73920    1.000
    N11      N        0.98370    0.81420    0.97070    1.000
    N12      N        0.89610    0.82360    0.67740    1.000
    O61      O        0.06849    0.49000    0.88980    1.000
    O62      O        0.09786    0.55950    0.03860    1.000
    O63      O        0.94250    0.80750    0.70260    1.000
    O64      O        0.87530    0.85030    0.59120    1.000
    O65      O        0.01720    0.82640    0.04760    1.000
    O66      O        0.95270    0.86690    0.93110    1.000
    O67      O        0.70760    0.89700    0.68500    1.000
    O68      O        0.70690    0.88150    0.85040    1.000
    O69      O        0.84870    0.61380    0.97610    1.000
    O70      O        0.88480    0.71210    0.07690    1.000
    O71      O        0.86373    0.52690    0.75620    1.000
    O72      O        0.86255    0.63820    0.66060    1.000
    Mn11     Mn       0.62990    0.92166    0.85149    1.000
    Mn12     Mn       0.67183    0.00339    0.61392    1.000
    C97      C        0.43490    0.04680    0.54690    1.000
    C98      C        0.48130    0.10190    0.57960    1.000
    C99      C        0.47870    0.18020    0.53990    1.000
    H25      H        0.44870    0.19780    0.49320    1.000
    C100     C        0.52260    0.23300    0.57170    1.000
    C101     C        0.56960    0.20730    0.64390    1.000
    C102     C        0.57110    0.12860    0.68120    1.000
    C103     C        0.52700    0.07700    0.64950    1.000
    H26      H        0.52860    0.02490    0.67620    1.000
    C104     C        0.61980    0.25650    0.66490    1.000
    C105     C        0.63760    0.30780    0.75090    1.000
    C106     C        0.68600    0.34560    0.77120    1.000
    H27      H        0.69690    0.37780    0.82900    1.000
    C107     C        0.71830    0.33450    0.70290    1.000
    C108     C        0.70170    0.28400    0.61900    1.000
    H28      H        0.72300    0.27610    0.57430    1.000
    C109     C        0.65330    0.24460    0.60050    1.000
    C110     C        0.63800    0.18750    0.50910    1.000
    C111     C        0.77230    0.37510    0.72390    1.000
    C112     C        0.61880    0.09740    0.76080    1.000
    N13      N        0.51630    0.31420    0.52930    1.000
    N14      N        0.60390    0.32360    0.82260    1.000
    O73      O        0.43151    0.99000    0.61020    1.000
    O74      O        0.40214    0.05950    0.46140    1.000
    O75      O        0.55750    0.30750    0.79740    1.000
    O76      O        0.62470    0.35030    0.90880    1.000
    O77      O        0.48280    0.32640    0.45240    1.000
    O78      O        0.54730    0.36690    0.56890    1.000
    O79      O        0.79240    0.39700    0.81500    1.000
    O80      O        0.79310    0.38150    0.64960    1.000
    O81      O        0.65130    0.11380    0.52390    1.000
    O82      O        0.61520    0.21210    0.42310    1.000
    O83      O        0.63627    0.02690    0.74380    1.000
    O84      O        0.63745    0.13820    0.83940    1.000
    Mn13     Mn       0.87010    0.42166    0.64851    1.000
    Mn14     Mn       0.82817    0.50339    0.88608    1.000
    C113     C        0.93490    0.54680    0.54690    1.000
    C114     C        0.98130    0.60190    0.57960    1.000
    C115     C        0.97870    0.68020    0.53990    1.000
    H29      H        0.94870    0.69780    0.49320    1.000
    C116     C        0.02260    0.73300    0.57170    1.000
    C117     C        0.06960    0.70730    0.64390    1.000
    C118     C        0.07110    0.62860    0.68120    1.000
    C119     C        0.02700    0.57700    0.64950    1.000
    H30      H        0.02860    0.52490    0.67620    1.000
    C120     C        0.11980    0.75650    0.66490    1.000
    C121     C        0.13760    0.80780    0.75090    1.000
    C122     C        0.18600    0.84560    0.77120    1.000
    H31      H        0.19690    0.87780    0.82900    1.000
    C123     C        0.21830    0.83450    0.70290    1.000
    C124     C        0.20170    0.78400    0.61900    1.000
    H32      H        0.22300    0.77610    0.57430    1.000
    C125     C        0.15330    0.74460    0.60050    1.000
    C126     C        0.13800    0.68750    0.50910    1.000
    C127     C        0.27230    0.87510    0.72390    1.000
    C128     C        0.11880    0.59740    0.76080    1.000
    N15      N        0.01630    0.81420    0.52930    1.000
    N16      N        0.10390    0.82360    0.82260    1.000
    O85      O        0.93151    0.49000    0.61020    1.000
    O86      O        0.90214    0.55950    0.46140    1.000
    O87      O        0.05750    0.80750    0.79740    1.000
    O88      O        0.12470    0.85030    0.90880    1.000
    O89      O        0.98280    0.82640    0.45240    1.000
    O90      O        0.04730    0.86690    0.56890    1.000
    O91      O        0.29240    0.89700    0.81500    1.000
    O92      O        0.29310    0.88150    0.64960    1.000
    O93      O        0.15130    0.61380    0.52390    1.000
    O94      O        0.11520    0.71210    0.42310    1.000
    O95      O        0.13627    0.52690    0.74380    1.000
    O96      O        0.13745    0.63820    0.83940    1.000
    Mn15     Mn       0.37010    0.92166    0.64851    1.000
    Mn16     Mn       0.32817    0.00339    0.88608    1.000
