# CIF file generated by openbabel 3.1.0, see https://openbabel.org
data_I
_chemical_name_common 'image0'
_cell_length_a 19.0892
_cell_length_b 14.3872
_cell_length_c 30.5462
_cell_angle_alpha 90
_cell_angle_beta 90
_cell_angle_gamma 90
_space_group_name_H-M_alt 'P 1'
_space_group_name_Hall 'P 1'
loop_
    _symmetry_equiv_pos_as_xyz
    x,y,z
loop_
    _atom_site_label
    _atom_site_type_symbol
    _atom_site_fract_x
    _atom_site_fract_y
    _atom_site_fract_z
    _atom_site_occupancy
    Yb1      Yb       0.14135    0.46269    0.37020    1.000
    O1       O        0.23722    0.46930    0.41451    1.000
    O2       O        0.16678    0.61610    0.38426    1.000
    O3       O        0.02943    0.49950    0.39746    1.000
    O4       O        0.19032    0.50910    0.30225    1.000
    O5       O        0.08231    0.55310    0.31451    1.000
    O6       O        0.12145    0.34200    0.41896    1.000
    Yb2      Yb       0.18911    0.52419    0.49444    1.000
    C1       C        0.19510    0.67030    0.41049    1.000
    C2       C        0.13570    0.55630    0.29143    1.000
    C3       C        0.13660    0.31830    0.45722    1.000
    O7       O        0.16160    0.46680    0.56149    1.000
    O8       O        0.30208    0.47790    0.47338    1.000
    O9       O        0.21057    0.64850    0.45031    1.000
    O10      O        0.08936    0.52110    0.45781    1.000
    O11      O        0.16718    0.37000    0.48522    1.000
    C4       C        0.21190    0.76600    0.39520    1.000
    C5       C        0.13860    0.61790    0.25214    1.000
    C6       C        0.11680    0.22200    0.47132    1.000
    C7       C        0.23330    0.83800    0.42473    1.000
    C8       C        0.20380    0.78630    0.35160    1.000
    C9       C        0.08200    0.67310    0.24328    1.000
    C10      C        0.19910    0.62090    0.22374    1.000
    C11      C        0.09590    0.15230    0.44195    1.000
    C12      C        0.11960    0.20020    0.51556    1.000
    O12      O        0.24060    0.82080    0.46896    1.000
    C13      C        0.24810    0.92710    0.41073    1.000
    H1       H        0.18890    0.74010    0.33250    1.000
    C14      C        0.21760    0.87640    0.33530    1.000
    C15      C        0.08240    0.73480    0.20673    1.000
    H2       H        0.04280    0.67040    0.26130    1.000
    O13      O        0.25250    0.56230    0.23193    1.000
    C16      C        0.20350    0.68400    0.19017    1.000
    C17      C        0.07990    0.06470    0.45521    1.000
    O14      O        0.09097    0.17070    0.39825    1.000
    H3       H        0.13230    0.24580    0.53560    1.000
    C18      C        0.10370    0.11110    0.53048    1.000
    H4       H        0.25800    0.76930    0.47250    1.000
    C19      C        0.23840    0.94760    0.36493    1.000
    C20      C        0.26810    0.99990    0.44411    1.000
    C21      C        0.20810    0.89430    0.29045    1.000
    C22      C        0.02270    0.78460    0.19560    1.000
    C23      C        0.14350    0.73890    0.17974    1.000
    H5       H        0.24530    0.53490    0.25500    1.000
    C24      C        0.27120    0.69300    0.16358    1.000
    C25      C        0.08540    0.04000    0.50026    1.000
    C26      C        0.06100    0.99060    0.42019    1.000
    H6       H        0.09750    0.22630    0.39400    1.000
    C27      C        0.10740    0.08870    0.57585    1.000
    C28      C        0.24730    0.03870    0.34660    1.000
    C29      C        0.33670    0.99060    0.46767    1.000
    H7       H        0.26800    0.05970    0.42940    1.000
    H8       H        0.23130    0.00180    0.46600    1.000
    H9       H        0.19470    0.84700    0.27150    1.000
    C30      C        0.21880    0.98220    0.27530    1.000
    C31      C        0.02150    0.84070    0.15930    1.000
    H10      H        0.98290    0.77990    0.21310    1.000
    C32      C        0.13950    0.79760    0.14240    1.000
    C33      C        0.30990    0.78310    0.16891    1.000
    H11      H        0.25990    0.68510    0.13280    1.000
    H12      H        0.30230    0.64270    0.17180    1.000
    C34      C        0.07580    0.94800    0.51650    1.000
    C35      C        0.98890    0.00180    0.39840    1.000
    H13      H        0.09650    0.99210    0.39750    1.000
    H14      H        0.06290    0.92980    0.43380    1.000
    C36      C        0.09690    0.00220    0.59060    1.000
    H15      H        0.11740    0.13560    0.59580    1.000
    H16      H        0.26100    0.08730    0.36480    1.000
    C37      C        0.23640    0.05490    0.30460    1.000
    C38      C        0.39880    0.98970    0.44395    1.000
    C39      C        0.34230    0.99450    0.51431    1.000
    H17      H        0.21450    0.99460    0.24550    1.000
    C40      C        0.08050    0.84700    0.13390    1.000
    H18      H        0.98130    0.87390    0.15210    1.000
    H19      H        0.17770    0.80210    0.12360    1.000
    C41      C        0.31870    0.84270    0.13247    1.000
    C42      C        0.34020    0.81150    0.20833    1.000
    C43      C        0.08200    0.93100    0.56040    1.000
    H20      H        0.06540    0.89980    0.49730    1.000
    C44      C        0.92880    0.00910    0.42383    1.000
    C45      C        0.98140    0.99570    0.35223    1.000
    H21      H        0.09940    0.98930    0.62040    1.000
    H22      H        0.24030    0.11530    0.29410    1.000
    O15      O        0.39317    0.99230    0.39920    1.000
    C46      C        0.46590    0.98920    0.46441    1.000
    C47      C        0.40980    0.99650    0.53489    1.000
    C48      C        0.28250    0.99870    0.54300    1.000
    H23      H        0.08000    0.88670    0.10990    1.000
    C49      C        0.35230    0.93010    0.13583    1.000
    O16      O        0.29160    0.81420    0.09310    1.000
    C50      C        0.33960    0.75200    0.24669    1.000
    C51      C        0.37450    0.89920    0.21289    1.000
    H24      H        0.07630    0.87060    0.57060    1.000
    O17      O        0.93662    0.00760    0.46778    1.000
    C52      C        0.86140    0.01770    0.40447    1.000
    C53      C        0.91350    0.00170    0.33355    1.000
    C54      C        0.03940    0.98470    0.32280    1.000
    H25      H        0.43190    0.98440    0.38820    1.000
    C55      C        0.53160    0.98830    0.43796    1.000
    C56      C        0.46870    0.99310    0.50935    1.000
    C57      C        0.41380    0.00540    0.58136    1.000
    H26      H        0.23770    0.99560    0.53110    1.000
    C58      C        0.28960    0.00700    0.58610    1.000
    C59      C        0.37900    0.95530    0.17583    1.000
    C60      C        0.36150    0.99580    0.09818    1.000
    H27      H        0.29240    0.85770    0.07570    1.000
    H28      H        0.31900    0.69350    0.24520    1.000
    C61      C        0.36880    0.78140    0.28450    1.000
    C62      C        0.40340    0.92570    0.25400    1.000
    H29      H        0.89810    0.01110    0.47950    1.000
    C63      C        0.85490    0.01210    0.35999    1.000
    C64      C        0.79730    0.02590    0.43186    1.000
    C65      C        0.90580    0.99400    0.28620    1.000
    C66      C        0.02780    0.97570    0.27830    1.000
    H30      H        0.08490    0.98360    0.33370    1.000
    H31      H        0.51230    0.99350    0.52290    1.000
    H32      H        0.45740    0.00740    0.59480    1.000
    C67      C        0.35460    0.01110    0.60650    1.000
    H33      H        0.24940    0.01010    0.60330    1.000
    H34      H        0.40120    0.01260    0.17830    1.000
    O18      O        0.38950    0.07030    0.10354    1.000
    H35      H        0.36780    0.74170    0.30850    1.000
    C68      C        0.40050    0.86820    0.28940    1.000
    H36      H        0.42480    0.98340    0.25670    1.000
    H37      H        0.81070    0.01540    0.34730    1.000
    C69      C        0.96100    0.98070    0.26020    1.000
    H38      H        0.86140    0.99850    0.27390    1.000
    H39      H        0.06580    0.96590    0.25980    1.000
    H40      H        0.35780    0.01770    0.63670    1.000
    H41      H        0.41910    0.88640    0.31620    1.000
    H42      H        0.95490    0.97480    0.23010    1.000
    Yb3      Yb       0.85865    0.53731    0.87020    1.000
    O19      O        0.76278    0.53070    0.91451    1.000
    O20      O        0.83322    0.38390    0.88426    1.000
    O21      O        0.97057    0.50050    0.89746    1.000
    O22      O        0.80968    0.49090    0.80225    1.000
    O23      O        0.91769    0.44690    0.81451    1.000
    O24      O        0.87855    0.65800    0.91896    1.000
    Yb4      Yb       0.81089    0.47581    0.99444    1.000
    C70      C        0.80490    0.32970    0.91049    1.000
    C71      C        0.86430    0.44370    0.79143    1.000
    C72      C        0.86340    0.68170    0.95722    1.000
    O25      O        0.83840    0.53320    0.06149    1.000
    O26      O        0.69792    0.52210    0.97338    1.000
    O27      O        0.78943    0.35150    0.95031    1.000
    O28      O        0.91064    0.47890    0.95781    1.000
    O29      O        0.83282    0.63000    0.98522    1.000
    C73      C        0.78810    0.23400    0.89520    1.000
    C74      C        0.86140    0.38210    0.75214    1.000
    C75      C        0.88320    0.77800    0.97132    1.000
    C76      C        0.76670    0.16200    0.92473    1.000
    C77      C        0.79620    0.21370    0.85160    1.000
    C78      C        0.91800    0.32690    0.74328    1.000
    C79      C        0.80090    0.37910    0.72374    1.000
    C80      C        0.90410    0.84770    0.94195    1.000
    C81      C        0.88040    0.79980    0.01556    1.000
    O30      O        0.75940    0.17920    0.96896    1.000
    C82      C        0.75190    0.07290    0.91073    1.000
    H43      H        0.81110    0.25990    0.83250    1.000
    C83      C        0.78240    0.12360    0.83530    1.000
    C84      C        0.91760    0.26520    0.70673    1.000
    H44      H        0.95720    0.32960    0.76130    1.000
    O31      O        0.74750    0.43770    0.73193    1.000
    C85      C        0.79650    0.31600    0.69017    1.000
    C86      C        0.92010    0.93530    0.95521    1.000
    O32      O        0.90903    0.82930    0.89825    1.000
    H45      H        0.86770    0.75420    0.03560    1.000
    C87      C        0.89630    0.88890    0.03048    1.000
    H46      H        0.74200    0.23070    0.97250    1.000
    C88      C        0.76160    0.05240    0.86493    1.000
    C89      C        0.73190    0.00010    0.94411    1.000
    C90      C        0.79190    0.10570    0.79045    1.000
    C91      C        0.97730    0.21540    0.69560    1.000
    C92      C        0.85650    0.26110    0.67974    1.000
    H47      H        0.75470    0.46510    0.75500    1.000
    C93      C        0.72880    0.30700    0.66358    1.000
    C94      C        0.91460    0.96000    0.00026    1.000
    C95      C        0.93900    0.00940    0.92019    1.000
    H48      H        0.90250    0.77370    0.89400    1.000
    C96      C        0.89260    0.91130    0.07585    1.000
    C97      C        0.75270    0.96130    0.84660    1.000
    C98      C        0.66330    0.00940    0.96767    1.000
    H49      H        0.73200    0.94030    0.92940    1.000
    H50      H        0.76870    0.99820    0.96600    1.000
    H51      H        0.80530    0.15300    0.77150    1.000
    C99      C        0.78120    0.01780    0.77530    1.000
    C100     C        0.97850    0.15930    0.65930    1.000
    H52      H        0.01710    0.22010    0.71310    1.000
    C101     C        0.86050    0.20240    0.64240    1.000
    C102     C        0.69010    0.21690    0.66891    1.000
    H53      H        0.74010    0.31490    0.63280    1.000
    H54      H        0.69770    0.35730    0.67180    1.000
    C103     C        0.92420    0.05200    0.01650    1.000
    C104     C        0.01110    0.99820    0.89840    1.000
    H55      H        0.90350    0.00790    0.89750    1.000
    H56      H        0.93710    0.07020    0.93380    1.000
    C105     C        0.90310    0.99780    0.09060    1.000
    H57      H        0.88260    0.86440    0.09580    1.000
    H58      H        0.73900    0.91270    0.86480    1.000
    C106     C        0.76360    0.94510    0.80460    1.000
    C107     C        0.60120    0.01030    0.94395    1.000
    C108     C        0.65770    0.00550    0.01431    1.000
    H59      H        0.78550    0.00540    0.74550    1.000
    C109     C        0.91950    0.15300    0.63390    1.000
    H60      H        0.01870    0.12610    0.65210    1.000
    H61      H        0.82230    0.19790    0.62360    1.000
    C110     C        0.68130    0.15730    0.63247    1.000
    C111     C        0.65980    0.18850    0.70833    1.000
    C112     C        0.91800    0.06900    0.06040    1.000
    H62      H        0.93460    0.10020    0.99730    1.000
    C113     C        0.07120    0.99090    0.92383    1.000
    C114     C        0.01860    0.00430    0.85223    1.000
    H63      H        0.90060    0.01070    0.12040    1.000
    H64      H        0.75970    0.88470    0.79410    1.000
    O33      O        0.60683    0.00770    0.89920    1.000
    C115     C        0.53410    0.01080    0.96441    1.000
    C116     C        0.59020    0.00350    0.03489    1.000
    C117     C        0.71750    0.00130    0.04300    1.000
    H65      H        0.92000    0.11330    0.60990    1.000
    C118     C        0.64770    0.06990    0.63583    1.000
    O34      O        0.70840    0.18580    0.59310    1.000
    C119     C        0.66040    0.24800    0.74669    1.000
    C120     C        0.62550    0.10080    0.71289    1.000
    H66      H        0.92370    0.12940    0.07060    1.000
    O35      O        0.06338    0.99240    0.96778    1.000
    C121     C        0.13860    0.98230    0.90447    1.000
    C122     C        0.08650    0.99830    0.83355    1.000
    C123     C        0.96060    0.01530    0.82280    1.000
    H67      H        0.56810    0.01560    0.88820    1.000
    C124     C        0.46840    0.01170    0.93796    1.000
    C125     C        0.53130    0.00690    0.00935    1.000
    C126     C        0.58620    0.99460    0.08136    1.000
    H68      H        0.76230    0.00440    0.03110    1.000
    C127     C        0.71040    0.99300    0.08610    1.000
    C128     C        0.62100    0.04470    0.67583    1.000
    C129     C        0.63850    0.00420    0.59818    1.000
    H69      H        0.70760    0.14230    0.57570    1.000
    H70      H        0.68100    0.30650    0.74520    1.000
    C130     C        0.63120    0.21860    0.78450    1.000
    C131     C        0.59660    0.07430    0.75400    1.000
    H71      H        0.10190    0.98890    0.97950    1.000
    C132     C        0.14510    0.98790    0.85999    1.000
    C133     C        0.20270    0.97410    0.93186    1.000
    C134     C        0.09420    0.00600    0.78620    1.000
    C135     C        0.97220    0.02430    0.77830    1.000
    H72      H        0.91510    0.01640    0.83370    1.000
    H73      H        0.48770    0.00650    0.02290    1.000
    H74      H        0.54260    0.99260    0.09480    1.000
    C136     C        0.64540    0.98890    0.10650    1.000
    H75      H        0.75060    0.98990    0.10330    1.000
    H76      H        0.59880    0.98740    0.67830    1.000
    O36      O        0.61050    0.92970    0.60354    1.000
    H77      H        0.63220    0.25830    0.80850    1.000
    C137     C        0.59950    0.13180    0.78940    1.000
    H78      H        0.57520    0.01660    0.75670    1.000
    H79      H        0.18930    0.98460    0.84730    1.000
    C138     C        0.03900    0.01930    0.76020    1.000
    H80      H        0.13860    0.00150    0.77390    1.000
    H81      H        0.93420    0.03410    0.75980    1.000
    H82      H        0.64220    0.98230    0.13670    1.000
    H83      H        0.58090    0.11360    0.81620    1.000
    H84      H        0.04510    0.02520    0.73010    1.000
    Yb5      Yb       0.64135    0.03731    0.37020    1.000
    O37      O        0.73722    0.03070    0.41451    1.000
    O38      O        0.66678    0.88390    0.38426    1.000
    O39      O        0.52943    0.00050    0.39746    1.000
    O40      O        0.69032    0.99090    0.30225    1.000
    O41      O        0.58231    0.94690    0.31451    1.000
    O42      O        0.62145    0.15800    0.41896    1.000
    Yb6      Yb       0.68911    0.97581    0.49444    1.000
    C139     C        0.69510    0.82970    0.41049    1.000
    C140     C        0.63570    0.94370    0.29143    1.000
    C141     C        0.63660    0.18170    0.45722    1.000
    O43      O        0.66160    0.03320    0.56149    1.000
    O44      O        0.80208    0.02210    0.47338    1.000
    O45      O        0.71057    0.85150    0.45031    1.000
    O46      O        0.58936    0.97890    0.45781    1.000
    O47      O        0.66718    0.13000    0.48522    1.000
    C142     C        0.71190    0.73400    0.39520    1.000
    C143     C        0.63860    0.88210    0.25214    1.000
    C144     C        0.61680    0.27800    0.47132    1.000
    C145     C        0.73330    0.66200    0.42473    1.000
    C146     C        0.70380    0.71370    0.35160    1.000
    C147     C        0.58200    0.82690    0.24328    1.000
    C148     C        0.69910    0.87910    0.22374    1.000
    C149     C        0.59590    0.34770    0.44195    1.000
    C150     C        0.61960    0.29980    0.51556    1.000
    O48      O        0.74060    0.67920    0.46896    1.000
    C151     C        0.74810    0.57290    0.41073    1.000
    H85      H        0.68890    0.75990    0.33250    1.000
    C152     C        0.71760    0.62360    0.33530    1.000
    C153     C        0.58240    0.76520    0.20673    1.000
    H86      H        0.54280    0.82960    0.26130    1.000
    O49      O        0.75250    0.93770    0.23193    1.000
    C154     C        0.70350    0.81600    0.19017    1.000
    C155     C        0.57990    0.43530    0.45521    1.000
    O50      O        0.59097    0.32930    0.39825    1.000
    H87      H        0.63230    0.25420    0.53560    1.000
    C156     C        0.60370    0.38890    0.53048    1.000
    H88      H        0.75800    0.73070    0.47250    1.000
    C157     C        0.73840    0.55240    0.36493    1.000
    C158     C        0.76810    0.50010    0.44411    1.000
    C159     C        0.70810    0.60570    0.29045    1.000
    C160     C        0.52270    0.71540    0.19560    1.000
    C161     C        0.64350    0.76110    0.17974    1.000
    H89      H        0.74530    0.96510    0.25500    1.000
    C162     C        0.77120    0.80700    0.16358    1.000
    C163     C        0.58540    0.46000    0.50026    1.000
    C164     C        0.56100    0.50940    0.42019    1.000
    H90      H        0.59750    0.27370    0.39400    1.000
    C165     C        0.60740    0.41130    0.57585    1.000
    C166     C        0.74730    0.46130    0.34660    1.000
    C167     C        0.83670    0.50940    0.46767    1.000
    H91      H        0.76800    0.44030    0.42940    1.000
    H92      H        0.73130    0.49820    0.46600    1.000
    H93      H        0.69470    0.65300    0.27150    1.000
    C168     C        0.71880    0.51780    0.27530    1.000
    C169     C        0.52150    0.65930    0.15930    1.000
    H94      H        0.48290    0.72010    0.21310    1.000
    C170     C        0.63950    0.70240    0.14240    1.000
    C171     C        0.80990    0.71690    0.16891    1.000
    H95      H        0.75990    0.81490    0.13280    1.000
    H96      H        0.80230    0.85730    0.17180    1.000
    C172     C        0.57580    0.55200    0.51650    1.000
    C173     C        0.48890    0.49820    0.39840    1.000
    H97      H        0.59650    0.50790    0.39750    1.000
    H98      H        0.56290    0.57020    0.43380    1.000
    C174     C        0.59690    0.49780    0.59060    1.000
    H99      H        0.61740    0.36440    0.59580    1.000
    H100     H        0.76100    0.41270    0.36480    1.000
    C175     C        0.73640    0.44510    0.30460    1.000
    C176     C        0.89880    0.51030    0.44395    1.000
    C177     C        0.84230    0.50550    0.51431    1.000
    H101     H        0.71450    0.50540    0.24550    1.000
    C178     C        0.58050    0.65300    0.13390    1.000
    H102     H        0.48130    0.62610    0.15210    1.000
    H103     H        0.67770    0.69790    0.12360    1.000
    C179     C        0.81870    0.65730    0.13247    1.000
    C180     C        0.84020    0.68850    0.20833    1.000
    C181     C        0.58200    0.56900    0.56040    1.000
    H104     H        0.56540    0.60020    0.49730    1.000
    C182     C        0.42880    0.49090    0.42383    1.000
    C183     C        0.48140    0.50430    0.35223    1.000
    H105     H        0.59940    0.51070    0.62040    1.000
    H106     H        0.74030    0.38470    0.29410    1.000
    O51      O        0.89317    0.50770    0.39920    1.000
    C184     C        0.96590    0.51080    0.46441    1.000
    C185     C        0.90980    0.50350    0.53489    1.000
    C186     C        0.78250    0.50130    0.54300    1.000
    H107     H        0.58000    0.61330    0.10990    1.000
    C187     C        0.85230    0.56990    0.13583    1.000
    O52      O        0.79160    0.68580    0.09310    1.000
    C188     C        0.83960    0.74800    0.24669    1.000
    C189     C        0.87450    0.60080    0.21289    1.000
    H108     H        0.57630    0.62940    0.57060    1.000
    O53      O        0.43662    0.49240    0.46778    1.000
    C190     C        0.36140    0.48230    0.40447    1.000
    C191     C        0.41350    0.49830    0.33355    1.000
    C192     C        0.53940    0.51530    0.32280    1.000
    H109     H        0.93190    0.51560    0.38820    1.000
    C193     C        0.03160    0.51170    0.43796    1.000
    C194     C        0.96870    0.50690    0.50935    1.000
    C195     C        0.91380    0.49460    0.58136    1.000
    H110     H        0.73770    0.50440    0.53110    1.000
    C196     C        0.78960    0.49300    0.58610    1.000
    C197     C        0.87900    0.54470    0.17583    1.000
    C198     C        0.86150    0.50420    0.09818    1.000
    H111     H        0.79240    0.64230    0.07570    1.000
    H112     H        0.81900    0.80650    0.24520    1.000
    C199     C        0.86880    0.71860    0.28450    1.000
    C200     C        0.90340    0.57430    0.25400    1.000
    H113     H        0.39810    0.48890    0.47950    1.000
    C201     C        0.35490    0.48790    0.35999    1.000
    C202     C        0.29730    0.47410    0.43186    1.000
    C203     C        0.40580    0.50600    0.28620    1.000
    C204     C        0.52780    0.52430    0.27830    1.000
    H114     H        0.58490    0.51640    0.33370    1.000
    H115     H        0.01230    0.50650    0.52290    1.000
    H116     H        0.95740    0.49260    0.59480    1.000
    C205     C        0.85460    0.48890    0.60650    1.000
    H117     H        0.74940    0.48990    0.60330    1.000
    H118     H        0.90120    0.48740    0.17830    1.000
    O54      O        0.88950    0.42970    0.10354    1.000
    H119     H        0.86780    0.75830    0.30850    1.000
    C206     C        0.90050    0.63180    0.28940    1.000
    H120     H        0.92480    0.51660    0.25670    1.000
    H121     H        0.31070    0.48460    0.34730    1.000
    C207     C        0.46100    0.51930    0.26020    1.000
    H122     H        0.36140    0.50150    0.27390    1.000
    H123     H        0.56580    0.53410    0.25980    1.000
    H124     H        0.85780    0.48230    0.63670    1.000
    H125     H        0.91910    0.61360    0.31620    1.000
    H126     H        0.45490    0.52520    0.23010    1.000
    Yb7      Yb       0.35865    0.96269    0.87020    1.000
    O55      O        0.26278    0.96930    0.91451    1.000
    O56      O        0.33322    0.11610    0.88426    1.000
    O57      O        0.47057    0.99950    0.89746    1.000
    O58      O        0.30968    0.00910    0.80225    1.000
    O59      O        0.41769    0.05310    0.81451    1.000
    O60      O        0.37855    0.84200    0.91896    1.000
    Yb8      Yb       0.31089    0.02419    0.99444    1.000
    C208     C        0.30490    0.17030    0.91049    1.000
    C209     C        0.36430    0.05630    0.79143    1.000
    C210     C        0.36340    0.81830    0.95722    1.000
    O61      O        0.33840    0.96680    0.06149    1.000
    O62      O        0.19792    0.97790    0.97338    1.000
    O63      O        0.28943    0.14850    0.95031    1.000
    O64      O        0.41064    0.02110    0.95781    1.000
    O65      O        0.33282    0.87000    0.98522    1.000
    C211     C        0.28810    0.26600    0.89520    1.000
    C212     C        0.36140    0.11790    0.75214    1.000
    C213     C        0.38320    0.72200    0.97132    1.000
    C214     C        0.26670    0.33800    0.92473    1.000
    C215     C        0.29620    0.28630    0.85160    1.000
    C216     C        0.41800    0.17310    0.74328    1.000
    C217     C        0.30090    0.12090    0.72374    1.000
    C218     C        0.40410    0.65230    0.94195    1.000
    C219     C        0.38040    0.70020    0.01556    1.000
    O66      O        0.25940    0.32080    0.96896    1.000
    C220     C        0.25190    0.42710    0.91073    1.000
    H127     H        0.31110    0.24010    0.83250    1.000
    C221     C        0.28240    0.37640    0.83530    1.000
    C222     C        0.41760    0.23480    0.70673    1.000
    H128     H        0.45720    0.17040    0.76130    1.000
    O67      O        0.24750    0.06230    0.73193    1.000
    C223     C        0.29650    0.18400    0.69017    1.000
    C224     C        0.42010    0.56470    0.95521    1.000
    O68      O        0.40903    0.67070    0.89825    1.000
    H129     H        0.36770    0.74580    0.03560    1.000
    C225     C        0.39630    0.61110    0.03048    1.000
    H130     H        0.24200    0.26930    0.97250    1.000
    C226     C        0.26160    0.44760    0.86493    1.000
    C227     C        0.23190    0.49990    0.94411    1.000
    C228     C        0.29190    0.39430    0.79045    1.000
    C229     C        0.47730    0.28460    0.69560    1.000
    C230     C        0.35650    0.23890    0.67974    1.000
    H131     H        0.25470    0.03490    0.75500    1.000
    C231     C        0.22880    0.19300    0.66358    1.000
    C232     C        0.41460    0.54000    0.00026    1.000
    C233     C        0.43900    0.49060    0.92019    1.000
    H132     H        0.40250    0.72630    0.89400    1.000
    C234     C        0.39260    0.58870    0.07585    1.000
    C235     C        0.25270    0.53870    0.84660    1.000
    C236     C        0.16330    0.49060    0.96767    1.000
    H133     H        0.23200    0.55970    0.92940    1.000
    H134     H        0.26870    0.50180    0.96600    1.000
    H135     H        0.30530    0.34700    0.77150    1.000
    C237     C        0.28120    0.48220    0.77530    1.000
    C238     C        0.47850    0.34070    0.65930    1.000
    H136     H        0.51710    0.27990    0.71310    1.000
    C239     C        0.36050    0.29760    0.64240    1.000
    C240     C        0.19010    0.28310    0.66891    1.000
    H137     H        0.24010    0.18510    0.63280    1.000
    H138     H        0.19770    0.14270    0.67180    1.000
    C241     C        0.42420    0.44800    0.01650    1.000
    C242     C        0.51110    0.50180    0.89840    1.000
    H139     H        0.40350    0.49210    0.89750    1.000
    H140     H        0.43710    0.42980    0.93380    1.000
    C243     C        0.40310    0.50220    0.09060    1.000
    H141     H        0.38260    0.63560    0.09580    1.000
    H142     H        0.23900    0.58730    0.86480    1.000
    C244     C        0.26360    0.55490    0.80460    1.000
    C245     C        0.10120    0.48970    0.94395    1.000
    C246     C        0.15770    0.49450    0.01431    1.000
    H143     H        0.28550    0.49460    0.74550    1.000
    C247     C        0.41950    0.34700    0.63390    1.000
    H144     H        0.51870    0.37390    0.65210    1.000
    H145     H        0.32230    0.30210    0.62360    1.000
    C248     C        0.18130    0.34270    0.63247    1.000
    C249     C        0.15980    0.31150    0.70833    1.000
    C250     C        0.41800    0.43100    0.06040    1.000
    H146     H        0.43460    0.39980    0.99730    1.000
    C251     C        0.57120    0.50910    0.92383    1.000
    C252     C        0.51860    0.49570    0.85223    1.000
    H147     H        0.40060    0.48930    0.12040    1.000
    H148     H        0.25970    0.61530    0.79410    1.000
    O69      O        0.10683    0.49230    0.89920    1.000
    C253     C        0.03410    0.48920    0.96441    1.000
    C254     C        0.09020    0.49650    0.03489    1.000
    C255     C        0.21750    0.49870    0.04300    1.000
    H149     H        0.42000    0.38670    0.60990    1.000
    C256     C        0.14770    0.43010    0.63583    1.000
    O70      O        0.20840    0.31420    0.59310    1.000
    C257     C        0.16040    0.25200    0.74669    1.000
    C258     C        0.12550    0.39920    0.71289    1.000
    H150     H        0.42370    0.37060    0.07060    1.000
    O71      O        0.56338    0.50760    0.96778    1.000
    C259     C        0.63860    0.51770    0.90447    1.000
    C260     C        0.58650    0.50170    0.83355    1.000
    C261     C        0.46060    0.48470    0.82280    1.000
    H151     H        0.06810    0.48440    0.88820    1.000
    C262     C        0.96840    0.48830    0.93796    1.000
    C263     C        0.03130    0.49310    0.00935    1.000
    C264     C        0.08620    0.50540    0.08136    1.000
    H152     H        0.26230    0.49560    0.03110    1.000
    C265     C        0.21040    0.50700    0.08610    1.000
    C266     C        0.12100    0.45530    0.67583    1.000
    C267     C        0.13850    0.49580    0.59818    1.000
    H153     H        0.20760    0.35770    0.57570    1.000
    H154     H        0.18100    0.19350    0.74520    1.000
    C268     C        0.13120    0.28140    0.78450    1.000
    C269     C        0.09660    0.42570    0.75400    1.000
    H155     H        0.60190    0.51110    0.97950    1.000
    C270     C        0.64510    0.51210    0.85999    1.000
    C271     C        0.70270    0.52590    0.93186    1.000
    C272     C        0.59420    0.49400    0.78620    1.000
    C273     C        0.47220    0.47570    0.77830    1.000
    H156     H        0.41510    0.48360    0.83370    1.000
    H157     H        0.98770    0.49350    0.02290    1.000
    H158     H        0.04260    0.50740    0.09480    1.000
    C274     C        0.14540    0.51110    0.10650    1.000
    H159     H        0.25060    0.51010    0.10330    1.000
    H160     H        0.09880    0.51260    0.67830    1.000
    O72      O        0.11050    0.57030    0.60354    1.000
    H161     H        0.13220    0.24170    0.80850    1.000
    C275     C        0.09950    0.36820    0.78940    1.000
    H162     H        0.07520    0.48340    0.75670    1.000
    H163     H        0.68930    0.51540    0.84730    1.000
    C276     C        0.53900    0.48070    0.76020    1.000
    H164     H        0.63860    0.49850    0.77390    1.000
    H165     H        0.43420    0.46590    0.75980    1.000
    H166     H        0.14220    0.51770    0.13670    1.000
    H167     H        0.08090    0.38640    0.81620    1.000
    H168     H        0.54510    0.47480    0.73010    1.000
