# CIF file generated by openbabel 3.1.0, see https://openbabel.org
data_I
_chemical_name_common 'image0'
_cell_length_a 19.53
_cell_length_b 9.564
_cell_length_c 6.852
_cell_angle_alpha 90
_cell_angle_beta 110.75
_cell_angle_gamma 90
_space_group_name_H-M_alt 'P 1'
_space_group_name_Hall 'P 1'
loop_
    _symmetry_equiv_pos_as_xyz
    x,y,z
loop_
    _atom_site_label
    _atom_site_type_symbol
    _atom_site_fract_x
    _atom_site_fract_y
    _atom_site_fract_z
    _atom_site_occupancy
    Ca1      Ca       0.48050    0.10580    0.23090    1.000
    O1       O        0.57800    0.25600    0.16900    1.000
    O2       O        0.57500    0.25600    0.48100    1.000
    C1       C        0.60500    0.29100    0.35000    1.000
    C2       C        0.67400    0.37300    0.42300    1.000
    C3       C        0.70800    0.40300    0.28400    1.000
    O3       O        0.67100    0.40900    0.06400    1.000
    O4       O        0.67100    0.40900    0.77400    1.000
    C4       C        0.77400    0.47200    0.34300    1.000
    C5       C        0.80700    0.52000    0.55900    1.000
    N1       N        0.37800    0.91700    0.12600    1.000
    C6       C        0.77600    0.48400    0.70300    1.000
    C7       C        0.70700    0.41100    0.63400    1.000
    O5       O        0.44700    0.08800    0.54000    1.000
    O6       O        0.44600    0.08300    0.85100    1.000
    C8       C        0.42700    0.13900    0.67700    1.000
    C9       C        0.37400    0.26700    0.62500    1.000
    Ca2      Ca       0.01950    0.60580    0.26910    1.000
    O7       O        0.92200    0.75600    0.33100    1.000
    O8       O        0.92500    0.75600    0.01900    1.000
    C10      C        0.89500    0.79100    0.15000    1.000
    C11      C        0.82600    0.87300    0.07700    1.000
    C12      C        0.79200    0.90300    0.21600    1.000
    O9       O        0.82900    0.90900    0.43600    1.000
    O10      O        0.82900    0.90900    0.72600    1.000
    C13      C        0.72600    0.97200    0.15700    1.000
    C14      C        0.69300    0.02000    0.94100    1.000
    N2       N        0.12200    0.41700    0.37400    1.000
    C15      C        0.72400    0.98400    0.79700    1.000
    C16      C        0.79300    0.91100    0.86600    1.000
    O11      O        0.05300    0.58800    0.96000    1.000
    O12      O        0.05400    0.58300    0.64900    1.000
    C17      C        0.07300    0.63900    0.82300    1.000
    C18      C        0.12600    0.76700    0.87500    1.000
    Ca3      Ca       0.51950    0.89420    0.76910    1.000
    O13      O        0.42200    0.74400    0.83100    1.000
    O14      O        0.42500    0.74400    0.51900    1.000
    C19      C        0.39500    0.70900    0.65000    1.000
    C20      C        0.32600    0.62700    0.57700    1.000
    C21      C        0.29200    0.59700    0.71600    1.000
    O15      O        0.32900    0.59100    0.93600    1.000
    O16      O        0.32900    0.59100    0.22600    1.000
    C22      C        0.22600    0.52800    0.65700    1.000
    C23      C        0.19300    0.48000    0.44100    1.000
    N3       N        0.62200    0.08300    0.87400    1.000
    C24      C        0.22400    0.51600    0.29700    1.000
    C25      C        0.29300    0.58900    0.36600    1.000
    O17      O        0.55300    0.91200    0.46000    1.000
    O18      O        0.55400    0.91700    0.14900    1.000
    C26      C        0.57300    0.86100    0.32300    1.000
    C27      C        0.62600    0.73300    0.37500    1.000
    Ca4      Ca       0.98050    0.39420    0.73090    1.000
    O19      O        0.07800    0.24400    0.66900    1.000
    O20      O        0.07500    0.24400    0.98100    1.000
    C28      C        0.10500    0.20900    0.85000    1.000
    C29      C        0.17400    0.12700    0.92300    1.000
    C30      C        0.20800    0.09700    0.78400    1.000
    O21      O        0.17100    0.09100    0.56400    1.000
    O22      O        0.17100    0.09100    0.27400    1.000
    C31      C        0.27400    0.02800    0.84300    1.000
    C32      C        0.30700    0.98000    0.05900    1.000
    N4       N        0.87800    0.58300    0.62600    1.000
    C33      C        0.27600    0.01600    0.20300    1.000
    C34      C        0.20700    0.08900    0.13400    1.000
    O23      O        0.94700    0.41200    0.04000    1.000
    O24      O        0.94600    0.41700    0.35100    1.000
    C35      C        0.92700    0.36100    0.17700    1.000
    C36      C        0.87400    0.23300    0.12500    1.000
