data_functionalizedCrystal
_audit_creation_method	'EQeq! by Chris Wilmer'
_symmetry_space_group_name_H-M	'P1'
_symmetry_Int_Tables_number	1
_symmetry_cell_setting	triclinic
loop_
_symmetry_equiv_pos_as_xyz
  x,y,z
_cell_length_a	14.0147
_cell_length_b	18.3152
_cell_length_c	7.863
_cell_angle_alpha	90
_cell_angle_beta	105.464
_cell_angle_gamma	90
loop_
_atom_site_label
_atom_site_type_symbol
_atom_site_fract_x
_atom_site_fract_y
_atom_site_fract_z
_atom_site_charge
Mof_Cd	Cd	0.81811	0.44108	0.22793	0.451
Mof_C 	C 	0.8632	0.6875	0.2223	-0.062
Mof_C 	C 	0.9327	0.7392	0.2117	0.006
Mof_H 	H 	0.9926	0.7252	0.1921	0.073
Mof_C 	C 	0.9123	0.8131	0.2306	-0.062
Mof_C 	C 	0.8222	0.834	0.2514	-0.02
Mof_H 	H 	0.8084	0.8834	0.2584	0.054
Mof_C 	C 	0.7504	0.7821	0.2621	-0.016
Mof_C 	C 	0.7737	0.7084	0.2495	-0.025
Mof_H 	H 	0.7282	0.6728	0.2595	0.055
Mof_C 	C 	0.8853	0.6071	0.1964	0.327
Mof_C 	C 	0.9916	0.8685	0.2354	0.33
Mof_C 	C 	0.6509	0.8052	0.2785	0.076
Mof_C 	C 	0.639	0.8697	0.3668	-0.127
Mof_H 	H 	0.6944	0.8973	0.4211	0.09
Mof_C 	C 	0.5473	0.8926	0.3748	0.049
Mof_H 	H 	0.5413	0.9357	0.4338	0.046
Mof_C 	C 	0.4628	0.8523	0.2955	-0.115
Mof_C 	C 	0.4764	0.7866	0.2115	0.053
Mof_H 	H 	0.4218	0.7573	0.1629	0.032
Mof_C 	C 	0.5669	0.765	0.1993	-0.131
Mof_H 	H 	0.5726	0.7228	0.1372	0.082
Mof_C 	C 	0.3626	0.8791	0.2984	0.349
Mof_O 	O 	0.8268	0.5619	0.229	-0.297
Mof_O 	O 	0.9584	0.5938	0.1411	-0.284
Mof_O 	O 	0.0772	0.8449	0.2372	-0.292
Mof_O 	O 	0.9738	0.9352	0.2432	-0.269
Mof_O 	O 	0.3522	0.9399	0.3532	-0.286
Mof_O 	O 	0.2904	0.8416	0.2352	-0.273
Mof_Cd	Cd	0.18189	0.94108	0.27207	0.448
Mof_C 	C 	0.1368	0.1875	0.2777	-0.064
Mof_C 	C 	0.0673	0.2392	0.2883	-0.005
Mof_H 	H 	0.0074	0.2252	0.3079	0.06
Mof_C 	C 	0.0877	0.3131	0.2694	-0.049
Mof_C 	C 	0.1778	0.334	0.2486	-0.029
Mof_H 	H 	0.1916	0.3834	0.2416	0.053
Mof_C 	C 	0.2496	0.2821	0.2379	-0.014
Mof_C 	C 	0.2263	0.2084	0.2505	-0.026
Mof_H 	H 	0.2718	0.1728	0.2405	0.054
Mof_C 	C 	0.1147	0.1071	0.3036	0.33
Mof_C 	C 	0.0084	0.3685	0.2646	0.258
Mof_C 	C 	0.3491	0.3052	0.2215	0.074
Mof_C 	C 	0.361	0.3697	0.1332	-0.13
Mof_H 	H 	0.3056	0.3973	0.0789	0.083
Mof_C 	C 	0.4527	0.3926	0.1252	0.048
Mof_H 	H 	0.4587	0.4357	0.0662	0.035
Mof_C 	C 	0.5372	0.3523	0.2045	-0.118
Mof_C 	C 	0.5236	0.2866	0.2885	0.054
Mof_H 	H 	0.5782	0.2573	0.3371	0.036
Mof_C 	C 	0.4331	0.265	0.3007	-0.132
Mof_H 	H 	0.4274	0.2228	0.3628	0.086
Mof_C 	C 	0.6374	0.3791	0.2016	0.349
Mof_O 	O 	0.1732	0.0619	0.271	-0.313
Mof_O 	O 	0.0416	0.0938	0.3589	-0.307
Mof_O 	O 	0.9228	0.3449	0.2628	-0.227
Mof_O 	O 	0.0262	0.4352	0.2568	-0.285
Mof_O 	O 	0.6478	0.4399	0.1468	-0.297
Mof_O 	O 	0.7096	0.3416	0.2648	-0.268
Mof_Cd	Cd	0.18189	0.55892	0.77207	0.443
Mof_C 	C 	0.1368	0.3125	0.7777	-0.055
Mof_C 	C 	0.0673	0.2608	0.7883	-0.005
Mof_H 	H 	0.0074	0.2748	0.8079	0.066
Mof_C 	C 	0.0877	0.1869	0.7694	-0.043
Mof_C 	C 	0.1778	0.166	0.7486	-0.028
Mof_H 	H 	0.1916	0.1166	0.7416	0.055
Mof_C 	C 	0.2496	0.2179	0.7379	-0.008
Mof_C 	C 	0.2263	0.2916	0.7505	-0.027
Mof_H 	H 	0.2718	0.3272	0.7405	0.06
Mof_C 	C 	0.1147	0.3929	0.8036	0.328
Mof_C 	C 	0.0084	0.1315	0.7646	0.261
Mof_C 	C 	0.3491	0.1948	0.7215	0.078
Mof_C 	C 	0.361	0.1303	0.6332	-0.129
Mof_H 	H 	0.3056	0.1027	0.5789	0.086
Mof_C 	C 	0.4527	0.1074	0.6252	0.051
Mof_H 	H 	0.4587	0.0643	0.5662	0.035
Mof_C 	C 	0.5372	0.1477	0.7045	-0.116
Mof_C 	C 	0.5236	0.2134	0.7885	0.057
Mof_H 	H 	0.5782	0.2427	0.8371	0.04
Mof_C 	C 	0.4331	0.235	0.8007	-0.13
Mof_H 	H 	0.4274	0.2772	0.8628	0.092
Mof_C 	C 	0.6374	0.1209	0.7016	0.351
Mof_O 	O 	0.1732	0.4381	0.771	-0.297
Mof_O 	O 	0.0416	0.4062	0.8589	-0.293
Mof_O 	O 	0.9228	0.1551	0.7628	-0.224
Mof_O 	O 	0.0262	0.0648	0.7568	-0.285
Mof_O 	O 	0.6478	0.0601	0.6468	-0.298
Mof_O 	O 	0.7096	0.1584	0.7648	-0.264
Mof_Cd	Cd	0.81811	0.05892	0.72793	0.447
Mof_C 	C 	0.8632	0.8125	0.7223	-0.053
Mof_C 	C 	0.9327	0.7608	0.7117	0.005
Mof_H 	H 	0.9926	0.7748	0.6921	0.078
Mof_C 	C 	0.9123	0.6869	0.7306	-0.056
Mof_C 	C 	0.8222	0.666	0.7514	-0.019
Mof_H 	H 	0.8084	0.6166	0.7584	0.055
Mof_C 	C 	0.7504	0.7179	0.7621	-0.01
Mof_C 	C 	0.7737	0.7916	0.7495	-0.026
Mof_H 	H 	0.7282	0.8272	0.7595	0.061
Mof_C 	C 	0.8853	0.8929	0.6964	0.325
Mof_C 	C 	0.9916	0.6315	0.7354	0.331
Mof_C 	C 	0.6509	0.6948	0.7785	0.08
Mof_C 	C 	0.639	0.6303	0.8668	-0.126
Mof_H 	H 	0.6944	0.6027	0.9211	0.093
Mof_C 	C 	0.5473	0.6074	0.8748	0.051
Mof_H 	H 	0.5413	0.5643	0.9338	0.045
Mof_C 	C 	0.4628	0.6477	0.7955	-0.113
Mof_C 	C 	0.4764	0.7134	0.7115	0.056
Mof_H 	H 	0.4218	0.7427	0.6629	0.037
Mof_C 	C 	0.5669	0.735	0.6993	-0.13
Mof_H 	H 	0.5726	0.7772	0.6372	0.088
Mof_C 	C 	0.3626	0.6209	0.7984	0.35
Mof_O 	O 	0.8268	0.9381	0.729	-0.282
Mof_O 	O 	0.9584	0.9062	0.6411	-0.27
Mof_O 	O 	0.0772	0.6551	0.7372	-0.288
Mof_O 	O 	0.9738	0.5648	0.7432	-0.27
Mof_O 	O 	0.3522	0.5601	0.8532	-0.287
Mof_O 	O 	0.2904	0.6584	0.7352	-0.269
Mof_Cd	Cd	6.48859e-33	0.5	-0	0.389
Mof_Cd	Cd	-1.4611e-17	0	0.5	0.389
_end
