data_functionalizedCrystal
_audit_creation_method	'EQeq! by Chris Wilmer'
_symmetry_space_group_name_H-M	'P1'
_symmetry_Int_Tables_number	1
_symmetry_cell_setting	triclinic
loop_
_symmetry_equiv_pos_as_xyz
  x,y,z
_cell_length_a	10.001
_cell_length_b	15.5508
_cell_length_c	15.5508
_cell_angle_alpha	84.065
_cell_angle_beta	71.2428
_cell_angle_gamma	71.2427
loop_
_atom_site_label
_atom_site_type_symbol
_atom_site_fract_x
_atom_site_fract_y
_atom_site_fract_z
_atom_site_charge
Mof_Cu	Cu	0.12874	0.26113	0.99859	0.89
Mof_Cu	Cu	0.38846	0.73887	0.00141	0.893
Mof_Cu	Cu	0.37733	0.50141	0.76113	0.897
Mof_Cu	Cu	0.63987	0.49859	0.23887	0.898
Mof_Cu	Cu	0.38846	0.00141	0.73887	0.892
Mof_Cu	Cu	0.12874	0.99859	0.26113	0.889
Mof_Cu	Cu	0.63987	0.23887	0.49859	0.898
Mof_Cu	Cu	0.37733	0.76113	0.50141	0.897
Mof_H 	H 	0.8501	0.2055	0.0155	0.135
Mof_H 	H 	0.9471	0.3313	0.8595	0.23
Mof_H 	H 	0.8978	0.4816	0.3076	0.124
Mof_H 	H 	0.2486	0.3134	0.141	0.132
Mof_H 	H 	0.0711	0.7945	0.9845	0.127
Mof_H 	H 	0.1379	0.6687	0.1405	0.102
Mof_H 	H 	0.687	0.5184	0.6924	0.164
Mof_H 	H 	0.703	0.6866	0.859	0.164
Mof_H 	H 	0.1156	0.4845	0.7055	0.142
Mof_H 	H 	0.0566	0.6405	0.8313	0.083
Mof_H 	H 	0.4554	0.1924	0.9816	0.157
Mof_H 	H 	0.6396	0.359	0.8134	0.157
Mof_H 	H 	0.3056	0.5155	0.2945	0.157
Mof_H 	H 	0.5284	0.3595	0.1687	0.119
Mof_H 	H 	0.6294	0.8076	0.0184	0.154
Mof_H 	H 	0.812	0.641	0.1866	0.163
Mof_H 	H 	0.0711	0.9845	0.7945	0.127
Mof_H 	H 	0.1379	0.1405	0.6687	0.102
Mof_H 	H 	0.687	0.6924	0.5184	0.164
Mof_H 	H 	0.703	0.859	0.6866	0.164
Mof_H 	H 	0.8501	0.0155	0.2055	0.135
Mof_H 	H 	0.9471	0.8595	0.3313	0.23
Mof_H 	H 	0.8978	0.3076	0.4816	0.124
Mof_H 	H 	0.2486	0.141	0.3134	0.132
Mof_H 	H 	0.3056	0.2945	0.5155	0.157
Mof_H 	H 	0.5284	0.1687	0.3595	0.119
Mof_H 	H 	0.6294	0.0184	0.8076	0.154
Mof_H 	H 	0.812	0.1866	0.641	0.163
Mof_H 	H 	0.1156	0.7055	0.4845	0.142
Mof_H 	H 	0.0566	0.8313	0.6405	0.083
Mof_H 	H 	0.4554	0.9816	0.1924	0.157
Mof_H 	H 	0.6396	0.8134	0.359	0.157
Mof_C 	C 	0.89432	0.16893	0.05623	-0.041
Mof_C 	C 	0.01804	0.27664	0.83668	-0.263
Mof_C 	C 	0.91949	0.38922	0.1282	0.309
Mof_C 	C 	0.94086	0.44668	0.255	-0.015
Mof_C 	C 	0.0877	0.4022	0.2288	0.279
Mof_C 	C 	0.1485	0.3467	0.1563	-0.114
Mof_C 	C 	0.11948	0.83107	0.94377	-0.108
Mof_C 	C 	0.13136	0.72336	0.16332	-0.115
Mof_C 	C 	0.43691	0.61078	0.8718	0.236
Mof_C 	C 	0.64254	0.55332	0.745	-0.166
Mof_C 	C 	0.7187	0.5978	0.7712	0.425
Mof_C 	C 	0.6515	0.6533	0.8437	-0.166
Mof_C 	C 	0.20055	0.44377	0.66893	-0.153
Mof_C 	C 	0.10472	0.66332	0.77664	-0.074
Mof_C 	C 	0.29769	0.3718	0.88922	0.236
Mof_C 	C 	0.44586	0.245	0.94668	-0.164
Mof_C 	C 	0.5665	0.2712	0.9022	0.418
Mof_C 	C 	0.5548	0.3437	0.8467	-0.166
Mof_C 	C 	0.31325	0.55623	0.33107	-0.155
Mof_C 	C 	0.54468	0.33668	0.22336	-0.115
Mof_C 	C 	0.55871	0.6282	0.11078	0.235
Mof_C 	C 	0.63754	0.755	0.05332	-0.164
Mof_C 	C 	0.7399	0.7288	0.0978	0.423
Mof_C 	C 	0.7452	0.6563	0.1533	-0.164
Mof_C 	C 	0.11948	0.94377	0.83107	-0.108
Mof_C 	C 	0.13136	0.16332	0.72336	-0.115
Mof_C 	C 	0.43691	0.8718	0.61078	0.236
Mof_C 	C 	0.64254	0.745	0.55332	-0.166
Mof_C 	C 	0.7187	0.7712	0.5978	0.425
Mof_C 	C 	0.6515	0.8437	0.6533	-0.166
Mof_C 	C 	0.89432	0.05623	0.16893	-0.041
Mof_C 	C 	0.01804	0.83668	0.27664	-0.263
Mof_C 	C 	0.91949	0.1282	0.38922	0.309
Mof_C 	C 	0.94086	0.255	0.44668	-0.015
Mof_C 	C 	0.0877	0.2288	0.4022	0.279
Mof_C 	C 	0.1485	0.1563	0.3467	-0.114
Mof_C 	C 	0.31325	0.33107	0.55623	-0.155
Mof_C 	C 	0.54468	0.22336	0.33668	-0.115
Mof_C 	C 	0.55871	0.11078	0.6282	0.235
Mof_C 	C 	0.63754	0.05332	0.755	-0.164
Mof_C 	C 	0.7399	0.0978	0.7288	0.423
Mof_C 	C 	0.7452	0.1533	0.6563	-0.164
Mof_C 	C 	0.20055	0.66893	0.44377	-0.153
Mof_C 	C 	0.10472	0.77664	0.66332	-0.074
Mof_C 	C 	0.29769	0.88922	0.3718	0.236
Mof_C 	C 	0.44586	0.94668	0.245	-0.164
Mof_C 	C 	0.5665	0.9022	0.2712	0.418
Mof_C 	C 	0.5548	0.8467	0.3437	-0.166
Mof_C 	C 	0.0834	0.124	0.124	0.22
Mof_C 	C 	0.8336	0.1057	0.1057	0.357
Mof_C 	C 	0.3314	0.876	0.876	0.231
Mof_C 	C 	0.045	0.8943	0.8943	0.308
Mof_C 	C 	0.4574	0.376	0.624	0.226
Mof_C 	C 	0.1893	0.3943	0.6057	0.409
Mof_C 	C 	0.4574	0.624	0.376	0.226
Mof_C 	C 	0.1893	0.6057	0.3943	0.409
Mof_C 	C 	0.2165	0.1523	0.8477	0.227
Mof_C 	C 	0.0225	0.2425	0.7575	0.367
Mof_C 	C 	0.2165	0.8477	0.1523	0.227
Mof_C 	C 	0.0225	0.7575	0.2425	0.367
Mof_C 	C 	0.3142	0.6523	0.6523	0.236
Mof_C 	C 	0.03	0.7425	0.7425	0.285
Mof_C 	C 	0.6188	0.3477	0.3477	0.236
Mof_C 	C 	0.515	0.2575	0.2575	0.396
Mof_N 	N 	0.01626	0.17905	0.06543	-0.251
Mof_N 	N 	0.11253	0.23317	0.88077	-0.182
Mof_N 	N 	0.06758	0.3385	0.10614	-0.249
Mof_N 	N 	0.85673	0.44044	0.2049	-0.226
Mof_N 	N 	0.26074	0.82095	0.93457	-0.201
Mof_N 	N 	0.22647	0.76683	0.11923	-0.2
Mof_N 	N 	0.51222	0.6615	0.89386	-0.189
Mof_N 	N 	0.50207	0.55956	0.7951	-0.197
Mof_N 	N 	0.33169	0.43457	0.67905	-0.195
Mof_N 	N 	0.2433	0.61923	0.73317	-0.21
Mof_N 	N 	0.42372	0.39386	0.8385	-0.193
Mof_N 	N 	0.31163	0.2951	0.94044	-0.199
Mof_N 	N 	0.44531	0.56543	0.32095	-0.194
Mof_N 	N 	0.5957	0.38077	0.26683	-0.198
Mof_N 	N 	0.65608	0.60614	0.1615	-0.192
Mof_N 	N 	0.54717	0.7049	0.05956	-0.199
Mof_N 	N 	0.26074	0.93457	0.82095	-0.201
Mof_N 	N 	0.22647	0.11923	0.76683	-0.2
Mof_N 	N 	0.51222	0.89386	0.6615	-0.189
Mof_N 	N 	0.50207	0.7951	0.55956	-0.197
Mof_N 	N 	0.01626	0.06543	0.17905	-0.251
Mof_N 	N 	0.11253	0.88077	0.23317	-0.182
Mof_N 	N 	0.06758	0.10614	0.3385	-0.249
Mof_N 	N 	0.85673	0.2049	0.44044	-0.226
Mof_N 	N 	0.44531	0.32095	0.56543	-0.194
Mof_N 	N 	0.5957	0.26683	0.38077	-0.198
Mof_N 	N 	0.65608	0.1615	0.60614	-0.192
Mof_N 	N 	0.54717	0.05956	0.7049	-0.199
Mof_N 	N 	0.33169	0.67905	0.43457	-0.195
Mof_N 	N 	0.2433	0.73317	0.61923	-0.21
Mof_N 	N 	0.42372	0.8385	0.39386	-0.193
Mof_N 	N 	0.31163	0.94044	0.2951	-0.199
Mof_O 	O 	0.84646	0.3847	0.07898	-0.282
Mof_O 	O 	0.31014	0.6153	0.92102	-0.284
Mof_O 	O 	0.17544	0.42102	0.8847	-0.299
Mof_O 	O 	0.48116	0.57898	0.1153	-0.283
Mof_O 	O 	0.31014	0.92102	0.6153	-0.284
Mof_O 	O 	0.84646	0.07898	0.3847	-0.282
Mof_O 	O 	0.48116	0.1153	0.57898	-0.283
Mof_O 	O 	0.17544	0.8847	0.42102	-0.299
Mof_O 	O 	0.20249	0.12891	0.12891	-0.272
Mof_O 	O 	0.46031	0.87109	0.87109	-0.258
Mof_O 	O 	0.5814	0.37109	0.62891	-0.261
Mof_O 	O 	0.5814	0.62891	0.37109	-0.261
Mof_O 	O 	0.3009	0.1089	0.8911	-0.286
Mof_O 	O 	0.3009	0.8911	0.1089	-0.286
Mof_O 	O 	0.442	0.6089	0.6089	-0.281
Mof_O 	O 	0.6598	0.3911	0.3911	-0.279
Mof_F 	F 	0.172	0.41166	0.27754	-0.41
Mof_F 	F 	0.8612	0.58834	0.72246	-0.392
Mof_F 	F 	0.69954	0.22246	0.91166	-0.409
Mof_F 	F 	0.83366	0.77754	0.08834	-0.401
Mof_F 	F 	0.8612	0.72246	0.58834	-0.392
Mof_F 	F 	0.172	0.27754	0.41166	-0.41
Mof_F 	F 	0.83366	0.08834	0.77754	-0.401
Mof_F 	F 	0.69954	0.91166	0.22246	-0.409
Mof_F 	F 	0.7114	0.0952	0.0952	-0.382
Mof_F 	F 	0.9018	0.9048	0.9048	-0.318
Mof_F 	F 	0.0566	0.4048	0.5952	-0.424
Mof_F 	F 	0.0566	0.5952	0.4048	-0.424
Mof_F 	F 	0.9235	0.28602	0.71398	-0.375
Mof_F 	F 	0.9235	0.71398	0.28602	-0.375
Mof_F 	F 	0.88748	0.78602	0.78602	-0.358
Mof_F 	F 	0.45952	0.21398	0.21398	-0.427
_end
