data_functionalizedCrystal
_audit_creation_method	'EQeq! by Chris Wilmer'
_symmetry_space_group_name_H-M	'P1'
_symmetry_Int_Tables_number	1
_symmetry_cell_setting	triclinic
loop_
_symmetry_equiv_pos_as_xyz
  x,y,z
_cell_length_a	9.3228
_cell_length_b	19.2649
_cell_length_c	24.211
_cell_angle_alpha	87.3298
_cell_angle_beta	78.8994
_cell_angle_gamma	75.9975
loop_
_atom_site_label
_atom_site_type_symbol
_atom_site_fract_x
_atom_site_fract_y
_atom_site_fract_z
_atom_site_charge
Mof_Cu	Cu	0.59182	0.24495	0.54129	0.826
Mof_Cu	Cu	0.49675	0.09832	0.62586	0.828
Mof_Cu	Cu	0.35369	0.27202	0.67684	0.804
Mof_Cu	Cu	0.62194	0.74495	0.04129	0.825
Mof_Cu	Cu	0.77907	0.59832	0.12586	0.827
Mof_Cu	Cu	0.69745	0.77202	0.17684	0.804
Mof_H 	H 	0.8205	0.0301	0.2005	0.055
Mof_H 	H 	0.8509	0.1318	0.239	0.072
Mof_H 	H 	0.1754	0.0127	0.3139	0.051
Mof_H 	H 	0.1334	0.9117	0.2801	0.04
Mof_H 	H 	0.7388	0.9159	0.2137	-0.016
Mof_H 	H 	0.0473	0.7394	0.1758	-0.003
Mof_H 	H 	0.3827	0.1497	0.5065	-0.028
Mof_H 	H 	0.1423	0.1068	0.649	0.011
Mof_H 	H 	0.9904	0.1106	0.5772	0.03
Mof_H 	H 	0.0055	0.0656	0.4816	0.065
Mof_H 	H 	0.2499	0.2105	0.4333	0.064
Mof_H 	H 	0.1947	0.21	0.3436	0.069
Mof_H 	H 	0.9137	0.0847	0.4001	0.062
Mof_H 	H 	0.0469	0.4772	0.0598	0.021
Mof_H 	H 	0.7926	0.4636	0.2076	-0.018
Mof_H 	H 	0.1468	0.3604	0.1008	0.037
Mof_H 	H 	0.8513	0.3779	0.2745	0.064
Mof_H 	H 	0.1226	0.2617	0.1465	0.092
Mof_H 	H 	0.1518	0.163	0.204	0.066
Mof_H 	H 	0.8798	0.2775	0.3335	0.071
Mof_H 	H 	0.1724	0.8281	0.1979	0.022
Mof_H 	H 	0.9489	0.5301	0.7005	0.055
Mof_H 	H 	0.7783	0.6318	0.739	0.072
Mof_H 	H 	0.498	0.5127	0.8139	0.051
Mof_H 	H 	0.6748	0.4117	0.7801	0.04
Mof_H 	H 	0.1316	0.4159	0.7137	-0.016
Mof_H 	H 	0.0375	0.2394	0.6758	-0.002
Mof_H 	H 	0.9611	0.6497	0.0065	-0.029
Mof_H 	H 	0.1019	0.6068	0.149	0.011
Mof_H 	H 	0.3218	0.6106	0.0772	0.03
Mof_H 	H 	0.4473	0.5656	0.9816	0.066
Mof_H 	H 	0.1063	0.7105	0.9333	0.065
Mof_H 	H 	0.2517	0.71	0.8436	0.069
Mof_H 	H 	0.6015	0.5847	0.9001	0.062
Mof_H 	H 	0.4161	0.9772	0.5598	0.021
Mof_H 	H 	0.5362	0.9636	0.7076	-0.018
Mof_H 	H 	0.392	0.8604	0.6008	0.037
Mof_H 	H 	0.4963	0.8779	0.7745	0.064
Mof_H 	H 	0.4692	0.7617	0.6465	0.092
Mof_H 	H 	0.4812	0.663	0.704	0.066
Mof_H 	H 	0.5092	0.7775	0.8335	0.071
Mof_H 	H 	0.8016	0.3281	0.6979	0.021
Mof_W 	W 	0.63553	0.20062	0.64282	0.246
Mof_W 	W 	0.52103	0.70062	0.14282	0.246
Mof_C 	C 	0.0072	0.0827	0.2837	0.096
Mof_C 	C 	0.8906	0.0269	0.2237	-0.062
Mof_C 	C 	0.9074	0.0873	0.2475	-0.088
Mof_C 	C 	0.10016	0.01618	0.2929	-0.087
Mof_C 	C 	0.9798	0.9617	0.2351	0.069
Mof_C 	C 	0.0795	0.9563	0.2709	-0.066
Mof_C 	C 	0.8319	0.8834	0.206	0.08
Mof_C 	C 	0.001	0.7869	0.1849	0
Mof_C 	C 	0.3043	0.139	0.5328	0.075
Mof_C 	C 	0.1723	0.1155	0.6109	-0.009
Mof_C 	C 	0.0874	0.1176	0.5714	-0.014
Mof_C 	C 	0.1291	0.1382	0.467	0.086
Mof_C 	C 	0.0368	0.0982	0.4552	-0.085
Mof_C 	C 	0.1881	0.1823	0.4255	-0.076
Mof_C 	C 	0.1519	0.1829	0.3719	-0.083
Mof_C 	C 	0.9903	0.1059	0.4049	-0.08
Mof_C 	C 	0.0539	0.1443	0.3599	0.095
Mof_C 	C 	0.0109	0.2092	0.273	0.084
Mof_C 	C 	0.0084	0.4603	0.0947	-0.009
Mof_C 	C 	0.86846	0.45288	0.176	0.102
Mof_C 	C 	0.0638	0.3952	0.1174	0.004
Mof_C 	C 	0.9871	0.3307	0.2053	0.101
Mof_C 	C 	0.9124	0.3345	0.2603	-0.086
Mof_C 	C 	0.074	0.2655	0.1839	-0.095
Mof_C 	C 	0.0885	0.2061	0.2181	-0.065
Mof_C 	C 	0.9263	0.274	0.2958	-0.076
Mof_C 	C 	0.07	0.8348	0.1982	-0.01
Mof_C 	C 	0.6264	0.5827	0.7837	0.096
Mof_C 	C 	0.8588	0.5269	0.7237	-0.063
Mof_C 	C 	0.7578	0.5873	0.7475	-0.087
Mof_C 	C 	0.59076	0.51618	0.7929	-0.087
Mof_C 	C 	0.8234	0.4617	0.7351	0.07
Mof_C 	C 	0.6933	0.4563	0.7709	-0.066
Mof_C 	C 	0.0787	0.3834	0.706	0.08
Mof_C 	C 	0.0272	0.2869	0.6849	-0
Mof_C 	C 	0.0239	0.639	0.0328	0.076
Mof_C 	C 	0.1013	0.6155	0.1109	-0.008
Mof_C 	C 	0.2236	0.6176	0.0714	-0.014
Mof_C 	C 	0.2657	0.6382	0.967	0.086
Mof_C 	C 	0.4098	0.5982	0.9552	-0.086
Mof_C 	C 	0.2041	0.6823	0.9255	-0.076
Mof_C 	C 	0.2933	0.6829	0.8719	-0.083
Mof_C 	C 	0.4989	0.6059	0.9049	-0.079
Mof_C 	C 	0.4419	0.6443	0.8599	0.095
Mof_C 	C 	0.5069	0.7092	0.773	0.084
Mof_C 	C 	0.4366	0.9603	0.5947	-0.01
Mof_C 	C 	0.50266	0.95288	0.676	0.102
Mof_C 	C 	0.4236	0.8952	0.6174	0.003
Mof_C 	C 	0.4769	0.8307	0.7053	0.101
Mof_C 	C 	0.4928	0.8345	0.7603	-0.087
Mof_C 	C 	0.4766	0.7655	0.6839	-0.096
Mof_C 	C 	0.4873	0.7061	0.7181	-0.064
Mof_C 	C 	0.5039	0.774	0.7958	-0.076
Mof_C 	C 	0.897	0.3348	0.6982	-0.009
Mof_S 	S 	0.6896	0.13124	0.56512	-0.491
Mof_S 	S 	0.46067	0.16209	0.70661	-0.569
Mof_S 	S 	0.53595	0.31388	0.61838	-0.499
Mof_S 	S 	0.61404	0.63124	0.06512	-0.491
Mof_S 	S 	0.67063	0.66209	0.20661	-0.568
Mof_S 	S 	0.53179	0.81388	0.11838	-0.499
Mof_Br	Br	0.55407	0.28571	0.45489	-0.469
Mof_Br	Br	0.70533	0.78571	0.95489	-0.468
Mof_N 	N 	0.3091	0.1286	0.5868	-0.246
Mof_N 	N 	0.17274	0.13232	0.5196	-0.136
Mof_N 	N 	0.01785	0.1463	0.3076	-0.155
Mof_N 	N 	0.8821	0.4973	0.1337	-0.235
Mof_N 	N 	0.97432	0.39026	0.1695	-0.14
Mof_N 	N 	0.85515	0.8169	0.1866	-0.257
Mof_N 	N 	0.95963	0.89624	0.2123	-0.135
Mof_N 	N 	0.9755	0.6286	0.0868	-0.247
Mof_N 	N 	0.17534	0.63232	0.0196	-0.137
Mof_N 	N 	0.52825	0.6463	0.8076	-0.155
Mof_N 	N 	0.4869	0.9973	0.6337	-0.235
Mof_N 	N 	0.46592	0.89026	0.6695	-0.14
Mof_N 	N 	0.14135	0.3169	0.6866	-0.256
Mof_N 	N 	0.93183	0.39624	0.7123	-0.135
Mof_Cu	Cu	0.37806	0.25505	0.95871	0.825
Mof_Cu	Cu	0.22093	0.40168	0.87414	0.827
Mof_Cu	Cu	0.30255	0.22798	0.82316	0.804
Mof_Cu	Cu	0.40818	0.75505	0.45871	0.825
Mof_Cu	Cu	0.50325	0.90168	0.37414	0.827
Mof_Cu	Cu	0.64631	0.72798	0.32316	0.804
Mof_H 	H 	0.0511	0.4699	0.2995	0.055
Mof_H 	H 	0.2217	0.3682	0.261	0.072
Mof_H 	H 	0.502	0.4873	0.1861	0.051
Mof_H 	H 	0.3252	0.5883	0.2199	0.04
Mof_H 	H 	0.8684	0.5841	0.2863	-0.016
Mof_H 	H 	0.9625	0.7606	0.3242	-0.002
Mof_H 	H 	0.0389	0.3503	0.9935	-0.029
Mof_H 	H 	0.8981	0.3932	0.851	0.011
Mof_H 	H 	0.6782	0.3894	0.9228	0.03
Mof_H 	H 	0.5527	0.4344	0.0184	0.066
Mof_H 	H 	0.8937	0.2895	0.0667	0.065
Mof_H 	H 	0.7483	0.29	0.1564	0.069
Mof_H 	H 	0.3985	0.4153	0.0999	0.062
Mof_H 	H 	0.5839	0.0228	0.4402	0.021
Mof_H 	H 	0.4638	0.0364	0.2924	-0.018
Mof_H 	H 	0.608	0.1396	0.3992	0.037
Mof_H 	H 	0.5037	0.1221	0.2255	0.064
Mof_H 	H 	0.5308	0.2383	0.3535	0.092
Mof_H 	H 	0.5188	0.337	0.296	0.066
Mof_H 	H 	0.4908	0.2225	0.1665	0.071
Mof_H 	H 	0.1984	0.6719	0.3021	0.021
Mof_H 	H 	0.1795	0.9699	0.7995	0.055
Mof_H 	H 	0.1491	0.8682	0.761	0.072
Mof_H 	H 	0.8246	0.9873	0.6861	0.051
Mof_H 	H 	0.8666	0.0883	0.7199	0.04
Mof_H 	H 	0.2612	0.0841	0.7863	-0.016
Mof_H 	H 	0.9527	0.2606	0.8242	-0.003
Mof_H 	H 	0.6173	0.8503	0.4935	-0.028
Mof_H 	H 	0.8577	0.8932	0.351	0.011
Mof_H 	H 	0.0096	0.8894	0.4228	0.03
Mof_H 	H 	0.9945	0.9344	0.5184	0.065
Mof_H 	H 	0.7501	0.7895	0.5667	0.064
Mof_H 	H 	0.8053	0.79	0.6564	0.069
Mof_H 	H 	0.0863	0.9153	0.5999	0.062
Mof_H 	H 	0.9531	0.5228	0.9402	0.021
Mof_H 	H 	0.2074	0.5364	0.7924	-0.018
Mof_H 	H 	0.8532	0.6396	0.8992	0.037
Mof_H 	H 	0.1487	0.6221	0.7255	0.064
Mof_H 	H 	0.8774	0.7383	0.8535	0.092
Mof_H 	H 	0.8482	0.837	0.796	0.066
Mof_H 	H 	0.1202	0.7225	0.6665	0.071
Mof_H 	H 	0.8276	0.1719	0.8021	0.022
Mof_W 	W 	0.47897	0.29938	0.85718	0.246
Mof_W 	W 	0.36447	0.79938	0.35718	0.246
Mof_C 	C 	0.3736	0.4173	0.2163	0.096
Mof_C 	C 	0.1412	0.4731	0.2763	-0.063
Mof_C 	C 	0.2422	0.4127	0.2525	-0.087
Mof_C 	C 	0.40924	0.48382	0.2071	-0.087
Mof_C 	C 	0.1766	0.5383	0.2649	0.07
Mof_C 	C 	0.3067	0.5437	0.2291	-0.066
Mof_C 	C 	0.9213	0.6166	0.294	0.08
Mof_C 	C 	0.9728	0.7131	0.3151	-0
Mof_C 	C 	0.9761	0.361	0.9672	0.076
Mof_C 	C 	0.8987	0.3845	0.8891	-0.008
Mof_C 	C 	0.7764	0.3824	0.9286	-0.014
Mof_C 	C 	0.7343	0.3618	0.033	0.086
Mof_C 	C 	0.5902	0.4018	0.0448	-0.086
Mof_C 	C 	0.7959	0.3177	0.0745	-0.076
Mof_C 	C 	0.7067	0.3171	0.1281	-0.083
Mof_C 	C 	0.5011	0.3941	0.0951	-0.079
Mof_C 	C 	0.5581	0.3557	0.1401	0.095
Mof_C 	C 	0.4931	0.2908	0.227	0.084
Mof_C 	C 	0.5634	0.0397	0.4053	-0.01
Mof_C 	C 	0.49734	0.04712	0.324	0.102
Mof_C 	C 	0.5764	0.1048	0.3826	0.003
Mof_C 	C 	0.5231	0.1693	0.2947	0.101
Mof_C 	C 	0.5072	0.1655	0.2397	-0.087
Mof_C 	C 	0.5234	0.2345	0.3161	-0.096
Mof_C 	C 	0.5127	0.2939	0.2819	-0.064
Mof_C 	C 	0.4961	0.226	0.2042	-0.076
Mof_C 	C 	0.103	0.6652	0.3018	-0.009
Mof_C 	C 	0.9928	0.9173	0.7163	0.096
Mof_C 	C 	0.1094	0.9731	0.7763	-0.062
Mof_C 	C 	0.0926	0.9127	0.7525	-0.088
Mof_C 	C 	0.89984	0.98382	0.7071	-0.087
Mof_C 	C 	0.0202	0.0383	0.7649	0.069
Mof_C 	C 	0.9205	0.0437	0.7291	-0.066
Mof_C 	C 	0.1681	0.1166	0.794	0.08
Mof_C 	C 	0.999	0.2131	0.8151	0
Mof_C 	C 	0.6957	0.861	0.4672	0.075
Mof_C 	C 	0.8277	0.8845	0.3891	-0.009
Mof_C 	C 	0.9126	0.8824	0.4286	-0.014
Mof_C 	C 	0.8709	0.8618	0.533	0.086
Mof_C 	C 	0.9632	0.9018	0.5448	-0.085
Mof_C 	C 	0.8119	0.8177	0.5745	-0.076
Mof_C 	C 	0.8481	0.8171	0.6281	-0.083
Mof_C 	C 	0.0097	0.8941	0.5951	-0.08
Mof_C 	C 	0.9461	0.8557	0.6401	0.095
Mof_C 	C 	0.9891	0.7908	0.727	0.084
Mof_C 	C 	0.9916	0.5397	0.9053	-0.009
Mof_C 	C 	0.13154	0.54712	0.824	0.102
Mof_C 	C 	0.9362	0.6048	0.8826	0.004
Mof_C 	C 	0.0129	0.6693	0.7947	0.101
Mof_C 	C 	0.0876	0.6655	0.7397	-0.086
Mof_C 	C 	0.926	0.7345	0.8161	-0.095
Mof_C 	C 	0.9115	0.7939	0.7819	-0.065
Mof_C 	C 	0.0737	0.726	0.7042	-0.076
Mof_C 	C 	0.93	0.1652	0.8018	-0.01
Mof_S 	S 	0.38596	0.36876	0.93488	-0.491
Mof_S 	S 	0.32937	0.33791	0.79339	-0.568
Mof_S 	S 	0.46821	0.18612	0.88162	-0.499
Mof_S 	S 	0.3104	0.86876	0.43488	-0.491
Mof_S 	S 	0.53933	0.83791	0.29339	-0.569
Mof_S 	S 	0.46405	0.68612	0.38162	-0.499
Mof_Br	Br	0.29467	0.21429	0.04511	-0.468
Mof_Br	Br	0.44593	0.71429	0.54511	-0.469
Mof_N 	N 	0.0245	0.3714	0.9132	-0.247
Mof_N 	N 	0.82466	0.36768	0.9804	-0.137
Mof_N 	N 	0.47175	0.3537	0.1924	-0.155
Mof_N 	N 	0.5131	0.0027	0.3663	-0.235
Mof_N 	N 	0.53408	0.10974	0.3305	-0.14
Mof_N 	N 	0.85865	0.6831	0.3134	-0.256
Mof_N 	N 	0.06817	0.60376	0.2877	-0.135
Mof_N 	N 	0.6909	0.8714	0.4132	-0.246
Mof_N 	N 	0.82726	0.86768	0.4804	-0.136
Mof_N 	N 	0.98215	0.8537	0.6924	-0.155
Mof_N 	N 	0.1179	0.5027	0.8663	-0.235
Mof_N 	N 	0.02568	0.60974	0.8305	-0.14
Mof_N 	N 	0.14485	0.1831	0.8134	-0.257
Mof_N 	N 	0.04037	0.10376	0.7877	-0.135
_end
