data_functionalizedCrystal
_audit_creation_method	'EQeq! by Chris Wilmer'
_symmetry_space_group_name_H-M	'P1'
_symmetry_Int_Tables_number	1
_symmetry_cell_setting	triclinic
loop_
_symmetry_equiv_pos_as_xyz
  x,y,z
_cell_length_a	12.6261
_cell_length_b	12.6261
_cell_length_c	42.559
_cell_angle_alpha	90
_cell_angle_beta	90
_cell_angle_gamma	90
loop_
_atom_site_label
_atom_site_type_symbol
_atom_site_fract_x
_atom_site_fract_y
_atom_site_fract_z
_atom_site_charge
Mof_Mn	Mn	0.25253	0.70921	0.8889	0.811
Mof_Mn	Mn	0.15222	0.92006	0.83109	0.837
Mof_Mn	Mn	0.34781	0.42013	0.91896	0.797
Mof_Mn	Mn	0.24756	0.20932	0.86101	0.815
Mof_Mn	Mn	0.74747	0.29079	0.3889	0.811
Mof_Mn	Mn	0.84778	0.07994	0.33109	0.841
Mof_Mn	Mn	0.65219	0.57987	0.41896	0.796
Mof_Mn	Mn	0.75244	0.79068	0.36101	0.813
Mof_Mn	Mn	0.70921	0.25253	0.6111	0.812
Mof_Mn	Mn	0.92006	0.15222	0.66891	0.838
Mof_Mn	Mn	0.42013	0.34781	0.58104	0.797
Mof_Mn	Mn	0.20932	0.24756	0.63899	0.815
Mof_Mn	Mn	0.29079	0.74747	0.1111	0.811
Mof_Mn	Mn	0.07994	0.84778	0.16891	0.841
Mof_Mn	Mn	0.57987	0.65219	0.08104	0.796
Mof_Mn	Mn	0.79068	0.75244	0.13899	0.813
Mof_H 	H 	0.5704	0.803	0.8811	0.022
Mof_H 	H 	0.9277	0.3051	0.8664	0.015
Mof_H 	H 	0.828	0.5478	0.8929	0.075
Mof_H 	H 	0.744	0.8412	0.87	0.076
Mof_H 	H 	0.6552	0.508	0.9054	0.021
Mof_H 	H 	0.0154	0.2464	0.7609	0.017
Mof_H 	H 	0.4359	0.8083	0.9408	0.08
Mof_H 	H 	0.2666	0.9264	0.0297	0.022
Mof_H 	H 	0.8462	0.0062	0.8458	0.019
Mof_H 	H 	0.2272	0.9992	0.9807	0.074
Mof_H 	H 	0.671	0.048	0.8555	0.082
Mof_H 	H 	0.0633	0.3097	0.8087	0.088
Mof_H 	H 	0.4811	0.7439	0.9899	0.017
Mof_H 	H 	0.278	0.4956	0.7688	0.087
Mof_H 	H 	0.2369	0.4239	0.7215	0.016
Mof_H 	H 	0.7564	0.343	0.8793	0.08
Mof_H 	H 	0.0377	0.8771	0.781	0.242
Mof_H 	H 	0.4288	0.482	0.984	0.009
Mof_H 	H 	0.4115	0.1913	0.9469	0.01
Mof_H 	H 	0.4493	0.1167	0.9951	0.07
Mof_H 	H 	0.4677	0.4119	0.0327	0.073
Mof_H 	H 	0.4807	0.2219	0.0423	0.03
Mof_H 	H 	0.4296	0.197	0.3811	0.023
Mof_H 	H 	0.0723	0.6949	0.3664	0.019
Mof_H 	H 	0.172	0.4522	0.3929	0.076
Mof_H 	H 	0.256	0.1588	0.37	0.078
Mof_H 	H 	0.3448	0.492	0.4054	0.022
Mof_H 	H 	0.9846	0.7536	0.2609	0.016
Mof_H 	H 	0.5641	0.1917	0.4408	0.08
Mof_H 	H 	0.7334	0.0736	0.5297	0.023
Mof_H 	H 	0.1538	0.9938	0.3458	0.021
Mof_H 	H 	0.7728	0.0008	0.4807	0.074
Mof_H 	H 	0.329	0.952	0.3555	0.079
Mof_H 	H 	0.9367	0.6903	0.3087	0.086
Mof_H 	H 	0.5189	0.2561	0.4899	0.018
Mof_H 	H 	0.722	0.5044	0.2688	0.087
Mof_H 	H 	0.7631	0.5761	0.2215	0.017
Mof_H 	H 	0.2436	0.657	0.3793	0.078
Mof_H 	H 	0.9623	0.1229	0.281	0.243
Mof_H 	H 	0.5712	0.518	0.484	0.009
Mof_H 	H 	0.5885	0.8087	0.4469	0.009
Mof_H 	H 	0.5507	0.8833	0.4951	0.069
Mof_H 	H 	0.5323	0.5881	0.5327	0.073
Mof_H 	H 	0.5193	0.7781	0.5423	0.03
Mof_H 	H 	0.803	0.5704	0.6189	0.022
Mof_H 	H 	0.3051	0.9277	0.6336	0.015
Mof_H 	H 	0.5478	0.828	0.6071	0.075
Mof_H 	H 	0.8412	0.744	0.63	0.076
Mof_H 	H 	0.508	0.6552	0.5946	0.022
Mof_H 	H 	0.2464	0.0154	0.7391	0.017
Mof_H 	H 	0.8083	0.4359	0.5592	0.08
Mof_H 	H 	0.9264	0.2666	0.4703	0.022
Mof_H 	H 	0.0062	0.8462	0.6542	0.019
Mof_H 	H 	0.9992	0.2272	0.5193	0.074
Mof_H 	H 	0.048	0.671	0.6445	0.082
Mof_H 	H 	0.3097	0.0633	0.6913	0.088
Mof_H 	H 	0.7439	0.4811	0.5101	0.017
Mof_H 	H 	0.4956	0.278	0.7312	0.087
Mof_H 	H 	0.4239	0.2369	0.7785	0.016
Mof_H 	H 	0.343	0.7564	0.6207	0.08
Mof_H 	H 	0.8771	0.0377	0.719	0.242
Mof_H 	H 	0.482	0.4288	0.516	0.009
Mof_H 	H 	0.1913	0.4115	0.5531	0.01
Mof_H 	H 	0.1167	0.4493	0.5049	0.07
Mof_H 	H 	0.4119	0.4677	0.4673	0.073
Mof_H 	H 	0.2219	0.4807	0.4577	0.03
Mof_H 	H 	0.197	0.4296	0.1189	0.023
Mof_H 	H 	0.6949	0.0723	0.1336	0.019
Mof_H 	H 	0.4522	0.172	0.1071	0.076
Mof_H 	H 	0.1588	0.256	0.13	0.078
Mof_H 	H 	0.492	0.3448	0.0946	0.022
Mof_H 	H 	0.7536	0.9846	0.2391	0.016
Mof_H 	H 	0.1917	0.5641	0.0592	0.08
Mof_H 	H 	0.0736	0.7334	0.9703	0.023
Mof_H 	H 	0.9938	0.1538	0.1542	0.021
Mof_H 	H 	0.0008	0.7728	0.0193	0.074
Mof_H 	H 	0.952	0.329	0.1445	0.079
Mof_H 	H 	0.6903	0.9367	0.1913	0.086
Mof_H 	H 	0.2561	0.5189	0.0101	0.018
Mof_H 	H 	0.5044	0.722	0.2312	0.087
Mof_H 	H 	0.5761	0.7631	0.2785	0.017
Mof_H 	H 	0.657	0.2436	0.1207	0.078
Mof_H 	H 	0.1229	0.9623	0.219	0.243
Mof_H 	H 	0.518	0.5712	0.016	0.009
Mof_H 	H 	0.8087	0.5885	0.0531	0.009
Mof_H 	H 	0.8833	0.5507	0.0049	0.069
Mof_H 	H 	0.5881	0.5323	0.9673	0.073
Mof_H 	H 	0.7781	0.5193	0.9577	0.03
Mof_C 	C 	0.0181	0.1251	0.8495	0.434
Mof_C 	C 	0.4803	0.6253	0.90029	0.416
Mof_C 	C 	0.6225	0.7517	0.8838	0.053
Mof_C 	C 	0.9057	0.1497	0.8554	-0.165
Mof_C 	C 	0.5955	0.6501	0.8946	-0.141
Mof_C 	C 	0.8764	0.2526	0.8649	0.07
Mof_C 	C 	0.7765	0.6001	0.8911	-0.116
Mof_C 	C 	0.7264	0.7742	0.8774	-0.112
Mof_C 	C 	0.6726	0.5754	0.8982	0.058
Mof_C 	C 	0.0898	0.2878	0.70345	0.433
Mof_C 	C 	0.2076	0.4466	0.82564	0.1
Mof_C 	C 	0.1208	0.3298	0.7358	-0.158
Mof_C 	C 	0.2923	0.9461	0.92448	0.098
Mof_C 	C 	0.0699	0.2957	0.7625	0.086
Mof_C 	C 	0.9152	0.7272	0.8752	0.096
Mof_C 	C 	0.3803	0.8313	0.01417	-0.148
Mof_C 	C 	0.3228	0.9052	0.95536	0.044
Mof_C 	C 	0.585	0.2288	0.8734	0.092
Mof_C 	C 	0.1776	0.4044	0.79398	0.064
Mof_C 	C 	0.6931	0.1989	0.868	0.053
Mof_C 	C 	0.4006	0.833	0.9585	-0.123
Mof_C 	C 	0.806	0.6998	0.8816	0.046
Mof_C 	C 	0.3026	0.9036	0.0119	0.062
Mof_C 	C 	0.8282	0.0744	0.8521	0.073
Mof_C 	C 	0.2765	0.9447	0.9823	-0.118
Mof_C 	C 	0.7226	0.0996	0.8582	-0.124
Mof_C 	C 	0.0987	0.3333	0.7909	-0.141
Mof_C 	C 	0.4284	0.795	0.98815	0.068
Mof_C 	C 	0.4105	0.7887	0.04617	0.409
Mof_C 	C 	0.227	0.4426	0.7673	-0.139
Mof_C 	C 	0.2	0.402	0.7393	0.089
Mof_C 	C 	0.7738	0.276	0.8719	-0.122
Mof_C 	C 	0.4332	0.409	0.9865	0.06
Mof_C 	C 	0.4226	0.2344	0.9643	0.053
Mof_C 	C 	0.4459	0.1901	0.9937	-0.094
Mof_C 	C 	0.4567	0.3653	0.0161	-0.097
Mof_C 	C 	0.4653	0.2511	0.0227	0.01
Mof_C 	C 	0.9819	0.8749	0.3495	0.426
Mof_C 	C 	0.5197	0.3747	0.40029	0.416
Mof_C 	C 	0.3775	0.2483	0.3838	0.054
Mof_C 	C 	0.0943	0.8503	0.3554	-0.154
Mof_C 	C 	0.4045	0.3499	0.3946	-0.141
Mof_C 	C 	0.1236	0.7474	0.3649	0.064
Mof_C 	C 	0.2235	0.3999	0.3911	-0.116
Mof_C 	C 	0.2736	0.2258	0.3774	-0.112
Mof_C 	C 	0.3274	0.4246	0.3982	0.058
Mof_C 	C 	0.9102	0.7122	0.20345	0.424
Mof_C 	C 	0.7924	0.5534	0.32564	0.1
Mof_C 	C 	0.8792	0.6702	0.2358	-0.155
Mof_C 	C 	0.7077	0.0539	0.42448	0.104
Mof_C 	C 	0.9301	0.7043	0.2625	0.082
Mof_C 	C 	0.0848	0.2728	0.3752	0.099
Mof_C 	C 	0.6197	0.1687	0.51417	-0.146
Mof_C 	C 	0.6772	0.0948	0.45536	0.042
Mof_C 	C 	0.415	0.7712	0.3734	0.094
Mof_C 	C 	0.8224	0.5956	0.29398	0.062
Mof_C 	C 	0.3069	0.8011	0.368	0.049
Mof_C 	C 	0.5994	0.167	0.4585	-0.12
Mof_C 	C 	0.194	0.3002	0.3816	0.047
Mof_C 	C 	0.6974	0.0964	0.5119	0.061
Mof_C 	C 	0.1718	0.9256	0.3521	0.067
Mof_C 	C 	0.7235	0.0553	0.4823	-0.115
Mof_C 	C 	0.2774	0.9004	0.3582	-0.119
Mof_C 	C 	0.9013	0.6667	0.2909	-0.139
Mof_C 	C 	0.5716	0.205	0.48815	0.066
Mof_C 	C 	0.5895	0.2113	0.54617	0.408
Mof_C 	C 	0.773	0.5574	0.2673	-0.137
Mof_C 	C 	0.8	0.598	0.2393	0.086
Mof_C 	C 	0.2262	0.724	0.3719	-0.117
Mof_C 	C 	0.5668	0.591	0.4865	0.059
Mof_C 	C 	0.5774	0.7656	0.4643	0.052
Mof_C 	C 	0.5541	0.8099	0.4937	-0.094
Mof_C 	C 	0.5433	0.6347	0.5161	-0.097
Mof_C 	C 	0.5347	0.7489	0.5227	0.009
Mof_C 	C 	0.1251	0.0181	0.6505	0.434
Mof_C 	C 	0.6253	0.4803	0.59971	0.416
Mof_C 	C 	0.7517	0.6225	0.6162	0.053
Mof_C 	C 	0.1497	0.9057	0.6446	-0.165
Mof_C 	C 	0.6501	0.5955	0.6054	-0.141
Mof_C 	C 	0.2526	0.8764	0.6351	0.07
Mof_C 	C 	0.6001	0.7765	0.6089	-0.116
Mof_C 	C 	0.7742	0.7264	0.6226	-0.112
Mof_C 	C 	0.5754	0.6726	0.6018	0.058
Mof_C 	C 	0.2878	0.0898	0.79655	0.433
Mof_C 	C 	0.4466	0.2076	0.67436	0.1
Mof_C 	C 	0.3298	0.1208	0.7642	-0.158
Mof_C 	C 	0.9461	0.2923	0.57552	0.098
Mof_C 	C 	0.2957	0.0699	0.7375	0.086
Mof_C 	C 	0.7272	0.9152	0.6248	0.096
Mof_C 	C 	0.8313	0.3803	0.48583	-0.148
Mof_C 	C 	0.9052	0.3228	0.54464	0.044
Mof_C 	C 	0.2288	0.585	0.6266	0.093
Mof_C 	C 	0.4044	0.1776	0.70602	0.064
Mof_C 	C 	0.1989	0.6931	0.632	0.053
Mof_C 	C 	0.833	0.4006	0.5415	-0.123
Mof_C 	C 	0.6998	0.806	0.6184	0.046
Mof_C 	C 	0.9036	0.3026	0.4881	0.062
Mof_C 	C 	0.0744	0.8282	0.6479	0.073
Mof_C 	C 	0.9447	0.2765	0.5177	-0.118
Mof_C 	C 	0.0996	0.7226	0.6418	-0.124
Mof_C 	C 	0.3333	0.0987	0.7091	-0.141
Mof_C 	C 	0.795	0.4284	0.51185	0.068
Mof_C 	C 	0.7887	0.4105	0.45383	0.409
Mof_C 	C 	0.4426	0.227	0.7327	-0.139
Mof_C 	C 	0.402	0.2	0.7607	0.089
Mof_C 	C 	0.276	0.7738	0.6281	-0.122
Mof_C 	C 	0.409	0.4332	0.5135	0.06
Mof_C 	C 	0.2344	0.4226	0.5357	0.053
Mof_C 	C 	0.1901	0.4459	0.5063	-0.094
Mof_C 	C 	0.3653	0.4567	0.4839	-0.097
Mof_C 	C 	0.2511	0.4653	0.4773	0.01
Mof_C 	C 	0.8749	0.9819	0.1505	0.426
Mof_C 	C 	0.3747	0.5197	0.09971	0.416
Mof_C 	C 	0.2483	0.3775	0.1162	0.054
Mof_C 	C 	0.8503	0.0943	0.1446	-0.154
Mof_C 	C 	0.3499	0.4045	0.1054	-0.141
Mof_C 	C 	0.7474	0.1236	0.1351	0.064
Mof_C 	C 	0.3999	0.2235	0.1089	-0.116
Mof_C 	C 	0.2258	0.2736	0.1226	-0.112
Mof_C 	C 	0.4246	0.3274	0.1018	0.058
Mof_C 	C 	0.7122	0.9102	0.29655	0.424
Mof_C 	C 	0.5534	0.7924	0.17436	0.1
Mof_C 	C 	0.6702	0.8792	0.2642	-0.155
Mof_C 	C 	0.0539	0.7077	0.07552	0.104
Mof_C 	C 	0.7043	0.9301	0.2375	0.082
Mof_C 	C 	0.2728	0.0848	0.1248	0.099
Mof_C 	C 	0.1687	0.6197	0.98583	-0.146
Mof_C 	C 	0.0948	0.6772	0.04464	0.042
Mof_C 	C 	0.7712	0.415	0.1266	0.094
Mof_C 	C 	0.5956	0.8224	0.20602	0.062
Mof_C 	C 	0.8011	0.3069	0.132	0.049
Mof_C 	C 	0.167	0.5994	0.0415	-0.12
Mof_C 	C 	0.3002	0.194	0.1184	0.047
Mof_C 	C 	0.0964	0.6974	0.9881	0.061
Mof_C 	C 	0.9256	0.1718	0.1479	0.067
Mof_C 	C 	0.0553	0.7235	0.0177	-0.115
Mof_C 	C 	0.9004	0.2774	0.1418	-0.119
Mof_C 	C 	0.6667	0.9013	0.2091	-0.139
Mof_C 	C 	0.205	0.5716	0.01185	0.066
Mof_C 	C 	0.2113	0.5895	0.95383	0.408
Mof_C 	C 	0.5574	0.773	0.2327	-0.137
Mof_C 	C 	0.598	0.8	0.2607	0.086
Mof_C 	C 	0.724	0.2262	0.1281	-0.117
Mof_C 	C 	0.591	0.5668	0.0135	0.059
Mof_C 	C 	0.7656	0.5774	0.0357	0.052
Mof_C 	C 	0.8099	0.5541	0.0063	-0.094
Mof_C 	C 	0.6347	0.5433	0.9839	-0.097
Mof_C 	C 	0.7489	0.5347	0.9773	0.009
Mof_N 	N 	0.265	0.8874	0.89986	-0.154
Mof_N 	N 	0.4167	0.2313	0.87377	-0.121
Mof_N 	N 	0.0823	0.7315	0.87602	-0.115
Mof_N 	N 	0.2404	0.9574	0.87708	-0.125
Mof_N 	N 	0.4515	0.3115	0.89117	-0.12
Mof_N 	N 	0.2548	0.0536	0.88758	-0.111
Mof_N 	N 	0.0495	0.8101	0.859	-0.115
Mof_N 	N 	0.2344	0.3884	0.85007	-0.153
Mof_N 	N 	0.2593	0.4571	0.87309	-0.123
Mof_N 	N 	0.2856	0.05	0.91769	-0.104
Mof_N 	N 	0.2149	0.5503	0.83237	-0.099
Mof_N 	N 	1.12113e-32	0.6776	0.8871	-0.089
Mof_N 	N 	0.9435	0.8099	0.8581	-0.093
Mof_N 	N 	0.2454	0.553	0.86157	-0.109
Mof_N 	N 	0.5003	0.1769	0.8629	-0.088
Mof_N 	N 	0.556	0.3102	0.892	-0.09
Mof_N 	N 	0.4167	0.3425	0.9616	-0.178
Mof_N 	N 	0.735	0.1126	0.39986	-0.155
Mof_N 	N 	0.5833	0.7687	0.37377	-0.121
Mof_N 	N 	0.9177	0.2685	0.37602	-0.117
Mof_N 	N 	0.7596	0.0426	0.37708	-0.122
Mof_N 	N 	0.5485	0.6885	0.39117	-0.12
Mof_N 	N 	0.7452	0.9464	0.38758	-0.114
Mof_N 	N 	0.9505	0.1899	0.359	-0.117
Mof_N 	N 	0.7656	0.6116	0.35007	-0.153
Mof_N 	N 	0.7407	0.5429	0.37309	-0.123
Mof_N 	N 	0.7144	0.95	0.41769	-0.108
Mof_N 	N 	0.7851	0.4497	0.33237	-0.1
Mof_N 	N 	4.89223e-33	0.3224	0.3871	-0.087
Mof_N 	N 	0.0565	0.1901	0.3581	-0.089
Mof_N 	N 	0.7546	0.447	0.36157	-0.109
Mof_N 	N 	0.4997	0.8231	0.3629	-0.089
Mof_N 	N 	0.444	0.6898	0.392	-0.09
Mof_N 	N 	0.5833	0.6575	0.4616	-0.178
Mof_N 	N 	0.8874	0.265	0.60014	-0.154
Mof_N 	N 	0.2313	0.4167	0.62623	-0.121
Mof_N 	N 	0.7315	0.0823	0.62398	-0.115
Mof_N 	N 	0.9574	0.2404	0.62292	-0.125
Mof_N 	N 	0.3115	0.4515	0.60883	-0.12
Mof_N 	N 	0.0536	0.2548	0.61242	-0.111
Mof_N 	N 	0.8101	0.0495	0.641	-0.115
Mof_N 	N 	0.3884	0.2344	0.64993	-0.153
Mof_N 	N 	0.4571	0.2593	0.62691	-0.123
Mof_N 	N 	0.05	0.2856	0.58231	-0.104
Mof_N 	N 	0.5503	0.2149	0.66763	-0.099
Mof_N 	N 	0.6776	1.48827e-32	0.6129	-0.089
Mof_N 	N 	0.8099	0.9435	0.6419	-0.093
Mof_N 	N 	0.553	0.2454	0.63843	-0.109
Mof_N 	N 	0.1769	0.5003	0.6371	-0.088
Mof_N 	N 	0.3102	0.556	0.608	-0.09
Mof_N 	N 	0.3425	0.4167	0.5384	-0.178
Mof_N 	N 	0.1126	0.735	0.10014	-0.155
Mof_N 	N 	0.7687	0.5833	0.12623	-0.121
Mof_N 	N 	0.2685	0.9177	0.12398	-0.117
Mof_N 	N 	0.0426	0.7596	0.12292	-0.122
Mof_N 	N 	0.6885	0.5485	0.10883	-0.12
Mof_N 	N 	0.9464	0.7452	0.11242	-0.114
Mof_N 	N 	0.1899	0.9505	0.141	-0.117
Mof_N 	N 	0.6116	0.7656	0.14993	-0.153
Mof_N 	N 	0.5429	0.7407	0.12691	-0.123
Mof_N 	N 	0.95	0.7144	0.08231	-0.108
Mof_N 	N 	0.4497	0.7851	0.16763	-0.1
Mof_N 	N 	0.3224	0	0.1129	-0.087
Mof_N 	N 	0.1901	0.0565	0.1419	-0.089
Mof_N 	N 	0.447	0.7546	0.13843	-0.109
Mof_N 	N 	0.8231	0.4997	0.1371	-0.089
Mof_N 	N 	0.6898	0.444	0.108	-0.09
Mof_N 	N 	0.6575	0.5833	0.0384	-0.178
Mof_O 	O 	0.4154	0.694	0.89141	-0.411
Mof_O 	O 	0.0857	0.1929	0.85838	-0.413
Mof_O 	O 	0.0402	0.0412	0.83675	-0.408
Mof_O 	O 	0.4595	0.5403	0.91335	-0.403
Mof_O 	O 	0.1584	0.2946	0.68288	-0.409
Mof_O 	O 	0.9987	0.2513	0.70028	-0.407
Mof_O 	O 	0.341	0.7948	0.06721	-0.398
Mof_O 	O 	0.5012	0.7506	0.04924	-0.403
Mof_O 	O 	0.086	0.841	0.78818	-0.419
Mof_O 	O 	0.5846	0.306	0.39141	-0.411
Mof_O 	O 	0.9143	0.8071	0.35838	-0.414
Mof_O 	O 	0.9598	0.9588	0.33675	-0.411
Mof_O 	O 	0.5405	0.4597	0.41335	-0.402
Mof_O 	O 	0.8416	0.7054	0.18288	-0.407
Mof_O 	O 	0.0013	0.7487	0.20028	-0.399
Mof_O 	O 	0.659	0.2052	0.56721	-0.398
Mof_O 	O 	0.4988	0.2494	0.54924	-0.402
Mof_O 	O 	0.914	0.159	0.28818	-0.42
Mof_O 	O 	0.694	0.4154	0.60859	-0.411
Mof_O 	O 	0.1929	0.0857	0.64162	-0.413
Mof_O 	O 	0.0412	0.0402	0.66325	-0.408
Mof_O 	O 	0.5403	0.4595	0.58665	-0.403
Mof_O 	O 	0.2946	0.1584	0.81712	-0.409
Mof_O 	O 	0.2513	0.9987	0.79972	-0.407
Mof_O 	O 	0.7948	0.341	0.43279	-0.398
Mof_O 	O 	0.7506	0.5012	0.45076	-0.403
Mof_O 	O 	0.841	0.086	0.71182	-0.419
Mof_O 	O 	0.306	0.5846	0.10859	-0.411
Mof_O 	O 	0.8071	0.9143	0.14162	-0.414
Mof_O 	O 	0.9588	0.9598	0.16325	-0.411
Mof_O 	O 	0.4597	0.5405	0.08665	-0.402
Mof_O 	O 	0.7054	0.8416	0.31712	-0.407
Mof_O 	O 	0.7487	0.0013	0.29972	-0.399
Mof_O 	O 	0.2052	0.659	0.93279	-0.398
Mof_O 	O 	0.2494	0.4988	0.95076	-0.402
Mof_O 	O 	0.159	0.914	0.21182	-0.42
_end
