data_functionalizedCrystal
_audit_creation_method	'EQeq! by Chris Wilmer'
_symmetry_space_group_name_H-M	'P1'
_symmetry_Int_Tables_number	1
_symmetry_cell_setting	triclinic
loop_
_symmetry_equiv_pos_as_xyz
  x,y,z
_cell_length_a	10.7885
_cell_length_b	13.6583
_cell_length_c	14.7188
_cell_angle_alpha	76.1028
_cell_angle_beta	68.501
_cell_angle_gamma	66.7377
loop_
_atom_site_label
_atom_site_type_symbol
_atom_site_fract_x
_atom_site_fract_y
_atom_site_fract_z
_atom_site_charge
Mof_Cd	Cd	0.99532	0.0387	0.61262	0.466
Mof_Cd	Cd	0.64664	0.4613	0.88738	0.467
Mof_Cd	Cd	0.00468	0.9613	0.38738	0.466
Mof_Cd	Cd	0.35336	0.5387	0.11262	0.467
Mof_Cd	Cd	0.71817	0.25	0.75	0.513
Mof_Cd	Cd	0.28183	0.75	0.25	0.513
Mof_H 	H 	0.4557	0.0407	0.9099	0.055
Mof_H 	H 	0.3645	0.9085	0.0101	0.052
Mof_H 	H 	0.6871	0.6846	0.8454	0.064
Mof_H 	H 	0.7833	0.8159	0.7503	0.059
Mof_H 	H 	0.144	0.8685	0.8953	0.053
Mof_H 	H 	0.8603	0.1644	0.941	0.064
Mof_H 	H 	0.4063	0.4593	0.5901	0.058
Mof_H 	H 	0.2831	0.5915	0.4899	0.056
Mof_H 	H 	0.2171	0.8154	0.6546	0.064
Mof_H 	H 	0.3495	0.6841	0.7497	0.059
Mof_H 	H 	0.9078	0.6315	0.6047	0.055
Mof_H 	H 	0.9657	0.3356	0.559	0.062
Mof_H 	H 	0.5443	0.9593	0.0901	0.055
Mof_H 	H 	0.6355	0.0915	0.9899	0.052
Mof_H 	H 	0.3129	0.3154	0.1546	0.064
Mof_H 	H 	0.2167	0.1841	0.2497	0.059
Mof_H 	H 	0.856	0.1315	0.1047	0.053
Mof_H 	H 	0.1397	0.8356	0.059	0.064
Mof_H 	H 	0.5937	0.5407	0.4099	0.058
Mof_H 	H 	0.7169	0.4085	0.5101	0.056
Mof_H 	H 	0.7829	0.1846	0.3454	0.064
Mof_H 	H 	0.6505	0.3159	0.2503	0.059
Mof_H 	H 	0.0922	0.3685	0.3953	0.055
Mof_H 	H 	0.0343	0.6644	0.441	0.062
Mof_C 	C 	0.69517	0.02415	0.76131	0.318
Mof_C 	C 	0.62892	0.94109	0.82127	-0.055
Mof_C 	C 	0.50434	0.96792	0.8976	-0.018
Mof_C 	C 	0.44914	0.88937	0.95675	-0.013
Mof_C 	C 	0.51763	0.78346	0.93788	-0.061
Mof_C 	C 	0.64081	0.75691	0.85987	-0.02
Mof_C 	C 	0.69731	0.83524	0.80254	-0.018
Mof_C 	C 	0.46045	0.69873	0.00191	0.309
Mof_C 	C 	0.00187	0.0384	0.79786	0.309
Mof_C 	C 	0.00202	0.01922	0.90234	-0.062
Mof_C 	C 	0.08482	0.92244	0.93792	-0.008
Mof_C 	C 	0.91743	0.09697	0.96477	-0.029
Mof_C 	C 	0.48063	0.47585	0.73869	0.323
Mof_C 	C 	0.39128	0.55891	0.67873	-0.057
Mof_C 	C 	0.36986	0.53208	0.6024	-0.022
Mof_C 	C 	0.29526	0.61063	0.54325	-0.017
Mof_C 	C 	0.23897	0.71654	0.56212	-0.062
Mof_C 	C 	0.25759	0.74309	0.64013	-0.02
Mof_C 	C 	0.33509	0.66476	0.69746	-0.017
Mof_C 	C 	0.16109	0.80127	0.49809	0.312
Mof_C 	C 	0.83813	0.4616	0.70214	0.31
Mof_C 	C 	0.92358	0.48078	0.59766	-0.058
Mof_C 	C 	0.94518	0.57756	0.56208	-0.017
Mof_C 	C 	0.97917	0.40303	0.53523	-0.024
Mof_C 	C 	0.30483	0.97585	0.23869	0.318
Mof_C 	C 	0.37108	0.05891	0.17873	-0.055
Mof_C 	C 	0.49566	0.03208	0.1024	-0.018
Mof_C 	C 	0.55086	0.11063	0.04325	-0.013
Mof_C 	C 	0.48237	0.21654	0.06212	-0.061
Mof_C 	C 	0.35919	0.24309	0.14013	-0.02
Mof_C 	C 	0.30269	0.16476	0.19746	-0.018
Mof_C 	C 	0.53955	0.30127	0.99809	0.309
Mof_C 	C 	0.99813	0.9616	0.20214	0.309
Mof_C 	C 	0.99798	0.98078	0.09766	-0.062
Mof_C 	C 	0.91518	0.07756	0.06208	-0.008
Mof_C 	C 	0.08257	0.90303	0.03523	-0.029
Mof_C 	C 	0.51937	0.52415	0.26131	0.323
Mof_C 	C 	0.60872	0.44109	0.32127	-0.057
Mof_C 	C 	0.63014	0.46792	0.3976	-0.022
Mof_C 	C 	0.70474	0.38937	0.45675	-0.017
Mof_C 	C 	0.76103	0.28346	0.43788	-0.062
Mof_C 	C 	0.74241	0.25691	0.35987	-0.02
Mof_C 	C 	0.66491	0.33524	0.30254	-0.017
Mof_C 	C 	0.83891	0.19873	0.50191	0.312
Mof_C 	C 	0.16187	0.5384	0.29786	0.31
Mof_C 	C 	0.07642	0.51922	0.40234	-0.058
Mof_C 	C 	0.05482	0.42244	0.43792	-0.017
Mof_C 	C 	0.02083	0.59697	0.46477	-0.024
Mof_O 	O 	0.63655	0.11657	0.78791	-0.283
Mof_O 	O 	0.80279	0.99373	0.69109	-0.279
Mof_O 	O 	0.36299	0.72006	0.08146	-0.294
Mof_O 	O 	0.50777	0.60672	0.97482	-0.296
Mof_O 	O 	0.93201	0.12864	0.76484	-0.288
Mof_O 	O 	0.0737	0.96327	0.74573	-0.281
Mof_O 	O 	0.54103	0.38343	0.71209	-0.284
Mof_O 	O 	0.48761	0.50627	0.80891	-0.282
Mof_O 	O 	0.16451	0.77994	0.41854	-0.294
Mof_O 	O 	0.08931	0.89328	0.52518	-0.298
Mof_O 	O 	0.82549	0.37136	0.73516	-0.288
Mof_O 	O 	0.7827	0.53673	0.75427	-0.283
Mof_O 	O 	0.36345	0.88343	0.21209	-0.283
Mof_O 	O 	0.19721	0.00627	0.30891	-0.279
Mof_O 	O 	0.63701	0.27994	0.91854	-0.294
Mof_O 	O 	0.49223	0.39328	0.02518	-0.296
Mof_O 	O 	0.06799	0.87136	0.23516	-0.288
Mof_O 	O 	0.9263	0.03673	0.25427	-0.281
Mof_O 	O 	0.45897	0.61657	0.28791	-0.284
Mof_O 	O 	0.51239	0.49373	0.19109	-0.282
Mof_O 	O 	0.83549	0.22006	0.58146	-0.294
Mof_O 	O 	0.91069	0.10672	0.47482	-0.298
Mof_O 	O 	0.17451	0.62864	0.26484	-0.288
Mof_O 	O 	0.2173	0.46327	0.24573	-0.283
_end
