# CIF file generated by openbabel 3.1.0, see https://openbabel.org
data_I
_chemical_name_common 'image0'
_cell_length_a 23.3762
_cell_length_b 13.4461
_cell_length_c 21.3499
_cell_angle_alpha 90
_cell_angle_beta 90
_cell_angle_gamma 90
_space_group_name_H-M_alt 'P 1'
_space_group_name_Hall 'P 1'
loop_
    _symmetry_equiv_pos_as_xyz
    x,y,z
loop_
    _atom_site_label
    _atom_site_type_symbol
    _atom_site_fract_x
    _atom_site_fract_y
    _atom_site_fract_z
    _atom_site_occupancy
    C1       C        0.01630    0.97770    0.27730    1.000
    H1       H        0.99400    0.01830    0.25190    1.000
    N1       N        0.06719    0.01140    0.29547    1.000
    C2       C        0.99490    0.88620    0.29390    1.000
    H2       H        0.95950    0.86490    0.27940    1.000
    N2       N        0.16895    0.08250    0.32418    1.000
    C3       C        0.02750    0.82690    0.33260    1.000
    H3       H        0.01380    0.76540    0.34580    1.000
    C4       C        0.08040    0.85950    0.35150    1.000
    H4       H        0.10300    0.82020    0.37750    1.000
    C5       C        0.09977    0.95240    0.33129    1.000
    C6       C        0.15720    0.99230    0.34796    1.000
    C7       C        0.19690    0.94110    0.38360    1.000
    H5       H        0.18830    0.87850    0.39950    1.000
    C8       C        0.24960    0.98410    0.39540    1.000
    H6       H        0.27670    0.95070    0.41950    1.000
    C9       C        0.26150    0.07520    0.37170    1.000
    H7       H        0.29650    0.10570    0.37900    1.000
    C10      C        0.21980    0.12110    0.33630    1.000
    H8       H        0.22800    0.18360    0.31990    1.000
    Cu1      Cu       0.10154    0.15606    0.27800    1.000
    N3       N        0.09565    0.16430    0.18723    1.000
    C11      C        0.07809    0.13790    0.13988    1.000
    S1       S        0.06772    0.90838    0.10099    1.000
    Re1      Re       0.02764    0.08898    0.94171    1.000
    S2       S        0.04999    0.94669    0.87799    1.000
    Re2      Re       0.06340    0.92128    0.98851    1.000
    S3       S        0.00114    0.21805    0.01462    1.000
    S4       S        0.11908    0.07290    0.99358    1.000
    Re3      Re       0.03745    0.06812    0.06278    1.000
    N4       N        0.07469    0.25730    0.33536    1.000
    C12      C        0.05858    0.31100    0.37312    1.000
    C13      C        0.23180    0.94550    0.08130    1.000
    H9       H        0.23580    0.97720    0.04280    1.000
    N5       N        0.24655    0.84920    0.08580    1.000
    C14      C        0.21100    0.99900    0.13100    1.000
    H10      H        0.20030    0.06520    0.12640    1.000
    C15      C        0.20650    0.95230    0.18690    1.000
    H11      H        0.19280    0.98690    0.22150    1.000
    C16      C        0.22200    0.85360    0.19310    1.000
    H12      H        0.21900    0.82140    0.23150    1.000
    C17      C        0.24220    0.80380    0.14080    1.000
    N6       N        0.17653    0.78320    0.97249    1.000
    C18      C        0.13591    0.83050    0.97574    1.000
    C19      C        0.48370    0.52230    0.27730    1.000
    H13      H        0.50600    0.48170    0.25190    1.000
    N7       N        0.43281    0.48860    0.29547    1.000
    C20      C        0.50510    0.61380    0.29390    1.000
    H14      H        0.54050    0.63510    0.27940    1.000
    N8       N        0.33105    0.41750    0.32418    1.000
    C21      C        0.47250    0.67310    0.33260    1.000
    H15      H        0.48620    0.73460    0.34580    1.000
    C22      C        0.41960    0.64050    0.35150    1.000
    H16      H        0.39700    0.67980    0.37750    1.000
    C23      C        0.40023    0.54760    0.33129    1.000
    C24      C        0.34280    0.50770    0.34796    1.000
    C25      C        0.30310    0.55890    0.38360    1.000
    H17      H        0.31170    0.62150    0.39950    1.000
    C26      C        0.25040    0.51590    0.39540    1.000
    H18      H        0.22330    0.54930    0.41950    1.000
    C27      C        0.23850    0.42480    0.37170    1.000
    H19      H        0.20350    0.39430    0.37900    1.000
    C28      C        0.28020    0.37890    0.33630    1.000
    H20      H        0.27200    0.31640    0.31990    1.000
    Cu2      Cu       0.39846    0.34394    0.27800    1.000
    N9       N        0.40435    0.33570    0.18723    1.000
    C29      C        0.42191    0.36210    0.13988    1.000
    S5       S        0.43228    0.59162    0.10099    1.000
    Re4      Re       0.47236    0.41102    0.94171    1.000
    S6       S        0.45001    0.55331    0.87799    1.000
    Re5      Re       0.43660    0.57872    0.98851    1.000
    S7       S        0.49886    0.28195    0.01462    1.000
    S8       S        0.38092    0.42710    0.99358    1.000
    Re6      Re       0.46255    0.43188    0.06278    1.000
    N10      N        0.42531    0.24270    0.33536    1.000
    C30      C        0.44142    0.18900    0.37312    1.000
    C31      C        0.26820    0.55450    0.08130    1.000
    H21      H        0.26420    0.52280    0.04280    1.000
    N11      N        0.25345    0.65080    0.08580    1.000
    C32      C        0.28900    0.50100    0.13100    1.000
    H22      H        0.29970    0.43480    0.12640    1.000
    C33      C        0.29350    0.54770    0.18690    1.000
    H23      H        0.30720    0.51310    0.22150    1.000
    C34      C        0.27800    0.64640    0.19310    1.000
    H24      H        0.28100    0.67860    0.23150    1.000
    C35      C        0.25780    0.69620    0.14080    1.000
    N12      N        0.32347    0.71680    0.97249    1.000
    C36      C        0.36409    0.66950    0.97574    1.000
    C37      C        0.98370    0.47770    0.22270    1.000
    H25      H        0.00600    0.51830    0.24810    1.000
    N13      N        0.93281    0.51140    0.20453    1.000
    C38      C        0.00510    0.38620    0.20610    1.000
    H26      H        0.04050    0.36490    0.22060    1.000
    N14      N        0.83105    0.58250    0.17582    1.000
    C39      C        0.97250    0.32690    0.16740    1.000
    H27      H        0.98620    0.26540    0.15420    1.000
    C40      C        0.91960    0.35950    0.14850    1.000
    H28      H        0.89700    0.32020    0.12250    1.000
    C41      C        0.90023    0.45240    0.16871    1.000
    C42      C        0.84280    0.49230    0.15204    1.000
    C43      C        0.80310    0.44110    0.11640    1.000
    H29      H        0.81170    0.37850    0.10050    1.000
    C44      C        0.75040    0.48410    0.10460    1.000
    H30      H        0.72330    0.45070    0.08050    1.000
    C45      C        0.73850    0.57520    0.12830    1.000
    H31      H        0.70350    0.60570    0.12100    1.000
    C46      C        0.78020    0.62110    0.16370    1.000
    H32      H        0.77200    0.68360    0.18010    1.000
    Cu3      Cu       0.89846    0.65606    0.22200    1.000
    N15      N        0.90435    0.66430    0.31277    1.000
    C47      C        0.92191    0.63790    0.36012    1.000
    S9       S        0.93228    0.40838    0.39901    1.000
    Re7      Re       0.97236    0.58898    0.55829    1.000
    S10      S        0.95001    0.44669    0.62201    1.000
    Re8      Re       0.93660    0.42128    0.51149    1.000
    S11      S        0.99886    0.71805    0.48538    1.000
    S12      S        0.88092    0.57290    0.50642    1.000
    Re9      Re       0.96255    0.56812    0.43722    1.000
    N16      N        0.92531    0.75730    0.16464    1.000
    C48      C        0.94142    0.81100    0.12688    1.000
    C49      C        0.76820    0.44550    0.41870    1.000
    H33      H        0.76420    0.47720    0.45720    1.000
    N17      N        0.75345    0.34920    0.41420    1.000
    C50      C        0.78900    0.49900    0.36900    1.000
    H34      H        0.79970    0.56520    0.37360    1.000
    C51      C        0.79350    0.45230    0.31310    1.000
    H35      H        0.80720    0.48690    0.27850    1.000
    C52      C        0.77800    0.35360    0.30690    1.000
    H36      H        0.78100    0.32140    0.26850    1.000
    C53      C        0.75780    0.30380    0.35920    1.000
    N18      N        0.82347    0.28320    0.52751    1.000
    C54      C        0.86409    0.33050    0.52426    1.000
    C55      C        0.51630    0.02230    0.22270    1.000
    H37      H        0.49400    0.98170    0.24810    1.000
    N19      N        0.56719    0.98860    0.20453    1.000
    C56      C        0.49490    0.11380    0.20610    1.000
    H38      H        0.45950    0.13510    0.22060    1.000
    N20      N        0.66895    0.91750    0.17582    1.000
    C57      C        0.52750    0.17310    0.16740    1.000
    H39      H        0.51380    0.23460    0.15420    1.000
    C58      C        0.58040    0.14050    0.14850    1.000
    H40      H        0.60300    0.17980    0.12250    1.000
    C59      C        0.59977    0.04760    0.16871    1.000
    C60      C        0.65720    0.00770    0.15204    1.000
    C61      C        0.69690    0.05890    0.11640    1.000
    H41      H        0.68830    0.12150    0.10050    1.000
    C62      C        0.74960    0.01590    0.10460    1.000
    H42      H        0.77670    0.04930    0.08050    1.000
    C63      C        0.76150    0.92480    0.12830    1.000
    H43      H        0.79650    0.89430    0.12100    1.000
    C64      C        0.71980    0.87890    0.16370    1.000
    H44      H        0.72800    0.81640    0.18010    1.000
    Cu4      Cu       0.60154    0.84394    0.22200    1.000
    N21      N        0.59565    0.83570    0.31277    1.000
    C65      C        0.57809    0.86210    0.36012    1.000
    S13      S        0.56772    0.09162    0.39901    1.000
    Re10     Re       0.52764    0.91102    0.55829    1.000
    S14      S        0.54999    0.05331    0.62201    1.000
    Re11     Re       0.56340    0.07872    0.51149    1.000
    S15      S        0.50114    0.78195    0.48538    1.000
    S16      S        0.61908    0.92710    0.50642    1.000
    Re12     Re       0.53745    0.93188    0.43722    1.000
    N22      N        0.57469    0.74270    0.16464    1.000
    C66      C        0.55858    0.68900    0.12688    1.000
    C67      C        0.73180    0.05450    0.41870    1.000
    H45      H        0.73580    0.02280    0.45720    1.000
    N23      N        0.74655    0.15080    0.41420    1.000
    C68      C        0.71100    0.00100    0.36900    1.000
    H46      H        0.70030    0.93480    0.37360    1.000
    C69      C        0.70650    0.04770    0.31310    1.000
    H47      H        0.69280    0.01310    0.27850    1.000
    C70      C        0.72200    0.14640    0.30690    1.000
    H48      H        0.71900    0.17860    0.26850    1.000
    C71      C        0.74220    0.19620    0.35920    1.000
    N24      N        0.67653    0.21680    0.52751    1.000
    C72      C        0.63591    0.16950    0.52426    1.000
    C73      C        0.98370    0.02230    0.72270    1.000
    H49      H        0.00600    0.98170    0.74810    1.000
    N25      N        0.93281    0.98860    0.70453    1.000
    C74      C        0.00510    0.11380    0.70610    1.000
    H50      H        0.04050    0.13510    0.72060    1.000
    N26      N        0.83105    0.91750    0.67582    1.000
    C75      C        0.97250    0.17310    0.66740    1.000
    H51      H        0.98620    0.23460    0.65420    1.000
    C76      C        0.91960    0.14050    0.64850    1.000
    H52      H        0.89700    0.17980    0.62250    1.000
    C77      C        0.90023    0.04760    0.66871    1.000
    C78      C        0.84280    0.00770    0.65204    1.000
    C79      C        0.80310    0.05890    0.61640    1.000
    H53      H        0.81170    0.12150    0.60050    1.000
    C80      C        0.75040    0.01590    0.60460    1.000
    H54      H        0.72330    0.04930    0.58050    1.000
    C81      C        0.73850    0.92480    0.62830    1.000
    H55      H        0.70350    0.89430    0.62100    1.000
    C82      C        0.78020    0.87890    0.66370    1.000
    H56      H        0.77200    0.81640    0.68010    1.000
    Cu5      Cu       0.89846    0.84394    0.72200    1.000
    N27      N        0.90435    0.83570    0.81277    1.000
    C83      C        0.92191    0.86210    0.86012    1.000
    S17      S        0.93228    0.09162    0.89901    1.000
    Re13     Re       0.97236    0.91102    0.05829    1.000
    S18      S        0.95001    0.05331    0.12201    1.000
    Re14     Re       0.93660    0.07872    0.01149    1.000
    S19      S        0.99886    0.78195    0.98538    1.000
    S20      S        0.88092    0.92710    0.00642    1.000
    Re15     Re       0.96255    0.93188    0.93722    1.000
    N28      N        0.92531    0.74270    0.66464    1.000
    C84      C        0.94142    0.68900    0.62688    1.000
    C85      C        0.76820    0.05450    0.91870    1.000
    H57      H        0.76420    0.02280    0.95720    1.000
    N29      N        0.75345    0.15080    0.91420    1.000
    C86      C        0.78900    0.00100    0.86900    1.000
    H58      H        0.79970    0.93480    0.87360    1.000
    C87      C        0.79350    0.04770    0.81310    1.000
    H59      H        0.80720    0.01310    0.77850    1.000
    C88      C        0.77800    0.14640    0.80690    1.000
    H60      H        0.78100    0.17860    0.76850    1.000
    C89      C        0.75780    0.19620    0.85920    1.000
    N30      N        0.82347    0.21680    0.02751    1.000
    C90      C        0.86409    0.16950    0.02426    1.000
    C91      C        0.51630    0.47770    0.72270    1.000
    H61      H        0.49400    0.51830    0.74810    1.000
    N31      N        0.56719    0.51140    0.70453    1.000
    C92      C        0.49490    0.38620    0.70610    1.000
    H62      H        0.45950    0.36490    0.72060    1.000
    N32      N        0.66895    0.58250    0.67582    1.000
    C93      C        0.52750    0.32690    0.66740    1.000
    H63      H        0.51380    0.26540    0.65420    1.000
    C94      C        0.58040    0.35950    0.64850    1.000
    H64      H        0.60300    0.32020    0.62250    1.000
    C95      C        0.59977    0.45240    0.66871    1.000
    C96      C        0.65720    0.49230    0.65204    1.000
    C97      C        0.69690    0.44110    0.61640    1.000
    H65      H        0.68830    0.37850    0.60050    1.000
    C98      C        0.74960    0.48410    0.60460    1.000
    H66      H        0.77670    0.45070    0.58050    1.000
    C99      C        0.76150    0.57520    0.62830    1.000
    H67      H        0.79650    0.60570    0.62100    1.000
    C100     C        0.71980    0.62110    0.66370    1.000
    H68      H        0.72800    0.68360    0.68010    1.000
    Cu6      Cu       0.60154    0.65606    0.72200    1.000
    N33      N        0.59565    0.66430    0.81277    1.000
    C101     C        0.57809    0.63790    0.86012    1.000
    S21      S        0.56772    0.40838    0.89901    1.000
    Re16     Re       0.52764    0.58898    0.05829    1.000
    S22      S        0.54999    0.44669    0.12201    1.000
    Re17     Re       0.56340    0.42128    0.01149    1.000
    S23      S        0.50114    0.71805    0.98538    1.000
    S24      S        0.61908    0.57290    0.00642    1.000
    Re18     Re       0.53745    0.56812    0.93722    1.000
    N34      N        0.57469    0.75730    0.66464    1.000
    C102     C        0.55858    0.81100    0.62688    1.000
    C103     C        0.73180    0.44550    0.91870    1.000
    H69      H        0.73580    0.47720    0.95720    1.000
    N35      N        0.74655    0.34920    0.91420    1.000
    C104     C        0.71100    0.49900    0.86900    1.000
    H70      H        0.70030    0.56520    0.87360    1.000
    C105     C        0.70650    0.45230    0.81310    1.000
    H71      H        0.69280    0.48690    0.77850    1.000
    C106     C        0.72200    0.35360    0.80690    1.000
    H72      H        0.71900    0.32140    0.76850    1.000
    C107     C        0.74220    0.30380    0.85920    1.000
    N36      N        0.67653    0.28320    0.02751    1.000
    C108     C        0.63591    0.33050    0.02426    1.000
    C109     C        0.01630    0.52230    0.77730    1.000
    H73      H        0.99400    0.48170    0.75190    1.000
    N37      N        0.06719    0.48860    0.79547    1.000
    C110     C        0.99490    0.61380    0.79390    1.000
    H74      H        0.95950    0.63510    0.77940    1.000
    N38      N        0.16895    0.41750    0.82418    1.000
    C111     C        0.02750    0.67310    0.83260    1.000
    H75      H        0.01380    0.73460    0.84580    1.000
    C112     C        0.08040    0.64050    0.85150    1.000
    H76      H        0.10300    0.67980    0.87750    1.000
    C113     C        0.09977    0.54760    0.83129    1.000
    C114     C        0.15720    0.50770    0.84796    1.000
    C115     C        0.19690    0.55890    0.88360    1.000
    H77      H        0.18830    0.62150    0.89950    1.000
    C116     C        0.24960    0.51590    0.89540    1.000
    H78      H        0.27670    0.54930    0.91950    1.000
    C117     C        0.26150    0.42480    0.87170    1.000
    H79      H        0.29650    0.39430    0.87900    1.000
    C118     C        0.21980    0.37890    0.83630    1.000
    H80      H        0.22800    0.31640    0.81990    1.000
    Cu7      Cu       0.10154    0.34394    0.77800    1.000
    N39      N        0.09565    0.33570    0.68723    1.000
    C119     C        0.07809    0.36210    0.63988    1.000
    S25      S        0.06772    0.59162    0.60099    1.000
    Re19     Re       0.02764    0.41102    0.44171    1.000
    S26      S        0.04999    0.55331    0.37799    1.000
    Re20     Re       0.06340    0.57872    0.48851    1.000
    S27      S        0.00114    0.28195    0.51462    1.000
    S28      S        0.11908    0.42710    0.49358    1.000
    Re21     Re       0.03745    0.43188    0.56278    1.000
    N40      N        0.07469    0.24270    0.83536    1.000
    C120     C        0.05858    0.18900    0.87312    1.000
    C121     C        0.23180    0.55450    0.58130    1.000
    H81      H        0.23580    0.52280    0.54280    1.000
    N41      N        0.24655    0.65080    0.58580    1.000
    C122     C        0.21100    0.50100    0.63100    1.000
    H82      H        0.20030    0.43480    0.62640    1.000
    C123     C        0.20650    0.54770    0.68690    1.000
    H83      H        0.19280    0.51310    0.72150    1.000
    C124     C        0.22200    0.64640    0.69310    1.000
    H84      H        0.21900    0.67860    0.73150    1.000
    C125     C        0.24220    0.69620    0.64080    1.000
    N42      N        0.17653    0.71680    0.47249    1.000
    C126     C        0.13591    0.66950    0.47574    1.000
    C127     C        0.48370    0.97770    0.77730    1.000
    H85      H        0.50600    0.01830    0.75190    1.000
    N43      N        0.43281    0.01140    0.79547    1.000
    C128     C        0.50510    0.88620    0.79390    1.000
    H86      H        0.54050    0.86490    0.77940    1.000
    N44      N        0.33105    0.08250    0.82418    1.000
    C129     C        0.47250    0.82690    0.83260    1.000
    H87      H        0.48620    0.76540    0.84580    1.000
    C130     C        0.41960    0.85950    0.85150    1.000
    H88      H        0.39700    0.82020    0.87750    1.000
    C131     C        0.40023    0.95240    0.83129    1.000
    C132     C        0.34280    0.99230    0.84796    1.000
    C133     C        0.30310    0.94110    0.88360    1.000
    H89      H        0.31170    0.87850    0.89950    1.000
    C134     C        0.25040    0.98410    0.89540    1.000
    H90      H        0.22330    0.95070    0.91950    1.000
    C135     C        0.23850    0.07520    0.87170    1.000
    H91      H        0.20350    0.10570    0.87900    1.000
    C136     C        0.28020    0.12110    0.83630    1.000
    H92      H        0.27200    0.18360    0.81990    1.000
    Cu8      Cu       0.39846    0.15606    0.77800    1.000
    N45      N        0.40435    0.16430    0.68723    1.000
    C137     C        0.42191    0.13790    0.63988    1.000
    S29      S        0.43228    0.90838    0.60099    1.000
    Re22     Re       0.47236    0.08898    0.44171    1.000
    S30      S        0.45001    0.94669    0.37799    1.000
    Re23     Re       0.43660    0.92128    0.48851    1.000
    S31      S        0.49886    0.21805    0.51462    1.000
    S32      S        0.38092    0.07290    0.49358    1.000
    Re24     Re       0.46255    0.06812    0.56278    1.000
    N46      N        0.42531    0.25730    0.83536    1.000
    C138     C        0.44142    0.31100    0.87312    1.000
    C139     C        0.26820    0.94550    0.58130    1.000
    H93      H        0.26420    0.97720    0.54280    1.000
    N47      N        0.25345    0.84920    0.58580    1.000
    C140     C        0.28900    0.99900    0.63100    1.000
    H94      H        0.29970    0.06520    0.62640    1.000
    C141     C        0.29350    0.95230    0.68690    1.000
    H95      H        0.30720    0.98690    0.72150    1.000
    C142     C        0.27800    0.85360    0.69310    1.000
    H96      H        0.28100    0.82140    0.73150    1.000
    C143     C        0.25780    0.80380    0.64080    1.000
    N48      N        0.32347    0.78320    0.47249    1.000
    C144     C        0.36409    0.83050    0.47574    1.000
    Cu9      Cu       0.25000    0.75000    0.00922    1.000
    Cu10     Cu       0.75000    0.25000    0.49078    1.000
    Cu11     Cu       0.75000    0.25000    0.99078    1.000
    Cu12     Cu       0.25000    0.75000    0.50922    1.000
