# CIF file generated by openbabel 3.1.0, see https://openbabel.org
data_I
_chemical_name_common 'image0'
_cell_length_a 7.794
_cell_length_b 17.524
_cell_length_c 13.763
_cell_angle_alpha 90
_cell_angle_beta 101.393
_cell_angle_gamma 90
_space_group_name_H-M_alt 'P 1'
_space_group_name_Hall 'P 1'
loop_
    _symmetry_equiv_pos_as_xyz
    x,y,z
loop_
    _atom_site_label
    _atom_site_type_symbol
    _atom_site_fract_x
    _atom_site_fract_y
    _atom_site_fract_z
    _atom_site_occupancy
    Zn1      Zn       0.71130    0.96279    0.99744    1.000
    Zn2      Zn       0.42933    0.90831    0.15391    1.000
    Zn3      Zn       0.95970    0.02325    0.82593    1.000
    C1       C        0.52350    0.15070    0.14660    1.000
    C2       C        0.55200    0.20460    0.07870    1.000
    H1       H        0.57420    0.18930    0.01770    1.000
    C3       C        0.54770    0.28220    0.10120    1.000
    C4       C        0.51730    0.30560    0.19270    1.000
    H2       H        0.51480    0.35740    0.20720    1.000
    C5       C        0.49030    0.25110    0.26400    1.000
    C6       C        0.48660    0.17340    0.23830    1.000
    H3       H        0.45960    0.13700    0.28200    1.000
    C7       C        0.53010    0.06710    0.12160    1.000
    C8       C        0.56240    0.34020    0.02420    1.000
    C9       C        0.46080    0.27860    0.36290    1.000
    C10      C        0.36410    0.34760    0.36970    1.000
    H4       H        0.31550    0.37470    0.31290    1.000
    C11      C        0.34460    0.37260    0.46040    1.000
    H5       H        0.27880    0.41640    0.46390    1.000
    C12      C        0.41800    0.33590    0.54750    1.000
    C13      C        0.51620    0.26990    0.53990    1.000
    H6       H        0.57060    0.24470    0.59720    1.000
    C14      C        0.53330    0.24190    0.44950    1.000
    H7       H        0.59550    0.19690    0.44660    1.000
    C15      C        0.40140    0.36930    0.64650    1.000
    C16      C        0.95330    0.77800    0.86390    1.000
    C17      C        0.95860    0.72110    0.93400    1.000
    H8       H        0.93710    0.73250    0.99650    1.000
    C18      C        0.99650    0.64660    0.91010    1.000
    C19      C        0.01780    0.62870    0.81460    1.000
    H9       H        0.03480    0.57810    0.79830    1.000
    C20      C        0.01420    0.68520    0.74270    1.000
    C21      C        0.98750    0.76140    0.77240    1.000
    H10      H        0.99340    0.80100    0.72830    1.000
    C22      C        0.90630    0.86010    0.88700    1.000
    C23      C        0.02060    0.58530    0.98700    1.000
    C24      C        0.03500    0.66580    0.64090    1.000
    C25      C        0.12250    0.60110    0.61980    1.000
    H11      H        0.17830    0.57020    0.67140    1.000
    C26      C        0.12840    0.58150    0.52310    1.000
    H12      H        0.18280    0.53630    0.51090    1.000
    C27      C        0.05550    0.62760    0.44460    1.000
    C28      C        0.97100    0.69580    0.46630    1.000
    H13      H        0.92270    0.72850    0.41490    1.000
    C29      C        0.95980    0.71400    0.56050    1.000
    H14      H        0.90230    0.75840    0.57270    1.000
    C30      C        0.06020    0.60820    0.33850    1.000
    O1       O        0.46650    0.01830    0.17070    1.000
    O2       O        0.60520    0.05260    0.04910    1.000
    O3       O        0.59760    0.31970    0.94270    1.000
    O4       O        0.53650    0.41090    0.04080    1.000
    O5       O        0.27250    0.40880    0.65360    1.000
    O6       O        0.52640    0.35360    0.71890    1.000
    O7       O        0.83000    0.86950    0.95740    1.000
    O8       O        0.94550    0.90960    0.83110    1.000
    O9       O        0.01550    0.60540    0.07420    1.000
    O10      O        0.04520    0.51740    0.96400    1.000
    O11      O        0.09180    0.54120    0.31760    1.000
    O12      O        0.03740    0.66030    0.27500    1.000
    Zn4      Zn       0.28870    0.46279    0.00256    1.000
    Zn5      Zn       0.57067    0.40831    0.84609    1.000
    Zn6      Zn       0.04030    0.52325    0.17407    1.000
    C31      C        0.47650    0.65070    0.85340    1.000
    C32      C        0.44800    0.70460    0.92130    1.000
    H15      H        0.42580    0.68930    0.98230    1.000
    C33      C        0.45230    0.78220    0.89880    1.000
    C34      C        0.48270    0.80560    0.80730    1.000
    H16      H        0.48520    0.85740    0.79280    1.000
    C35      C        0.50970    0.75110    0.73600    1.000
    C36      C        0.51340    0.67340    0.76170    1.000
    H17      H        0.54040    0.63700    0.71800    1.000
    C37      C        0.46990    0.56710    0.87840    1.000
    C38      C        0.43760    0.84020    0.97580    1.000
    C39      C        0.53920    0.77860    0.63710    1.000
    C40      C        0.63590    0.84760    0.63030    1.000
    H18      H        0.68450    0.87470    0.68710    1.000
    C41      C        0.65540    0.87260    0.53960    1.000
    H19      H        0.72120    0.91640    0.53610    1.000
    C42      C        0.58200    0.83590    0.45250    1.000
    C43      C        0.48380    0.76990    0.46010    1.000
    H20      H        0.42940    0.74470    0.40280    1.000
    C44      C        0.46670    0.74190    0.55050    1.000
    H21      H        0.40450    0.69690    0.55340    1.000
    C45      C        0.59860    0.86930    0.35350    1.000
    C46      C        0.04670    0.27800    0.13610    1.000
    C47      C        0.04140    0.22110    0.06600    1.000
    H22      H        0.06290    0.23250    0.00350    1.000
    C48      C        0.00350    0.14660    0.08990    1.000
    C49      C        0.98220    0.12870    0.18540    1.000
    H23      H        0.96520    0.07810    0.20170    1.000
    C50      C        0.98580    0.18520    0.25730    1.000
    C51      C        0.01250    0.26140    0.22760    1.000
    H24      H        0.00660    0.30100    0.27170    1.000
    C52      C        0.09370    0.36010    0.11300    1.000
    C53      C        0.97940    0.08530    0.01300    1.000
    C54      C        0.96500    0.16580    0.35910    1.000
    C55      C        0.87750    0.10110    0.38020    1.000
    H25      H        0.82170    0.07020    0.32860    1.000
    C56      C        0.87160    0.08150    0.47690    1.000
    H26      H        0.81720    0.03630    0.48910    1.000
    C57      C        0.94450    0.12760    0.55540    1.000
    C58      C        0.02900    0.19580    0.53370    1.000
    H27      H        0.07730    0.22850    0.58510    1.000
    C59      C        0.04020    0.21400    0.43950    1.000
    H28      H        0.09770    0.25840    0.42730    1.000
    C60      C        0.93980    0.10820    0.66150    1.000
    O13      O        0.53350    0.51830    0.82930    1.000
    O14      O        0.39480    0.55260    0.95090    1.000
    O15      O        0.40240    0.81970    0.05730    1.000
    O16      O        0.46350    0.91090    0.95920    1.000
    O17      O        0.72750    0.90880    0.34640    1.000
    O18      O        0.47360    0.85360    0.28110    1.000
    O19      O        0.17000    0.36950    0.04260    1.000
    O20      O        0.05450    0.40960    0.16890    1.000
    O21      O        0.98450    0.10540    0.92580    1.000
    O22      O        0.95480    0.01740    0.03600    1.000
    O23      O        0.90820    0.04120    0.68240    1.000
    O24      O        0.96260    0.16030    0.72500    1.000
