data_functionalizedCrystal
_audit_creation_method	'EQeq! by Chris Wilmer'
_symmetry_space_group_name_H-M	'P1'
_symmetry_Int_Tables_number	1
_symmetry_cell_setting	triclinic
loop_
_symmetry_equiv_pos_as_xyz
  x,y,z
_cell_length_a	26.4573
_cell_length_b	26.4573
_cell_length_c	5.2854
_cell_angle_alpha	90
_cell_angle_beta	90
_cell_angle_gamma	90
loop_
_atom_site_label
_atom_site_type_symbol
_atom_site_fract_x
_atom_site_fract_y
_atom_site_fract_z
_atom_site_charge
Mof_Zn	Zn	0.28515	0.7738	0.08418	1.218
Mof_H 	H 	0.3928	0.7949	0.8591	-0.004
Mof_H 	H 	0.3208	0.6873	0.4757	0.036
Mof_H 	H 	0.8303	0.1222	0.3135	0.041
Mof_H 	H 	0.8789	0.0643	0.5217	0.041
Mof_H 	H 	0.463	0.5519	0.9039	0.031
Mof_H 	H 	0.4991	0.5993	0.5956	0.062
Mof_H 	H 	0.4937	0.6677	0.2801	0.082
Mof_H 	H 	0.4703	0.8308	0.8905	0.132
Mof_H 	H 	0.5505	0.8587	0.7648	-0.002
Mof_H 	H 	0.596	0.7143	0.7249	-0.028
Mof_H 	H 	0.5151	0.6882	0.8516	0.12
Mof_C 	C 	0.39596	0.76843	0.974	0.117
Mof_C 	C 	0.3781	0.71248	0.2589	0.043
Mof_C 	C 	0.35494	0.68328	0.4388	-0.121
Mof_C 	C 	0.38437	0.64691	0.5662	0.028
Mof_C 	C 	0.86388	0.11769	0.2667	-0.062
Mof_C 	C 	0.89274	0.0833	0.3907	-0.046
Mof_C 	C 	0.4438	0.57629	0.8212	-0.019
Mof_C 	C 	0.4653	0.60429	0.6368	-0.098
Mof_C 	C 	0.43659	0.64149	0.5049	0.052
Mof_C 	C 	0.45972	0.6717	0.3208	-0.14
Mof_C 	C 	0.43037	0.70749	0.2024	0.086
Mof_C 	C 	0.48796	0.75835	0.9168	0.22
Mof_C 	C 	0.4963	0.8077	0.868	-0.247
Mof_C 	C 	0.5433	0.8245	0.784	0.146
Mof_C 	C 	0.58069	0.78551	0.7263	-0.237
Mof_C 	C 	0.5711	0.7382	0.7584	0.173
Mof_C 	C 	0.5231	0.7224	0.8441	-0.251
Mof_C 	C 	0.6317	0.8009	0.625	0.47
Mof_N 	N 	0.35842	0.7512	0.1077	-0.277
Mof_N 	N 	0.44014	0.74393	0.0193	-0.175
Mof_O 	O 	0.25349	0.77667	0.4095	-0.665
Mof_O 	O 	0.66521	0.77711	0.62	-0.581
Mof_O 	O 	0.6356	0.8527	0.596	-0.3
Mof_H 	H 	0.31447	0.25407	0.0905	0.145
Mof_Zn	Zn	0.78515	0.2738	0.58418	1.221
Mof_H 	H 	0.8928	0.2949	0.3591	-0
Mof_H 	H 	0.8208	0.1873	0.9757	0.036
Mof_H 	H 	0.3303	0.6222	0.8135	0.048
Mof_H 	H 	0.3789	0.5643	0.0217	0.034
Mof_H 	H 	0.963	0.0519	0.4039	0.027
Mof_H 	H 	0.9991	0.0993	0.0956	0.065
Mof_H 	H 	0.9937	0.1677	0.7801	0.082
Mof_H 	H 	0.9703	0.3308	0.3905	0.13
Mof_H 	H 	0.0505	0.3587	0.2648	-0
Mof_H 	H 	0.096	0.2143	0.2249	-0.026
Mof_H 	H 	0.0151	0.1882	0.3516	0.118
Mof_C 	C 	0.89596	0.26843	0.474	0.103
Mof_C 	C 	0.8781	0.21248	0.7589	0.04
Mof_C 	C 	0.85494	0.18328	0.9388	-0.109
Mof_C 	C 	0.88437	0.14691	0.0662	0.014
Mof_C 	C 	0.36388	0.61769	0.7667	-0.074
Mof_C 	C 	0.39274	0.5833	0.8907	-0.032
Mof_C 	C 	0.9438	0.07629	0.3212	-0.009
Mof_C 	C 	0.9653	0.10429	0.1368	-0.106
Mof_C 	C 	0.93659	0.14149	0.0049	0.057
Mof_C 	C 	0.95972	0.1717	0.8208	-0.142
Mof_C 	C 	0.93037	0.20749	0.7024	0.088
Mof_C 	C 	0.98796	0.25835	0.4168	0.214
Mof_C 	C 	0.9963	0.3077	0.368	-0.242
Mof_C 	C 	0.0433	0.3245	0.284	0.143
Mof_C 	C 	0.08069	0.28551	0.2263	-0.233
Mof_C 	C 	0.0711	0.2382	0.2584	0.169
Mof_C 	C 	0.0231	0.2224	0.3441	-0.247
Mof_C 	C 	0.1317	0.3009	0.125	0.469
Mof_N 	N 	0.85842	0.2512	0.6077	-0.27
Mof_N 	N 	0.94014	0.24393	0.5193	-0.17
Mof_O 	O 	0.75349	0.27667	0.9095	-0.66
Mof_O 	O 	0.16521	0.27711	0.12	-0.576
Mof_O 	O 	0.1356	0.3527	0.096	-0.298
Mof_H 	H 	0.81447	0.75407	0.5905	0.143
Mof_Zn	Zn	0.71485	0.2262	0.08418	1.219
Mof_H 	H 	0.6072	0.2051	0.8591	-0.003
Mof_H 	H 	0.6792	0.3127	0.4757	0.037
Mof_H 	H 	0.1697	0.8778	0.3135	0.042
Mof_H 	H 	0.1211	0.9357	0.5217	0.041
Mof_H 	H 	0.537	0.4481	0.9039	0.031
Mof_H 	H 	0.5009	0.4007	0.5956	0.062
Mof_H 	H 	0.5063	0.3323	0.2801	0.082
Mof_H 	H 	0.5297	0.1692	0.8905	0.132
Mof_H 	H 	0.4495	0.1413	0.7648	-0.002
Mof_H 	H 	0.404	0.2857	0.7249	-0.028
Mof_H 	H 	0.4849	0.3118	0.8516	0.12
Mof_C 	C 	0.60404	0.23157	0.974	0.117
Mof_C 	C 	0.6219	0.28752	0.2589	0.043
Mof_C 	C 	0.64506	0.31672	0.4388	-0.121
Mof_C 	C 	0.61563	0.35309	0.5662	0.028
Mof_C 	C 	0.13612	0.88231	0.2667	-0.062
Mof_C 	C 	0.10726	0.9167	0.3907	-0.046
Mof_C 	C 	0.5562	0.42371	0.8212	-0.019
Mof_C 	C 	0.5347	0.39571	0.6368	-0.098
Mof_C 	C 	0.56341	0.35851	0.5049	0.052
Mof_C 	C 	0.54028	0.3283	0.3208	-0.14
Mof_C 	C 	0.56963	0.29251	0.2024	0.086
Mof_C 	C 	0.51204	0.24165	0.9168	0.22
Mof_C 	C 	0.5037	0.1923	0.868	-0.247
Mof_C 	C 	0.4567	0.1755	0.784	0.146
Mof_C 	C 	0.41931	0.21449	0.7263	-0.237
Mof_C 	C 	0.4289	0.2618	0.7584	0.173
Mof_C 	C 	0.4769	0.2776	0.8441	-0.251
Mof_C 	C 	0.3683	0.1991	0.625	0.47
Mof_N 	N 	0.64158	0.2488	0.1077	-0.277
Mof_N 	N 	0.55986	0.25607	0.0193	-0.175
Mof_O 	O 	0.74651	0.22333	0.4095	-0.665
Mof_O 	O 	0.33479	0.22289	0.62	-0.581
Mof_O 	O 	0.3644	0.1473	0.596	-0.3
Mof_H 	H 	0.68553	0.74593	0.0905	0.145
Mof_Zn	Zn	0.21485	0.7262	0.58418	1.221
Mof_H 	H 	0.1072	0.7051	0.3591	-0
Mof_H 	H 	0.1792	0.8127	0.9757	0.036
Mof_H 	H 	0.6697	0.3778	0.8135	0.048
Mof_H 	H 	0.6211	0.4357	0.0217	0.034
Mof_H 	H 	0.037	0.9481	0.4039	0.027
Mof_H 	H 	0.0009	0.9007	0.0956	0.065
Mof_H 	H 	0.0063	0.8323	0.7801	0.082
Mof_H 	H 	0.0297	0.6692	0.3905	0.13
Mof_H 	H 	0.9495	0.6413	0.2648	-0
Mof_H 	H 	0.904	0.7857	0.2249	-0.026
Mof_H 	H 	0.9849	0.8118	0.3516	0.118
Mof_C 	C 	0.10404	0.73157	0.474	0.103
Mof_C 	C 	0.1219	0.78752	0.7589	0.04
Mof_C 	C 	0.14506	0.81672	0.9388	-0.109
Mof_C 	C 	0.11563	0.85309	0.0662	0.014
Mof_C 	C 	0.63612	0.38231	0.7667	-0.074
Mof_C 	C 	0.60726	0.4167	0.8907	-0.032
Mof_C 	C 	0.0562	0.92371	0.3212	-0.009
Mof_C 	C 	0.0347	0.89571	0.1368	-0.106
Mof_C 	C 	0.06341	0.85851	0.0049	0.057
Mof_C 	C 	0.04028	0.8283	0.8208	-0.142
Mof_C 	C 	0.06963	0.79251	0.7024	0.088
Mof_C 	C 	0.01204	0.74165	0.4168	0.214
Mof_C 	C 	0.0037	0.6923	0.368	-0.242
Mof_C 	C 	0.9567	0.6755	0.284	0.143
Mof_C 	C 	0.91931	0.71449	0.2263	-0.233
Mof_C 	C 	0.9289	0.7618	0.2584	0.169
Mof_C 	C 	0.9769	0.7776	0.3441	-0.247
Mof_C 	C 	0.8683	0.6991	0.125	0.469
Mof_N 	N 	0.14158	0.7488	0.6077	-0.27
Mof_N 	N 	0.05986	0.75607	0.5193	-0.17
Mof_O 	O 	0.24651	0.72333	0.9095	-0.66
Mof_O 	O 	0.83479	0.72289	0.12	-0.576
Mof_O 	O 	0.8644	0.6473	0.096	-0.298
Mof_H 	H 	0.18553	0.24593	0.5905	0.143
Mof_Zn	Zn	0.7738	0.71485	0.91582	1.219
Mof_H 	H 	0.7949	0.6072	0.1409	-0.003
Mof_H 	H 	0.6873	0.6792	0.5243	0.037
Mof_H 	H 	0.1222	0.1697	0.6865	0.042
Mof_H 	H 	0.0643	0.1211	0.4783	0.041
Mof_H 	H 	0.5519	0.537	0.0961	0.031
Mof_H 	H 	0.5993	0.5009	0.4044	0.062
Mof_H 	H 	0.6677	0.5063	0.7199	0.082
Mof_H 	H 	0.8308	0.5297	0.1095	0.132
Mof_H 	H 	0.8587	0.4495	0.2352	-0.002
Mof_H 	H 	0.7143	0.404	0.2751	-0.028
Mof_H 	H 	0.6882	0.4849	0.1484	0.12
Mof_C 	C 	0.76843	0.60404	0.026	0.117
Mof_C 	C 	0.71248	0.6219	0.7411	0.043
Mof_C 	C 	0.68328	0.64506	0.5612	-0.121
Mof_C 	C 	0.64691	0.61563	0.4338	0.028
Mof_C 	C 	0.11769	0.13612	0.7333	-0.062
Mof_C 	C 	0.0833	0.10726	0.6093	-0.046
Mof_C 	C 	0.57629	0.5562	0.1788	-0.019
Mof_C 	C 	0.60429	0.5347	0.3632	-0.098
Mof_C 	C 	0.64149	0.56341	0.4951	0.052
Mof_C 	C 	0.6717	0.54028	0.6792	-0.14
Mof_C 	C 	0.70749	0.56963	0.7976	0.086
Mof_C 	C 	0.75835	0.51204	0.0832	0.22
Mof_C 	C 	0.8077	0.5037	0.132	-0.247
Mof_C 	C 	0.8245	0.4567	0.216	0.146
Mof_C 	C 	0.78551	0.41931	0.2737	-0.237
Mof_C 	C 	0.7382	0.4289	0.2416	0.173
Mof_C 	C 	0.7224	0.4769	0.1559	-0.251
Mof_C 	C 	0.8009	0.3683	0.375	0.47
Mof_N 	N 	0.7512	0.64158	0.8923	-0.277
Mof_N 	N 	0.74393	0.55986	0.9807	-0.175
Mof_O 	O 	0.77667	0.74651	0.5905	-0.665
Mof_O 	O 	0.77711	0.33479	0.38	-0.581
Mof_O 	O 	0.8527	0.3644	0.404	-0.3
Mof_H 	H 	0.25407	0.68553	0.9095	0.145
Mof_Zn	Zn	0.2738	0.21485	0.41582	1.221
Mof_H 	H 	0.2949	0.1072	0.6409	-0
Mof_H 	H 	0.1873	0.1792	0.0243	0.036
Mof_H 	H 	0.6222	0.6697	0.1865	0.048
Mof_H 	H 	0.5643	0.6211	0.9783	0.034
Mof_H 	H 	0.0519	0.037	0.5961	0.027
Mof_H 	H 	0.0993	0.0009	0.9044	0.065
Mof_H 	H 	0.1677	0.0063	0.2199	0.082
Mof_H 	H 	0.3308	0.0297	0.6095	0.13
Mof_H 	H 	0.3587	0.9495	0.7352	-0
Mof_H 	H 	0.2143	0.904	0.7751	-0.026
Mof_H 	H 	0.1882	0.9849	0.6484	0.118
Mof_C 	C 	0.26843	0.10404	0.526	0.103
Mof_C 	C 	0.21248	0.1219	0.2411	0.04
Mof_C 	C 	0.18328	0.14506	0.0612	-0.109
Mof_C 	C 	0.14691	0.11563	0.9338	0.014
Mof_C 	C 	0.61769	0.63612	0.2333	-0.074
Mof_C 	C 	0.5833	0.60726	0.1093	-0.032
Mof_C 	C 	0.07629	0.0562	0.6788	-0.009
Mof_C 	C 	0.10429	0.0347	0.8632	-0.106
Mof_C 	C 	0.14149	0.06341	0.9951	0.057
Mof_C 	C 	0.1717	0.04028	0.1792	-0.142
Mof_C 	C 	0.20749	0.06963	0.2976	0.088
Mof_C 	C 	0.25835	0.01204	0.5832	0.214
Mof_C 	C 	0.3077	0.0037	0.632	-0.242
Mof_C 	C 	0.3245	0.9567	0.716	0.143
Mof_C 	C 	0.28551	0.91931	0.7737	-0.233
Mof_C 	C 	0.2382	0.9289	0.7416	0.169
Mof_C 	C 	0.2224	0.9769	0.6559	-0.247
Mof_C 	C 	0.3009	0.8683	0.875	0.469
Mof_N 	N 	0.2512	0.14158	0.3923	-0.27
Mof_N 	N 	0.24393	0.05986	0.4807	-0.17
Mof_O 	O 	0.27667	0.24651	0.0905	-0.66
Mof_O 	O 	0.27711	0.83479	0.88	-0.576
Mof_O 	O 	0.3527	0.8644	0.904	-0.298
Mof_H 	H 	0.75407	0.18553	0.4095	0.143
Mof_Zn	Zn	0.2262	0.28515	0.91582	1.219
Mof_H 	H 	0.2051	0.3928	0.1409	-0.003
Mof_H 	H 	0.3127	0.3208	0.5243	0.037
Mof_H 	H 	0.8778	0.8303	0.6865	0.042
Mof_H 	H 	0.9357	0.8789	0.4783	0.041
Mof_H 	H 	0.4481	0.463	0.0961	0.031
Mof_H 	H 	0.4007	0.4991	0.4044	0.062
Mof_H 	H 	0.3323	0.4937	0.7199	0.082
Mof_H 	H 	0.1692	0.4703	0.1095	0.132
Mof_H 	H 	0.1413	0.5505	0.2352	-0.002
Mof_H 	H 	0.2857	0.596	0.2751	-0.028
Mof_H 	H 	0.3118	0.5151	0.1484	0.12
Mof_C 	C 	0.23157	0.39596	0.026	0.117
Mof_C 	C 	0.28752	0.3781	0.7411	0.043
Mof_C 	C 	0.31672	0.35494	0.5612	-0.121
Mof_C 	C 	0.35309	0.38437	0.4338	0.028
Mof_C 	C 	0.88231	0.86388	0.7333	-0.062
Mof_C 	C 	0.9167	0.89274	0.6093	-0.046
Mof_C 	C 	0.42371	0.4438	0.1788	-0.019
Mof_C 	C 	0.39571	0.4653	0.3632	-0.098
Mof_C 	C 	0.35851	0.43659	0.4951	0.052
Mof_C 	C 	0.3283	0.45972	0.6792	-0.14
Mof_C 	C 	0.29251	0.43037	0.7976	0.086
Mof_C 	C 	0.24165	0.48796	0.0832	0.22
Mof_C 	C 	0.1923	0.4963	0.132	-0.247
Mof_C 	C 	0.1755	0.5433	0.216	0.146
Mof_C 	C 	0.21449	0.58069	0.2737	-0.237
Mof_C 	C 	0.2618	0.5711	0.2416	0.173
Mof_C 	C 	0.2776	0.5231	0.1559	-0.251
Mof_C 	C 	0.1991	0.6317	0.375	0.47
Mof_N 	N 	0.2488	0.35842	0.8923	-0.277
Mof_N 	N 	0.25607	0.44014	0.9807	-0.175
Mof_O 	O 	0.22333	0.25349	0.5905	-0.665
Mof_O 	O 	0.22289	0.66521	0.38	-0.581
Mof_O 	O 	0.1473	0.6356	0.404	-0.3
Mof_H 	H 	0.74593	0.31447	0.9095	0.145
Mof_Zn	Zn	0.7262	0.78515	0.41582	1.221
Mof_H 	H 	0.7051	0.8928	0.6409	-0
Mof_H 	H 	0.8127	0.8208	0.0243	0.036
Mof_H 	H 	0.3778	0.3303	0.1865	0.048
Mof_H 	H 	0.4357	0.3789	0.9783	0.034
Mof_H 	H 	0.9481	0.963	0.5961	0.027
Mof_H 	H 	0.9007	0.9991	0.9044	0.065
Mof_H 	H 	0.8323	0.9937	0.2199	0.082
Mof_H 	H 	0.6692	0.9703	0.6095	0.13
Mof_H 	H 	0.6413	0.0505	0.7352	-0
Mof_H 	H 	0.7857	0.096	0.7751	-0.026
Mof_H 	H 	0.8118	0.0151	0.6484	0.118
Mof_C 	C 	0.73157	0.89596	0.526	0.103
Mof_C 	C 	0.78752	0.8781	0.2411	0.04
Mof_C 	C 	0.81672	0.85494	0.0612	-0.109
Mof_C 	C 	0.85309	0.88437	0.9338	0.014
Mof_C 	C 	0.38231	0.36388	0.2333	-0.074
Mof_C 	C 	0.4167	0.39274	0.1093	-0.032
Mof_C 	C 	0.92371	0.9438	0.6788	-0.009
Mof_C 	C 	0.89571	0.9653	0.8632	-0.106
Mof_C 	C 	0.85851	0.93659	0.9951	0.057
Mof_C 	C 	0.8283	0.95972	0.1792	-0.142
Mof_C 	C 	0.79251	0.93037	0.2976	0.088
Mof_C 	C 	0.74165	0.98796	0.5832	0.214
Mof_C 	C 	0.6923	0.9963	0.632	-0.242
Mof_C 	C 	0.6755	0.0433	0.716	0.143
Mof_C 	C 	0.71449	0.08069	0.7737	-0.233
Mof_C 	C 	0.7618	0.0711	0.7416	0.169
Mof_C 	C 	0.7776	0.0231	0.6559	-0.247
Mof_C 	C 	0.6991	0.1317	0.875	0.469
Mof_N 	N 	0.7488	0.85842	0.3923	-0.27
Mof_N 	N 	0.75607	0.94014	0.4807	-0.17
Mof_O 	O 	0.72333	0.75349	0.0905	-0.66
Mof_O 	O 	0.72289	0.16521	0.88	-0.576
Mof_O 	O 	0.6473	0.1356	0.904	-0.298
Mof_H 	H 	0.24593	0.81447	0.4095	0.143
_end
