# CIF file generated by openbabel 3.1.0, see https://openbabel.org
data_I
_chemical_name_common 'NOQLOV_charged'
_cell_length_a 8.6618
_cell_length_b 9.0311
_cell_length_c 16.1728
_cell_angle_alpha 82.6217
_cell_angle_beta 74.4672
_cell_angle_gamma 61.3437
_space_group_name_H-M_alt 'P 1'
_space_group_name_Hall 'P 1'
loop_
    _symmetry_equiv_pos_as_xyz
    x,y,z
loop_
    _atom_site_label
    _atom_site_type_symbol
    _atom_site_fract_x
    _atom_site_fract_y
    _atom_site_fract_z
    _atom_site_occupancy
    In1      In       0.96834    0.02738    0.37063    1.000
    In2      In       0.36635    0.97261    0.62938    1.000
    In3      In       0.08896    0.52739    0.12937    1.000
    In4      In       0.74572    0.47262    0.87062    1.000
    C1       C        0.20283    0.93320    0.49774    1.000
    C2       C        0.10122    0.12400    0.50896    1.000
    C3       C        0.12709    0.22560    0.24882    1.000
    C4       C        0.92285    0.34800    0.26710    1.000
    C5       C        0.63377    0.06680    0.50226    1.000
    C6       C        0.73418    0.87600    0.49104    1.000
    C7       C        0.60151    0.77440    0.75118    1.000
    C8       C        0.53795    0.65200    0.73290    1.000
    C9       C        0.45057    0.43320    0.00226    1.000
    C10      C        0.36018    0.62400    0.99104    1.000
    C11      C        0.12591    0.72560    0.25118    1.000
    C12      C        0.93995    0.84800    0.23290    1.000
    C13      C        0.88603    0.56680    0.99774    1.000
    C14      C        0.97522    0.37600    0.00896    1.000
    C15      C        0.10269    0.27440    0.74882    1.000
    C16      C        0.02085    0.15200    0.76710    1.000
    O1       O        0.17483    0.87102    0.44272    1.000
    O2       O        0.99196    0.20330    0.46278    1.000
    O3       O        0.17510    0.08304    0.28356    1.000
    O4       O        0.82123    0.29840    0.31654    1.000
    O5       O        0.31071    0.84616    0.54462    1.000
    O6       O        0.13951    0.18050    0.56288    1.000
    O7       O        0.23069    0.27676    0.20146    1.000
    O8       O        0.87718    0.49060    0.23004    1.000
    O9       O        0.48857    0.12898    0.55728    1.000
    O10      O        0.65804    0.79670    0.53722    1.000
    O11      O        0.54170    0.91696    0.71644    1.000
    O12      O        0.43617    0.70160    0.68346    1.000
    O13      O        0.70149    0.15384    0.45538    1.000
    O14      O        0.88289    0.81950    0.43712    1.000
    O15      O        0.70891    0.72324    0.79854    1.000
    O16      O        0.59782    0.50940    0.76996    1.000
    O17      O        0.36755    0.37102    0.05728    1.000
    O18      O        0.20474    0.70330    0.03722    1.000
    O19      O        0.20866    0.58304    0.21644    1.000
    O20      O        0.88777    0.79840    0.18346    1.000
    O21      O        0.60533    0.34616    0.95538    1.000
    O22      O        0.45239    0.68050    0.93712    1.000
    O23      O        0.18215    0.77676    0.29854    1.000
    O24      O        0.85722    0.99060    0.26996    1.000
    O25      O        0.79585    0.62898    0.94272    1.000
    O26      O        0.94526    0.29670    0.96278    1.000
    O27      O        0.00814    0.41696    0.78356    1.000
    O28      O        0.86963    0.20160    0.81654    1.000
    O29      O        0.90687    0.65384    0.04462    1.000
    O30      O        0.07001    0.31950    0.06288    1.000
    O31      O        0.25745    0.22324    0.70146    1.000
    O32      O        0.11778    0.00940    0.73004    1.000
    H1       H        0.32640    0.33740    0.46480    1.000
    H2       H        0.17520    0.48880    0.42720    1.000
    H3       H        0.38270    0.60700    0.41740    1.000
    H4       H        0.40440    0.50680    0.34760    1.000
    H5       H        0.51640    0.43000    0.40920    1.000
    H6       H        0.12860    0.66260    0.53520    1.000
    H7       H        0.09120    0.51120    0.57280    1.000
    H8       H        0.40710    0.39300    0.58260    1.000
    H9       H        0.25880    0.49320    0.65240    1.000
    H10      H        0.35560    0.57000    0.59080    1.000
    C17      C        0.26980    0.45880    0.45700    1.000
    C18      C        0.18560    0.54120    0.54300    1.000
    N1       N        0.40693    0.50540    0.40234    1.000
    N2       N        0.31467    0.49460    0.59766    1.000
    H11      H        0.54120    0.83740    0.03520    1.000
    H12      H        0.35240    0.98880    0.07280    1.000
    H13      H        0.55010    0.10700    0.08260    1.000
    H14      H        0.50200    0.00680    0.15240    1.000
    H15      H        0.67560    0.93000    0.09080    1.000
    H16      H        0.41380    0.16260    0.96480    1.000
    H17      H        0.41400    0.01120    0.92720    1.000
    H18      H        0.73970    0.89300    0.91740    1.000
    H19      H        0.66120    0.99320    0.84760    1.000
    H20      H        0.69640    0.07000    0.90920    1.000
    C19      C        0.47680    0.95880    0.04300    1.000
    C20      C        0.47860    0.04120    0.95700    1.000
    N3       N        0.55927    0.00540    0.09766    1.000
    N4       N        0.66233    0.99460    0.90234    1.000
