data_functionalizedCrystal
_audit_creation_method	'EQeq! by Chris Wilmer'
_symmetry_space_group_name_H-M	'P1'
_symmetry_Int_Tables_number	1
_symmetry_cell_setting	triclinic
loop_
_symmetry_equiv_pos_as_xyz
  x,y,z
_cell_length_a	14.0189
_cell_length_b	13.4792
_cell_length_c	14.2787
_cell_angle_alpha	90
_cell_angle_beta	90.466
_cell_angle_gamma	90
loop_
_atom_site_label
_atom_site_type_symbol
_atom_site_fract_x
_atom_site_fract_y
_atom_site_fract_z
_atom_site_charge
Mof_Zn	Zn	0.1216	0.1303	0.7342	1.226
Mof_Zn	Zn	0.9741	0.7301	0.8742	1.258
Mof_P 	P 	0.1465	0.6128	0.7737	0.571
Mof_P 	P 	0.9748	0.2532	0.6072	0.734
Mof_O 	O 	0.0583	0.1829	0.6237	-0.555
Mof_O 	O 	0.087	0.9948	0.7601	-0.469
Mof_O 	O 	0.2495	0.6133	0.8111	-0.41
Mof_O 	O 	0.889	0.2212	0.6625	-0.474
Mof_O 	O 	0.0081	0.865	0.6649	-0.481
Mof_O 	O 	0.0843	0.6496	0.8531	-0.526
Mof_O 	O 	0.9487	0.2538	0.5044	-0.414
Mof_O 	O 	0.1388	0.6803	0.6893	-0.487
Mof_O 	O 	0.0036	0.3579	0.6359	-0.555
Mof_O 	O 	0.1199	0.5066	0.7505	-0.473
Mof_Zn	Zn	0.6216	0.6303	0.7342	1.234
Mof_Zn	Zn	0.4741	0.2301	0.8742	1.239
Mof_P 	P 	0.6465	0.1128	0.7737	0.573
Mof_P 	P 	0.4748	0.7532	0.6072	0.591
Mof_O 	O 	0.5583	0.6829	0.6237	-0.469
Mof_O 	O 	0.587	0.4948	0.7601	-0.462
Mof_O 	O 	0.7495	0.1133	0.8111	-0.402
Mof_O 	O 	0.389	0.7212	0.6625	-0.477
Mof_O 	O 	0.5081	0.365	0.6649	-0.459
Mof_O 	O 	0.5843	0.1496	0.8531	-0.479
Mof_O 	O 	0.4487	0.7538	0.5044	-0.428
Mof_O 	O 	0.6388	0.1803	0.6893	-0.469
Mof_O 	O 	0.5036	0.8579	0.6359	-0.458
Mof_O 	O 	0.6199	0.0066	0.7505	-0.45
Mof_Zn	Zn	0.8784	0.1303	0.7658	1.239
Mof_Zn	Zn	0.0259	0.7301	0.6258	1.217
Mof_P 	P 	0.8535	0.6128	0.7263	0.573
Mof_P 	P 	0.0252	0.2532	0.8928	0.449
Mof_O 	O 	0.9417	0.1829	0.8763	-0.388
Mof_O 	O 	0.913	0.9948	0.7399	-0.386
Mof_O 	O 	0.7505	0.6133	0.6889	-0.401
Mof_O 	O 	0.111	0.2212	0.8375	-0.474
Mof_O 	O 	0.9919	0.865	0.8351	-0.362
Mof_O 	O 	0.9157	0.6496	0.6469	-0.429
Mof_O 	O 	0.0513	0.2538	0.9956	-0.441
Mof_O 	O 	0.8612	0.6803	0.8107	-0.454
Mof_O 	O 	0.9964	0.3579	0.8641	-0.349
Mof_O 	O 	0.8801	0.5066	0.7495	-0.417
Mof_Zn	Zn	0.3784	0.6303	0.7658	1.233
Mof_Zn	Zn	0.5259	0.2301	0.6258	1.239
Mof_P 	P 	0.3535	0.1128	0.7263	0.573
Mof_P 	P 	0.5252	0.7532	0.8928	0.591
Mof_O 	O 	0.4417	0.6829	0.8763	-0.473
Mof_O 	O 	0.413	0.4948	0.7399	-0.466
Mof_O 	O 	0.2505	0.1133	0.6889	-0.411
Mof_O 	O 	0.611	0.7212	0.8375	-0.473
Mof_O 	O 	0.4919	0.365	0.8351	-0.459
Mof_O 	O 	0.4157	0.1496	0.6469	-0.481
Mof_O 	O 	0.5513	0.7538	0.9956	-0.428
Mof_O 	O 	0.3612	0.1803	0.8107	-0.474
Mof_O 	O 	0.4964	0.8579	0.8641	-0.46
Mof_O 	O 	0.3801	0.0066	0.7495	-0.454
Mof_Zn	Zn	0.8784	0.8697	0.2658	1.239
Mof_Zn	Zn	0.0259	0.2699	0.1258	1.217
Mof_P 	P 	0.8535	0.3872	0.2263	0.574
Mof_P 	P 	0.0252	0.7468	0.3928	0.446
Mof_O 	O 	0.9417	0.8171	0.3763	-0.385
Mof_O 	O 	0.913	0.0052	0.2399	-0.385
Mof_O 	O 	0.7505	0.3867	0.1889	-0.401
Mof_O 	O 	0.111	0.7788	0.3375	-0.474
Mof_O 	O 	0.9919	0.135	0.3351	-0.36
Mof_O 	O 	0.9157	0.3504	0.1469	-0.429
Mof_O 	O 	0.0513	0.7462	0.4956	-0.44
Mof_O 	O 	0.8612	0.3197	0.3107	-0.453
Mof_O 	O 	0.9964	0.6421	0.3641	-0.347
Mof_O 	O 	0.8801	0.4934	0.2495	-0.417
Mof_Zn	Zn	0.3784	0.3697	0.2658	1.233
Mof_Zn	Zn	0.5259	0.7699	0.1258	1.239
Mof_P 	P 	0.3535	0.8872	0.2263	0.573
Mof_P 	P 	0.5252	0.2468	0.3928	0.591
Mof_O 	O 	0.4417	0.3171	0.3763	-0.473
Mof_O 	O 	0.413	0.5052	0.2399	-0.466
Mof_O 	O 	0.2505	0.8867	0.1889	-0.411
Mof_O 	O 	0.611	0.2788	0.3375	-0.473
Mof_O 	O 	0.4919	0.635	0.3351	-0.459
Mof_O 	O 	0.4157	0.8504	0.1469	-0.481
Mof_O 	O 	0.5513	0.2462	0.4956	-0.427
Mof_O 	O 	0.3612	0.8197	0.3107	-0.474
Mof_O 	O 	0.4964	0.1421	0.3641	-0.46
Mof_O 	O 	0.3801	0.9934	0.2495	-0.454
Mof_Zn	Zn	0.1216	0.8697	0.2342	1.227
Mof_Zn	Zn	0.9741	0.2699	0.3742	1.26
Mof_P 	P 	0.1465	0.3872	0.2737	0.572
Mof_P 	P 	0.9748	0.7468	0.1072	0.736
Mof_O 	O 	0.0583	0.8171	0.1237	-0.555
Mof_O 	O 	0.087	0.0052	0.2601	-0.468
Mof_O 	O 	0.2495	0.3867	0.3111	-0.41
Mof_O 	O 	0.889	0.7788	0.1625	-0.474
Mof_O 	O 	0.0081	0.135	0.1649	-0.481
Mof_O 	O 	0.0843	0.3504	0.3531	-0.527
Mof_O 	O 	0.9487	0.7462	0.0044	-0.414
Mof_O 	O 	0.1388	0.3197	0.1893	-0.487
Mof_O 	O 	0.0036	0.6421	0.1359	-0.556
Mof_O 	O 	0.1199	0.4934	0.2505	-0.473
Mof_Zn	Zn	0.6216	0.3697	0.2342	1.234
Mof_Zn	Zn	0.4741	0.7699	0.3742	1.239
Mof_P 	P 	0.6465	0.8872	0.2737	0.573
Mof_P 	P 	0.4748	0.2468	0.1072	0.591
Mof_O 	O 	0.5583	0.3171	0.1237	-0.469
Mof_O 	O 	0.587	0.5052	0.2601	-0.462
Mof_O 	O 	0.7495	0.8867	0.3111	-0.402
Mof_O 	O 	0.389	0.2788	0.1625	-0.477
Mof_O 	O 	0.5081	0.635	0.1649	-0.459
Mof_O 	O 	0.5843	0.8504	0.3531	-0.478
Mof_O 	O 	0.4487	0.2462	0.0044	-0.428
Mof_O 	O 	0.6388	0.8197	0.1893	-0.469
Mof_O 	O 	0.5036	0.1421	0.1359	-0.458
Mof_O 	O 	0.6199	0.9934	0.2505	-0.45
Mof_Zn	Zn	1.31676e-18	0.4341	0.75	1.204
Mof_P 	P 	-1.31676e-18	0.9304	0.75	0.474
Mof_Zn	Zn	0.5	0.9341	0.75	1.235
Mof_P 	P 	0.5	0.4304	0.75	0.618
Mof_Zn	Zn	9.62486e-34	0.5659	0.25	1.203
Mof_P 	P 	9.62486e-34	0.0696	0.25	0.472
Mof_Zn	Zn	0.5	0.0659	0.25	1.235
Mof_P 	P 	0.5	0.5696	0.25	0.618
_end
