# CIF file generated by openbabel 3.1.0, see https://openbabel.org
data_I
_chemical_name_common 'image0'
_cell_length_a 10.463
_cell_length_b 11.846
_cell_length_c 12.511
_cell_angle_alpha 89.2
_cell_angle_beta 75.08
_cell_angle_gamma 73.36
_space_group_name_H-M_alt 'P 1'
_space_group_name_Hall 'P 1'
loop_
    _symmetry_equiv_pos_as_xyz
    x,y,z
loop_
    _atom_site_label
    _atom_site_type_symbol
    _atom_site_fract_x
    _atom_site_fract_y
    _atom_site_fract_z
    _atom_site_occupancy
    C1       C        0.03190    0.84820    0.09310    1.000
    H1       H        0.12170    0.81850    0.09990    1.000
    C2       C        0.84010    0.86560    0.05570    1.000
    H2       H        0.77090    0.84930    0.03010    1.000
    C3       C        0.82870    0.96570    0.10770    1.000
    H3       H        0.75070    0.03110    0.12520    1.000
    C4       C        0.98200    0.04330    0.19260    1.000
    H4       H        0.95980    0.11870    0.15980    1.000
    H5       H        0.08070    0.01870    0.18600    1.000
    C5       C        0.90470    0.05860    0.31380    1.000
    C6       C        0.81950    0.16680    0.36030    1.000
    H6       H        0.80830    0.23090    0.31620    1.000
    C7       C        0.75060    0.18230    0.47030    1.000
    H7       H        0.69710    0.25740    0.50060    1.000
    C8       C        0.75900    0.08810    0.53700    1.000
    C9       C        0.84200    0.97820    0.49010    1.000
    H8       H        0.84930    0.91370    0.53380    1.000
    C10      C        0.91430    0.96230    0.38000    1.000
    H9       H        0.96950    0.88750    0.34970    1.000
    C11      C        0.46160    0.27070    0.71190    1.000
    H10      H        0.49900    0.32360    0.73810    1.000
    C12      C        0.32180    0.19410    0.66460    1.000
    H11      H        0.24150    0.18370    0.65300    1.000
    C13      C        0.44430    0.11290    0.64080    1.000
    H12      H        0.46570    0.03740    0.60820    1.000
    C14      C        0.68120    0.10790    0.65780    1.000
    H13      H        0.69610    0.03290    0.69190    1.000
    H14      H        0.71720    0.15860    0.69470    1.000
    C15      C        0.09210    0.59260    0.22600    1.000
    C16      C        0.17400    0.56140    0.31060    1.000
    C17      C        0.10540    0.59540    0.42150    1.000
    H15      H        0.01590    0.64660    0.44200    1.000
    C18      C        0.17670    0.54950    0.50130    1.000
    C19      C        0.31040    0.47190    0.47110    1.000
    H16      H        0.35640    0.44350    0.52490    1.000
    C20      C        0.37430    0.43750    0.35970    1.000
    C21      C        0.30930    0.48620    0.27880    1.000
    H17      H        0.35550    0.46890    0.20410    1.000
    C22      C        0.98280    0.65520    0.64870    1.000
    H18      H        0.91840    0.62380    0.62410    1.000
    H19      H        0.98170    0.72990    0.61560    1.000
    C23      C        0.93780    0.67520    0.77340    1.000
    C24      C        0.57680    0.31750    0.22790    1.000
    H20      H        0.51410    0.32790    0.18100    1.000
    H21      H        0.62580    0.23400    0.22380    1.000
    C25      C        0.68110    0.38500    0.18290    1.000
    Co1      Co       0.05570    0.61135    0.99280    1.000
    Co2      Co       0.17306    0.44786    0.77354    1.000
    N1       N        0.97090    0.78890    0.04510    1.000
    N2       N        0.94890    0.95650    0.13090    1.000
    N3       N        0.53310    0.16190    0.67370    1.000
    N4       N        0.33190    0.29670    0.70920    1.000
    O1       O        0.12650    0.43380    0.93810    1.000
    O2       O        0.96200    0.62730    0.26450    1.000
    O3       O        0.15440    0.57670    0.12490    1.000
    O4       O        0.11930    0.57440    0.61300    1.000
    O5       O        0.82530    0.75030    0.81220    1.000
    O6       O        0.01740    0.61440    0.82810    1.000
    O7       O        0.49740    0.35350    0.33980    1.000
    O8       O        0.68010    0.46860    0.24310    1.000
    O9       O        0.76080    0.34730    0.09000    1.000
    C26      C        0.96810    0.15180    0.90690    1.000
    H22      H        0.87830    0.18150    0.90010    1.000
    C27      C        0.15990    0.13440    0.94430    1.000
    H23      H        0.22910    0.15070    0.96990    1.000
    C28      C        0.17130    0.03430    0.89230    1.000
    H24      H        0.24930    0.96890    0.87480    1.000
    C29      C        0.01800    0.95670    0.80740    1.000
    H25      H        0.04020    0.88130    0.84020    1.000
    H26      H        0.91930    0.98130    0.81400    1.000
    C30      C        0.09530    0.94140    0.68620    1.000
    C31      C        0.18050    0.83320    0.63970    1.000
    H27      H        0.19170    0.76910    0.68380    1.000
    C32      C        0.24940    0.81770    0.52970    1.000
    H28      H        0.30290    0.74260    0.49940    1.000
    C33      C        0.24100    0.91190    0.46300    1.000
    C34      C        0.15800    0.02180    0.50990    1.000
    H29      H        0.15070    0.08630    0.46620    1.000
    C35      C        0.08570    0.03770    0.62000    1.000
    H30      H        0.03050    0.11250    0.65030    1.000
    C36      C        0.53840    0.72930    0.28810    1.000
    H31      H        0.50100    0.67640    0.26190    1.000
    C37      C        0.67820    0.80590    0.33540    1.000
    H32      H        0.75850    0.81630    0.34700    1.000
    C38      C        0.55570    0.88710    0.35920    1.000
    H33      H        0.53430    0.96260    0.39180    1.000
    C39      C        0.31880    0.89210    0.34220    1.000
    H34      H        0.30390    0.96710    0.30810    1.000
    H35      H        0.28280    0.84140    0.30530    1.000
    C40      C        0.90790    0.40740    0.77400    1.000
    C41      C        0.82600    0.43860    0.68940    1.000
    C42      C        0.89460    0.40460    0.57850    1.000
    H36      H        0.98410    0.35340    0.55800    1.000
    C43      C        0.82330    0.45050    0.49870    1.000
    C44      C        0.68960    0.52810    0.52890    1.000
    H37      H        0.64360    0.55650    0.47510    1.000
    C45      C        0.62570    0.56250    0.64030    1.000
    C46      C        0.69070    0.51380    0.72120    1.000
    H38      H        0.64450    0.53110    0.79590    1.000
    C47      C        0.01720    0.34480    0.35130    1.000
    H39      H        0.08160    0.37620    0.37590    1.000
    H40      H        0.01830    0.27010    0.38440    1.000
    C48      C        0.06220    0.32480    0.22660    1.000
    C49      C        0.42320    0.68250    0.77210    1.000
    H41      H        0.48590    0.67210    0.81900    1.000
    H42      H        0.37420    0.76600    0.77620    1.000
    C50      C        0.31890    0.61500    0.81710    1.000
    Co3      Co       0.94430    0.38865    0.00720    1.000
    Co4      Co       0.82694    0.55214    0.22646    1.000
    N5       N        0.02910    0.21110    0.95490    1.000
    N6       N        0.05110    0.04350    0.86910    1.000
    N7       N        0.46690    0.83810    0.32630    1.000
    N8       N        0.66810    0.70330    0.29080    1.000
    O10      O        0.87350    0.56620    0.06190    1.000
    O11      O        0.03800    0.37270    0.73550    1.000
    O12      O        0.84560    0.42330    0.87510    1.000
    O13      O        0.88070    0.42560    0.38700    1.000
    O14      O        0.17470    0.24970    0.18780    1.000
    O15      O        0.98260    0.38560    0.17190    1.000
    O16      O        0.50260    0.64650    0.66020    1.000
    O17      O        0.31990    0.53140    0.75690    1.000
    O18      O        0.23920    0.65270    0.91000    1.000
