data_functionalizedCrystal
_audit_creation_method	'EQeq! by Chris Wilmer'
_symmetry_space_group_name_H-M	'P1'
_symmetry_Int_Tables_number	1
_symmetry_cell_setting	triclinic
loop_
_symmetry_equiv_pos_as_xyz
  x,y,z
_cell_length_a	11.671
_cell_length_b	11.671
_cell_length_c	11.671
_cell_angle_alpha	90
_cell_angle_beta	90
_cell_angle_gamma	90
loop_
_atom_site_label
_atom_site_type_symbol
_atom_site_fract_x
_atom_site_fract_y
_atom_site_fract_z
_atom_site_charge
Mof_Cu	Cu	-0	0	-0	0.677
Mof_Cu	Cu	1.8747e-33	0.5	0.5	0.776
Mof_Cu	Cu	0.5	-3.96978e-33	0.5	0.775
Mof_Cu	Cu	0.5	0.5	-0	0.775
Mof_Zn	Zn	0.25	0.25	0.25	1.123
Mof_Zn	Zn	0.75	0.75	0.25	1.148
Mof_Zn	Zn	0.75	0.25	0.75	1.148
Mof_Zn	Zn	0.25	0.75	0.75	1.148
Mof_C 	C 	0.096	0.096	0.096	-0.371
Mof_N 	N 	0.15	0.15	0.15	-0.281
Mof_C 	C 	0.096	0.596	0.596	-0.259
Mof_N 	N 	0.15	0.65	0.65	-0.264
Mof_C 	C 	0.596	0.096	0.596	-0.259
Mof_N 	N 	0.65	0.15	0.65	-0.264
Mof_C 	C 	0.596	0.596	0.096	-0.259
Mof_N 	N 	0.65	0.65	0.15	-0.264
Mof_C 	C 	0.904	0.904	0.096	-0.114
Mof_N 	N 	0.85	0.85	0.15	-0.279
Mof_C 	C 	0.904	0.404	0.596	-0.141
Mof_N 	N 	0.85	0.35	0.65	-0.272
Mof_C 	C 	0.404	0.904	0.596	-0.141
Mof_N 	N 	0.35	0.85	0.65	-0.272
Mof_C 	C 	0.404	0.404	0.096	-0.283
Mof_N 	N 	0.35	0.35	0.15	-0.281
Mof_C 	C 	0.904	0.096	0.904	-0.114
Mof_N 	N 	0.85	0.15	0.85	-0.279
Mof_C 	C 	0.904	0.596	0.404	-0.141
Mof_N 	N 	0.85	0.65	0.35	-0.272
Mof_C 	C 	0.404	0.096	0.404	-0.283
Mof_N 	N 	0.35	0.15	0.35	-0.281
Mof_C 	C 	0.404	0.596	0.904	-0.141
Mof_N 	N 	0.35	0.65	0.85	-0.272
Mof_C 	C 	0.096	0.904	0.904	-0.114
Mof_N 	N 	0.15	0.85	0.85	-0.279
Mof_C 	C 	0.096	0.404	0.404	-0.283
Mof_N 	N 	0.15	0.35	0.35	-0.281
Mof_C 	C 	0.596	0.904	0.404	-0.141
Mof_N 	N 	0.65	0.85	0.35	-0.272
Mof_C 	C 	0.596	0.404	0.904	-0.141
Mof_N 	N 	0.65	0.35	0.85	-0.272
_end
