data_functionalizedCrystal
_audit_creation_method	'EQeq! by Chris Wilmer'
_symmetry_space_group_name_H-M	'P1'
_symmetry_Int_Tables_number	1
_symmetry_cell_setting	triclinic
loop_
_symmetry_equiv_pos_as_xyz
  x,y,z
_cell_length_a	15.4889
_cell_length_b	15.4889
_cell_length_c	12.3083
_cell_angle_alpha	90
_cell_angle_beta	90
_cell_angle_gamma	90
loop_
_atom_site_label
_atom_site_type_symbol
_atom_site_fract_x
_atom_site_fract_y
_atom_site_fract_z
_atom_site_charge
Mof_O 	O 	0.6118	0.3797	0.6166	-0.836
Mof_O 	O 	0.5924	0.2934	0.7531	-0.779
Mof_C 	C 	0.5846	0.3642	0.7087	0.725
Mof_C 	C 	0.54133	0.4328	0.7676	-0.282
Mof_C 	C 	0.54133	0.4328	0.8823	0.055
Mof_H 	H 	0.5721	0.3828	0.9249	0.021
Mof_O 	O 	0.1118	0.8797	0.1166	-0.802
Mof_O 	O 	0.0924	0.7934	0.2531	-0.77
Mof_C 	C 	0.0846	0.8642	0.2087	0.704
Mof_C 	C 	0.04133	0.9328	0.2676	-0.285
Mof_C 	C 	0.04133	0.9328	0.3823	0.117
Mof_H 	H 	0.0721	0.8828	0.4249	-0.023
Mof_O 	O 	0.8882	0.1203	0.1166	-0.807
Mof_O 	O 	0.9076	0.2066	0.2531	-0.771
Mof_C 	C 	0.9154	0.1358	0.2087	0.705
Mof_C 	C 	0.95867	0.0672	0.2676	-0.297
Mof_C 	C 	0.95867	0.0672	0.3823	0.104
Mof_H 	H 	0.9279	0.1172	0.4249	-0.022
Mof_O 	O 	0.3882	0.6203	0.6166	-0.838
Mof_O 	O 	0.4076	0.7066	0.7531	-0.777
Mof_C 	C 	0.4154	0.6358	0.7087	0.726
Mof_C 	C 	0.45867	0.5672	0.7676	-0.282
Mof_C 	C 	0.45867	0.5672	0.8823	0.055
Mof_H 	H 	0.4279	0.6172	0.9249	0.022
Mof_O 	O 	0.6203	0.1118	0.8666	-0.909
Mof_O 	O 	0.7066	0.0924	0.0031	-0.892
Mof_C 	C 	0.6358	0.0846	0.9587	1.032
Mof_C 	C 	0.5672	0.04133	0.0176	-0.675
Mof_C 	C 	0.5672	0.04133	0.1323	0.272
Mof_H 	H 	0.6172	0.0721	0.1749	-0.073
Mof_O 	O 	0.1203	0.6118	0.3666	-0.839
Mof_O 	O 	0.2066	0.5924	0.5031	-0.783
Mof_C 	C 	0.1358	0.5846	0.4587	0.735
Mof_C 	C 	0.0672	0.54133	0.5176	-0.325
Mof_C 	C 	0.0672	0.54133	0.6323	0.128
Mof_H 	H 	0.1172	0.5721	0.6749	-0.028
Mof_O 	O 	0.8797	0.3882	0.3666	-0.837
Mof_O 	O 	0.7934	0.4076	0.5031	-0.781
Mof_C 	C 	0.8642	0.4154	0.4587	0.734
Mof_C 	C 	0.9328	0.45867	0.5176	-0.317
Mof_C 	C 	0.9328	0.45867	0.6323	0.135
Mof_H 	H 	0.8828	0.4279	0.6749	-0.028
Mof_O 	O 	0.3797	0.8882	0.8666	-0.903
Mof_O 	O 	0.2934	0.9076	0.0031	-0.89
Mof_C 	C 	0.3642	0.9154	0.9587	1.037
Mof_C 	C 	0.4328	0.95867	0.0176	-0.66
Mof_C 	C 	0.4328	0.95867	0.1323	0.293
Mof_H 	H 	0.3828	0.9279	0.1749	-0.074
Mof_O 	O 	0.8882	0.3797	0.1334	-0.748
Mof_O 	O 	0.9076	0.2934	0.9969	-0.569
Mof_C 	C 	0.9154	0.3642	0.0413	0.382
Mof_C 	C 	0.95867	0.4328	0.9824	0.09
Mof_C 	C 	0.95867	0.4328	0.8677	-0.082
Mof_H 	H 	0.9279	0.3828	0.8251	0.037
Mof_O 	O 	0.3882	0.8797	0.6334	-0.836
Mof_O 	O 	0.4076	0.7934	0.4969	-0.781
Mof_C 	C 	0.4154	0.8642	0.5413	0.726
Mof_C 	C 	0.45867	0.9328	0.4824	-0.277
Mof_C 	C 	0.45867	0.9328	0.3677	0.093
Mof_H 	H 	0.4279	0.8828	0.3251	-0.017
Mof_O 	O 	0.6118	0.1203	0.6334	-0.844
Mof_O 	O 	0.5924	0.2066	0.4969	-0.784
Mof_C 	C 	0.5846	0.1358	0.5413	0.728
Mof_C 	C 	0.54133	0.0672	0.4824	-0.297
Mof_C 	C 	0.54133	0.0672	0.3677	0.073
Mof_H 	H 	0.5721	0.1172	0.3251	-0.016
Mof_O 	O 	0.1118	0.6203	0.1334	-0.751
Mof_O 	O 	0.0924	0.7066	0.9969	-0.568
Mof_C 	C 	0.0846	0.6358	0.0413	0.382
Mof_C 	C 	0.04133	0.5672	0.9824	0.083
Mof_C 	C 	0.04133	0.5672	0.8677	-0.09
Mof_H 	H 	0.0721	0.6172	0.8251	0.037
Mof_O 	O 	0.8797	0.1118	0.8834	-0.748
Mof_O 	O 	0.7934	0.0924	0.7469	-0.768
Mof_C 	C 	0.8642	0.0846	0.7913	0.699
Mof_C 	C 	0.9328	0.04133	0.7324	-0.277
Mof_C 	C 	0.9328	0.04133	0.6177	0.097
Mof_H 	H 	0.8828	0.0721	0.5751	-0.021
Mof_O 	O 	0.3797	0.6118	0.3834	-0.843
Mof_O 	O 	0.2934	0.5924	0.2469	-0.788
Mof_C 	C 	0.3642	0.5846	0.2913	0.741
Mof_C 	C 	0.4328	0.54133	0.2324	-0.343
Mof_C 	C 	0.4328	0.54133	0.1177	0.144
Mof_H 	H 	0.3828	0.5721	0.0751	-0.062
Mof_O 	O 	0.6203	0.3882	0.3834	-0.844
Mof_O 	O 	0.7066	0.4076	0.2469	-0.787
Mof_C 	C 	0.6358	0.4154	0.2913	0.741
Mof_C 	C 	0.5672	0.45867	0.2324	-0.343
Mof_C 	C 	0.5672	0.45867	0.1177	0.144
Mof_H 	H 	0.6172	0.4279	0.0751	-0.061
Mof_O 	O 	0.1203	0.8882	0.8834	-0.741
Mof_O 	O 	0.2066	0.9076	0.7469	-0.764
Mof_C 	C 	0.1358	0.9154	0.7913	0.697
Mof_C 	C 	0.0672	0.95867	0.7324	-0.263
Mof_C 	C 	0.0672	0.95867	0.6177	0.11
Mof_H 	H 	0.1172	0.9279	0.5751	-0.021
Mof_In	In	0.6842	0.3158	0.5	2.929
Mof_In	In	0.1842	0.8158	-0	2.608
Mof_In	In	0.8158	0.1842	-0	2.609
Mof_In	In	0.3158	0.6842	0.5	2.931
Mof_In	In	0.6842	0.1842	0.75	2.988
Mof_In	In	0.1842	0.6842	0.25	2.875
Mof_In	In	0.8158	0.3158	0.25	2.876
Mof_In	In	0.3158	0.8158	0.75	2.994
Mof_O 	O 	0.7608	0.25	0.625	-1.154
Mof_H 	H 	0.8189	0.25	0.625	0.355
Mof_O 	O 	0.2608	0.75	0.125	-1.103
Mof_H 	H 	0.3189	0.75	0.125	0.331
Mof_O 	O 	0.7392	0.25	0.125	-1.104
Mof_H 	H 	0.6811	0.25	0.125	0.33
Mof_O 	O 	0.2392	0.75	0.625	-1.155
Mof_H 	H 	0.1811	0.75	0.625	0.355
Mof_O 	O 	0.75	0.2608	0.875	-1.082
Mof_H 	H 	0.75	0.3189	0.875	0.352
Mof_O 	O 	0.25	0.7608	0.375	-1.138
Mof_H 	H 	0.25	0.8189	0.375	0.352
Mof_O 	O 	0.75	0.2392	0.375	-1.138
Mof_H 	H 	0.75	0.1811	0.375	0.35
Mof_O 	O 	0.25	0.7392	0.875	-1.082
Mof_H 	H 	0.25	0.6811	0.875	0.351
Mof_C 	C 	0.5	0.5	0.7103	0.184
Mof_C 	C 	0.5	0.5	0.93958	0.067
Mof_H 	H 	0.5	0.5	0.625	-0.006
Mof_C 	C 	-1.51065e-33	-2.13723e-33	0.2103	0.155
Mof_C 	C 	1.30972e-33	-4.27446e-33	0.43958	-0.098
Mof_H 	H 	-6.96181e-34	-1.06861e-33	0.125	-0.026
Mof_C 	C 	0.5	-1.70978e-32	0.9603	0.578
Mof_C 	C 	0.5	-1.06861e-33	0.18958	-0.223
Mof_H 	H 	0.5	-8.54892e-33	0.875	-0.109
Mof_C 	C 	-2.90301e-33	0.5	0.4603	0.202
Mof_C 	C 	-2.21988e-33	0.5	0.68958	-0.131
Mof_H 	H 	-7.43162e-33	0.5	0.375	-0.021
Mof_C 	C 	-9.5033e-34	0.5	0.0397	-0.232
Mof_C 	C 	-6.1343e-33	0.5	0.81042	0.069
Mof_H 	H 	-1.7648e-33	0.5	0.125	0.091
Mof_C 	C 	0.5	-4.27446e-33	0.5397	0.163
Mof_C 	C 	0.5	-2.13723e-33	0.31042	-0.04
Mof_H 	H 	0.5	0	0.625	-0.004
Mof_C 	C 	-6.19603e-33	-4.27446e-33	0.7897	0.145
Mof_C 	C 	-2.6047e-33	-4.27446e-33	0.56042	-0.091
Mof_H 	H 	2.60704e-33	-8.54892e-33	0.875	0.013
Mof_C 	C 	0.5	0.5	0.2897	0.222
Mof_C 	C 	0.5	0.5	0.06042	-0.205
Mof_H 	H 	0.5	0.5	0.375	-0.018
_end
