# CIF file generated by openbabel 3.1.0, see https://openbabel.org
data_I
_chemical_name_common 'image0'
_cell_length_a 9.866
_cell_length_b 17.646
_cell_length_c 11.9142
_cell_angle_alpha 90
_cell_angle_beta 96.014
_cell_angle_gamma 90
_space_group_name_H-M_alt 'P 1'
_space_group_name_Hall 'P 1'
loop_
    _symmetry_equiv_pos_as_xyz
    x,y,z
loop_
    _atom_site_label
    _atom_site_type_symbol
    _atom_site_fract_x
    _atom_site_fract_y
    _atom_site_fract_z
    _atom_site_occupancy
    C1       C        0.33850    0.09003    0.17890    1.000
    C2       C        0.84930    0.13500    0.21590    1.000
    C3       C        0.59180    0.11546    0.19970    1.000
    H1       H        0.60360    0.06970    0.16150    1.000
    C4       C        0.46140    0.13761    0.21950    1.000
    C5       C        0.70590    0.15952    0.23510    1.000
    C6       C        0.44190    0.20560    0.27760    1.000
    H2       H        0.35480    0.22090    0.29380    1.000
    C7       C        0.68670    0.22875    0.28900    1.000
    H3       H        0.76120    0.26070    0.31050    1.000
    C8       C        0.55700    0.24931    0.31010    1.000
    C9       C        0.57670    0.33464    0.47840    1.000
    H4       H        0.61790    0.29910    0.53000    1.000
    C10      C        0.48480    0.38753    0.32460    1.000
    C11      C        0.43190    0.40891    0.20960    1.000
    C12      C        0.42700    0.36390    0.11440    1.000
    H5       H        0.46000    0.31390    0.11890    1.000
    C13      C        0.37270    0.39370    0.01290    1.000
    H6       H        0.36890    0.36410    0.94710    1.000
    C14      C        0.32350    0.46740    0.00750    1.000
    H7       H        0.28300    0.48780    0.93920    1.000
    C15      C        0.33570    0.51010    0.10560    1.000
    H8       H        0.30530    0.56060    0.10230    1.000
    N1       N        0.53840    0.32071    0.36800    1.000
    N2       N        0.54810    0.40488    0.50330    1.000
    N3       N        0.48900    0.43815    0.40540    1.000
    N4       N        0.38890    0.48214    0.20440    1.000
    O1       O        0.35320    0.03143    0.12460    1.000
    O2       O        0.22320    0.11453    0.20340    1.000
    O3       O        0.86760    0.06711    0.18800    1.000
    O4       O        0.94270    0.18074    0.23430    1.000
    Cu1      Cu       0.42403    0.54365    0.34774    1.000
    C16      C        0.16150    0.59003    0.32110    1.000
    C17      C        0.65070    0.63500    0.28410    1.000
    C18      C        0.90820    0.61546    0.30030    1.000
    H9       H        0.89640    0.56970    0.33850    1.000
    C19      C        0.03860    0.63761    0.28050    1.000
    C20      C        0.79410    0.65952    0.26490    1.000
    C21      C        0.05810    0.70560    0.22240    1.000
    H10      H        0.14520    0.72090    0.20620    1.000
    C22      C        0.81330    0.72875    0.21100    1.000
    H11      H        0.73880    0.76070    0.18950    1.000
    C23      C        0.94300    0.74931    0.18990    1.000
    C24      C        0.92330    0.83464    0.02160    1.000
    H12      H        0.88210    0.79910    0.97000    1.000
    C25      C        0.01520    0.88753    0.17540    1.000
    C26      C        0.06810    0.90891    0.29040    1.000
    C27      C        0.07300    0.86390    0.38560    1.000
    H13      H        0.04000    0.81390    0.38110    1.000
    C28      C        0.12730    0.89370    0.48710    1.000
    H14      H        0.13110    0.86410    0.55290    1.000
    C29      C        0.17650    0.96740    0.49250    1.000
    H15      H        0.21700    0.98780    0.56080    1.000
    C30      C        0.16430    0.01010    0.39440    1.000
    H16      H        0.19470    0.06060    0.39770    1.000
    N5       N        0.96160    0.82071    0.13200    1.000
    N6       N        0.95190    0.90488    0.99670    1.000
    N7       N        0.01100    0.93815    0.09460    1.000
    N8       N        0.11110    0.98214    0.29560    1.000
    O5       O        0.14680    0.53143    0.37540    1.000
    O6       O        0.27680    0.61453    0.29660    1.000
    O7       O        0.63240    0.56711    0.31200    1.000
    O8       O        0.55730    0.68074    0.26570    1.000
    Cu2      Cu       0.07597    0.04365    0.15226    1.000
    C31      C        0.66150    0.90997    0.82110    1.000
    C32      C        0.15070    0.86500    0.78410    1.000
    C33      C        0.40820    0.88454    0.80030    1.000
    H17      H        0.39640    0.93030    0.83850    1.000
    C34      C        0.53860    0.86239    0.78050    1.000
    C35      C        0.29410    0.84048    0.76490    1.000
    C36      C        0.55810    0.79440    0.72240    1.000
    H18      H        0.64520    0.77910    0.70620    1.000
    C37      C        0.31330    0.77125    0.71100    1.000
    H19      H        0.23880    0.73930    0.68950    1.000
    C38      C        0.44300    0.75069    0.68990    1.000
    C39      C        0.42330    0.66536    0.52160    1.000
    H20      H        0.38210    0.70090    0.47000    1.000
    C40      C        0.51520    0.61247    0.67540    1.000
    C41      C        0.56810    0.59109    0.79040    1.000
    C42      C        0.57300    0.63610    0.88560    1.000
    H21      H        0.54000    0.68610    0.88110    1.000
    C43      C        0.62730    0.60630    0.98710    1.000
    H22      H        0.63110    0.63590    0.05290    1.000
    C44      C        0.67650    0.53260    0.99250    1.000
    H23      H        0.71700    0.51220    0.06080    1.000
    C45      C        0.66430    0.48990    0.89440    1.000
    H24      H        0.69470    0.43940    0.89770    1.000
    N9       N        0.46160    0.67929    0.63200    1.000
    N10      N        0.45190    0.59512    0.49670    1.000
    N11      N        0.51100    0.56185    0.59460    1.000
    N12      N        0.61110    0.51786    0.79560    1.000
    O9       O        0.64680    0.96857    0.87540    1.000
    O10      O        0.77680    0.88547    0.79660    1.000
    O11      O        0.13240    0.93289    0.81200    1.000
    O12      O        0.05730    0.81926    0.76570    1.000
    Cu3      Cu       0.57597    0.45635    0.65226    1.000
    C46      C        0.83850    0.40997    0.67890    1.000
    C47      C        0.34930    0.36500    0.71590    1.000
    C48      C        0.09180    0.38454    0.69970    1.000
    H25      H        0.10360    0.43030    0.66150    1.000
    C49      C        0.96140    0.36239    0.71950    1.000
    C50      C        0.20590    0.34048    0.73510    1.000
    C51      C        0.94190    0.29440    0.77760    1.000
    H26      H        0.85480    0.27910    0.79380    1.000
    C52      C        0.18670    0.27125    0.78900    1.000
    H27      H        0.26120    0.23930    0.81050    1.000
    C53      C        0.05700    0.25069    0.81010    1.000
    C54      C        0.07670    0.16536    0.97840    1.000
    H28      H        0.11790    0.20090    0.03000    1.000
    C55      C        0.98480    0.11247    0.82460    1.000
    C56      C        0.93190    0.09109    0.70960    1.000
    C57      C        0.92700    0.13610    0.61440    1.000
    H29      H        0.96000    0.18610    0.61890    1.000
    C58      C        0.87270    0.10630    0.51290    1.000
    H30      H        0.86890    0.13590    0.44710    1.000
    C59      C        0.82350    0.03260    0.50750    1.000
    H31      H        0.78300    0.01220    0.43920    1.000
    C60      C        0.83570    0.98990    0.60560    1.000
    H32      H        0.80530    0.93940    0.60230    1.000
    N13      N        0.03840    0.17929    0.86800    1.000
    N14      N        0.04810    0.09512    0.00330    1.000
    N15      N        0.98900    0.06185    0.90540    1.000
    N16      N        0.88890    0.01786    0.70440    1.000
    O13      O        0.85320    0.46857    0.62460    1.000
    O14      O        0.72320    0.38547    0.70340    1.000
    O15      O        0.36760    0.43289    0.68800    1.000
    O16      O        0.44270    0.31926    0.73430    1.000
    Cu4      Cu       0.92403    0.95635    0.84774    1.000
