data_functionalizedCrystal
_audit_creation_method	'EQeq! by Chris Wilmer'
_symmetry_space_group_name_H-M	'P1'
_symmetry_Int_Tables_number	1
_symmetry_cell_setting	triclinic
loop_
_symmetry_equiv_pos_as_xyz
  x,y,z
_cell_length_a	11.7877
_cell_length_b	5.2093
_cell_length_c	12.2031
_cell_angle_alpha	90
_cell_angle_beta	98.198
_cell_angle_gamma	90
loop_
_atom_site_label
_atom_site_type_symbol
_atom_site_fract_x
_atom_site_fract_y
_atom_site_fract_z
_atom_site_charge
Mof_Zn	Zn	0.39417	0.20143	0.57172	1.237
Mof_P 	P 	0.66271	0.28293	0.56642	0.559
Mof_O 	O 	0.76818	0.2175	0.65303	-0.361
Mof_H 	H 	0.7506	0.2287	0.7155	0.199
Mof_O 	O 	0.55656	0.188	0.61165	-0.479
Mof_O 	O 	0.67666	0.1382	0.45809	-0.451
Mof_O 	O 	0.66306	0.5699	0.54478	-0.447
Mof_O 	O 	0.34855	0.2689	0.71909	-0.403
Mof_O 	O 	0.19681	0.6013	0.65249	-0.449
Mof_H 	H 	0.2478	0.6833	0.6294	0.303
Mof_Zn	Zn	0.10583	0.20143	0.92828	1.234
Mof_P 	P 	0.83729	0.28293	0.93358	0.56
Mof_O 	O 	0.73182	0.2175	0.84697	-0.362
Mof_H 	H 	0.7494	0.2287	0.7845	0.199
Mof_O 	O 	0.94344	0.188	0.88835	-0.475
Mof_O 	O 	0.82334	0.1382	0.04191	-0.452
Mof_O 	O 	0.83694	0.5699	0.95522	-0.444
Mof_O 	O 	0.15145	0.2689	0.78091	-0.405
Mof_O 	O 	0.30319	0.6013	0.84751	-0.448
Mof_H 	H 	0.2522	0.6833	0.8706	0.302
Mof_Zn	Zn	0.60583	0.79857	0.42828	1.237
Mof_P 	P 	0.33729	0.71707	0.43358	0.559
Mof_O 	O 	0.23182	0.7825	0.34697	-0.361
Mof_H 	H 	0.2494	0.7713	0.2845	0.199
Mof_O 	O 	0.44344	0.812	0.38835	-0.479
Mof_O 	O 	0.32334	0.8618	0.54191	-0.451
Mof_O 	O 	0.33694	0.4301	0.45522	-0.447
Mof_O 	O 	0.65145	0.7311	0.28091	-0.403
Mof_O 	O 	0.80319	0.3987	0.34751	-0.449
Mof_H 	H 	0.7522	0.3167	0.3706	0.303
Mof_Zn	Zn	0.89417	0.79857	0.07172	1.234
Mof_P 	P 	0.16271	0.71707	0.06642	0.56
Mof_O 	O 	0.26818	0.7825	0.15303	-0.362
Mof_H 	H 	0.2506	0.7713	0.2155	0.199
Mof_O 	O 	0.05656	0.812	0.11165	-0.475
Mof_O 	O 	0.17666	0.8618	0.95809	-0.452
Mof_O 	O 	0.16306	0.4301	0.04478	-0.444
Mof_O 	O 	0.84855	0.7311	0.21909	-0.405
Mof_O 	O 	0.69681	0.3987	0.15249	-0.448
Mof_H 	H 	0.7478	0.3167	0.1294	0.302
Mof_P 	P 	0.25	0.42574	0.75	0.583
Mof_P 	P 	0.75	0.57426	0.25	0.583
_end
