data_functionalizedCrystal
_audit_creation_method	'EQeq! by Chris Wilmer'
_symmetry_space_group_name_H-M	'P1'
_symmetry_Int_Tables_number	1
_symmetry_cell_setting	triclinic
loop_
_symmetry_equiv_pos_as_xyz
  x,y,z
_cell_length_a	13.8877
_cell_length_b	22.5663
_cell_length_c	22.5663
_cell_angle_alpha	90
_cell_angle_beta	90
_cell_angle_gamma	90
loop_
_atom_site_label
_atom_site_type_symbol
_atom_site_fract_x
_atom_site_fract_y
_atom_site_fract_z
_atom_site_charge
Mof_Cd	Cd	0.93743	0.21594	0.02	0.427
Mof_Cd	Cd	0.81257	0.28406	0.52	0.427
Mof_H 	H 	0.8829	0.1393	0.9062	0.016
Mof_H 	H 	0.89	0.1492	0.1428	0.022
Mof_H 	H 	0.8508	0.1528	0.8063	0.079
Mof_H 	H 	0.9037	0.3199	0.1111	0.026
Mof_H 	H 	0.8992	0.3328	0.741	0.081
Mof_H 	H 	0.8508	0.1672	0.241	0.081
Mof_H 	H 	0.0296	0.2881	0.913	0.025
Mof_H 	H 	0.8463	0.1801	0.6111	0.026
Mof_H 	H 	0.7204	0.2119	0.413	0.025
Mof_H 	H 	0.8992	0.3472	0.3063	0.079
Mof_H 	H 	0.7459	0.1954	0.3129	0.082
Mof_H 	H 	0.86	0.3508	0.6428	0.022
Mof_H 	H 	0.8855	0.1575	0.7078	0.081
Mof_H 	H 	0.0041	0.3046	0.8129	0.081
Mof_H 	H 	0.8645	0.3425	0.2078	0.081
Mof_H 	H 	0.8671	0.3607	0.4062	0.016
Mof_C 	C 	0.8613	0.19954	0.2149	-0.117
Mof_C 	C 	0.8927	0.28832	0.13806	0.081
Mof_C 	C 	0.8887	0.30046	0.7149	-0.117
Mof_C 	C 	0.865	0.31106	0.65617	0.075
Mof_C 	C 	0.885	0.18894	0.15617	0.075
Mof_C 	C 	0.9769	0.2707	0.83145	-0.12
Mof_C 	C 	0.853	0.2566	0.23558	0.056
Mof_C 	C 	0.9923	0.2604	0.891	0.082
Mof_C 	C 	0.8288	0.26915	0.2985	0.057
Mof_C 	C 	0.7731	0.2293	0.33145	-0.122
Mof_C 	C 	0.8573	0.21168	0.63806	0.08
Mof_C 	C 	0.8694	0.3023	0.19558	-0.122
Mof_C 	C 	0.9064	0.17388	0.88703	0.076
Mof_C 	C 	0.9212	0.23085	0.7985	0.057
Mof_C 	C 	0.8806	0.1977	0.69558	-0.122
Mof_C 	C 	0.8627	0.31846	0.32727	-0.124
Mof_C 	C 	0.8436	0.32612	0.38703	0.076
Mof_C 	C 	0.7577	0.2396	0.391	0.082
Mof_C 	C 	0.8873	0.18154	0.82727	-0.124
Mof_C 	C 	0.897	0.2434	0.73558	0.057
Mof_N 	N 	0.901	0.23303	0.11781	-0.147
Mof_N 	N 	0.9568	0.21333	0.91877	-0.148
Mof_N 	N 	0.7932	0.28667	0.41877	-0.148
Mof_N 	N 	0.849	0.26697	0.61781	-0.147
Mof_Cd	Cd	0.68743	0.48	0.71594	0.426
Mof_Cd	Cd	0.56257	0.98	0.78406	0.426
Mof_H 	H 	0.5963	0.8889	0.6801	0.025
Mof_H 	H 	0.6008	0.6937	0.6528	0.078
Mof_H 	H 	0.6355	0.7922	0.6575	0.08
Mof_H 	H 	0.4959	0.1871	0.6954	0.081
Mof_H 	H 	0.6329	0.5938	0.6393	0.015
Mof_H 	H 	0.6145	0.2922	0.8425	0.08
Mof_H 	H 	0.6492	0.759	0.8328	0.08
Mof_H 	H 	0.6171	0.0938	0.8607	0.015
Mof_H 	H 	0.6537	0.3889	0.8199	0.025
Mof_H 	H 	0.7796	0.587	0.7881	0.024
Mof_H 	H 	0.6492	0.1937	0.8472	0.078
Mof_H 	H 	0.6008	0.259	0.6672	0.08
Mof_H 	H 	0.7541	0.6871	0.8046	0.081
Mof_H 	H 	0.64	0.3572	0.6492	0.021
Mof_H 	H 	0.4704	0.087	0.7119	0.024
Mof_H 	H 	0.61	0.8572	0.8508	0.021
Mof_C 	C 	0.5788	0.2015	0.76915	0.057
Mof_C 	C 	0.5231	0.16855	0.7293	-0.122
Mof_C 	C 	0.615	0.84383	0.81106	0.074
Mof_C 	C 	0.6306	0.80442	0.6977	-0.122
Mof_C 	C 	0.6373	0.67273	0.68154	-0.124
Mof_C 	C 	0.5936	0.11297	0.82612	0.076
Mof_C 	C 	0.635	0.34383	0.68894	0.074
Mof_C 	C 	0.5077	0.109	0.7396	0.082
Mof_C 	C 	0.6194	0.30442	0.8023	-0.122
Mof_C 	C 	0.6113	0.2851	0.69954	-0.118
Mof_C 	C 	0.6564	0.61297	0.67388	0.076
Mof_C 	C 	0.6427	0.36194	0.78832	0.08
Mof_C 	C 	0.7269	0.66855	0.7707	-0.122
Mof_C 	C 	0.6712	0.7015	0.73085	0.057
Mof_C 	C 	0.6387	0.7851	0.80046	-0.118
Mof_C 	C 	0.603	0.26442	0.7566	0.056
Mof_C 	C 	0.6073	0.86194	0.71168	0.08
Mof_C 	C 	0.7423	0.609	0.7604	0.082
Mof_C 	C 	0.6127	0.17273	0.81846	-0.124
Mof_C 	C 	0.647	0.76442	0.7434	0.056
Mof_N 	N 	0.599	0.88219	0.76697	-0.147
Mof_N 	N 	0.651	0.38219	0.73303	-0.147
Mof_N 	N 	0.7068	0.58123	0.71333	-0.148
Mof_N 	N 	0.5432	0.08123	0.78667	-0.148
Mof_Cd	Cd	0.43743	0.78406	0.98	0.426
Mof_Cd	Cd	0.31257	0.71594	0.48	0.426
Mof_H 	H 	0.4037	0.6801	0.8889	0.025
Mof_H 	H 	0.2459	0.8046	0.6871	0.081
Mof_H 	H 	0.36	0.6492	0.3572	0.021
Mof_H 	H 	0.3855	0.8425	0.2922	0.08
Mof_H 	H 	0.3671	0.6393	0.5938	0.015
Mof_H 	H 	0.5296	0.7119	0.087	0.024
Mof_H 	H 	0.3992	0.6528	0.6937	0.078
Mof_H 	H 	0.2204	0.7881	0.587	0.024
Mof_H 	H 	0.3645	0.6575	0.7922	0.08
Mof_H 	H 	0.39	0.8508	0.8572	0.021
Mof_H 	H 	0.3508	0.8328	0.759	0.08
Mof_H 	H 	0.3508	0.8472	0.1937	0.078
Mof_H 	H 	0.5041	0.6954	0.1871	0.081
Mof_H 	H 	0.3829	0.8607	0.0938	0.015
Mof_H 	H 	0.3463	0.8199	0.3889	0.025
Mof_H 	H 	0.3992	0.6672	0.259	0.08
Mof_C 	C 	0.385	0.81106	0.84383	0.074
Mof_C 	C 	0.2577	0.7604	0.609	0.082
Mof_C 	C 	0.353	0.7434	0.76442	0.056
Mof_C 	C 	0.4212	0.76915	0.2015	0.057
Mof_C 	C 	0.3873	0.81846	0.17273	-0.124
Mof_C 	C 	0.397	0.7566	0.26442	0.056
Mof_C 	C 	0.3927	0.71168	0.86194	0.08
Mof_C 	C 	0.2731	0.7707	0.66855	-0.122
Mof_C 	C 	0.3436	0.67388	0.61297	0.076
Mof_C 	C 	0.4064	0.82612	0.11297	0.076
Mof_C 	C 	0.3694	0.6977	0.80442	-0.122
Mof_C 	C 	0.4769	0.7293	0.16855	-0.122
Mof_C 	C 	0.3573	0.78832	0.36194	0.08
Mof_C 	C 	0.4923	0.7396	0.109	0.082
Mof_C 	C 	0.3627	0.68154	0.67273	-0.124
Mof_C 	C 	0.3887	0.69954	0.2851	-0.118
Mof_C 	C 	0.365	0.68894	0.34383	0.074
Mof_C 	C 	0.3613	0.80046	0.7851	-0.118
Mof_C 	C 	0.3288	0.73085	0.7015	0.057
Mof_C 	C 	0.3806	0.8023	0.30442	-0.122
Mof_N 	N 	0.401	0.76697	0.88219	-0.147
Mof_N 	N 	0.349	0.73303	0.38219	-0.147
Mof_N 	N 	0.4568	0.78667	0.08123	-0.148
Mof_N 	N 	0.2932	0.71333	0.58123	-0.148
Mof_Cd	Cd	0.18743	0.52	0.28406	0.426
Mof_Cd	Cd	0.06257	0.02	0.21594	0.426
Mof_H 	H 	0.9704	0.913	0.2881	0.024
Mof_H 	H 	0.2541	0.3129	0.1954	0.081
Mof_H 	H 	0.1492	0.8063	0.1528	0.078
Mof_H 	H 	0.2796	0.413	0.2119	0.024
Mof_H 	H 	0.1492	0.241	0.1672	0.08
Mof_H 	H 	0.11	0.1428	0.1492	0.021
Mof_H 	H 	0.1355	0.2078	0.3425	0.08
Mof_H 	H 	0.1171	0.9062	0.1393	0.015
Mof_H 	H 	0.1329	0.4062	0.3607	0.015
Mof_H 	H 	0.1537	0.6111	0.1801	0.025
Mof_H 	H 	0.1008	0.741	0.3328	0.08
Mof_H 	H 	0.1008	0.3063	0.3472	0.078
Mof_H 	H 	0.14	0.6428	0.3508	0.021
Mof_H 	H 	0.0963	0.1111	0.3199	0.025
Mof_H 	H 	0.1145	0.7078	0.1575	0.08
Mof_H 	H 	0.9959	0.8129	0.3046	0.08
Mof_C 	C 	0.103	0.73558	0.2434	0.057
Mof_C 	C 	0.1712	0.2985	0.26915	0.057
Mof_C 	C 	0.115	0.15617	0.18894	0.074
Mof_C 	C 	0.2423	0.391	0.2396	0.082
Mof_C 	C 	0.1306	0.19558	0.3023	-0.122
Mof_C 	C 	0.1427	0.63806	0.21168	0.08
Mof_C 	C 	0.1194	0.69558	0.1977	-0.122
Mof_C 	C 	0.1373	0.32727	0.31846	-0.124
Mof_C 	C 	0.2269	0.33145	0.2293	-0.122
Mof_C 	C 	0.1564	0.38703	0.32612	0.076
Mof_C 	C 	0.1387	0.2149	0.19954	-0.118
Mof_C 	C 	0.0936	0.88703	0.17388	0.076
Mof_C 	C 	0.1113	0.7149	0.30046	-0.118
Mof_C 	C 	0.1127	0.82727	0.18154	-0.124
Mof_C 	C 	0.135	0.65617	0.31106	0.074
Mof_C 	C 	0.0231	0.83145	0.2707	-0.121
Mof_C 	C 	0.1073	0.13806	0.28832	0.08
Mof_C 	C 	0.0077	0.891	0.2604	0.082
Mof_C 	C 	0.0788	0.7985	0.23085	0.057
Mof_C 	C 	0.147	0.23558	0.2566	0.056
Mof_N 	N 	0.2068	0.41877	0.28667	-0.148
Mof_N 	N 	0.0432	0.91877	0.21333	-0.148
Mof_N 	N 	0.099	0.11781	0.23303	-0.147
Mof_N 	N 	0.151	0.61781	0.26697	-0.147
Mof_H 	H 	0.7865	0.44	0.1021	0.112
Mof_H 	H 	0.8408	0.4712	0.3037	0.011
Mof_H 	H 	0.2899	0.2065	0.0637	0.01
Mof_H 	H 	0.4833	0.4283	0.0576	0.025
Mof_H 	H 	0.3242	0.4111	0.0855	0.116
Mof_H 	H 	0.4385	0.2462	0.0896	0.124
Mof_H 	H 	0.6283	0.4634	0.0881	0.028
Mof_H 	H 	0.6472	0.3933	0.0848	0.047
Mof_H 	H 	0.688	0.443	0.2703	0.124
Mof_H 	H 	0.1758	0.3702	0.0594	0.006
Mof_H 	H 	0.9392	0.4662	0.1355	0.007
Mof_H 	H 	0.4671	0.4363	0.1276	0.046
Mof_C 	C 	0.7233	0.43896	0.1834	0.252
Mof_C 	C 	0.7976	0.44613	0.14325	-0.229
Mof_C 	C 	0.7391	0.4481	0.2428	-0.223
Mof_C 	C 	0.8301	0.4649	0.2626	0.103
Mof_C 	C 	0.6101	0.4247	0.1053	0.015
Mof_C 	C 	0.004	0.49134	0.24328	0.317
Mof_C 	C 	0.3851	0.27167	0.083	-0.222
Mof_C 	C 	0.5039	0.4142	0.0972	0.02
Mof_C 	C 	0.2966	0.24822	0.06793	0.111
Mof_C 	C 	0.888	0.46219	0.16321	0.111
Mof_C 	C 	0.2294	0.34477	0.06542	0.116
Mof_C 	C 	0.3958	0.3328	0.08859	0.254
Mof_C 	C 	0.1214	0.25856	0.04268	0.318
Mof_C 	C 	0.9056	0.47248	0.22255	-0.148
Mof_C 	C 	0.2171	0.28455	0.05886	-0.156
Mof_C 	C 	0.3178	0.36948	0.08064	-0.236
Mof_O 	O 	0.10852	0.20354	0.04445	-0.277
Mof_O 	O 	0.0704	0.49784	0.20616	-0.266
Mof_O 	O 	0.4862	0.35211	0.10272	-0.227
Mof_O 	O 	0.0539	0.29327	0.02785	-0.271
Mof_O 	O 	0.631	0.42388	0.16747	-0.223
Mof_O 	O 	0.0183	0.50021	0.29804	-0.273
Mof_H 	H 	0.5742	0.1298	0.5594	0.006
Mof_H 	H 	0.062	0.057	0.7703	0.124
Mof_H 	H 	0.3115	0.2538	0.5896	0.124
Mof_H 	H 	0.1028	0.1067	0.5848	0.047
Mof_H 	H 	0.8108	0.0338	0.6355	0.008
Mof_H 	H 	0.9635	0.06	0.6021	0.112
Mof_H 	H 	0.2829	0.0637	0.6276	0.046
Mof_H 	H 	0.1217	0.0366	0.5881	0.028
Mof_H 	H 	0.4258	0.0889	0.5855	0.116
Mof_H 	H 	0.9092	0.0288	0.8037	0.011
Mof_H 	H 	0.4601	0.2935	0.5637	0.01
Mof_H 	H 	0.2667	0.0717	0.5576	0.025
Mof_C 	C 	0.1399	0.0753	0.6053	0.015
Mof_C 	C 	0.6286	0.24144	0.54268	0.318
Mof_C 	C 	0.4322	0.13052	0.58064	-0.236
Mof_C 	C 	0.0267	0.06104	0.6834	0.251
Mof_C 	C 	0.0109	0.0519	0.7428	-0.224
Mof_C 	C 	0.9199	0.0351	0.7626	0.104
Mof_C 	C 	0.3542	0.1672	0.58859	0.254
Mof_C 	C 	0.862	0.03781	0.66321	0.111
Mof_C 	C 	0.2461	0.0858	0.5972	0.02
Mof_C 	C 	0.5206	0.15523	0.56542	0.116
Mof_C 	C 	0.9524	0.05387	0.64325	-0.228
Mof_C 	C 	0.746	0.00866	0.74328	0.317
Mof_C 	C 	0.3649	0.22833	0.583	-0.222
Mof_C 	C 	0.5329	0.21545	0.55886	-0.156
Mof_C 	C 	0.4534	0.25178	0.56793	0.111
Mof_C 	C 	0.8444	0.02752	0.72255	-0.148
Mof_O 	O 	0.64148	0.29646	0.54445	-0.277
Mof_O 	O 	0.119	0.07612	0.66747	-0.223
Mof_O 	O 	0.6796	0.00216	0.70616	-0.266
Mof_O 	O 	0.7317	0.99979	0.79804	-0.273
Mof_O 	O 	0.6961	0.20673	0.52785	-0.271
Mof_O 	O 	0.2638	0.14789	0.60272	-0.227
Mof_H 	H 	0.6892	0.3645	0.9662	0.008
Mof_H 	H 	0.438	0.2297	0.943	0.124
Mof_H 	H 	0.9258	0.4406	0.8702	0.006
Mof_H 	H 	0.2333	0.4424	0.9283	0.025
Mof_H 	H 	0.3783	0.4119	0.9634	0.028
Mof_H 	H 	0.1885	0.4104	0.7462	0.124
Mof_H 	H 	0.0399	0.4363	0.7065	0.01
Mof_H 	H 	0.5365	0.3979	0.94	0.112
Mof_H 	H 	0.2171	0.3724	0.9363	0.046
Mof_H 	H 	0.5908	0.1963	0.9712	0.011
Mof_H 	H 	0.3972	0.4152	0.8933	0.047
Mof_H 	H 	0.0742	0.4145	0.9111	0.116
Mof_C 	C 	0.6556	0.27745	0.97248	-0.148
Mof_C 	C 	0.9794	0.43458	0.84477	0.116
Mof_C 	C 	0.4733	0.3166	0.93896	0.252
Mof_C 	C 	0.754	0.25672	0.99134	0.317
Mof_C 	C 	0.9671	0.44114	0.78455	-0.156
Mof_C 	C 	0.638	0.33679	0.96219	0.111
Mof_C 	C 	0.3601	0.3947	0.9247	0.014
Mof_C 	C 	0.4891	0.2572	0.9481	-0.223
Mof_C 	C 	0.1458	0.41141	0.8328	0.254
Mof_C 	C 	0.5476	0.35675	0.94613	-0.228
Mof_C 	C 	0.8714	0.45732	0.75856	0.318
Mof_C 	C 	0.5801	0.2374	0.9649	0.103
Mof_C 	C 	0.1351	0.417	0.77167	-0.222
Mof_C 	C 	0.2539	0.4028	0.9142	0.02
Mof_C 	C 	0.0678	0.41936	0.86948	-0.237
Mof_C 	C 	0.0466	0.43207	0.74822	0.111
Mof_O 	O 	0.8204	0.29384	0.99784	-0.266
Mof_O 	O 	0.7683	0.20196	0.00021	-0.272
Mof_O 	O 	0.85852	0.45555	0.70354	-0.277
Mof_O 	O 	0.8039	0.47215	0.79327	-0.271
Mof_O 	O 	0.2362	0.39728	0.85211	-0.227
Mof_O 	O 	0.381	0.33253	0.92388	-0.223
Mof_H 	H 	0.8717	0.9119	0.5366	0.028
Mof_H 	H 	0.0167	0.9424	0.5717	0.026
Mof_H 	H 	0.0329	0.8724	0.5637	0.047
Mof_H 	H 	0.0615	0.9104	0.7538	0.124
Mof_H 	H 	0.7135	0.8979	0.56	0.112
Mof_H 	H 	0.1758	0.9145	0.5889	0.116
Mof_H 	H 	0.3242	0.9406	0.6298	0.006
Mof_H 	H 	0.8528	0.9152	0.6067	0.046
Mof_H 	H 	0.812	0.7297	0.557	0.124
Mof_H 	H 	0.5608	0.8645	0.5338	0.007
Mof_H 	H 	0.2101	0.9363	0.7935	0.01
Mof_H 	H 	0.6592	0.6963	0.5288	0.011
Mof_C 	C 	0.1149	0.917	0.72833	-0.222
Mof_C 	C 	0.9961	0.9028	0.5858	0.018
Mof_C 	C 	0.3786	0.95732	0.74144	0.318
Mof_C 	C 	0.1042	0.91141	0.6672	0.254
Mof_C 	C 	0.2706	0.93458	0.65523	0.116
Mof_C 	C 	0.7024	0.85675	0.55387	-0.228
Mof_C 	C 	0.7609	0.7572	0.5519	-0.223
Mof_C 	C 	0.7767	0.8166	0.56104	0.252
Mof_C 	C 	0.2034	0.93207	0.75178	0.111
Mof_C 	C 	0.8899	0.8947	0.5753	0.015
Mof_C 	C 	0.496	0.75672	0.50866	0.317
Mof_C 	C 	0.2829	0.94114	0.71545	-0.156
Mof_C 	C 	0.6699	0.7374	0.5351	0.103
Mof_C 	C 	0.5944	0.77745	0.52752	-0.148
Mof_C 	C 	0.612	0.83679	0.53781	0.111
Mof_C 	C 	0.1822	0.91936	0.63052	-0.236
Mof_O 	O 	0.4817	0.70196	0.49979	-0.273
Mof_O 	O 	0.869	0.83253	0.57612	-0.223
Mof_O 	O 	0.0138	0.89728	0.64789	-0.226
Mof_O 	O 	0.39148	0.95555	0.79646	-0.277
Mof_O 	O 	0.4461	0.97215	0.70673	-0.271
Mof_O 	O 	0.4296	0.79384	0.50216	-0.266
Mof_H 	H 	0.1472	0.6067	0.9152	0.046
Mof_H 	H 	0.7899	0.7935	0.9363	0.01
Mof_H 	H 	0.3408	0.5288	0.6963	0.011
Mof_H 	H 	0.6758	0.6298	0.9406	0.006
Mof_H 	H 	0.2865	0.56	0.8979	0.112
Mof_H 	H 	0.9671	0.5637	0.8724	0.047
Mof_H 	H 	0.1283	0.5366	0.9119	0.028
Mof_H 	H 	0.9833	0.5717	0.9424	0.026
Mof_H 	H 	0.8242	0.5889	0.9145	0.116
Mof_H 	H 	0.9385	0.7538	0.9104	0.124
Mof_H 	H 	0.188	0.557	0.7297	0.124
Mof_H 	H 	0.4392	0.5338	0.8645	0.007
Mof_C 	C 	0.7966	0.75178	0.93207	0.111
Mof_C 	C 	0.8178	0.63052	0.91936	-0.236
Mof_C 	C 	0.2391	0.5519	0.7572	-0.223
Mof_C 	C 	0.6214	0.74144	0.95732	0.318
Mof_C 	C 	0.0039	0.5858	0.9028	0.018
Mof_C 	C 	0.7294	0.65523	0.93458	0.116
Mof_C 	C 	0.3301	0.5351	0.7374	0.103
Mof_C 	C 	0.504	0.50866	0.75672	0.317
Mof_C 	C 	0.7171	0.71545	0.94114	-0.156
Mof_C 	C 	0.1101	0.5753	0.8947	0.015
Mof_C 	C 	0.2233	0.56104	0.8166	0.252
Mof_C 	C 	0.388	0.53781	0.83679	0.111
Mof_C 	C 	0.4056	0.52752	0.77745	-0.148
Mof_C 	C 	0.2976	0.55387	0.85675	-0.228
Mof_C 	C 	0.8958	0.6672	0.91141	0.254
Mof_C 	C 	0.8851	0.72833	0.917	-0.222
Mof_O 	O 	0.5704	0.50216	0.79384	-0.266
Mof_O 	O 	0.60852	0.79646	0.95555	-0.277
Mof_O 	O 	0.5183	0.49979	0.70196	-0.273
Mof_O 	O 	0.9862	0.64789	0.89728	-0.226
Mof_O 	O 	0.131	0.57612	0.83253	-0.223
Mof_O 	O 	0.5539	0.70673	0.97215	-0.271
Mof_H 	H 	0.6217	0.9634	0.4119	0.028
Mof_H 	H 	0.3108	0.9662	0.3645	0.008
Mof_H 	H 	0.7667	0.9283	0.4424	0.025
Mof_H 	H 	0.8115	0.7462	0.4104	0.124
Mof_H 	H 	0.6028	0.8933	0.4152	0.047
Mof_H 	H 	0.9601	0.7065	0.4363	0.01
Mof_H 	H 	0.9258	0.9111	0.4145	0.116
Mof_H 	H 	0.7829	0.9363	0.3724	0.046
Mof_H 	H 	0.562	0.943	0.2297	0.124
Mof_H 	H 	0.4635	0.94	0.3979	0.112
Mof_H 	H 	0.4092	0.9712	0.1963	0.011
Mof_H 	H 	0.0742	0.8702	0.4406	0.006
Mof_C 	C 	0.362	0.96219	0.33679	0.111
Mof_C 	C 	0.6399	0.9247	0.3947	0.014
Mof_C 	C 	0.246	0.99134	0.25672	0.317
Mof_C 	C 	0.7461	0.9142	0.4028	0.02
Mof_C 	C 	0.8542	0.8328	0.41141	0.254
Mof_C 	C 	0.8649	0.77167	0.417	-0.222
Mof_C 	C 	0.0206	0.84477	0.43458	0.116
Mof_C 	C 	0.4199	0.9649	0.2374	0.103
Mof_C 	C 	0.5109	0.9481	0.2572	-0.223
Mof_C 	C 	0.3444	0.97248	0.27745	-0.148
Mof_C 	C 	0.9322	0.86948	0.41936	-0.237
Mof_C 	C 	0.0329	0.78455	0.44114	-0.156
Mof_C 	C 	0.4524	0.94613	0.35675	-0.228
Mof_C 	C 	0.9534	0.74822	0.43207	0.111
Mof_C 	C 	0.5267	0.93896	0.3166	0.252
Mof_C 	C 	0.1286	0.75856	0.45732	0.318
Mof_O 	O 	0.14148	0.70354	0.45555	-0.277
Mof_O 	O 	0.7638	0.85211	0.39728	-0.227
Mof_O 	O 	0.2317	0.00021	0.20196	-0.272
Mof_O 	O 	0.1796	0.99784	0.29384	-0.266
Mof_O 	O 	0.1961	0.79327	0.47215	-0.271
Mof_O 	O 	0.619	0.92388	0.33253	-0.223
Mof_H 	H 	0.5167	0.0576	0.4283	0.025
Mof_H 	H 	0.1592	0.3037	0.4712	0.011
Mof_H 	H 	0.2135	0.1021	0.44	0.112
Mof_H 	H 	0.3717	0.0881	0.4634	0.028
Mof_H 	H 	0.5615	0.0896	0.2462	0.124
Mof_H 	H 	0.6758	0.0855	0.4111	0.116
Mof_H 	H 	0.5329	0.1276	0.4363	0.046
Mof_H 	H 	0.312	0.2703	0.443	0.124
Mof_H 	H 	0.0608	0.1355	0.4662	0.007
Mof_H 	H 	0.3528	0.0848	0.3933	0.047
Mof_H 	H 	0.7101	0.0637	0.2065	0.01
Mof_H 	H 	0.8242	0.0594	0.3702	0.006
Mof_C 	C 	0.6042	0.08859	0.3328	0.254
Mof_C 	C 	0.6149	0.083	0.27167	-0.222
Mof_C 	C 	0.996	0.24328	0.49134	0.317
Mof_C 	C 	0.0944	0.22255	0.47248	-0.148
Mof_C 	C 	0.3899	0.1053	0.4247	0.015
Mof_C 	C 	0.112	0.16321	0.46219	0.111
Mof_C 	C 	0.7034	0.06793	0.24822	0.111
Mof_C 	C 	0.2024	0.14325	0.44613	-0.229
Mof_C 	C 	0.2609	0.2428	0.4481	-0.223
Mof_C 	C 	0.2767	0.1834	0.43896	0.252
Mof_C 	C 	0.7829	0.05886	0.28455	-0.156
Mof_C 	C 	0.4961	0.0972	0.4142	0.02
Mof_C 	C 	0.7706	0.06542	0.34477	0.116
Mof_C 	C 	0.6822	0.08064	0.36948	-0.236
Mof_C 	C 	0.8786	0.04268	0.25856	0.318
Mof_C 	C 	0.1699	0.2626	0.4649	0.103
Mof_O 	O 	0.369	0.16747	0.42388	-0.223
Mof_O 	O 	0.5138	0.10272	0.35211	-0.227
Mof_O 	O 	0.9296	0.20616	0.49784	-0.266
Mof_O 	O 	0.9461	0.02785	0.29327	-0.271
Mof_O 	O 	0.9817	0.29804	0.50021	-0.273
Mof_O 	O 	0.89148	0.04445	0.20354	-0.277
Mof_H 	H 	0.0365	0.6021	0.06	0.112
Mof_H 	H 	0.5742	0.5855	0.0889	0.116
Mof_H 	H 	0.8783	0.5881	0.0366	0.028
Mof_H 	H 	0.938	0.7703	0.057	0.124
Mof_H 	H 	0.7171	0.6276	0.0637	0.046
Mof_H 	H 	0.7333	0.5576	0.0717	0.025
Mof_H 	H 	0.6885	0.5896	0.2538	0.124
Mof_H 	H 	0.1892	0.6355	0.0338	0.008
Mof_H 	H 	0.0908	0.8037	0.0288	0.011
Mof_H 	H 	0.5399	0.5637	0.2935	0.01
Mof_H 	H 	0.8972	0.5848	0.1067	0.047
Mof_H 	H 	0.4258	0.5594	0.1298	0.006
Mof_C 	C 	0.9733	0.6834	0.06104	0.251
Mof_C 	C 	0.254	0.74328	0.00866	0.317
Mof_C 	C 	0.4794	0.56542	0.15523	0.116
Mof_C 	C 	0.7539	0.5972	0.0858	0.02
Mof_C 	C 	0.5466	0.56793	0.25178	0.111
Mof_C 	C 	0.138	0.66321	0.03781	0.111
Mof_C 	C 	0.6458	0.58859	0.1672	0.254
Mof_C 	C 	0.0801	0.7626	0.0351	0.104
Mof_C 	C 	0.8601	0.6053	0.0753	0.015
Mof_C 	C 	0.0476	0.64325	0.05387	-0.228
Mof_C 	C 	0.5678	0.58064	0.13052	-0.236
Mof_C 	C 	0.3714	0.54268	0.24144	0.318
Mof_C 	C 	0.9891	0.7428	0.0519	-0.224
Mof_C 	C 	0.1556	0.72255	0.02752	-0.148
Mof_C 	C 	0.6351	0.583	0.22833	-0.222
Mof_C 	C 	0.4671	0.55886	0.21545	-0.156
Mof_O 	O 	0.35852	0.54445	0.29646	-0.277
Mof_O 	O 	0.7362	0.60272	0.14789	-0.227
Mof_O 	O 	0.3039	0.52785	0.20673	-0.271
Mof_O 	O 	0.2683	0.79804	0.99979	-0.273
Mof_O 	O 	0.3204	0.70616	0.00216	-0.266
Mof_O 	O 	0.881	0.66747	0.07612	-0.223
_end
