data_functionalizedCrystal
_audit_creation_method	'EQeq! by Chris Wilmer'
_symmetry_space_group_name_H-M	'P1'
_symmetry_Int_Tables_number	1
_symmetry_cell_setting	triclinic
loop_
_symmetry_equiv_pos_as_xyz
  x,y,z
_cell_length_a	17.672
_cell_length_b	19.85
_cell_length_c	20.915
_cell_angle_alpha	72.383
_cell_angle_beta	70.947
_cell_angle_gamma	69.724
loop_
_atom_site_label
_atom_site_type_symbol
_atom_site_fract_x
_atom_site_fract_y
_atom_site_fract_z
_atom_site_charge
Mof_Zn	Zn	0.04175	0.72488	0.54352	1.214
Mof_Zn	Zn	0.19024	0.57878	0.5421	1.209
Mof_Zn	Zn	0.19333	0.70618	0.41356	1.211
Mof_Zn	Zn	0.22813	0.72442	0.54735	1.179
Mof_Zn	Zn	0.78295	0.14636	0.98069	1.205
Mof_Zn	Zn	0.63262	0.28783	0.98601	1.21
Mof_Zn	Zn	0.60667	0.14084	0.97867	1.214
Mof_Zn	Zn	0.63285	0.15823	0.1203	1.176
Mof_H 	H 	0.3093	0.4065	0.4317	0.04
Mof_H 	H 	0.3886	0.3219	0.3612	0.05
Mof_H 	H 	0.4673	0.3002	0.2435	0.04
Mof_H 	H 	0.4699	0.4747	0.0773	0.04
Mof_H 	H 	0.3854	0.5532	0.1482	0.068
Mof_H 	H 	0.3118	0.5761	0.2673	0.061
Mof_H 	H 	0.7647	0.4361	0.8564	0.057
Mof_H 	H 	0.7827	0.5549	0.7798	0.067
Mof_H 	H 	0.8488	0.6205	0.6858	0.036
Mof_H 	H 	0.0537	0.4467	0.6822	0.058
Mof_H 	H 	0.0458	0.3258	0.7632	0.064
Mof_H 	H 	0.9625	0.257	0.8503	0.036
Mof_H 	H 	0.4847	0.4237	0.8551	0.05
Mof_H 	H 	0.4328	0.5438	0.7792	0.057
Mof_H 	H 	0.3548	0.6123	0.7001	0.024
Mof_H 	H 	0.2845	0.432	0.7097	0.059
Mof_H 	H 	0.3349	0.316	0.7875	0.065
Mof_H 	H 	0.4172	0.2481	0.8633	0.029
Mof_H 	H 	0.5135	0.9504	0.0809	0.047
Mof_H 	H 	0.4543	0.8595	0.1556	0.064
Mof_H 	H 	0.3645	0.8171	0.2702	0.057
Mof_H 	H 	0.2901	0.9299	0.4218	0.027
Mof_H 	H 	0.3712	0.0055	0.3547	0.061
Mof_H 	H 	0.4502	0.0584	0.2369	0.049
Mof_H 	H 	0.9606	0.9622	0.0732	0.046
Mof_H 	H 	0.0382	0.8722	0.1481	0.058
Mof_H 	H 	0.0547	0.8129	0.2694	0.052
Mof_H 	H 	0.8519	0.848	0.4295	0.031
Mof_H 	H 	0.7749	0.9278	0.3571	0.055
Mof_H 	H 	0.7583	0.9903	0.2354	0.037
Mof_H 	H 	0.7038	0.9899	0.8452	0.045
Mof_H 	H 	0.7657	0.9244	0.7571	0.063
Mof_H 	H 	0.9003	0.8578	0.6815	0.057
Mof_H 	H 	0.1146	0.8976	0.6614	0.028
Mof_H 	H 	0.0491	0.9788	0.7389	0.065
Mof_H 	H 	0.9194	0.0378	0.8177	0.058
Mof_C 	C 	0.2565	0.5551	0.4019	0.367
Mof_C 	C 	0.306	0.4991	0.356	-0.075
Mof_C 	C 	0.3274	0.4238	0.3832	0.003
Mof_C 	C 	0.3743	0.3731	0.3417	-0.081
Mof_C 	C 	0.4001	0.3998	0.2698	0.012
Mof_C 	C 	0.4512	0.3516	0.2251	-0.029
Mof_C 	C 	0.4779	0.3782	0.1552	-0.095
Mof_C 	C 	0.452	0.4564	0.1257	0.018
Mof_C 	C 	0.4027	0.5021	0.1675	-0.096
Mof_C 	C 	0.3751	0.4765	0.2404	0.028
Mof_C 	C 	0.3283	0.5247	0.2858	-0.043
Mof_C 	C 	0.5345	0.326	0.1082	0.377
Mof_C 	C 	0.0151	0.7827	0.4036	0.365
Mof_C 	C 	0.0133	0.5841	0.6191	0.343
Mof_C 	C 	0.257	0.5742	0.6432	0.375
Mof_C 	C 	0.2723	0.8074	0.3967	0.399
Mof_C 	C 	0.0583	0.8149	0.6185	0.399
Mof_C 	C 	0.8004	0.2946	0.9116	0.382
Mof_C 	C 	0.8547	0.3391	0.8593	-0.096
Mof_C 	C 	0.8208	0.414	0.8351	-0.034
Mof_C 	C 	0.8653	0.4582	0.7813	0.032
Mof_C 	C 	0.837	0.5309	0.7566	-0.096
Mof_C 	C 	0.8764	0.5714	0.7042	0.027
Mof_C 	C 	0.9601	0.5406	0.6759	-0.081
Mof_C 	C 	0.9964	0.4677	0.7013	-0.039
Mof_C 	C 	0.9511	0.424	0.7541	0.025
Mof_C 	C 	0.9884	0.348	0.7807	-0.091
Mof_C 	C 	0.9386	0.3075	0.8326	0.021
Mof_C 	C 	0.5202	0.2844	0.909	0.407
Mof_C 	C 	0.4639	0.3288	0.8635	-0.119
Mof_C 	C 	0.4565	0.4017	0.839	-0.011
Mof_C 	C 	0.4103	0.4458	0.7921	0.008
Mof_C 	C 	0.4039	0.5208	0.7649	-0.077
Mof_C 	C 	0.3572	0.5617	0.7183	-0.003
Mof_C 	C 	0.3113	0.5278	0.6968	-0.07
Mof_C 	C 	0.3137	0.4546	0.7241	-0.048
Mof_C 	C 	0.361	0.4135	0.7742	0.037
Mof_C 	C 	0.3657	0.3384	0.8004	-0.106
Mof_C 	C 	0.4153	0.2985	0.8445	0.038
Mof_C 	C 	0.5329	0.068	0.106	0.367
Mof_C 	C 	0.4892	0.0106	0.1543	-0.075
Mof_C 	C 	0.4885	0.9526	0.1282	0.003
Mof_C 	C 	0.4518	0.9004	0.1716	-0.079
Mof_C 	C 	0.4087	0.9065	0.2423	0.019
Mof_C 	C 	0.3644	0.8573	0.2859	-0.032
Mof_C 	C 	0.3199	0.8663	0.3527	-0.094
Mof_C 	C 	0.3213	0.9233	0.3765	0.025
Mof_C 	C 	0.3666	0.9697	0.3357	-0.104
Mof_C 	C 	0.4067	0.9673	0.2675	0.026
Mof_C 	C 	0.4491	0.0184	0.2216	-0.041
Mof_C 	C 	0.7965	0.0424	0.1013	0.368
Mof_C 	C 	0.8517	0.983	0.148	-0.08
Mof_C 	C 	0.9356	0.9499	0.1213	0.002
Mof_C 	C 	0.9825	0.898	0.1665	-0.073
Mof_C 	C 	0.9481	0.8836	0.2392	0.01
Mof_C 	C 	0.9977	0.8366	0.2864	-0.016
Mof_C 	C 	0.9628	0.826	0.3557	-0.103
Mof_C 	C 	0.8767	0.8587	0.3812	0.029
Mof_C 	C 	0.8312	0.9033	0.3389	-0.098
Mof_C 	C 	0.8655	0.9156	0.2649	0.024
Mof_C 	C 	0.8155	0.9674	0.2179	-0.042
Mof_C 	C 	0.7643	0.0728	0.8847	0.37
Mof_C 	C 	0.8055	0.0245	0.8349	-0.095
Mof_C 	C 	0.7603	0.9863	0.8207	0.023
Mof_C 	C 	0.798	0.9439	0.7715	-0.081
Mof_C 	C 	0.8846	0.9296	0.7425	0.019
Mof_C 	C 	0.9299	0.8813	0.6945	-0.025
Mof_C 	C 	0.0143	0.8685	0.6671	-0.094
Mof_C 	C 	0.0568	0.9051	0.6827	0.021
Mof_C 	C 	0.018	0.9539	0.7295	-0.096
Mof_C 	C 	0.9309	0.9642	0.7617	0.036
Mof_C 	C 	0.8894	0.013	0.8068	-0.038
Mof_O 	O 	0.2409	0.5252	0.4675	-0.495
Mof_O 	O 	0.2409	0.6202	0.3738	-0.517
Mof_O 	O 	0.5429	0.2589	0.1345	-0.506
Mof_O 	O 	0.5693	0.3527	0.0481	-0.499
Mof_O 	O 	0.9846	0.7739	0.4676	-0.481
Mof_O 	O 	0.095	0.7569	0.3768	-0.481
Mof_O 	O 	0.9804	0.6537	0.6038	-0.47
Mof_O 	O 	0.0862	0.5492	0.5895	-0.48
Mof_O 	O 	0.2525	0.5351	0.6092	-0.524
Mof_O 	O 	0.2399	0.6417	0.6353	-0.514
Mof_O 	O 	0.2426	0.8118	0.4596	-0.504
Mof_O 	O 	0.2664	0.7669	0.368	-0.537
Mof_O 	O 	0.0088	0.7971	0.5986	-0.495
Mof_O 	O 	0.1346	0.7964	0.6035	-0.492
Mof_O 	O 	0.7275	0.3248	0.9308	-0.526
Mof_O 	O 	0.8384	0.2245	0.9316	-0.494
Mof_O 	O 	0.5597	0.316	0.9221	-0.511
Mof_O 	O 	0.5258	0.2153	0.9303	-0.496
Mof_O 	O 	0.5355	0.1176	0.1288	-0.487
Mof_O 	O 	0.5545	0.0676	0.0415	-0.47
Mof_O 	O 	0.7227	0.0565	0.1238	-0.524
Mof_O 	O 	0.8413	0.0695	0.0428	-0.493
Mof_O 	O 	0.8076	0.0963	0.9051	-0.492
Mof_O 	O 	0.6838	0.0853	0.9083	-0.476
Mof_O 	O 	0.1612	0.6847	0.5133	-0.957
Mof_O 	O 	0.6638	0.1827	0.016	-0.946
Mof_Zn	Zn	0.95825	0.27512	0.45648	1.213
Mof_Zn	Zn	0.80976	0.42122	0.4579	1.208
Mof_Zn	Zn	0.80667	0.29382	0.58644	1.211
Mof_Zn	Zn	0.77187	0.27558	0.45265	1.179
Mof_Zn	Zn	0.21705	0.85364	0.01931	1.205
Mof_Zn	Zn	0.36738	0.71217	0.01399	1.21
Mof_Zn	Zn	0.39333	0.85916	0.02133	1.214
Mof_Zn	Zn	0.36715	0.84177	0.8797	1.176
Mof_H 	H 	0.6907	0.5935	0.5683	0.04
Mof_H 	H 	0.6114	0.6781	0.6388	0.05
Mof_H 	H 	0.5327	0.6998	0.7565	0.04
Mof_H 	H 	0.5301	0.5253	0.9227	0.04
Mof_H 	H 	0.6146	0.4468	0.8518	0.068
Mof_H 	H 	0.6882	0.4239	0.7327	0.061
Mof_H 	H 	0.2353	0.5639	0.1436	0.057
Mof_H 	H 	0.2173	0.4451	0.2202	0.067
Mof_H 	H 	0.1512	0.3795	0.3142	0.036
Mof_H 	H 	0.9463	0.5533	0.3178	0.058
Mof_H 	H 	0.9542	0.6742	0.2368	0.064
Mof_H 	H 	0.0375	0.743	0.1497	0.036
Mof_H 	H 	0.5153	0.5763	0.1449	0.05
Mof_H 	H 	0.5672	0.4562	0.2208	0.057
Mof_H 	H 	0.6452	0.3877	0.2999	0.024
Mof_H 	H 	0.7155	0.568	0.2903	0.059
Mof_H 	H 	0.6651	0.684	0.2125	0.065
Mof_H 	H 	0.5828	0.7519	0.1367	0.029
Mof_H 	H 	0.4865	0.0496	0.9191	0.047
Mof_H 	H 	0.5457	0.1405	0.8444	0.064
Mof_H 	H 	0.6355	0.1829	0.7298	0.057
Mof_H 	H 	0.7099	0.0701	0.5782	0.027
Mof_H 	H 	0.6288	0.9945	0.6453	0.061
Mof_H 	H 	0.5498	0.9416	0.7631	0.049
Mof_H 	H 	0.0394	0.0378	0.9268	0.046
Mof_H 	H 	0.9618	0.1278	0.8519	0.058
Mof_H 	H 	0.9453	0.1871	0.7306	0.052
Mof_H 	H 	0.1481	0.152	0.5705	0.031
Mof_H 	H 	0.2251	0.0722	0.6429	0.055
Mof_H 	H 	0.2417	0.0097	0.7646	0.037
Mof_H 	H 	0.2962	0.0101	0.1548	0.045
Mof_H 	H 	0.2343	0.0756	0.2429	0.063
Mof_H 	H 	0.0997	0.1422	0.3185	0.057
Mof_H 	H 	0.8854	0.1024	0.3386	0.028
Mof_H 	H 	0.9509	0.0212	0.2611	0.065
Mof_H 	H 	0.0806	0.9622	0.1823	0.058
Mof_C 	C 	0.7435	0.4449	0.5981	0.367
Mof_C 	C 	0.694	0.5009	0.644	-0.075
Mof_C 	C 	0.6726	0.5762	0.6168	0.003
Mof_C 	C 	0.6257	0.6269	0.6583	-0.081
Mof_C 	C 	0.5999	0.6002	0.7302	0.012
Mof_C 	C 	0.5488	0.6484	0.7749	-0.029
Mof_C 	C 	0.5221	0.6218	0.8448	-0.095
Mof_C 	C 	0.548	0.5436	0.8743	0.018
Mof_C 	C 	0.5973	0.4979	0.8325	-0.096
Mof_C 	C 	0.6249	0.5235	0.7596	0.028
Mof_C 	C 	0.6717	0.4753	0.7142	-0.043
Mof_C 	C 	0.4655	0.674	0.8918	0.377
Mof_C 	C 	0.9849	0.2173	0.5964	0.365
Mof_C 	C 	0.9867	0.4159	0.3809	0.343
Mof_C 	C 	0.743	0.4258	0.3568	0.375
Mof_C 	C 	0.7277	0.1926	0.6033	0.399
Mof_C 	C 	0.9417	0.1851	0.3815	0.399
Mof_C 	C 	0.1996	0.7054	0.0884	0.382
Mof_C 	C 	0.1453	0.6609	0.1407	-0.096
Mof_C 	C 	0.1792	0.586	0.1649	-0.034
Mof_C 	C 	0.1347	0.5418	0.2187	0.032
Mof_C 	C 	0.163	0.4691	0.2434	-0.096
Mof_C 	C 	0.1236	0.4286	0.2958	0.027
Mof_C 	C 	0.0399	0.4594	0.3241	-0.081
Mof_C 	C 	0.0036	0.5323	0.2987	-0.039
Mof_C 	C 	0.0489	0.576	0.2459	0.025
Mof_C 	C 	0.0116	0.652	0.2193	-0.091
Mof_C 	C 	0.0614	0.6925	0.1674	0.021
Mof_C 	C 	0.4798	0.7156	0.091	0.407
Mof_C 	C 	0.5361	0.6712	0.1365	-0.119
Mof_C 	C 	0.5435	0.5983	0.161	-0.011
Mof_C 	C 	0.5897	0.5542	0.2079	0.008
Mof_C 	C 	0.5961	0.4792	0.2351	-0.077
Mof_C 	C 	0.6428	0.4383	0.2817	-0.003
Mof_C 	C 	0.6887	0.4722	0.3032	-0.07
Mof_C 	C 	0.6863	0.5454	0.2759	-0.048
Mof_C 	C 	0.639	0.5865	0.2258	0.037
Mof_C 	C 	0.6343	0.6616	0.1996	-0.106
Mof_C 	C 	0.5847	0.7015	0.1555	0.038
Mof_C 	C 	0.4671	0.932	0.894	0.367
Mof_C 	C 	0.5108	0.9894	0.8457	-0.075
Mof_C 	C 	0.5115	0.0474	0.8718	0.003
Mof_C 	C 	0.5482	0.0996	0.8284	-0.079
Mof_C 	C 	0.5913	0.0935	0.7577	0.019
Mof_C 	C 	0.6356	0.1427	0.7141	-0.032
Mof_C 	C 	0.6801	0.1337	0.6473	-0.094
Mof_C 	C 	0.6787	0.0767	0.6235	0.025
Mof_C 	C 	0.6334	0.0303	0.6643	-0.104
Mof_C 	C 	0.5933	0.0327	0.7325	0.026
Mof_C 	C 	0.5509	0.9816	0.7784	-0.041
Mof_C 	C 	0.2035	0.9576	0.8987	0.368
Mof_C 	C 	0.1483	0.017	0.852	-0.08
Mof_C 	C 	0.0644	0.0501	0.8787	0.002
Mof_C 	C 	0.0175	0.102	0.8335	-0.073
Mof_C 	C 	0.0519	0.1164	0.7608	0.01
Mof_C 	C 	0.0023	0.1634	0.7136	-0.016
Mof_C 	C 	0.0372	0.174	0.6443	-0.103
Mof_C 	C 	0.1233	0.1413	0.6188	0.029
Mof_C 	C 	0.1688	0.0967	0.6611	-0.098
Mof_C 	C 	0.1345	0.0844	0.7351	0.024
Mof_C 	C 	0.1845	0.0326	0.7821	-0.042
Mof_C 	C 	0.2357	0.9272	0.1153	0.37
Mof_C 	C 	0.1945	0.9755	0.1651	-0.095
Mof_C 	C 	0.2397	0.0137	0.1793	0.023
Mof_C 	C 	0.202	0.0561	0.2285	-0.081
Mof_C 	C 	0.1154	0.0704	0.2575	0.019
Mof_C 	C 	0.0701	0.1187	0.3055	-0.025
Mof_C 	C 	0.9857	0.1315	0.3329	-0.094
Mof_C 	C 	0.9432	0.0949	0.3173	0.021
Mof_C 	C 	0.982	0.0461	0.2705	-0.096
Mof_C 	C 	0.0691	0.0358	0.2383	0.036
Mof_C 	C 	0.1106	0.987	0.1932	-0.038
Mof_O 	O 	0.7591	0.4748	0.5325	-0.495
Mof_O 	O 	0.7591	0.3798	0.6262	-0.517
Mof_O 	O 	0.4571	0.7411	0.8655	-0.506
Mof_O 	O 	0.4307	0.6473	0.9519	-0.499
Mof_O 	O 	0.0154	0.2261	0.5324	-0.481
Mof_O 	O 	0.905	0.2431	0.6232	-0.481
Mof_O 	O 	0.0196	0.3463	0.3962	-0.47
Mof_O 	O 	0.9138	0.4508	0.4105	-0.48
Mof_O 	O 	0.7475	0.4649	0.3908	-0.524
Mof_O 	O 	0.7601	0.3583	0.3647	-0.514
Mof_O 	O 	0.7574	0.1882	0.5404	-0.504
Mof_O 	O 	0.7336	0.2331	0.632	-0.537
Mof_O 	O 	0.9912	0.2029	0.4014	-0.495
Mof_O 	O 	0.8654	0.2036	0.3965	-0.492
Mof_O 	O 	0.2725	0.6752	0.0692	-0.526
Mof_O 	O 	0.1616	0.7755	0.0684	-0.494
Mof_O 	O 	0.4403	0.684	0.0779	-0.511
Mof_O 	O 	0.4742	0.7847	0.0697	-0.496
Mof_O 	O 	0.4645	0.8824	0.8712	-0.487
Mof_O 	O 	0.4455	0.9324	0.9585	-0.47
Mof_O 	O 	0.2773	0.9435	0.8762	-0.524
Mof_O 	O 	0.1587	0.9305	0.9572	-0.493
Mof_O 	O 	0.1924	0.9037	0.0949	-0.492
Mof_O 	O 	0.3162	0.9147	0.0917	-0.476
Mof_O 	O 	0.8388	0.3153	0.4867	-0.957
Mof_O 	O 	0.3362	0.8173	0.984	-0.946
_end
