data_functionalizedCrystal
_audit_creation_method	'EQeq! by Chris Wilmer'
_symmetry_space_group_name_H-M	'P1'
_symmetry_Int_Tables_number	1
_symmetry_cell_setting	triclinic
loop_
_symmetry_equiv_pos_as_xyz
  x,y,z
_cell_length_a	14.1838
_cell_length_b	14.1838
_cell_length_c	21.64
_cell_angle_alpha	93.5527
_cell_angle_beta	93.5527
_cell_angle_gamma	119.588
loop_
_atom_site_label
_atom_site_type_symbol
_atom_site_fract_x
_atom_site_fract_y
_atom_site_fract_z
_atom_site_charge
Mof_Cu	Cu	0.23287	0.98521	0.4296	0.856
Mof_Cu	Cu	0.01479	0.76713	0.0704	0.855
Mof_Cu	Cu	0.76713	0.01479	0.5704	0.856
Mof_Cu	Cu	0.98521	0.23287	0.9296	0.855
Mof_H 	H 	0.5123	0.8833	0.2082	0.148
Mof_H 	H 	0.4017	0.7699	0.1941	0.105
Mof_H 	H 	0.4054	0.8328	0.2885	0.206
Mof_H 	H 	0.3498	0.8676	0.3779	-0.042
Mof_H 	H 	0.2248	0.0258	0.2989	-0.023
Mof_H 	H 	0.2758	0.992	0.2022	0.149
Mof_H 	H 	0.5317	0.7471	0.0642	0.072
Mof_H 	H 	0.5099	0.7147	0.1331	0.112
Mof_H 	H 	0.8411	0.9883	0.1342	0.216
Mof_H 	H 	0.9784	0.9586	0.106	-0.032
Mof_H 	H 	0.7721	0.6441	0.0672	-0.025
Mof_H 	H 	0.6339	0.6729	0.097	0.195
Mof_H 	H 	0.5927	0.9921	0.1182	0.15
Mof_H 	H 	0.4785	0.9755	0.0897	0.098
Mof_H 	H 	0.6978	0.1162	0.0788	0.196
Mof_H 	H 	0.8644	0.2254	0.0431	0.005
Mof_H 	H 	0.8002	0.011	0.9027	-0.039
Mof_H 	H 	0.6373	0.8937	0.9355	0.157
Mof_H 	H 	0.373	0.7558	0.029	0.066
Mof_H 	H 	0.3131	0.7917	0.0771	0.057
Mof_H 	H 	0.2241	0.4625	0.1187	0.226
Mof_H 	H 	0.0869	0.3143	0.0632	-0.006
Mof_H 	H 	0.0778	0.4784	0.9272	0.004
Mof_H 	H 	0.2068	0.634	0.9846	0.173
Mof_H 	H 	0.1167	0.4877	0.2918	0.149
Mof_H 	H 	0.2301	0.5983	0.3059	0.106
Mof_H 	H 	0.1672	0.5946	0.2115	0.207
Mof_H 	H 	0.1324	0.6502	0.1221	-0.042
Mof_H 	H 	0.9742	0.7752	0.2011	-0.022
Mof_H 	H 	0.008	0.7242	0.2978	0.149
Mof_H 	H 	0.2529	0.4683	0.4358	0.072
Mof_H 	H 	0.2853	0.4901	0.3669	0.112
Mof_H 	H 	0.0117	0.1589	0.3658	0.216
Mof_H 	H 	0.0414	0.0216	0.394	-0.033
Mof_H 	H 	0.3559	0.2279	0.4328	-0.025
Mof_H 	H 	0.3271	0.3661	0.403	0.195
Mof_H 	H 	0.0079	0.4073	0.3818	0.15
Mof_H 	H 	0.0245	0.5215	0.4103	0.098
Mof_H 	H 	0.8838	0.3022	0.4212	0.198
Mof_H 	H 	0.7746	0.1356	0.4569	0.005
Mof_H 	H 	0.989	0.1998	0.5973	-0.042
Mof_H 	H 	0.1063	0.3627	0.5645	0.161
Mof_H 	H 	0.2442	0.627	0.471	0.068
Mof_H 	H 	0.2083	0.6869	0.4229	0.059
Mof_H 	H 	0.5375	0.7759	0.3813	0.225
Mof_H 	H 	0.6857	0.9131	0.4368	-0.005
Mof_H 	H 	0.5216	0.9222	0.5728	0.008
Mof_H 	H 	0.366	0.7932	0.5154	0.165
Mof_H 	H 	0.4877	0.1167	0.7918	0.149
Mof_H 	H 	0.5983	0.2301	0.8059	0.106
Mof_H 	H 	0.5946	0.1672	0.7115	0.207
Mof_H 	H 	0.6502	0.1324	0.6221	-0.041
Mof_H 	H 	0.7752	0.9742	0.7011	-0.023
Mof_H 	H 	0.7242	0.008	0.7978	0.149
Mof_H 	H 	0.4683	0.2529	0.9358	0.072
Mof_H 	H 	0.4901	0.2853	0.8669	0.112
Mof_H 	H 	0.1589	0.0117	0.8658	0.216
Mof_H 	H 	0.0216	0.0414	0.894	-0.032
Mof_H 	H 	0.2279	0.3559	0.9328	-0.025
Mof_H 	H 	0.3661	0.3271	0.903	0.195
Mof_H 	H 	0.4073	0.0079	0.8818	0.15
Mof_H 	H 	0.5215	0.0245	0.9103	0.098
Mof_H 	H 	0.3022	0.8838	0.9212	0.196
Mof_H 	H 	0.1356	0.7746	0.9569	0.005
Mof_H 	H 	0.1998	0.989	0.0973	-0.039
Mof_H 	H 	0.3627	0.1063	0.0645	0.157
Mof_H 	H 	0.627	0.2442	0.971	0.066
Mof_H 	H 	0.6869	0.2083	0.9229	0.057
Mof_H 	H 	0.7759	0.5375	0.8813	0.226
Mof_H 	H 	0.9131	0.6857	0.9368	-0.006
Mof_H 	H 	0.9222	0.5216	0.0728	0.004
Mof_H 	H 	0.7932	0.366	0.0154	0.173
Mof_H 	H 	0.8833	0.5123	0.7082	0.149
Mof_H 	H 	0.7699	0.4017	0.6941	0.106
Mof_H 	H 	0.8328	0.4054	0.7885	0.207
Mof_H 	H 	0.8676	0.3498	0.8779	-0.042
Mof_H 	H 	0.0258	0.2248	0.7989	-0.022
Mof_H 	H 	0.992	0.2758	0.7022	0.149
Mof_H 	H 	0.7471	0.5317	0.5642	0.072
Mof_H 	H 	0.7147	0.5099	0.6331	0.112
Mof_H 	H 	0.9883	0.8411	0.6342	0.216
Mof_H 	H 	0.9586	0.9784	0.606	-0.033
Mof_H 	H 	0.6441	0.7721	0.5672	-0.025
Mof_H 	H 	0.6729	0.6339	0.597	0.195
Mof_H 	H 	0.9921	0.5927	0.6182	0.15
Mof_H 	H 	0.9755	0.4785	0.5897	0.098
Mof_H 	H 	0.1162	0.6978	0.5788	0.198
Mof_H 	H 	0.2254	0.8644	0.5431	0.005
Mof_H 	H 	0.011	0.8002	0.4027	-0.042
Mof_H 	H 	0.8937	0.6373	0.4355	0.161
Mof_H 	H 	0.7558	0.373	0.529	0.068
Mof_H 	H 	0.7917	0.3131	0.5771	0.059
Mof_H 	H 	0.4625	0.2241	0.6187	0.225
Mof_H 	H 	0.3143	0.0869	0.5632	-0.005
Mof_H 	H 	0.4784	0.0778	0.4272	0.008
Mof_H 	H 	0.634	0.2068	0.4846	0.165
Mof_C 	C 	0.46932	0.83302	0.11216	0.106
Mof_C 	C 	0.44417	0.84271	0.18051	-0.061
Mof_C 	C 	0.34946	0.91484	0.23844	0.347
Mof_C 	C 	0.3689	0.873	0.28986	-0.331
Mof_C 	C 	0.33353	0.89229	0.34159	0.231
Mof_C 	C 	0.25983	0.98447	0.29591	0.16
Mof_C 	C 	0.29253	0.96779	0.23851	-0.288
Mof_C 	C 	0.53679	0.77559	0.10742	-0.048
Mof_C 	C 	0.7221	0.83158	0.11483	0.394
Mof_C 	C 	0.82578	0.91772	0.12002	-0.328
Mof_C 	C 	0.9077	0.89806	0.10389	0.194
Mof_C 	C 	0.78832	0.71502	0.0814	0.181
Mof_C 	C 	0.70467	0.73279	0.09792	-0.336
Mof_C 	C 	0.5259	0.94352	0.09072	-0.084
Mof_C 	C 	0.64856	0.99428	0.00949	0.303
Mof_C 	C 	0.71709	0.09291	0.04252	-0.275
Mof_C 	C 	0.81696	0.15752	0.02021	0.167
Mof_C 	C 	0.78045	0.03313	0.9392	0.154
Mof_C 	C 	0.68184	0.96276	0.95775	-0.275
Mof_C 	C 	0.36159	0.76137	0.07293	-0.041
Mof_C 	C 	0.23307	0.56947	0.05781	0.325
Mof_C 	C 	0.19435	0.46869	0.08018	-0.304
Mof_C 	C 	0.11449	0.38109	0.04607	0.201
Mof_C 	C 	0.10606	0.47472	0.96679	0.193
Mof_C 	C 	0.18457	0.56727	0.00108	-0.311
Mof_C 	C 	0.16698	0.53068	0.38784	0.106
Mof_C 	C 	0.15729	0.55583	0.31949	-0.062
Mof_C 	C 	0.08516	0.65054	0.26156	0.346
Mof_C 	C 	0.127	0.6311	0.21014	-0.33
Mof_C 	C 	0.10771	0.66647	0.15841	0.231
Mof_C 	C 	0.01553	0.74017	0.20409	0.158
Mof_C 	C 	0.03221	0.70747	0.26149	-0.287
Mof_C 	C 	0.22441	0.46321	0.39258	-0.048
Mof_C 	C 	0.16842	0.2779	0.38517	0.394
Mof_C 	C 	0.08228	0.17422	0.37998	-0.328
Mof_C 	C 	0.10194	0.0923	0.39611	0.194
Mof_C 	C 	0.28498	0.21168	0.4186	0.181
Mof_C 	C 	0.26721	0.29533	0.40208	-0.336
Mof_C 	C 	0.05648	0.4741	0.40928	-0.084
Mof_C 	C 	0.00572	0.35144	0.49051	0.317
Mof_C 	C 	0.90709	0.28291	0.45748	-0.286
Mof_C 	C 	0.84248	0.18304	0.47979	0.165
Mof_C 	C 	0.96687	0.21955	0.5608	0.166
Mof_C 	C 	0.03724	0.31816	0.54225	-0.292
Mof_C 	C 	0.23863	0.63841	0.42707	-0.043
Mof_C 	C 	0.43053	0.76693	0.44219	0.318
Mof_C 	C 	0.53131	0.80565	0.41982	-0.3
Mof_C 	C 	0.61891	0.88551	0.45393	0.201
Mof_C 	C 	0.52528	0.89394	0.53321	0.181
Mof_C 	C 	0.43273	0.81543	0.49892	-0.294
Mof_C 	C 	0.53068	0.16698	0.88784	0.106
Mof_C 	C 	0.55583	0.15729	0.81949	-0.061
Mof_C 	C 	0.65054	0.08516	0.76156	0.347
Mof_C 	C 	0.6311	0.127	0.71014	-0.331
Mof_C 	C 	0.66647	0.10771	0.65841	0.231
Mof_C 	C 	0.74017	0.01553	0.70409	0.16
Mof_C 	C 	0.70747	0.03221	0.76149	-0.288
Mof_C 	C 	0.46321	0.22441	0.89258	-0.048
Mof_C 	C 	0.2779	0.16842	0.88517	0.394
Mof_C 	C 	0.17422	0.08228	0.87998	-0.328
Mof_C 	C 	0.0923	0.10194	0.89611	0.194
Mof_C 	C 	0.21168	0.28498	0.9186	0.181
Mof_C 	C 	0.29533	0.26721	0.90208	-0.336
Mof_C 	C 	0.4741	0.05648	0.90928	-0.084
Mof_C 	C 	0.35144	0.00572	0.99051	0.303
Mof_C 	C 	0.28291	0.90709	0.95748	-0.275
Mof_C 	C 	0.18304	0.84248	0.97979	0.167
Mof_C 	C 	0.21955	0.96687	0.0608	0.154
Mof_C 	C 	0.31816	0.03724	0.04225	-0.275
Mof_C 	C 	0.63841	0.23863	0.92707	-0.041
Mof_C 	C 	0.76693	0.43053	0.94219	0.325
Mof_C 	C 	0.80565	0.53131	0.91982	-0.304
Mof_C 	C 	0.88551	0.61891	0.95393	0.201
Mof_C 	C 	0.89394	0.52528	0.03321	0.193
Mof_C 	C 	0.81543	0.43273	0.99892	-0.311
Mof_C 	C 	0.83302	0.46932	0.61216	0.106
Mof_C 	C 	0.84271	0.44417	0.68051	-0.062
Mof_C 	C 	0.91484	0.34946	0.73844	0.346
Mof_C 	C 	0.873	0.3689	0.78986	-0.33
Mof_C 	C 	0.89229	0.33353	0.84159	0.231
Mof_C 	C 	0.98447	0.25983	0.79591	0.158
Mof_C 	C 	0.96779	0.29253	0.73851	-0.287
Mof_C 	C 	0.77559	0.53679	0.60742	-0.048
Mof_C 	C 	0.83158	0.7221	0.61483	0.394
Mof_C 	C 	0.91772	0.82578	0.62002	-0.328
Mof_C 	C 	0.89806	0.9077	0.60389	0.194
Mof_C 	C 	0.71502	0.78832	0.5814	0.181
Mof_C 	C 	0.73279	0.70467	0.59792	-0.336
Mof_C 	C 	0.94352	0.5259	0.59072	-0.084
Mof_C 	C 	0.99428	0.64856	0.50949	0.317
Mof_C 	C 	0.09291	0.71709	0.54252	-0.286
Mof_C 	C 	0.15752	0.81696	0.52021	0.165
Mof_C 	C 	0.03313	0.78045	0.4392	0.166
Mof_C 	C 	0.96276	0.68184	0.45775	-0.292
Mof_C 	C 	0.76137	0.36159	0.57293	-0.043
Mof_C 	C 	0.56947	0.23307	0.55781	0.318
Mof_C 	C 	0.46869	0.19435	0.58018	-0.3
Mof_C 	C 	0.38109	0.11449	0.54607	0.201
Mof_C 	C 	0.47472	0.10606	0.46679	0.181
Mof_C 	C 	0.56727	0.18457	0.50108	-0.294
Mof_N 	N 	0.27687	0.94357	0.34654	-0.272
Mof_N 	N 	0.89526	0.8002	0.08554	-0.273
Mof_N 	N 	0.85164	0.13164	0.96888	-0.275
Mof_N 	N 	0.06963	0.37985	0.98907	-0.262
Mof_N 	N 	0.05643	0.72313	0.15346	-0.272
Mof_N 	N 	0.1998	0.10474	0.41446	-0.274
Mof_N 	N 	0.86836	0.14836	0.53112	-0.274
Mof_N 	N 	0.62015	0.93037	0.51093	-0.261
Mof_N 	N 	0.72313	0.05643	0.65346	-0.272
Mof_N 	N 	0.10474	0.1998	0.91446	-0.273
Mof_N 	N 	0.14836	0.86836	0.03112	-0.275
Mof_N 	N 	0.93037	0.62015	0.01093	-0.262
Mof_N 	N 	0.94357	0.27687	0.84654	-0.272
Mof_N 	N 	0.8002	0.89526	0.58554	-0.274
Mof_N 	N 	0.13164	0.85164	0.46888	-0.274
Mof_N 	N 	0.37985	0.06963	0.48907	-0.261
Mof_O 	O 	0.38411	0.89819	0.18297	-0.223
Mof_O 	O 	0.64953	0.85693	0.12961	-0.221
Mof_O 	O 	0.55114	0.92584	0.02831	-0.225
Mof_O 	O 	0.31525	0.65655	0.09552	-0.23
Mof_O 	O 	0.10181	0.61589	0.31703	-0.223
Mof_O 	O 	0.14307	0.35047	0.37039	-0.221
Mof_O 	O 	0.07416	0.44886	0.47169	-0.227
Mof_O 	O 	0.34345	0.68475	0.40448	-0.227
Mof_O 	O 	0.61589	0.10181	0.81703	-0.223
Mof_O 	O 	0.35047	0.14307	0.87039	-0.221
Mof_O 	O 	0.44886	0.07416	0.97169	-0.225
Mof_O 	O 	0.68475	0.34345	0.90448	-0.23
Mof_O 	O 	0.89819	0.38411	0.68297	-0.223
Mof_O 	O 	0.85693	0.64953	0.62961	-0.221
Mof_O 	O 	0.92584	0.55114	0.52831	-0.227
Mof_O 	O 	0.65655	0.31525	0.59552	-0.227
Mof_B 	B 	0.72339	0.11141	0.3069	4.859
Mof_F 	F 	0.80874	0.2083	0.30769	-1.405
Mof_F 	F 	0.65966	0.1144	0.34716	-1.472
Mof_F 	F 	0.67051	0.08007	0.25123	-1.385
Mof_F 	F 	0.75427	0.04189	0.32125	-1.456
Mof_B 	B 	0.88859	0.27661	0.1931	4.859
Mof_F 	F 	0.7917	0.19126	0.19231	-1.404
Mof_F 	F 	0.8856	0.34034	0.15284	-1.471
Mof_F 	F 	0.91993	0.32949	0.24877	-1.385
Mof_F 	F 	0.95811	0.24573	0.17875	-1.456
Mof_B 	B 	0.27661	0.88859	0.6931	4.859
Mof_F 	F 	0.19126	0.7917	0.69231	-1.405
Mof_F 	F 	0.34034	0.8856	0.65284	-1.472
Mof_F 	F 	0.32949	0.91993	0.74877	-1.385
Mof_F 	F 	0.24573	0.95811	0.67875	-1.456
Mof_B 	B 	0.11141	0.72339	0.8069	4.859
Mof_F 	F 	0.2083	0.80874	0.80769	-1.404
Mof_F 	F 	0.1144	0.65966	0.84716	-1.471
Mof_F 	F 	0.08007	0.67051	0.75123	-1.385
Mof_F 	F 	0.04189	0.75427	0.82125	-1.456
Mof_B 	B 	0.42787	0.57213	0.25	3.783
Mof_F 	F 	0.48678	0.56748	0.2039	-1.151
Mof_F 	F 	0.4683	0.6764	0.27269	-1.201
Mof_F 	F 	0.43252	0.51322	0.2961	-1.151
Mof_F 	F 	0.3236	0.5317	0.22731	-1.201
Mof_B 	B 	0.57213	0.42787	0.75	3.783
Mof_F 	F 	0.51322	0.43252	0.7961	-1.151
Mof_F 	F 	0.5317	0.3236	0.72731	-1.201
Mof_F 	F 	0.56748	0.48678	0.7039	-1.151
Mof_F 	F 	0.6764	0.4683	0.77269	-1.201
_end
