data_functionalizedCrystal
_audit_creation_method	'EQeq! by Chris Wilmer'
_symmetry_space_group_name_H-M	'P1'
_symmetry_Int_Tables_number	1
_symmetry_cell_setting	triclinic
loop_
_symmetry_equiv_pos_as_xyz
  x,y,z
_cell_length_a	10.3014
_cell_length_b	14.4176
_cell_length_c	17.507
_cell_angle_alpha	90
_cell_angle_beta	94.809
_cell_angle_gamma	90
loop_
_atom_site_label
_atom_site_type_symbol
_atom_site_fract_x
_atom_site_fract_y
_atom_site_fract_z
_atom_site_charge
Mof_O 	O 	0.3996	0.0303	0.10969	-0.484
Mof_Ca	Ca	0.3893	0.15562	0.02779	1.388
Mof_Ca	Ca	0.53044	0.39147	0.05897	1.315
Mof_S 	S 	0.27123	0.2566	0.80191	0.034
Mof_S 	S 	0.30331	0.93693	0.24388	0.057
Mof_O 	O 	0.4093	0.30046	0.95469	-0.538
Mof_O 	O 	0.1304	0.1561	0.67923	-0.424
Mof_O 	O 	0.4285	0.4508	0.93552	-0.569
Mof_C 	C 	0.3786	0.8871	0.1699	-0.156
Mof_C 	C 	0.309	0.3637	0.8397	-0.157
Mof_O 	O 	0.065	0.27389	0.60474	-0.515
Mof_C 	C 	0.182	0.3049	0.725	-0.109
Mof_C 	C 	0.2547	0.4335	0.7938	0.01
Mof_H 	H 	0.2652	0.4963	0.8049	0.017
Mof_C 	C 	0.1821	0.3994	0.7288	-0.025
Mof_H 	H 	0.1384	0.4372	0.6921	0.032
Mof_O 	O 	0.2247	0.7444	0.39012	-0.476
Mof_C 	C 	0.386	0.3715	0.9143	0.428
Mof_C 	C 	0.1207	0.2409	0.6659	0.365
Mof_O 	O 	0.1612	0.892	0.38117	-0.461
Mof_C 	C 	0.4279	0.9464	0.109	0.466
Mof_C 	C 	0.281	0.8304	0.2848	-0.125
Mof_C 	C 	0.3286	0.7611	0.2427	-0.021
Mof_H 	H 	0.325	0.6988	0.2561	0.034
Mof_C 	C 	0.3836	0.7932	0.1772	0.015
Mof_H 	H 	0.4198	0.7543	0.1422	0.009
Mof_O 	O 	0.4924	0.9068	0.06158	-0.514
Mof_C 	C 	0.2162	0.8216	0.3577	0.421
Mof_O 	O 	0.1004	0.5303	0.39031	-0.482
Mof_Ca	Ca	0.1107	0.65562	0.47221	1.391
Mof_Ca	Ca	0.96956	0.89147	0.44103	1.305
Mof_S 	S 	0.22877	0.7566	0.69809	0.034
Mof_S 	S 	0.19669	0.43693	0.25612	0.054
Mof_O 	O 	0.0907	0.80046	0.54531	-0.539
Mof_O 	O 	0.3696	0.6561	0.82077	-0.424
Mof_O 	O 	0.0715	0.9508	0.56448	-0.567
Mof_C 	C 	0.1214	0.3871	0.3301	-0.157
Mof_C 	C 	0.191	0.8637	0.6603	-0.158
Mof_O 	O 	0.435	0.77389	0.89526	-0.516
Mof_C 	C 	0.318	0.8049	0.775	-0.11
Mof_C 	C 	0.2453	0.9335	0.7062	0.008
Mof_H 	H 	0.2348	0.9963	0.6951	0.016
Mof_C 	C 	0.3179	0.8994	0.7712	-0.025
Mof_H 	H 	0.3616	0.9372	0.8079	0.032
Mof_O 	O 	0.2753	0.2444	0.10988	-0.477
Mof_C 	C 	0.114	0.8715	0.5857	0.427
Mof_C 	C 	0.3793	0.7409	0.8341	0.365
Mof_O 	O 	0.3388	0.392	0.11883	-0.463
Mof_C 	C 	0.0721	0.4464	0.391	0.462
Mof_C 	C 	0.219	0.3304	0.2152	-0.125
Mof_C 	C 	0.1714	0.2611	0.2573	-0.021
Mof_H 	H 	0.175	0.1988	0.2439	0.033
Mof_C 	C 	0.1164	0.2932	0.3228	0.013
Mof_H 	H 	0.0802	0.2543	0.3578	0.008
Mof_O 	O 	0.0076	0.4068	0.43842	-0.515
Mof_C 	C 	0.2838	0.3216	0.1423	0.421
Mof_O 	O 	0.6004	0.9697	0.89031	-0.485
Mof_Ca	Ca	0.6107	0.84438	0.97221	1.387
Mof_Ca	Ca	0.46956	0.60853	0.94103	1.314
Mof_S 	S 	0.72877	0.7434	0.19809	0.033
Mof_S 	S 	0.69669	0.06307	0.75612	0.056
Mof_O 	O 	0.5907	0.69954	0.04531	-0.539
Mof_O 	O 	0.8696	0.8439	0.32077	-0.425
Mof_O 	O 	0.5715	0.5492	0.06448	-0.57
Mof_C 	C 	0.6214	0.1129	0.8301	-0.157
Mof_C 	C 	0.691	0.6363	0.1603	-0.158
Mof_O 	O 	0.935	0.72611	0.39526	-0.516
Mof_C 	C 	0.818	0.6951	0.275	-0.11
Mof_C 	C 	0.7453	0.5665	0.2062	0.009
Mof_H 	H 	0.7348	0.5037	0.1951	0.016
Mof_C 	C 	0.8179	0.6006	0.2712	-0.025
Mof_H 	H 	0.8616	0.5628	0.3079	0.032
Mof_O 	O 	0.7753	0.2556	0.60988	-0.476
Mof_C 	C 	0.614	0.6285	0.0857	0.428
Mof_C 	C 	0.8793	0.7591	0.3341	0.365
Mof_O 	O 	0.8388	0.108	0.61883	-0.461
Mof_C 	C 	0.5721	0.0536	0.891	0.466
Mof_C 	C 	0.719	0.1696	0.7152	-0.125
Mof_C 	C 	0.6714	0.2389	0.7573	-0.021
Mof_H 	H 	0.675	0.3012	0.7439	0.034
Mof_C 	C 	0.6164	0.2068	0.8228	0.015
Mof_H 	H 	0.5802	0.2457	0.8578	0.009
Mof_O 	O 	0.5076	0.0932	0.93842	-0.514
Mof_C 	C 	0.7838	0.1784	0.6423	0.421
Mof_O 	O 	0.8996	0.4697	0.60969	-0.482
Mof_Ca	Ca	0.8893	0.34438	0.52779	1.391
Mof_Ca	Ca	0.03044	0.10853	0.55897	1.305
Mof_S 	S 	0.77123	0.2434	0.30191	0.034
Mof_S 	S 	0.80331	0.56307	0.74388	0.054
Mof_O 	O 	0.9093	0.19954	0.45469	-0.539
Mof_O 	O 	0.6304	0.3439	0.17923	-0.424
Mof_O 	O 	0.9285	0.0492	0.43552	-0.567
Mof_C 	C 	0.8786	0.6129	0.6699	-0.157
Mof_C 	C 	0.809	0.1363	0.3397	-0.158
Mof_O 	O 	0.565	0.22611	0.10474	-0.516
Mof_C 	C 	0.682	0.1951	0.225	-0.11
Mof_C 	C 	0.7547	0.0665	0.2938	0.008
Mof_H 	H 	0.7652	0.0037	0.3049	0.016
Mof_C 	C 	0.6821	0.1006	0.2288	-0.025
Mof_H 	H 	0.6384	0.0628	0.1921	0.032
Mof_O 	O 	0.7247	0.7556	0.89012	-0.477
Mof_C 	C 	0.886	0.1285	0.4143	0.427
Mof_C 	C 	0.6207	0.2591	0.1659	0.365
Mof_O 	O 	0.6612	0.608	0.88117	-0.463
Mof_C 	C 	0.9279	0.5536	0.609	0.462
Mof_C 	C 	0.781	0.6696	0.7848	-0.125
Mof_C 	C 	0.8286	0.7389	0.7427	-0.021
Mof_H 	H 	0.825	0.8012	0.7561	0.033
Mof_C 	C 	0.8836	0.7068	0.6772	0.013
Mof_H 	H 	0.9198	0.7457	0.6422	0.008
Mof_O 	O 	0.9924	0.5932	0.56158	-0.515
Mof_C 	C 	0.7162	0.6784	0.8577	0.421
_end
