data_functionalizedCrystal
_audit_creation_method	'EQeq! by Chris Wilmer'
_symmetry_space_group_name_H-M	'P1'
_symmetry_Int_Tables_number	1
_symmetry_cell_setting	triclinic
loop_
_symmetry_equiv_pos_as_xyz
  x,y,z
_cell_length_a	8.3585
_cell_length_b	12.3865
_cell_length_c	12.6474
_cell_angle_alpha	109.88
_cell_angle_beta	97.148
_cell_angle_gamma	105.321
loop_
_atom_site_label
_atom_site_type_symbol
_atom_site_fract_x
_atom_site_fract_y
_atom_site_fract_z
_atom_site_charge
Mof_Sr	Sr	0.52281	0.38668	0.8361	1.527
Mof_Sr	Sr	0.73255	0.97086	0.44299	1.405
Mof_S 	S 	0.86161	0.59771	0.49878	0.023
Mof_C 	C 	0.8122	0.5081	0.3523	0.058
Mof_C 	C 	0.6941	0.3944	0.3291	-0.128
Mof_C 	C 	0.6439	0.3818	0.4302	0.196
Mof_C 	C 	0.7262	0.4842	0.5279	-0.178
Mof_C 	C 	0.6219	0.2988	0.2169	0.1
Mof_N 	N 	0.5618	0.2193	0.1288	-0.168
Mof_C 	C 	0.5138	0.2695	0.4264	-0.423
Mof_H 	H 	0.4569	0.2923	0.4909	0.141
Mof_H 	H 	0.4255	0.2337	0.353	0.134
Mof_C 	C 	0.5937	0.1742	0.4358	0.428
Mof_O 	O 	0.6974	0.14922	0.37546	-0.418
Mof_O 	O 	0.5497	0.1213	0.50208	-0.555
Mof_C 	C 	0.7165	0.5129	0.6502	0.382
Mof_O 	O 	0.6408	0.42856	0.67841	-0.446
Mof_O 	O 	0.7905	0.62341	0.71948	-0.307
Mof_N 	N 	0.8873	0.55429	0.28088	-0.059
Mof_C 	C 	0.9903	0.6824	0.3295	-0.281
Mof_H 	H 	0.085	0.6964	0.3933	0.103
Mof_H 	H 	0.0415	0.7022	0.2691	0.071
Mof_C 	C 	0.8908	0.7697	0.37615	0.428
Mof_O 	O 	0.7356	0.74141	0.32936	-0.54
Mof_O 	O 	0.9741	0.86959	0.45813	-0.57
Mof_C 	C 	0.9063	0.4759	0.17032	-0.287
Mof_H 	H 	0.0207	0.513	0.1602	0.103
Mof_H 	H 	0.9023	0.3967	0.1741	0.122
Mof_C 	C 	0.7739	0.4525	0.0643	0.429
Mof_O 	O 	0.7931	0.39005	0.96751	-0.449
Mof_O 	O 	0.6533	0.49464	0.07465	-0.571
Mof_O 	O 	0.5486	0.16837	0.73157	-1.009
Mof_H 	H 	0.608	0.162	0.686	0.38
Mof_H 	H 	0.572	0.129	0.768	0.361
Mof_Sr	Sr	0.47719	0.61332	0.1639	1.526
Mof_Sr	Sr	0.26745	0.02914	0.55701	1.404
Mof_S 	S 	0.13839	0.40229	0.50122	0.022
Mof_C 	C 	0.1878	0.4919	0.6477	0.057
Mof_C 	C 	0.3059	0.6056	0.6709	-0.128
Mof_C 	C 	0.3561	0.6182	0.5698	0.196
Mof_C 	C 	0.2738	0.5158	0.4721	-0.178
Mof_C 	C 	0.3781	0.7012	0.7831	0.1
Mof_N 	N 	0.4382	0.7807	0.8712	-0.168
Mof_C 	C 	0.4862	0.7305	0.5736	-0.423
Mof_H 	H 	0.5431	0.7077	0.5091	0.141
Mof_H 	H 	0.5745	0.7663	0.647	0.134
Mof_C 	C 	0.4063	0.8258	0.5642	0.428
Mof_O 	O 	0.3026	0.85078	0.62454	-0.418
Mof_O 	O 	0.4503	0.8787	0.49792	-0.555
Mof_C 	C 	0.2835	0.4871	0.3498	0.382
Mof_O 	O 	0.3592	0.57144	0.32159	-0.446
Mof_O 	O 	0.2095	0.37659	0.28052	-0.307
Mof_N 	N 	0.1127	0.44571	0.71912	-0.059
Mof_C 	C 	0.0097	0.3176	0.6705	-0.281
Mof_H 	H 	0.915	0.3036	0.6067	0.103
Mof_H 	H 	0.9585	0.2978	0.7309	0.071
Mof_C 	C 	0.1092	0.2303	0.62385	0.428
Mof_O 	O 	0.2644	0.25859	0.67064	-0.54
Mof_O 	O 	0.0259	0.13041	0.54187	-0.57
Mof_C 	C 	0.0937	0.5241	0.82968	-0.287
Mof_H 	H 	0.9793	0.487	0.8398	0.103
Mof_H 	H 	0.0977	0.6033	0.8259	0.122
Mof_C 	C 	0.2261	0.5475	0.9357	0.429
Mof_O 	O 	0.2069	0.60995	0.03249	-0.449
Mof_O 	O 	0.3467	0.50536	0.92535	-0.571
Mof_O 	O 	0.4514	0.83163	0.26843	-1.009
Mof_H 	H 	0.392	0.838	0.314	0.38
Mof_H 	H 	0.428	0.871	0.232	0.361
_end
