data_functionalizedCrystal
_audit_creation_method	'EQeq! by Chris Wilmer'
_symmetry_space_group_name_H-M	'P1'
_symmetry_Int_Tables_number	1
_symmetry_cell_setting	triclinic
loop_
_symmetry_equiv_pos_as_xyz
  x,y,z
_cell_length_a	23.5988
_cell_length_b	23.5988
_cell_length_c	23.5988
_cell_angle_alpha	109.471
_cell_angle_beta	109.471
_cell_angle_gamma	109.471
loop_
_atom_site_label
_atom_site_type_symbol
_atom_site_fract_x
_atom_site_fract_y
_atom_site_fract_z
_atom_site_charge
Mof_Co	Co	0.88985	0.44537	0.44448	1.189
Mof_Co	Co	0.00089	0.44537	0.55552	1.189
Mof_Co	Co	0.99911	0.55463	0.44448	1.189
Mof_Co	Co	0.11015	0.55463	0.55552	1.189
Mof_Co	Co	0.44448	0.99911	0.55463	1.189
Mof_Co	Co	0.55552	0.11015	0.55463	1.189
Mof_Co	Co	0.44448	0.88985	0.44537	1.189
Mof_Co	Co	0.55552	0.00089	0.44537	1.189
Mof_Co	Co	0.44537	0.55552	0.00089	1.189
Mof_Co	Co	0.44537	0.44448	0.88985	1.189
Mof_Co	Co	0.55463	0.55552	0.11015	1.189
Mof_Co	Co	0.55463	0.44448	0.99911	1.189
Mof_Co	Co	0.8316	0.5	0.3316	1.188
Mof_Co	Co	0.1684	0.5	0.6684	1.188
Mof_Co	Co	0.3316	0.8316	0.5	1.188
Mof_Co	Co	0.6684	0.1684	0.5	1.188
Mof_Co	Co	0.5	0.6684	0.1684	1.188
Mof_Co	Co	0.5	0.3316	0.8316	1.188
Mof_H 	H 	0.7833	0.2301	0.2768	0.035
Mof_H 	H 	0.7253	0.1238	0.1823	0.07
Mof_H 	H 	0.6068	0.1804	0.0726	0.071
Mof_H 	H 	0.6795	0.2939	0.1624	0.032
Mof_H 	H 	0.6175	0.0182	0.1119	0.073
Mof_H 	H 	0.9533	0.5065	0.7232	0.035
Mof_H 	H 	0.9415	0.543	0.8177	0.07
Mof_H 	H 	0.1078	0.5342	0.9274	0.071
Mof_H 	H 	0.1315	0.5171	0.8376	0.032
Mof_H 	H 	0.9063	0.5056	0.8881	0.073
Mof_H 	H 	0.0467	0.7699	0.5532	0.035
Mof_H 	H 	0.0585	0.8762	0.6015	0.07
Mof_H 	H 	0.8922	0.8196	0.4264	0.071
Mof_H 	H 	0.8685	0.7061	0.3856	0.032
Mof_H 	H 	0.0937	0.9818	0.5993	0.073
Mof_H 	H 	0.2167	0.4935	0.4468	0.035
Mof_H 	H 	0.2747	0.457	0.3985	0.07
Mof_H 	H 	0.3932	0.4658	0.5736	0.071
Mof_H 	H 	0.3205	0.4829	0.6144	0.033
Mof_H 	H 	0.3825	0.4944	0.4007	0.074
Mof_H 	H 	0.5532	0.0467	0.7699	0.036
Mof_H 	H 	0.6015	0.0585	0.8762	0.071
Mof_H 	H 	0.4264	0.8922	0.8196	0.072
Mof_H 	H 	0.3856	0.8685	0.7061	0.033
Mof_H 	H 	0.5993	0.0937	0.9818	0.074
Mof_H 	H 	0.4468	0.2167	0.4935	0.036
Mof_H 	H 	0.3985	0.2747	0.457	0.071
Mof_H 	H 	0.5736	0.3932	0.4658	0.072
Mof_H 	H 	0.6144	0.3205	0.4829	0.033
Mof_H 	H 	0.4007	0.3825	0.4944	0.074
Mof_H 	H 	0.2768	0.7833	0.2301	0.036
Mof_H 	H 	0.1823	0.7253	0.1238	0.071
Mof_H 	H 	0.0726	0.6068	0.1804	0.072
Mof_H 	H 	0.1624	0.6795	0.2939	0.033
Mof_H 	H 	0.1119	0.6175	0.0182	0.074
Mof_H 	H 	0.7232	0.9533	0.5065	0.036
Mof_H 	H 	0.8177	0.9415	0.543	0.071
Mof_H 	H 	0.9274	0.1078	0.5342	0.072
Mof_H 	H 	0.8376	0.1315	0.5171	0.033
Mof_H 	H 	0.8881	0.9063	0.5056	0.074
Mof_H 	H 	0.5065	0.7232	0.9533	0.036
Mof_H 	H 	0.543	0.8177	0.9415	0.071
Mof_H 	H 	0.5342	0.9274	0.1078	0.072
Mof_H 	H 	0.5171	0.8376	0.1315	0.033
Mof_H 	H 	0.5056	0.8881	0.9063	0.074
Mof_H 	H 	0.2301	0.2768	0.7833	0.036
Mof_H 	H 	0.1238	0.1823	0.7253	0.071
Mof_H 	H 	0.1804	0.0726	0.6068	0.072
Mof_H 	H 	0.2939	0.1624	0.6795	0.033
Mof_H 	H 	0.0182	0.1119	0.6175	0.074
Mof_H 	H 	0.4935	0.4468	0.2167	0.036
Mof_H 	H 	0.457	0.3985	0.2747	0.071
Mof_H 	H 	0.4658	0.5736	0.3932	0.072
Mof_H 	H 	0.4829	0.6144	0.3205	0.033
Mof_H 	H 	0.4944	0.4007	0.3825	0.074
Mof_H 	H 	0.7699	0.5532	0.0467	0.036
Mof_H 	H 	0.8762	0.6015	0.0585	0.071
Mof_H 	H 	0.8196	0.4264	0.8922	0.072
Mof_H 	H 	0.7061	0.3856	0.8685	0.033
Mof_H 	H 	0.9818	0.5993	0.0937	0.074
Mof_H 	H 	0.2167	0.7699	0.7232	0.036
Mof_H 	H 	0.2747	0.8762	0.8177	0.071
Mof_H 	H 	0.3932	0.8196	0.9274	0.072
Mof_H 	H 	0.3205	0.7061	0.8376	0.033
Mof_H 	H 	0.3825	0.9818	0.8881	0.074
Mof_H 	H 	0.0467	0.4935	0.2768	0.036
Mof_H 	H 	0.0585	0.457	0.1823	0.071
Mof_H 	H 	0.8922	0.4658	0.0726	0.072
Mof_H 	H 	0.8685	0.4829	0.1624	0.033
Mof_H 	H 	0.0937	0.4944	0.1119	0.074
Mof_H 	H 	0.9533	0.2301	0.4468	0.036
Mof_H 	H 	0.9415	0.1238	0.3985	0.071
Mof_H 	H 	0.1078	0.1804	0.5736	0.072
Mof_H 	H 	0.1315	0.2939	0.6144	0.033
Mof_H 	H 	0.9063	0.0182	0.4007	0.074
Mof_H 	H 	0.7833	0.5065	0.5532	0.036
Mof_H 	H 	0.7253	0.543	0.6015	0.071
Mof_H 	H 	0.6068	0.5342	0.4264	0.072
Mof_H 	H 	0.6795	0.5171	0.3856	0.033
Mof_H 	H 	0.6175	0.5056	0.5993	0.074
Mof_H 	H 	0.4468	0.9533	0.2301	0.036
Mof_H 	H 	0.3985	0.9415	0.1238	0.071
Mof_H 	H 	0.5736	0.1078	0.1804	0.072
Mof_H 	H 	0.6144	0.1315	0.2939	0.033
Mof_H 	H 	0.4007	0.9063	0.0182	0.074
Mof_H 	H 	0.5532	0.7833	0.5065	0.036
Mof_H 	H 	0.6015	0.7253	0.543	0.071
Mof_H 	H 	0.4264	0.6068	0.5342	0.072
Mof_H 	H 	0.3856	0.6795	0.5171	0.033
Mof_H 	H 	0.5993	0.6175	0.5056	0.074
Mof_H 	H 	0.7232	0.2167	0.7699	0.036
Mof_H 	H 	0.8177	0.2747	0.8762	0.071
Mof_H 	H 	0.9274	0.3932	0.8196	0.072
Mof_H 	H 	0.8376	0.3205	0.7061	0.033
Mof_H 	H 	0.8881	0.3825	0.9818	0.074
Mof_H 	H 	0.2768	0.0467	0.4935	0.036
Mof_H 	H 	0.1823	0.0585	0.457	0.071
Mof_H 	H 	0.0726	0.8922	0.4658	0.072
Mof_H 	H 	0.1624	0.8685	0.4829	0.033
Mof_H 	H 	0.1119	0.0937	0.4944	0.074
Mof_H 	H 	0.4935	0.2768	0.0467	0.036
Mof_H 	H 	0.457	0.1823	0.0585	0.071
Mof_H 	H 	0.4658	0.0726	0.8922	0.072
Mof_H 	H 	0.4829	0.1624	0.8685	0.033
Mof_H 	H 	0.4944	0.1119	0.0937	0.074
Mof_H 	H 	0.7699	0.7232	0.2167	0.036
Mof_H 	H 	0.8762	0.8177	0.2747	0.071
Mof_H 	H 	0.8196	0.9274	0.3932	0.072
Mof_H 	H 	0.7061	0.8376	0.3205	0.033
Mof_H 	H 	0.9818	0.8881	0.3825	0.074
Mof_H 	H 	0.5065	0.5532	0.7833	0.036
Mof_H 	H 	0.543	0.6015	0.7253	0.071
Mof_H 	H 	0.5342	0.4264	0.6068	0.072
Mof_H 	H 	0.5171	0.3856	0.6795	0.033
Mof_H 	H 	0.5056	0.5993	0.6175	0.074
Mof_H 	H 	0.2301	0.4468	0.9533	0.036
Mof_H 	H 	0.1238	0.3985	0.9415	0.071
Mof_H 	H 	0.1804	0.5736	0.1078	0.072
Mof_H 	H 	0.2939	0.6144	0.1315	0.033
Mof_H 	H 	0.0182	0.4007	0.9063	0.074
Mof_C 	C 	0.7857	0.3512	0.2881	0.391
Mof_C 	C 	0.7406	0.2748	0.2278	-0.105
Mof_C 	C 	0.751	0.221	0.2344	0.039
Mof_C 	C 	0.7143	0.1575	0.1796	-0.108
Mof_C 	C 	0.6584	0.1402	0.117	0.038
Mof_C 	C 	0.6445	0.1913	0.1122	-0.109
Mof_C 	C 	0.6869	0.2589	0.1666	0.036
Mof_C 	C 	0.6162	0.0678	0.0554	0.054
Mof_C 	C 	0.6005	0.0105	0.0668	-0.119
Mof_C 	C 	0.0631	0.4976	0.7119	0.391
Mof_C 	C 	0.047	0.5128	0.7722	-0.105
Mof_C 	C 	0.9866	0.5166	0.7656	0.039
Mof_C 	C 	0.9779	0.5347	0.8204	-0.108
Mof_C 	C 	0.0232	0.5414	0.883	0.038
Mof_C 	C 	0.0791	0.5323	0.8878	-0.109
Mof_C 	C 	0.0923	0.5203	0.8334	0.036
Mof_C 	C 	0.0124	0.5608	0.9446	0.054
Mof_C 	C 	0.9437	0.5337	0.9332	-0.119
Mof_C 	C 	0.9369	0.6488	0.4345	0.391
Mof_C 	C 	0.953	0.7252	0.4658	-0.105
Mof_C 	C 	0.0134	0.779	0.53	0.039
Mof_C 	C 	0.0221	0.8425	0.5568	-0.108
Mof_C 	C 	0.9768	0.8598	0.5182	0.038
Mof_C 	C 	0.9209	0.8087	0.4532	-0.109
Mof_C 	C 	0.9077	0.7411	0.428	0.036
Mof_C 	C 	0.9876	0.9322	0.5484	0.054
Mof_C 	C 	0.0563	0.9895	0.59	-0.119
Mof_C 	C 	0.2143	0.5024	0.5655	0.391
Mof_C 	C 	0.2594	0.4872	0.5342	-0.105
Mof_C 	C 	0.249	0.4834	0.47	0.039
Mof_C 	C 	0.2857	0.4653	0.4432	-0.108
Mof_C 	C 	0.3416	0.4586	0.4818	0.038
Mof_C 	C 	0.3555	0.4677	0.5468	-0.109
Mof_C 	C 	0.3131	0.4797	0.572	0.036
Mof_C 	C 	0.3838	0.4392	0.4516	0.054
Mof_C 	C 	0.3995	0.4663	0.41	-0.119
Mof_C 	C 	0.4345	0.9369	0.6488	0.391
Mof_C 	C 	0.4658	0.953	0.7252	-0.105
Mof_C 	C 	0.53	0.0134	0.779	0.039
Mof_C 	C 	0.5568	0.0221	0.8425	-0.108
Mof_C 	C 	0.5182	0.9768	0.8598	0.038
Mof_C 	C 	0.4532	0.9209	0.8087	-0.109
Mof_C 	C 	0.428	0.9077	0.7411	0.036
Mof_C 	C 	0.5484	0.9876	0.9322	0.054
Mof_C 	C 	0.59	0.0563	0.9895	-0.119
Mof_C 	C 	0.5655	0.2143	0.5024	0.391
Mof_C 	C 	0.5342	0.2594	0.4872	-0.105
Mof_C 	C 	0.47	0.249	0.4834	0.039
Mof_C 	C 	0.4432	0.2857	0.4653	-0.108
Mof_C 	C 	0.4818	0.3416	0.4586	0.038
Mof_C 	C 	0.5468	0.3555	0.4677	-0.109
Mof_C 	C 	0.572	0.3131	0.4797	0.036
Mof_C 	C 	0.4516	0.3838	0.4392	0.054
Mof_C 	C 	0.41	0.3995	0.4663	-0.119
Mof_C 	C 	0.2881	0.7857	0.3512	0.391
Mof_C 	C 	0.2278	0.7406	0.2748	-0.105
Mof_C 	C 	0.2344	0.751	0.221	0.039
Mof_C 	C 	0.1796	0.7143	0.1575	-0.108
Mof_C 	C 	0.117	0.6584	0.1402	0.038
Mof_C 	C 	0.1122	0.6445	0.1913	-0.109
Mof_C 	C 	0.1666	0.6869	0.2589	0.036
Mof_C 	C 	0.0554	0.6162	0.0678	0.054
Mof_C 	C 	0.0668	0.6005	0.0105	-0.119
Mof_C 	C 	0.7119	0.0631	0.4976	0.391
Mof_C 	C 	0.7722	0.047	0.5128	-0.105
Mof_C 	C 	0.7656	0.9866	0.5166	0.039
Mof_C 	C 	0.8204	0.9779	0.5347	-0.108
Mof_C 	C 	0.883	0.0232	0.5414	0.038
Mof_C 	C 	0.8878	0.0791	0.5323	-0.109
Mof_C 	C 	0.8334	0.0923	0.5203	0.036
Mof_C 	C 	0.9446	0.0124	0.5608	0.054
Mof_C 	C 	0.9332	0.9437	0.5337	-0.119
Mof_C 	C 	0.4976	0.7119	0.0631	0.391
Mof_C 	C 	0.5128	0.7722	0.047	-0.105
Mof_C 	C 	0.5166	0.7656	0.9866	0.039
Mof_C 	C 	0.5347	0.8204	0.9779	-0.108
Mof_C 	C 	0.5414	0.883	0.0232	0.038
Mof_C 	C 	0.5323	0.8878	0.0791	-0.109
Mof_C 	C 	0.5203	0.8334	0.0923	0.036
Mof_C 	C 	0.5608	0.9446	0.0124	0.054
Mof_C 	C 	0.5337	0.9332	0.9437	-0.119
Mof_C 	C 	0.3512	0.2881	0.7857	0.391
Mof_C 	C 	0.2748	0.2278	0.7406	-0.105
Mof_C 	C 	0.221	0.2344	0.751	0.039
Mof_C 	C 	0.1575	0.1796	0.7143	-0.108
Mof_C 	C 	0.1402	0.117	0.6584	0.038
Mof_C 	C 	0.1913	0.1122	0.6445	-0.109
Mof_C 	C 	0.2589	0.1666	0.6869	0.036
Mof_C 	C 	0.0678	0.0554	0.6162	0.054
Mof_C 	C 	0.0105	0.0668	0.6005	-0.119
Mof_C 	C 	0.5024	0.5655	0.2143	0.391
Mof_C 	C 	0.4872	0.5342	0.2594	-0.105
Mof_C 	C 	0.4834	0.47	0.249	0.039
Mof_C 	C 	0.4653	0.4432	0.2857	-0.108
Mof_C 	C 	0.4586	0.4818	0.3416	0.038
Mof_C 	C 	0.4677	0.5468	0.3555	-0.109
Mof_C 	C 	0.4797	0.572	0.3131	0.036
Mof_C 	C 	0.4392	0.4516	0.3838	0.054
Mof_C 	C 	0.4663	0.41	0.3995	-0.119
Mof_C 	C 	0.6488	0.4345	0.9369	0.391
Mof_C 	C 	0.7252	0.4658	0.953	-0.105
Mof_C 	C 	0.779	0.53	0.0134	0.039
Mof_C 	C 	0.8425	0.5568	0.0221	-0.108
Mof_C 	C 	0.8598	0.5182	0.9768	0.038
Mof_C 	C 	0.8087	0.4532	0.9209	-0.109
Mof_C 	C 	0.7411	0.428	0.9077	0.036
Mof_C 	C 	0.9322	0.5484	0.9876	0.054
Mof_C 	C 	0.9895	0.59	0.0563	-0.119
Mof_C 	C 	0.2143	0.6488	0.7119	0.391
Mof_C 	C 	0.2594	0.7252	0.7722	-0.105
Mof_C 	C 	0.249	0.779	0.7656	0.039
Mof_C 	C 	0.2857	0.8425	0.8204	-0.108
Mof_C 	C 	0.3416	0.8598	0.883	0.038
Mof_C 	C 	0.3555	0.8087	0.8878	-0.109
Mof_C 	C 	0.3131	0.7411	0.8334	0.036
Mof_C 	C 	0.3838	0.9322	0.9446	0.054
Mof_C 	C 	0.3995	0.9895	0.9332	-0.119
Mof_C 	C 	0.9369	0.5024	0.2881	0.391
Mof_C 	C 	0.953	0.4872	0.2278	-0.105
Mof_C 	C 	0.0134	0.4834	0.2344	0.039
Mof_C 	C 	0.0221	0.4653	0.1796	-0.108
Mof_C 	C 	0.9768	0.4586	0.117	0.038
Mof_C 	C 	0.9209	0.4677	0.1122	-0.109
Mof_C 	C 	0.9077	0.4797	0.1666	0.036
Mof_C 	C 	0.9876	0.4392	0.0554	0.054
Mof_C 	C 	0.0563	0.4663	0.0668	-0.119
Mof_C 	C 	0.0631	0.3512	0.5655	0.391
Mof_C 	C 	0.047	0.2748	0.5342	-0.105
Mof_C 	C 	0.9866	0.221	0.47	0.039
Mof_C 	C 	0.9779	0.1575	0.4432	-0.108
Mof_C 	C 	0.0232	0.1402	0.4818	0.038
Mof_C 	C 	0.0791	0.1913	0.5468	-0.109
Mof_C 	C 	0.0923	0.2589	0.572	0.036
Mof_C 	C 	0.0124	0.0678	0.4516	0.054
Mof_C 	C 	0.9437	0.0105	0.41	-0.119
Mof_C 	C 	0.7857	0.4976	0.4345	0.391
Mof_C 	C 	0.7406	0.5128	0.4658	-0.105
Mof_C 	C 	0.751	0.5166	0.53	0.039
Mof_C 	C 	0.7143	0.5347	0.5568	-0.108
Mof_C 	C 	0.6584	0.5414	0.5182	0.038
Mof_C 	C 	0.6445	0.5323	0.4532	-0.109
Mof_C 	C 	0.6869	0.5203	0.428	0.036
Mof_C 	C 	0.6162	0.5608	0.5484	0.054
Mof_C 	C 	0.6005	0.5337	0.59	-0.119
Mof_C 	C 	0.5655	0.0631	0.3512	0.391
Mof_C 	C 	0.5342	0.047	0.2748	-0.105
Mof_C 	C 	0.47	0.9866	0.221	0.039
Mof_C 	C 	0.4432	0.9779	0.1575	-0.108
Mof_C 	C 	0.4818	0.0232	0.1402	0.038
Mof_C 	C 	0.5468	0.0791	0.1913	-0.109
Mof_C 	C 	0.572	0.0923	0.2589	0.036
Mof_C 	C 	0.4516	0.0124	0.0678	0.054
Mof_C 	C 	0.41	0.9437	0.0105	-0.119
Mof_C 	C 	0.4345	0.7857	0.4976	0.391
Mof_C 	C 	0.4658	0.7406	0.5128	-0.105
Mof_C 	C 	0.53	0.751	0.5166	0.039
Mof_C 	C 	0.5568	0.7143	0.5347	-0.108
Mof_C 	C 	0.5182	0.6584	0.5414	0.038
Mof_C 	C 	0.4532	0.6445	0.5323	-0.109
Mof_C 	C 	0.428	0.6869	0.5203	0.036
Mof_C 	C 	0.5484	0.6162	0.5608	0.054
Mof_C 	C 	0.59	0.6005	0.5337	-0.119
Mof_C 	C 	0.7119	0.2143	0.6488	0.391
Mof_C 	C 	0.7722	0.2594	0.7252	-0.105
Mof_C 	C 	0.7656	0.249	0.779	0.039
Mof_C 	C 	0.8204	0.2857	0.8425	-0.108
Mof_C 	C 	0.883	0.3416	0.8598	0.038
Mof_C 	C 	0.8878	0.3555	0.8087	-0.109
Mof_C 	C 	0.8334	0.3131	0.7411	0.036
Mof_C 	C 	0.9446	0.3838	0.9322	0.054
Mof_C 	C 	0.9332	0.3995	0.9895	-0.119
Mof_C 	C 	0.2881	0.9369	0.5024	0.391
Mof_C 	C 	0.2278	0.953	0.4872	-0.105
Mof_C 	C 	0.2344	0.0134	0.4834	0.039
Mof_C 	C 	0.1796	0.0221	0.4653	-0.108
Mof_C 	C 	0.117	0.9768	0.4586	0.038
Mof_C 	C 	0.1122	0.9209	0.4677	-0.109
Mof_C 	C 	0.1666	0.9077	0.4797	0.036
Mof_C 	C 	0.0554	0.9876	0.4392	0.054
Mof_C 	C 	0.0668	0.0563	0.4663	-0.119
Mof_C 	C 	0.5024	0.2881	0.9369	0.391
Mof_C 	C 	0.4872	0.2278	0.953	-0.105
Mof_C 	C 	0.4834	0.2344	0.0134	0.039
Mof_C 	C 	0.4653	0.1796	0.0221	-0.108
Mof_C 	C 	0.4586	0.117	0.9768	0.038
Mof_C 	C 	0.4677	0.1122	0.9209	-0.109
Mof_C 	C 	0.4797	0.1666	0.9077	0.036
Mof_C 	C 	0.4392	0.0554	0.9876	0.054
Mof_C 	C 	0.4663	0.0668	0.0563	-0.119
Mof_C 	C 	0.6488	0.7119	0.2143	0.391
Mof_C 	C 	0.7252	0.7722	0.2594	-0.105
Mof_C 	C 	0.779	0.7656	0.249	0.039
Mof_C 	C 	0.8425	0.8204	0.2857	-0.108
Mof_C 	C 	0.8598	0.883	0.3416	0.038
Mof_C 	C 	0.8087	0.8878	0.3555	-0.109
Mof_C 	C 	0.7411	0.8334	0.3131	0.036
Mof_C 	C 	0.9322	0.9446	0.3838	0.054
Mof_C 	C 	0.9895	0.9332	0.3995	-0.119
Mof_C 	C 	0.4976	0.4345	0.7857	0.391
Mof_C 	C 	0.5128	0.4658	0.7406	-0.105
Mof_C 	C 	0.5166	0.53	0.751	0.039
Mof_C 	C 	0.5347	0.5568	0.7143	-0.108
Mof_C 	C 	0.5414	0.5182	0.6584	0.038
Mof_C 	C 	0.5323	0.4532	0.6445	-0.109
Mof_C 	C 	0.5203	0.428	0.6869	0.036
Mof_C 	C 	0.5608	0.5484	0.6162	0.054
Mof_C 	C 	0.5337	0.59	0.6005	-0.119
Mof_C 	C 	0.3512	0.5655	0.0631	0.391
Mof_C 	C 	0.2748	0.5342	0.047	-0.105
Mof_C 	C 	0.221	0.47	0.9866	0.039
Mof_C 	C 	0.1575	0.4432	0.9779	-0.108
Mof_C 	C 	0.1402	0.4818	0.0232	0.038
Mof_C 	C 	0.1913	0.5468	0.0791	-0.109
Mof_C 	C 	0.2589	0.572	0.0923	0.036
Mof_C 	C 	0.0678	0.4516	0.0124	0.054
Mof_C 	C 	0.0105	0.41	0.9437	-0.119
Mof_O 	O 	0.8298	0.3606	0.3458	-0.407
Mof_O 	O 	0.7765	0.3939	0.2762	-0.447
Mof_O 	O 	0.0148	0.484	0.6542	-0.407
Mof_O 	O 	0.1177	0.5003	0.7238	-0.447
Mof_O 	O 	0.9852	0.6394	0.4692	-0.407
Mof_O 	O 	0.8823	0.6061	0.3826	-0.447
Mof_O 	O 	0.1702	0.516	0.5308	-0.407
Mof_O 	O 	0.2235	0.4997	0.6174	-0.447
Mof_O 	O 	0.4692	0.9852	0.6394	-0.407
Mof_O 	O 	0.3826	0.8823	0.6061	-0.447
Mof_O 	O 	0.5308	0.1702	0.516	-0.407
Mof_O 	O 	0.6174	0.2235	0.4997	-0.447
Mof_O 	O 	0.3458	0.8298	0.3606	-0.407
Mof_O 	O 	0.2762	0.7765	0.3939	-0.447
Mof_O 	O 	0.6542	0.0148	0.484	-0.407
Mof_O 	O 	0.7238	0.1177	0.5003	-0.447
Mof_O 	O 	0.484	0.6542	0.0148	-0.407
Mof_O 	O 	0.5003	0.7238	0.1177	-0.447
Mof_O 	O 	0.3606	0.3458	0.8298	-0.407
Mof_O 	O 	0.3939	0.2762	0.7765	-0.447
Mof_O 	O 	0.516	0.5308	0.1702	-0.407
Mof_O 	O 	0.4997	0.6174	0.2235	-0.447
Mof_O 	O 	0.6394	0.4692	0.9852	-0.407
Mof_O 	O 	0.6061	0.3826	0.8823	-0.447
Mof_O 	O 	0.1702	0.6394	0.6542	-0.407
Mof_O 	O 	0.2235	0.6061	0.7238	-0.447
Mof_O 	O 	0.9852	0.516	0.3458	-0.407
Mof_O 	O 	0.8823	0.4997	0.2762	-0.447
Mof_O 	O 	0.0148	0.3606	0.5308	-0.407
Mof_O 	O 	0.1177	0.3939	0.6174	-0.447
Mof_O 	O 	0.8298	0.484	0.4692	-0.407
Mof_O 	O 	0.7765	0.5003	0.3826	-0.447
Mof_O 	O 	0.5308	0.0148	0.3606	-0.407
Mof_O 	O 	0.6174	0.1177	0.3939	-0.447
Mof_O 	O 	0.4692	0.8298	0.484	-0.407
Mof_O 	O 	0.3826	0.7765	0.5003	-0.447
Mof_O 	O 	0.6542	0.1702	0.6394	-0.407
Mof_O 	O 	0.7238	0.2235	0.6061	-0.447
Mof_O 	O 	0.3458	0.9852	0.516	-0.407
Mof_O 	O 	0.2762	0.8823	0.4997	-0.447
Mof_O 	O 	0.516	0.3458	0.9852	-0.407
Mof_O 	O 	0.4997	0.2762	0.8823	-0.447
Mof_O 	O 	0.6394	0.6542	0.1702	-0.407
Mof_O 	O 	0.6061	0.7238	0.2235	-0.447
Mof_O 	O 	0.484	0.4692	0.8298	-0.407
Mof_O 	O 	0.5003	0.3826	0.7765	-0.447
Mof_O 	O 	0.3606	0.5308	0.0148	-0.407
Mof_O 	O 	0.3939	0.6174	0.1177	-0.447
Mof_O 	O 	0.9095	0.5	0.4095	-0.679
Mof_O 	O 	0.0905	0.5	0.5905	-0.679
Mof_O 	O 	0.4095	0.9095	0.5	-0.679
Mof_O 	O 	0.5905	0.0905	0.5	-0.679
Mof_O 	O 	0.5	0.5905	0.0905	-0.679
Mof_O 	O 	0.5	0.4095	0.9095	-0.679
Mof_O 	O 	0.9681	0.4149	0.4468	-0.347
Mof_O 	O 	0.9681	0.5213	0.5532	-0.347
Mof_O 	O 	0.0319	0.5851	0.5532	-0.347
Mof_O 	O 	0.0319	0.4787	0.4468	-0.347
Mof_O 	O 	0.5532	0.0319	0.5851	-0.347
Mof_O 	O 	0.4468	0.0319	0.4787	-0.347
Mof_O 	O 	0.4468	0.9681	0.4149	-0.347
Mof_O 	O 	0.5532	0.9681	0.5213	-0.347
Mof_O 	O 	0.5213	0.5532	0.9681	-0.347
Mof_O 	O 	0.4149	0.4468	0.9681	-0.347
Mof_O 	O 	0.4787	0.4468	0.0319	-0.347
Mof_O 	O 	0.5851	0.5532	0.0319	-0.347
Mof_O 	O 	0.8896	0.3896	0.5	-0.386
Mof_O 	O 	0.1104	0.6104	0.5	-0.386
Mof_O 	O 	0.5	0.1104	0.6104	-0.386
Mof_O 	O 	0.5	0.8896	0.3896	-0.386
Mof_O 	O 	0.3896	0.5	0.8896	-0.386
Mof_O 	O 	0.6104	0.5	0.1104	-0.386
_end
