data_functionalizedCrystal
_audit_creation_method	'EQeq! by Chris Wilmer'
_symmetry_space_group_name_H-M	'P1'
_symmetry_Int_Tables_number	1
_symmetry_cell_setting	triclinic
loop_
_symmetry_equiv_pos_as_xyz
  x,y,z
_cell_length_a	25.8627
_cell_length_b	25.8627
_cell_length_c	25.4591
_cell_angle_alpha	90
_cell_angle_beta	90
_cell_angle_gamma	120
loop_
_atom_site_label
_atom_site_type_symbol
_atom_site_fract_x
_atom_site_fract_y
_atom_site_fract_z
_atom_site_charge
Mof_Ce	Ce	0.38348	0.46705	0.4757	2.595
Mof_O 	O 	0.4182	0.4365	0.5474	-1.114
Mof_O 	O 	0.3241	0.4748	0.53667	-0.747
Mof_O 	O 	0.37897	0.4968	0.60917	-0.699
Mof_C 	C 	0.3314	0.4889	0.58485	0.534
Mof_C 	C 	0.2969	0.5004	0.62635	-0.082
Mof_C 	C 	0.2779	0.5034	0.6774	-0.002
Mof_O 	O 	0.3712	0.4527	0.38734	-0.723
Mof_O 	O 	0.4413	0.4406	0.34578	-0.773
Mof_C 	C 	0.3921	0.4415	0.345	0.532
Mof_C 	C 	0.3551	0.4322	0.2957	-0.088
Mof_C 	C 	0.3036	0.4284	0.2774	-0.038
Mof_Ce	Ce	0.53295	0.91643	0.4757	2.594
Mof_O 	O 	0.5635	0.9817	0.5474	-1.113
Mof_O 	O 	0.5252	0.8493	0.53667	-0.747
Mof_O 	O 	0.5032	0.88217	0.60917	-0.699
Mof_C 	C 	0.5111	0.8425	0.58485	0.534
Mof_C 	C 	0.4996	0.7965	0.62635	-0.082
Mof_C 	C 	0.4966	0.7745	0.6774	-0.002
Mof_O 	O 	0.5473	0.9185	0.38734	-0.723
Mof_O 	O 	0.5594	0.0007	0.34578	-0.77
Mof_C 	C 	0.5585	0.9506	0.345	0.529
Mof_C 	C 	0.5678	0.9229	0.2957	-0.086
Mof_C 	C 	0.5716	0.8752	0.2774	-0.038
Mof_Ce	Ce	0.08357	0.61652	0.4757	2.595
Mof_O 	O 	0.0183	0.5818	0.5474	-1.112
Mof_O 	O 	0.1507	0.6759	0.53667	-0.746
Mof_O 	O 	0.11783	0.62103	0.60917	-0.698
Mof_C 	C 	0.1575	0.6686	0.58485	0.535
Mof_C 	C 	0.2035	0.7031	0.62635	-0.081
Mof_C 	C 	0.2255	0.7221	0.6774	-0.001
Mof_O 	O 	0.0815	0.6288	0.38734	-0.722
Mof_O 	O 	0.9993	0.5587	0.34578	-0.769
Mof_C 	C 	0.0494	0.6079	0.345	0.53
Mof_C 	C 	0.0771	0.6449	0.2957	-0.087
Mof_C 	C 	0.1248	0.6964	0.2774	-0.038
Mof_Ce	Ce	0.61652	0.53295	0.9757	2.595
Mof_O 	O 	0.5818	0.5635	0.0474	-1.112
Mof_O 	O 	0.6759	0.5252	0.03667	-0.744
Mof_O 	O 	0.62103	0.5032	0.10917	-0.698
Mof_C 	C 	0.6686	0.5111	0.08485	0.535
Mof_C 	C 	0.7031	0.4996	0.12635	-0.081
Mof_C 	C 	0.7221	0.4966	0.1774	-0.001
Mof_O 	O 	0.6288	0.5473	0.88734	-0.722
Mof_O 	O 	0.5587	0.5594	0.84578	-0.772
Mof_C 	C 	0.6079	0.5585	0.845	0.533
Mof_C 	C 	0.6449	0.5678	0.7957	-0.087
Mof_C 	C 	0.6964	0.5716	0.7774	-0.037
Mof_Ce	Ce	0.46705	0.08357	0.9757	2.573
Mof_O 	O 	0.4365	0.0183	0.0474	-1.104
Mof_O 	O 	0.4748	0.1507	0.03667	-0.74
Mof_O 	O 	0.4968	0.11783	0.10917	-0.698
Mof_C 	C 	0.4889	0.1575	0.08485	0.534
Mof_C 	C 	0.5004	0.2035	0.12635	-0.08
Mof_C 	C 	0.5034	0.2255	0.1774	-0.001
Mof_O 	O 	0.4527	0.0815	0.88734	-0.719
Mof_O 	O 	0.4406	0.9993	0.84578	-0.767
Mof_C 	C 	0.4415	0.0494	0.845	0.526
Mof_C 	C 	0.4322	0.0771	0.7957	-0.085
Mof_C 	C 	0.4284	0.1248	0.7774	-0.038
Mof_Ce	Ce	0.91643	0.38348	0.9757	2.564
Mof_O 	O 	0.9817	0.4182	0.0474	-1.103
Mof_O 	O 	0.8493	0.3241	0.03667	-0.737
Mof_O 	O 	0.88217	0.37897	0.10917	-0.698
Mof_C 	C 	0.8425	0.3314	0.08485	0.534
Mof_C 	C 	0.7965	0.2969	0.12635	-0.08
Mof_C 	C 	0.7745	0.2779	0.1774	-0.001
Mof_O 	O 	0.9185	0.3712	0.88734	-0.718
Mof_O 	O 	0.0007	0.4413	0.84578	-0.767
Mof_C 	C 	0.9506	0.3921	0.845	0.525
Mof_C 	C 	0.9229	0.3551	0.7957	-0.085
Mof_C 	C 	0.8752	0.3036	0.7774	-0.038
Mof_Ce	Ce	0.46705	0.38348	0.5243	2.596
Mof_O 	O 	0.4365	0.4182	0.4526	-1.113
Mof_O 	O 	0.4748	0.3241	0.46333	-0.746
Mof_O 	O 	0.4968	0.37897	0.39083	-0.698
Mof_C 	C 	0.4889	0.3314	0.41515	0.535
Mof_C 	C 	0.5004	0.2969	0.37365	-0.081
Mof_C 	C 	0.5034	0.2779	0.3226	-0.001
Mof_O 	O 	0.4527	0.3712	0.61266	-0.722
Mof_O 	O 	0.4406	0.4413	0.65422	-0.772
Mof_C 	C 	0.4415	0.3921	0.655	0.533
Mof_C 	C 	0.4322	0.3551	0.7043	-0.087
Mof_C 	C 	0.4284	0.3036	0.7226	-0.037
Mof_Ce	Ce	0.91643	0.53295	0.5243	2.595
Mof_O 	O 	0.9817	0.5635	0.4526	-1.112
Mof_O 	O 	0.8493	0.5252	0.46333	-0.746
Mof_O 	O 	0.88217	0.5032	0.39083	-0.698
Mof_C 	C 	0.8425	0.5111	0.41515	0.535
Mof_C 	C 	0.7965	0.4996	0.37365	-0.081
Mof_C 	C 	0.7745	0.4966	0.3226	-0.001
Mof_O 	O 	0.9185	0.5473	0.61266	-0.722
Mof_O 	O 	0.0007	0.5594	0.65422	-0.769
Mof_C 	C 	0.9506	0.5585	0.655	0.53
Mof_C 	C 	0.9229	0.5678	0.7043	-0.086
Mof_C 	C 	0.8752	0.5716	0.7226	-0.038
Mof_Ce	Ce	0.61652	0.08357	0.5243	2.595
Mof_O 	O 	0.5818	0.0183	0.4526	-1.112
Mof_O 	O 	0.6759	0.1507	0.46333	-0.746
Mof_O 	O 	0.62103	0.11783	0.39083	-0.698
Mof_C 	C 	0.6686	0.1575	0.41515	0.535
Mof_C 	C 	0.7031	0.2035	0.37365	-0.081
Mof_C 	C 	0.7221	0.2255	0.3226	-0.001
Mof_O 	O 	0.6288	0.0815	0.61266	-0.722
Mof_O 	O 	0.5587	0.9993	0.65422	-0.769
Mof_C 	C 	0.6079	0.0494	0.655	0.53
Mof_C 	C 	0.6449	0.0771	0.7043	-0.087
Mof_C 	C 	0.6964	0.1248	0.7226	-0.038
Mof_Ce	Ce	0.53295	0.61652	0.0243	2.595
Mof_O 	O 	0.5635	0.5818	0.9526	-1.112
Mof_O 	O 	0.5252	0.6759	0.96333	-0.744
Mof_O 	O 	0.5032	0.62103	0.89083	-0.698
Mof_C 	C 	0.5111	0.6686	0.91515	0.535
Mof_C 	C 	0.4996	0.7031	0.87365	-0.081
Mof_C 	C 	0.4966	0.7221	0.8226	-0.001
Mof_O 	O 	0.5473	0.6288	0.11266	-0.722
Mof_O 	O 	0.5594	0.5587	0.15422	-0.772
Mof_C 	C 	0.5585	0.6079	0.155	0.533
Mof_C 	C 	0.5678	0.6449	0.2043	-0.087
Mof_C 	C 	0.5716	0.6964	0.2226	-0.037
Mof_Ce	Ce	0.08357	0.46705	0.0243	2.573
Mof_O 	O 	0.0183	0.4365	0.9526	-1.104
Mof_O 	O 	0.1507	0.4748	0.96333	-0.74
Mof_O 	O 	0.11783	0.4968	0.89083	-0.698
Mof_C 	C 	0.1575	0.4889	0.91515	0.534
Mof_C 	C 	0.2035	0.5004	0.87365	-0.08
Mof_C 	C 	0.2255	0.5034	0.8226	-0.001
Mof_O 	O 	0.0815	0.4527	0.11266	-0.719
Mof_O 	O 	0.9993	0.4406	0.15422	-0.767
Mof_C 	C 	0.0494	0.4415	0.155	0.526
Mof_C 	C 	0.0771	0.4322	0.2043	-0.085
Mof_C 	C 	0.1248	0.4284	0.2226	-0.038
Mof_Ce	Ce	0.38348	0.91643	0.0243	2.564
Mof_O 	O 	0.4182	0.9817	0.9526	-1.103
Mof_O 	O 	0.3241	0.8493	0.96333	-0.737
Mof_O 	O 	0.37897	0.88217	0.89083	-0.698
Mof_C 	C 	0.3314	0.8425	0.91515	0.534
Mof_C 	C 	0.2969	0.7965	0.87365	-0.08
Mof_C 	C 	0.2779	0.7745	0.8226	-0.001
Mof_O 	O 	0.3712	0.9185	0.11266	-0.718
Mof_O 	O 	0.4413	0.0007	0.15422	-0.767
Mof_C 	C 	0.3921	0.9506	0.155	0.525
Mof_C 	C 	0.3551	0.9229	0.2043	-0.085
Mof_C 	C 	0.3036	0.8752	0.2226	-0.038
Mof_Ce	Ce	0.61652	0.53295	0.5243	2.596
Mof_O 	O 	0.5818	0.5635	0.4526	-1.113
Mof_O 	O 	0.6759	0.5252	0.46333	-0.746
Mof_O 	O 	0.62103	0.5032	0.39083	-0.698
Mof_C 	C 	0.6686	0.5111	0.41515	0.535
Mof_C 	C 	0.7031	0.4996	0.37365	-0.081
Mof_C 	C 	0.7221	0.4966	0.3226	-0.001
Mof_O 	O 	0.6288	0.5473	0.61266	-0.722
Mof_O 	O 	0.5587	0.5594	0.65422	-0.772
Mof_C 	C 	0.6079	0.5585	0.655	0.533
Mof_C 	C 	0.6449	0.5678	0.7043	-0.087
Mof_C 	C 	0.6964	0.5716	0.7226	-0.037
Mof_Ce	Ce	0.46705	0.08357	0.5243	2.595
Mof_O 	O 	0.4365	0.0183	0.4526	-1.112
Mof_O 	O 	0.4748	0.1507	0.46333	-0.746
Mof_O 	O 	0.4968	0.11783	0.39083	-0.698
Mof_C 	C 	0.4889	0.1575	0.41515	0.535
Mof_C 	C 	0.5004	0.2035	0.37365	-0.081
Mof_C 	C 	0.5034	0.2255	0.3226	-0.001
Mof_O 	O 	0.4527	0.0815	0.61266	-0.722
Mof_O 	O 	0.4406	0.9993	0.65422	-0.769
Mof_C 	C 	0.4415	0.0494	0.655	0.53
Mof_C 	C 	0.4322	0.0771	0.7043	-0.086
Mof_C 	C 	0.4284	0.1248	0.7226	-0.038
Mof_Ce	Ce	0.91643	0.38348	0.5243	2.595
Mof_O 	O 	0.9817	0.4182	0.4526	-1.112
Mof_O 	O 	0.8493	0.3241	0.46333	-0.746
Mof_O 	O 	0.88217	0.37897	0.39083	-0.698
Mof_C 	C 	0.8425	0.3314	0.41515	0.535
Mof_C 	C 	0.7965	0.2969	0.37365	-0.081
Mof_C 	C 	0.7745	0.2779	0.3226	-0.001
Mof_O 	O 	0.9185	0.3712	0.61266	-0.722
Mof_O 	O 	0.0007	0.4413	0.65422	-0.769
Mof_C 	C 	0.9506	0.3921	0.655	0.53
Mof_C 	C 	0.9229	0.3551	0.7043	-0.087
Mof_C 	C 	0.8752	0.3036	0.7226	-0.038
Mof_Ce	Ce	0.38348	0.46705	0.0243	2.595
Mof_O 	O 	0.4182	0.4365	0.9526	-1.112
Mof_O 	O 	0.3241	0.4748	0.96333	-0.744
Mof_O 	O 	0.37897	0.4968	0.89083	-0.698
Mof_C 	C 	0.3314	0.4889	0.91515	0.535
Mof_C 	C 	0.2969	0.5004	0.87365	-0.081
Mof_C 	C 	0.2779	0.5034	0.8226	-0.001
Mof_O 	O 	0.3712	0.4527	0.11266	-0.722
Mof_O 	O 	0.4413	0.4406	0.15422	-0.772
Mof_C 	C 	0.3921	0.4415	0.155	0.533
Mof_C 	C 	0.3551	0.4322	0.2043	-0.087
Mof_C 	C 	0.3036	0.4284	0.2226	-0.037
Mof_Ce	Ce	0.53295	0.91643	0.0243	2.573
Mof_O 	O 	0.5635	0.9817	0.9526	-1.104
Mof_O 	O 	0.5252	0.8493	0.96333	-0.74
Mof_O 	O 	0.5032	0.88217	0.89083	-0.698
Mof_C 	C 	0.5111	0.8425	0.91515	0.534
Mof_C 	C 	0.4996	0.7965	0.87365	-0.08
Mof_C 	C 	0.4966	0.7745	0.8226	-0.001
Mof_O 	O 	0.5473	0.9185	0.11266	-0.719
Mof_O 	O 	0.5594	0.0007	0.15422	-0.767
Mof_C 	C 	0.5585	0.9506	0.155	0.526
Mof_C 	C 	0.5678	0.9229	0.2043	-0.085
Mof_C 	C 	0.5716	0.8752	0.2226	-0.038
Mof_Ce	Ce	0.08357	0.61652	0.0243	2.564
Mof_O 	O 	0.0183	0.5818	0.9526	-1.103
Mof_O 	O 	0.1507	0.6759	0.96333	-0.737
Mof_O 	O 	0.11783	0.62103	0.89083	-0.698
Mof_C 	C 	0.1575	0.6686	0.91515	0.534
Mof_C 	C 	0.2035	0.7031	0.87365	-0.08
Mof_C 	C 	0.2255	0.7221	0.8226	-0.001
Mof_O 	O 	0.0815	0.6288	0.11266	-0.718
Mof_O 	O 	0.9993	0.5587	0.15422	-0.767
Mof_C 	C 	0.0494	0.6079	0.155	0.525
Mof_C 	C 	0.0771	0.6449	0.2043	-0.085
Mof_C 	C 	0.1248	0.6964	0.2226	-0.038
Mof_Ce	Ce	0.53295	0.61652	0.4757	2.596
Mof_O 	O 	0.5635	0.5818	0.5474	-1.113
Mof_O 	O 	0.5252	0.6759	0.53667	-0.746
Mof_O 	O 	0.5032	0.62103	0.60917	-0.698
Mof_C 	C 	0.5111	0.6686	0.58485	0.535
Mof_C 	C 	0.4996	0.7031	0.62635	-0.081
Mof_C 	C 	0.4966	0.7221	0.6774	-0.001
Mof_O 	O 	0.5473	0.6288	0.38734	-0.722
Mof_O 	O 	0.5594	0.5587	0.34578	-0.772
Mof_C 	C 	0.5585	0.6079	0.345	0.533
Mof_C 	C 	0.5678	0.6449	0.2957	-0.087
Mof_C 	C 	0.5716	0.6964	0.2774	-0.037
Mof_Ce	Ce	0.08357	0.46705	0.4757	2.595
Mof_O 	O 	0.0183	0.4365	0.5474	-1.112
Mof_O 	O 	0.1507	0.4748	0.53667	-0.746
Mof_O 	O 	0.11783	0.4968	0.60917	-0.698
Mof_C 	C 	0.1575	0.4889	0.58485	0.535
Mof_C 	C 	0.2035	0.5004	0.62635	-0.081
Mof_C 	C 	0.2255	0.5034	0.6774	-0.001
Mof_O 	O 	0.0815	0.4527	0.38734	-0.722
Mof_O 	O 	0.9993	0.4406	0.34578	-0.769
Mof_C 	C 	0.0494	0.4415	0.345	0.53
Mof_C 	C 	0.0771	0.4322	0.2957	-0.086
Mof_C 	C 	0.1248	0.4284	0.2774	-0.038
Mof_Ce	Ce	0.38348	0.91643	0.4757	2.595
Mof_O 	O 	0.4182	0.9817	0.5474	-1.112
Mof_O 	O 	0.3241	0.8493	0.53667	-0.746
Mof_O 	O 	0.37897	0.88217	0.60917	-0.698
Mof_C 	C 	0.3314	0.8425	0.58485	0.535
Mof_C 	C 	0.2969	0.7965	0.62635	-0.081
Mof_C 	C 	0.2779	0.7745	0.6774	-0.001
Mof_O 	O 	0.3712	0.9185	0.38734	-0.722
Mof_O 	O 	0.4413	0.0007	0.34578	-0.769
Mof_C 	C 	0.3921	0.9506	0.345	0.53
Mof_C 	C 	0.3551	0.9229	0.2957	-0.087
Mof_C 	C 	0.3036	0.8752	0.2774	-0.038
Mof_Ce	Ce	0.46705	0.38348	0.9757	2.595
Mof_O 	O 	0.4365	0.4182	0.0474	-1.112
Mof_O 	O 	0.4748	0.3241	0.03667	-0.744
Mof_O 	O 	0.4968	0.37897	0.10917	-0.698
Mof_C 	C 	0.4889	0.3314	0.08485	0.535
Mof_C 	C 	0.5004	0.2969	0.12635	-0.081
Mof_C 	C 	0.5034	0.2779	0.1774	-0.001
Mof_O 	O 	0.4527	0.3712	0.88734	-0.722
Mof_O 	O 	0.4406	0.4413	0.84578	-0.772
Mof_C 	C 	0.4415	0.3921	0.845	0.533
Mof_C 	C 	0.4322	0.3551	0.7957	-0.087
Mof_C 	C 	0.4284	0.3036	0.7774	-0.037
Mof_Ce	Ce	0.91643	0.53295	0.9757	2.573
Mof_O 	O 	0.9817	0.5635	0.0474	-1.104
Mof_O 	O 	0.8493	0.5252	0.03667	-0.74
Mof_O 	O 	0.88217	0.5032	0.10917	-0.698
Mof_C 	C 	0.8425	0.5111	0.08485	0.534
Mof_C 	C 	0.7965	0.4996	0.12635	-0.08
Mof_C 	C 	0.7745	0.4966	0.1774	-0.001
Mof_O 	O 	0.9185	0.5473	0.88734	-0.719
Mof_O 	O 	0.0007	0.5594	0.84578	-0.767
Mof_C 	C 	0.9506	0.5585	0.845	0.526
Mof_C 	C 	0.9229	0.5678	0.7957	-0.085
Mof_C 	C 	0.8752	0.5716	0.7774	-0.038
Mof_Ce	Ce	0.61652	0.08357	0.9757	2.564
Mof_O 	O 	0.5818	0.0183	0.0474	-1.103
Mof_O 	O 	0.6759	0.1507	0.03667	-0.737
Mof_O 	O 	0.62103	0.11783	0.10917	-0.698
Mof_C 	C 	0.6686	0.1575	0.08485	0.534
Mof_C 	C 	0.7031	0.2035	0.12635	-0.08
Mof_C 	C 	0.7221	0.2255	0.1774	-0.001
Mof_O 	O 	0.6288	0.0815	0.88734	-0.718
Mof_O 	O 	0.5587	0.9993	0.84578	-0.767
Mof_C 	C 	0.6079	0.0494	0.845	0.525
Mof_C 	C 	0.6449	0.0771	0.7957	-0.085
Mof_C 	C 	0.6964	0.1248	0.7774	-0.038
Mof_Ce	Ce	0.48003	0.51997	0.59957	3.679
Mof_O 	O 	0.4675	0.5325	0.4244	-1.026
Mof_O 	O 	0.4497	0.5503	0.5255	-1.121
Mof_Ce	Ce	0.48003	0.96006	0.59957	3.68
Mof_O 	O 	0.4675	0.935	0.4244	-1.027
Mof_O 	O 	0.4497	0.8994	0.5255	-1.121
Mof_Ce	Ce	0.03994	0.51997	0.59957	3.68
Mof_O 	O 	0.065	0.5325	0.4244	-1.027
Mof_O 	O 	0.1006	0.5503	0.5255	-1.121
Mof_Ce	Ce	0.51997	0.48003	0.09957	3.68
Mof_O 	O 	0.5325	0.4675	0.9244	-1.026
Mof_O 	O 	0.5503	0.4497	0.0255	-1.12
Mof_Ce	Ce	0.51997	0.03994	0.09957	3.686
Mof_O 	O 	0.5325	0.065	0.9244	-1.025
Mof_O 	O 	0.5503	0.1006	0.0255	-1.112
Mof_Ce	Ce	0.96006	0.48003	0.09957	3.686
Mof_O 	O 	0.935	0.4675	0.9244	-1.025
Mof_O 	O 	0.8994	0.4497	0.0255	-1.112
Mof_Ce	Ce	0.51997	0.48003	0.40043	3.679
Mof_O 	O 	0.5325	0.4675	0.5756	-1.026
Mof_O 	O 	0.5503	0.4497	0.4745	-1.121
Mof_Ce	Ce	0.96006	0.48003	0.40043	3.68
Mof_O 	O 	0.935	0.4675	0.5756	-1.027
Mof_O 	O 	0.8994	0.4497	0.4745	-1.121
Mof_Ce	Ce	0.51997	0.03994	0.40043	3.68
Mof_O 	O 	0.5325	0.065	0.5756	-1.027
Mof_O 	O 	0.5503	0.1006	0.4745	-1.121
Mof_Ce	Ce	0.48003	0.51997	0.90043	3.68
Mof_O 	O 	0.4675	0.5325	0.0756	-1.026
Mof_O 	O 	0.4497	0.5503	0.9745	-1.12
Mof_Ce	Ce	0.03994	0.51997	0.90043	3.686
Mof_O 	O 	0.065	0.5325	0.0756	-1.025
Mof_O 	O 	0.1006	0.5503	0.9745	-1.112
Mof_Ce	Ce	0.48003	0.96006	0.90043	3.686
Mof_O 	O 	0.4675	0.935	0.0756	-1.025
Mof_O 	O 	0.4497	0.8994	0.9745	-1.112
Mof_O 	O 	0.2462	0.4924	0.5981	-0.192
Mof_O 	O 	0.5076	0.7538	0.5981	-0.192
Mof_O 	O 	0.2462	0.7538	0.5981	-0.192
Mof_O 	O 	0.7538	0.5076	0.0981	-0.191
Mof_O 	O 	0.4924	0.2462	0.0981	-0.191
Mof_O 	O 	0.7538	0.2462	0.0981	-0.191
Mof_O 	O 	0.4924	0.2462	0.4019	-0.192
Mof_O 	O 	0.7538	0.5076	0.4019	-0.192
Mof_O 	O 	0.7538	0.2462	0.4019	-0.192
Mof_O 	O 	0.5076	0.7538	0.9019	-0.191
Mof_O 	O 	0.2462	0.4924	0.9019	-0.191
Mof_O 	O 	0.2462	0.7538	0.9019	-0.191
Mof_O 	O 	0.3858	0.4332	0.25	-0.152
Mof_O 	O 	0.5668	0.9526	0.25	-0.154
Mof_O 	O 	0.0474	0.6142	0.25	-0.154
Mof_O 	O 	0.6142	0.5668	0.75	-0.152
Mof_O 	O 	0.4332	0.0474	0.75	-0.154
Mof_O 	O 	0.9526	0.3858	0.75	-0.154
Mof_O 	O 	0.4332	0.3858	0.75	-0.152
Mof_O 	O 	0.9526	0.5668	0.75	-0.154
Mof_O 	O 	0.6142	0.0474	0.75	-0.154
Mof_O 	O 	0.5668	0.6142	0.25	-0.152
Mof_O 	O 	0.0474	0.4332	0.25	-0.154
Mof_O 	O 	0.3858	0.9526	0.25	-0.154
_end
