data_functionalizedCrystal
_audit_creation_method	'EQeq! by Chris Wilmer'
_symmetry_space_group_name_H-M	'P1'
_symmetry_Int_Tables_number	1
_symmetry_cell_setting	triclinic
loop_
_symmetry_equiv_pos_as_xyz
  x,y,z
_cell_length_a	13.512
_cell_length_b	16.194
_cell_length_c	4.677
_cell_angle_alpha	90
_cell_angle_beta	90
_cell_angle_gamma	90
loop_
_atom_site_label
_atom_site_type_symbol
_atom_site_fract_x
_atom_site_fract_y
_atom_site_fract_z
_atom_site_charge
Mof_V 	V 	0.5111	0.4851	0.9784	1.069
Mof_P 	P 	0.6362	0.5803	0.493	0.542
Mof_O 	O 	0.5535	0.579	0.716	-0.514
Mof_O 	O 	0.6175	0.5193	0.2518	-0.512
Mof_O 	O 	0.6468	0.6692	0.3853	-0.522
Mof_O 	O 	0.4298	0.5922	0.1751	-0.425
Mof_V 	V 	0.9889	0.0149	0.9784	1.065
Mof_P 	P 	0.8638	0.9197	0.493	0.541
Mof_O 	O 	0.9465	0.921	0.716	-0.508
Mof_O 	O 	0.8825	0.9807	0.2518	-0.506
Mof_O 	O 	0.8532	0.8308	0.3853	-0.52
Mof_O 	O 	0.0702	0.9078	0.1751	-0.43
Mof_V 	V 	0.4889	0.9851	0.0216	1.069
Mof_P 	P 	0.3638	0.0803	0.507	0.541
Mof_O 	O 	0.4465	0.079	0.284	-0.512
Mof_O 	O 	0.3825	0.0193	0.7482	-0.511
Mof_O 	O 	0.3532	0.1692	0.6147	-0.522
Mof_O 	O 	0.5702	0.0922	0.8249	-0.425
Mof_V 	V 	0.0111	0.5149	0.0216	1.069
Mof_P 	P 	0.1362	0.4197	0.507	0.543
Mof_O 	O 	0.0535	0.421	0.284	-0.513
Mof_O 	O 	0.1175	0.4807	0.7482	-0.51
Mof_O 	O 	0.1468	0.3308	0.6147	-0.52
Mof_O 	O 	0.9298	0.4078	0.8249	-0.426
Mof_V 	V 	0.4889	0.5149	0.0216	1.07
Mof_P 	P 	0.3638	0.4197	0.507	0.543
Mof_O 	O 	0.4465	0.421	0.284	-0.513
Mof_O 	O 	0.3825	0.4807	0.7482	-0.511
Mof_O 	O 	0.3532	0.3308	0.6147	-0.521
Mof_O 	O 	0.5702	0.4078	0.8249	-0.424
Mof_V 	V 	0.0111	0.9851	0.0216	1.066
Mof_P 	P 	0.1362	0.0803	0.507	0.542
Mof_O 	O 	0.0535	0.079	0.284	-0.508
Mof_O 	O 	0.1175	0.0193	0.7482	-0.506
Mof_O 	O 	0.1468	0.1692	0.6147	-0.52
Mof_O 	O 	0.9298	0.0922	0.8249	-0.43
Mof_V 	V 	0.5111	0.0149	0.9784	1.069
Mof_P 	P 	0.6362	0.9197	0.493	0.541
Mof_O 	O 	0.5535	0.921	0.716	-0.512
Mof_O 	O 	0.6175	0.9807	0.2518	-0.511
Mof_O 	O 	0.6468	0.8308	0.3853	-0.522
Mof_O 	O 	0.4298	0.9078	0.1751	-0.425
Mof_V 	V 	0.9889	0.4851	0.9784	1.069
Mof_P 	P 	0.8638	0.5803	0.493	0.543
Mof_O 	O 	0.9465	0.579	0.716	-0.513
Mof_O 	O 	0.8825	0.5193	0.2518	-0.51
Mof_O 	O 	0.8532	0.6692	0.3853	-0.52
Mof_O 	O 	0.0702	0.5922	0.1751	-0.426
Mof_V 	V 	0.75	0.75	0.2853	1.711
Mof_V 	V 	0.25	0.25	0.7147	1.711
Mof_C 	C 	0.75	0.552	0.6674	-0.525
Mof_H 	H 	0.75	0.4926	0.693	0.222
Mof_H 	H 	0.75	0.5767	0.8563	0.163
Mof_C 	C 	0.75	0.948	0.6674	-0.513
Mof_H 	H 	0.75	0.0074	0.693	0.214
Mof_H 	H 	0.75	0.9233	0.8563	0.161
Mof_C 	C 	0.25	0.052	0.3326	-0.513
Mof_H 	H 	0.25	0.9926	0.307	0.214
Mof_H 	H 	0.25	0.0767	0.1437	0.161
Mof_C 	C 	0.25	0.448	0.3326	-0.525
Mof_H 	H 	0.25	0.5074	0.307	0.222
Mof_H 	H 	0.25	0.4233	0.1437	0.163
_end
