# CIF file generated by openbabel 3.1.0, see https://openbabel.org
data_I
_chemical_name_common 'image0'
_cell_length_a 14.549
_cell_length_b 14.549
_cell_length_c 17.767
_cell_angle_alpha 90
_cell_angle_beta 90
_cell_angle_gamma 120
_space_group_name_H-M_alt 'P 1'
_space_group_name_Hall 'P 1'
loop_
    _symmetry_equiv_pos_as_xyz
    x,y,z
loop_
    _atom_site_label
    _atom_site_type_symbol
    _atom_site_fract_x
    _atom_site_fract_y
    _atom_site_fract_z
    _atom_site_occupancy
    C1       C        0.43237    0.40312    0.96662    1.000
    O1       O        0.65002    0.50236    0.83489    1.000
    O2       O        0.35710    0.30690    0.94300    1.000
    H1       H        0.37760    0.29090    0.90350    1.000
    C2       C        0.59688    0.02925    0.96662    1.000
    O3       O        0.49764    0.14766    0.83489    1.000
    O4       O        0.69310    0.05020    0.94300    1.000
    H2       H        0.70910    0.08670    0.90350    1.000
    C3       C        0.97075    0.56763    0.96662    1.000
    O5       O        0.85234    0.34998    0.83489    1.000
    O6       O        0.94980    0.64290    0.94300    1.000
    H3       H        0.91330    0.62240    0.90350    1.000
    C4       C        0.56763    0.59688    0.46662    1.000
    O7       O        0.34998    0.49764    0.33489    1.000
    O8       O        0.64290    0.69310    0.44300    1.000
    H4       H        0.62240    0.70910    0.40350    1.000
    C5       C        0.40312    0.97075    0.46662    1.000
    O9       O        0.50236    0.85234    0.33489    1.000
    O10      O        0.30690    0.94980    0.44300    1.000
    H5       H        0.29090    0.91330    0.40350    1.000
    C6       C        0.02925    0.43237    0.46662    1.000
    O11      O        0.14766    0.65002    0.33489    1.000
    O12      O        0.05020    0.35710    0.44300    1.000
    H6       H        0.08670    0.37760    0.40350    1.000
    C7       C        0.40312    0.43237    0.03338    1.000
    O13      O        0.50236    0.65002    0.16511    1.000
    O14      O        0.30690    0.35710    0.05700    1.000
    H7       H        0.29090    0.37760    0.09650    1.000
    C8       C        0.02925    0.59688    0.03338    1.000
    O15      O        0.14766    0.49764    0.16511    1.000
    O16      O        0.05020    0.69310    0.05700    1.000
    H8       H        0.08670    0.70910    0.09650    1.000
    C9       C        0.56763    0.97075    0.03338    1.000
    O17      O        0.34998    0.85234    0.16511    1.000
    O18      O        0.64290    0.94980    0.05700    1.000
    H9       H        0.62240    0.91330    0.09650    1.000
    C10      C        0.59688    0.56763    0.53338    1.000
    O19      O        0.49764    0.34998    0.66511    1.000
    O20      O        0.69310    0.64290    0.55700    1.000
    H10      H        0.70910    0.62240    0.59650    1.000
    C11      C        0.97075    0.40312    0.53338    1.000
    O21      O        0.85234    0.50236    0.66511    1.000
    O22      O        0.94980    0.30690    0.55700    1.000
    H11      H        0.91330    0.29090    0.59650    1.000
    C12      C        0.43237    0.02925    0.53338    1.000
    O23      O        0.65002    0.14766    0.66511    1.000
    O24      O        0.35710    0.05020    0.55700    1.000
    H12      H        0.37760    0.08670    0.59650    1.000
    C13      C        0.56763    0.59688    0.03338    1.000
    O25      O        0.34998    0.49764    0.16511    1.000
    O26      O        0.64290    0.69310    0.05700    1.000
    H13      H        0.62240    0.70910    0.09650    1.000
    C14      C        0.40312    0.97075    0.03338    1.000
    O27      O        0.50236    0.85234    0.16511    1.000
    O28      O        0.30690    0.94980    0.05700    1.000
    H14      H        0.29090    0.91330    0.09650    1.000
    C15      C        0.02925    0.43237    0.03338    1.000
    O29      O        0.14766    0.65002    0.16511    1.000
    O30      O        0.05020    0.35710    0.05700    1.000
    H15      H        0.08670    0.37760    0.09650    1.000
    C16      C        0.43237    0.40312    0.53338    1.000
    O31      O        0.65002    0.50236    0.66511    1.000
    O32      O        0.35710    0.30690    0.55700    1.000
    H16      H        0.37760    0.29090    0.59650    1.000
    C17      C        0.59688    0.02925    0.53338    1.000
    O33      O        0.49764    0.14766    0.66511    1.000
    O34      O        0.69310    0.05020    0.55700    1.000
    H17      H        0.70910    0.08670    0.59650    1.000
    C18      C        0.97075    0.56763    0.53338    1.000
    O35      O        0.85234    0.34998    0.66511    1.000
    O36      O        0.94980    0.64290    0.55700    1.000
    H18      H        0.91330    0.62240    0.59650    1.000
    C19      C        0.59688    0.56763    0.96662    1.000
    O37      O        0.49764    0.34998    0.83489    1.000
    O38      O        0.69310    0.64290    0.94300    1.000
    H19      H        0.70910    0.62240    0.90350    1.000
    C20      C        0.97075    0.40312    0.96662    1.000
    O39      O        0.85234    0.50236    0.83489    1.000
    O40      O        0.94980    0.30690    0.94300    1.000
    H20      H        0.91330    0.29090    0.90350    1.000
    C21      C        0.43237    0.02925    0.96662    1.000
    O41      O        0.65002    0.14766    0.83489    1.000
    O42      O        0.35710    0.05020    0.94300    1.000
    H21      H        0.37760    0.08670    0.90350    1.000
    C22      C        0.40312    0.43237    0.46662    1.000
    O43      O        0.50236    0.65002    0.33489    1.000
    O44      O        0.30690    0.35710    0.44300    1.000
    H22      H        0.29090    0.37760    0.40350    1.000
    C23      C        0.02925    0.59688    0.46662    1.000
    O45      O        0.14766    0.49764    0.33489    1.000
    O46      O        0.05020    0.69310    0.44300    1.000
    H23      H        0.08670    0.70910    0.40350    1.000
    C24      C        0.56763    0.97075    0.46662    1.000
    O47      O        0.34998    0.85234    0.33489    1.000
    O48      O        0.64290    0.94980    0.44300    1.000
    H24      H        0.62240    0.91330    0.40350    1.000
    C25      C        0.56113    0.43887    0.86292    1.000
    C26      C        0.52964    0.47036    0.93334    1.000
    C27      C        0.56113    0.12226    0.86292    1.000
    C28      C        0.52964    0.05928    0.93334    1.000
    C29      C        0.87774    0.43887    0.86292    1.000
    C30      C        0.94072    0.47036    0.93334    1.000
    C31      C        0.43887    0.56113    0.36292    1.000
    C32      C        0.47036    0.52964    0.43334    1.000
    C33      C        0.43887    0.87774    0.36292    1.000
    C34      C        0.47036    0.94072    0.43334    1.000
    C35      C        0.12226    0.56113    0.36292    1.000
    C36      C        0.05928    0.52964    0.43334    1.000
    C37      C        0.43887    0.56113    0.13708    1.000
    C38      C        0.47036    0.52964    0.06666    1.000
    C39      C        0.12226    0.56113    0.13708    1.000
    C40      C        0.05928    0.52964    0.06666    1.000
    C41      C        0.43887    0.87774    0.13708    1.000
    C42      C        0.47036    0.94072    0.06666    1.000
    C43      C        0.56113    0.43887    0.63708    1.000
    C44      C        0.52964    0.47036    0.56666    1.000
    C45      C        0.87774    0.43887    0.63708    1.000
    C46      C        0.94072    0.47036    0.56666    1.000
    C47      C        0.56113    0.12226    0.63708    1.000
    C48      C        0.52964    0.05928    0.56666    1.000
    O49      O        0.66667    0.33333    0.75000    1.000
    O50      O        0.33333    0.66667    0.25000    1.000
    Sc1      Sc       0.74682    0.49365    0.75000    1.000
    Sc2      Sc       0.50635    0.25318    0.75000    1.000
    Sc3      Sc       0.74682    0.25318    0.75000    1.000
    Sc4      Sc       0.25318    0.50635    0.25000    1.000
    Sc5      Sc       0.49365    0.74682    0.25000    1.000
    Sc6      Sc       0.25318    0.74682    0.25000    1.000
