data_functionalizedCrystal
_audit_creation_method	'EQeq! by Chris Wilmer'
_symmetry_space_group_name_H-M	'P1'
_symmetry_Int_Tables_number	1
_symmetry_cell_setting	triclinic
loop_
_symmetry_equiv_pos_as_xyz
  x,y,z
_cell_length_a	13.0315
_cell_length_b	13.0315
_cell_length_c	25.0942
_cell_angle_alpha	82.1167
_cell_angle_beta	80.1025
_cell_angle_gamma	113.884
loop_
_atom_site_label
_atom_site_type_symbol
_atom_site_fract_x
_atom_site_fract_y
_atom_site_fract_z
_atom_site_charge
Mof_Cd	Cd	0.5796	0.8296	0.25	0.376
Mof_Cd	Cd	0.4204	0.1704	0.75	0.376
Mof_H 	H 	0.1719	0.6744	0.1679	0.066
Mof_H 	H 	0.6168	0.6183	0.1949	0.017
Mof_H 	H 	0.7348	0.1225	0.2343	0.071
Mof_H 	H 	0.3479	0.7797	0.1856	0.07
Mof_H 	H 	0.9925	0.8934	0.0837	0.089
Mof_H 	H 	0.8271	0.3163	0.191	0.059
Mof_H 	H 	0.5953	0.8588	0.1075	0.073
Mof_H 	H 	0.9516	0.3811	0.1035	0.056
Mof_H 	H 	0.6488	0.9479	0.0143	0.044
Mof_H 	H 	0.6349	0.4992	0.1207	0.083
Mof_H 	H 	0.3226	0.3053	0.2267	0.071
Mof_H 	H 	0.4781	0.0373	0.2448	0.019
Mof_H 	H 	0.9078	0.1203	0.9993	0.073
Mof_H 	H 	0.5863	0.2132	0.0493	0.069
Mof_H 	H 	0.793	0.8462	0.1418	0.017
Mof_H 	H 	0.346	0.1396	0.2192	0.083
Mof_H 	H 	0.9875	0.2539	0.0554	0.077
Mof_H 	H 	0.2434	0.402	0.1606	0.071
Mof_H 	H 	0.6429	0.1212	0.9851	0.047
Mof_H 	H 	0.1187	0.4884	0.1571	0.048
Mof_H 	H 	0.6636	0.3357	0.1163	0.073
Mof_H 	H 	0.3423	0.3398	0.3321	0.066
Mof_H 	H 	0.3132	0.8117	0.3051	0.017
Mof_H 	H 	0.8568	0.9691	0.2657	0.071
Mof_H 	H 	0.4653	0.5335	0.3144	0.07
Mof_H 	H 	0.4771	0.0762	0.4163	0.089
Mof_H 	H 	0.0073	0.0181	0.309	0.059
Mof_H 	H 	0.4663	0.7028	0.3925	0.073
Mof_H 	H 	0.9846	0.0551	0.3965	0.056
Mof_H 	H 	0.4622	0.6631	0.4857	0.044
Mof_H 	H 	0.1199	0.7556	0.3793	0.083
Mof_H 	H 	0.032	0.5493	0.2733	0.071
Mof_H 	H 	0.7821	0.7229	0.2552	0.019
Mof_H 	H 	0.6196	0.9071	0.5007	0.073
Mof_H 	H 	0.7625	0.6356	0.4507	0.069
Mof_H 	H 	0.488	0.9348	0.3582	0.017
Mof_H 	H 	0.8588	0.5652	0.2808	0.083
Mof_H 	H 	0.8093	0.0429	0.4446	0.077
Mof_H 	H 	0.0626	0.404	0.3394	0.071
Mof_H 	H 	0.6063	0.628	0.5149	0.047
Mof_H 	H 	0.1455	0.2758	0.3429	0.049
Mof_H 	H 	0.952	0.7799	0.3837	0.073
Mof_H 	H 	0.8281	0.3256	0.8321	0.066
Mof_H 	H 	0.3832	0.3817	0.8051	0.017
Mof_H 	H 	0.2652	0.8775	0.7657	0.071
Mof_H 	H 	0.6521	0.2203	0.8144	0.07
Mof_H 	H 	0.0075	0.1066	0.9163	0.089
Mof_H 	H 	0.1729	0.6837	0.809	0.059
Mof_H 	H 	0.4047	0.1412	0.8925	0.073
Mof_H 	H 	0.0484	0.6189	0.8965	0.056
Mof_H 	H 	0.3512	0.0521	0.9857	0.044
Mof_H 	H 	0.3651	0.5008	0.8793	0.083
Mof_H 	H 	0.6774	0.6947	0.7733	0.071
Mof_H 	H 	0.5219	0.9627	0.7552	0.019
Mof_H 	H 	0.0922	0.8797	0.0007	0.073
Mof_H 	H 	0.4137	0.7868	0.9507	0.069
Mof_H 	H 	0.207	0.1538	0.8582	0.017
Mof_H 	H 	0.654	0.8604	0.7808	0.083
Mof_H 	H 	0.0125	0.7461	0.9446	0.077
Mof_H 	H 	0.7566	0.598	0.8394	0.071
Mof_H 	H 	0.3571	0.8788	0.0149	0.047
Mof_H 	H 	0.8813	0.5116	0.8429	0.048
Mof_H 	H 	0.3364	0.6643	0.8837	0.073
Mof_H 	H 	0.6577	0.6602	0.6679	0.066
Mof_H 	H 	0.6868	0.1883	0.6949	0.017
Mof_H 	H 	0.1432	0.0309	0.7343	0.071
Mof_H 	H 	0.5347	0.4665	0.6856	0.07
Mof_H 	H 	0.5229	0.9238	0.5837	0.089
Mof_H 	H 	0.9927	0.9819	0.691	0.059
Mof_H 	H 	0.5337	0.2972	0.6075	0.073
Mof_H 	H 	0.0154	0.9449	0.6035	0.056
Mof_H 	H 	0.5378	0.3369	0.5143	0.044
Mof_H 	H 	0.8801	0.2444	0.6207	0.083
Mof_H 	H 	0.968	0.4507	0.7267	0.071
Mof_H 	H 	0.2179	0.2771	0.7448	0.019
Mof_H 	H 	0.3804	0.0929	0.4993	0.073
Mof_H 	H 	0.2375	0.3644	0.5493	0.069
Mof_H 	H 	0.512	0.0652	0.6418	0.017
Mof_H 	H 	0.1412	0.4348	0.7192	0.083
Mof_H 	H 	0.1907	0.9571	0.5554	0.077
Mof_H 	H 	0.9374	0.596	0.6606	0.071
Mof_H 	H 	0.3937	0.372	0.4851	0.047
Mof_H 	H 	0.8545	0.7242	0.6571	0.049
Mof_H 	H 	0.048	0.2201	0.6163	0.073
Mof_C 	C 	0.47659	0.4165	0.17431	0.096
Mof_C 	C 	0.22287	0.64169	0.17044	-0.034
Mof_C 	C 	0.5455	0.61307	0.19043	0.091
Mof_C 	C 	0.78411	0.14813	0.19876	-0.082
Mof_C 	C 	0.32756	0.70493	0.18091	-0.078
Mof_C 	C 	0.99574	0.93591	0.04995	-0.079
Mof_C 	C 	0.40262	0.65362	0.18436	0.054
Mof_C 	C 	0.83973	0.26323	0.17284	-0.026
Mof_C 	C 	0.59478	0.92956	0.09626	-0.088
Mof_C 	C 	0.91508	0.30245	0.11967	-0.018
Mof_C 	C 	0.80413	0.07084	0.16983	0.056
Mof_C 	C 	0.36978	0.54141	0.17641	0.067
Mof_C 	C 	0.87861	0.1114	0.11659	0.066
Mof_C 	C 	0.62542	0.98283	0.04075	-0.021
Mof_C 	C 	0.57827	0.42704	0.14089	-0.076
Mof_C 	C 	0.38996	0.31051	0.20413	-0.073
Mof_C 	C 	0.50433	0.03669	0.20798	0.09
Mof_C 	C 	0.56282	0.98559	0.13499	0.059
Mof_C 	C 	0.9447	0.07228	0.99942	-0.072
Mof_C 	C 	0.94119	0.00774	0.04907	0.096
Mof_C 	C 	0.507	0.22238	0.16742	0.096
Mof_C 	C 	0.58943	0.14383	0.06074	-0.089
Mof_C 	C 	0.56133	0.0908	0.11667	0.063
Mof_C 	C 	0.80727	0.92179	0.14274	0.092
Mof_C 	C 	0.40431	0.2119	0.20019	-0.075
Mof_C 	C 	0.93677	0.22773	0.0905	-0.093
Mof_C 	C 	0.26395	0.47641	0.16584	-0.095
Mof_C 	C 	0.62243	0.08822	0.02295	-0.023
Mof_C 	C 	0.19096	0.52895	0.16349	-0.012
Mof_C 	C 	0.59481	0.32976	0.13783	-0.071
Mof_C 	C 	0.09081	0.6509	0.32569	0.096
Mof_C 	C 	0.31213	0.39331	0.32956	-0.034
Mof_C 	C 	0.3035	0.73593	0.30957	0.091
Mof_C 	C 	0.84689	0.98287	0.30124	-0.081
Mof_C 	C 	0.38584	0.50847	0.31909	-0.078
Mof_C 	C 	0.48586	0.04569	0.45005	-0.079
Mof_C 	C 	0.33798	0.58698	0.31564	0.054
Mof_C 	C 	0.93607	0.01257	0.32716	-0.027
Mof_C 	C 	0.52582	0.69104	0.40374	-0.088
Mof_C 	C 	0.92212	0.03475	0.38033	-0.017
Mof_C 	C 	0.74067	0.97396	0.33017	0.056
Mof_C 	C 	0.21782	0.54619	0.32359	0.067
Mof_C 	C 	0.72799	0.9952	0.38341	0.066
Mof_C 	C 	0.52358	0.66617	0.45925	-0.021
Mof_C 	C 	0.06793	0.71916	0.35911	-0.076
Mof_C 	C 	0.01464	0.59409	0.29587	-0.073
Mof_C 	C 	0.74467	0.71231	0.29202	0.09
Mof_C 	C 	0.62058	0.69781	0.36501	0.059
Mof_C 	C 	0.5717	0.94412	0.50058	-0.071
Mof_C 	C 	0.55681	0.99026	0.45093	0.097
Mof_C 	C 	0.8898	0.67442	0.33258	0.096
Mof_C 	C 	0.70457	0.65017	0.43926	-0.088
Mof_C 	C 	0.70747	0.678	0.38333	0.063
Mof_C 	C 	0.56453	0.95001	0.35726	0.092
Mof_C 	C 	0.91209	0.6045	0.29981	-0.075
Mof_C 	C 	0.81823	0.02727	0.4095	-0.094
Mof_C 	C 	0.14225	0.42979	0.33416	-0.095
Mof_C 	C 	0.61117	0.64538	0.47705	-0.024
Mof_C 	C 	0.19244	0.35445	0.33651	-0.012
Mof_C 	C 	0.96759	0.73264	0.36217	-0.071
Mof_C 	C 	0.52341	0.5835	0.82569	0.096
Mof_C 	C 	0.77713	0.35831	0.82956	-0.034
Mof_C 	C 	0.4545	0.38693	0.80957	0.091
Mof_C 	C 	0.21589	0.85187	0.80124	-0.082
Mof_C 	C 	0.67244	0.29507	0.81909	-0.078
Mof_C 	C 	0.00426	0.06409	0.95005	-0.079
Mof_C 	C 	0.59738	0.34638	0.81564	0.054
Mof_C 	C 	0.16027	0.73677	0.82716	-0.026
Mof_C 	C 	0.40522	0.07044	0.90374	-0.088
Mof_C 	C 	0.08492	0.69755	0.88033	-0.018
Mof_C 	C 	0.19587	0.92916	0.83017	0.056
Mof_C 	C 	0.63022	0.45859	0.82359	0.067
Mof_C 	C 	0.12139	0.8886	0.88341	0.066
Mof_C 	C 	0.37458	0.01717	0.95925	-0.021
Mof_C 	C 	0.42173	0.57296	0.85911	-0.076
Mof_C 	C 	0.61004	0.68949	0.79587	-0.073
Mof_C 	C 	0.49567	0.96331	0.79202	0.09
Mof_C 	C 	0.43718	0.01441	0.86501	0.059
Mof_C 	C 	0.0553	0.92772	0.00058	-0.072
Mof_C 	C 	0.05881	0.99226	0.95093	0.096
Mof_C 	C 	0.493	0.77762	0.83258	0.096
Mof_C 	C 	0.41057	0.85617	0.93926	-0.089
Mof_C 	C 	0.43867	0.9092	0.88333	0.063
Mof_C 	C 	0.19273	0.07821	0.85726	0.092
Mof_C 	C 	0.59569	0.7881	0.79981	-0.075
Mof_C 	C 	0.06323	0.77227	0.9095	-0.093
Mof_C 	C 	0.73605	0.52359	0.83416	-0.095
Mof_C 	C 	0.37757	0.91178	0.97705	-0.023
Mof_C 	C 	0.80904	0.47105	0.83651	-0.012
Mof_C 	C 	0.40519	0.67024	0.86217	-0.071
Mof_C 	C 	0.90919	0.3491	0.67431	0.096
Mof_C 	C 	0.68787	0.60669	0.67044	-0.034
Mof_C 	C 	0.6965	0.26407	0.69043	0.091
Mof_C 	C 	0.15311	0.01713	0.69876	-0.081
Mof_C 	C 	0.61416	0.49153	0.68091	-0.078
Mof_C 	C 	0.51414	0.95431	0.54995	-0.079
Mof_C 	C 	0.66202	0.41302	0.68436	0.054
Mof_C 	C 	0.06393	0.98743	0.67284	-0.027
Mof_C 	C 	0.47418	0.30896	0.59626	-0.088
Mof_C 	C 	0.07788	0.96525	0.61967	-0.017
Mof_C 	C 	0.25933	0.02604	0.66983	0.056
Mof_C 	C 	0.78218	0.45381	0.67641	0.067
Mof_C 	C 	0.27201	0.0048	0.61659	0.066
Mof_C 	C 	0.47642	0.33383	0.54075	-0.021
Mof_C 	C 	0.93207	0.28084	0.64089	-0.076
Mof_C 	C 	0.98536	0.40591	0.70413	-0.073
Mof_C 	C 	0.25533	0.28769	0.70798	0.09
Mof_C 	C 	0.37942	0.30219	0.63499	0.059
Mof_C 	C 	0.4283	0.05588	0.49942	-0.071
Mof_C 	C 	0.44319	0.00974	0.54907	0.097
Mof_C 	C 	0.1102	0.32558	0.66742	0.096
Mof_C 	C 	0.29543	0.34983	0.56074	-0.088
Mof_C 	C 	0.29253	0.322	0.61667	0.063
Mof_C 	C 	0.43547	0.04999	0.64274	0.092
Mof_C 	C 	0.08791	0.3955	0.70019	-0.075
Mof_C 	C 	0.18177	0.97273	0.5905	-0.094
Mof_C 	C 	0.85775	0.57021	0.66584	-0.095
Mof_C 	C 	0.38883	0.35462	0.52295	-0.024
Mof_C 	C 	0.80756	0.64555	0.66349	-0.012
Mof_C 	C 	0.03241	0.26736	0.63783	-0.071
Mof_N 	N 	0.52669	0.95309	0.1932	-0.15
Mof_N 	N 	0.75981	0.95009	0.18532	-0.151
Mof_N 	N 	0.51423	0.69665	0.19376	-0.151
Mof_N 	N 	0.46467	0.51908	0.17989	-0.146
Mof_N 	N 	0.87871	0.01296	0.10039	-0.146
Mof_N 	N 	0.52309	0.12142	0.16449	-0.144
Mof_N 	N 	0.64629	0.71989	0.3068	-0.15
Mof_N 	N 	0.63541	0.94513	0.31468	-0.151
Mof_N 	N 	0.39041	0.70799	0.30624	-0.151
Mof_N 	N 	0.19897	0.64456	0.32011	-0.146
Mof_N 	N 	0.61335	0.9791	0.39961	-0.145
Mof_N 	N 	0.78591	0.68758	0.33551	-0.144
Mof_N 	N 	0.47331	0.04691	0.8068	-0.15
Mof_N 	N 	0.24019	0.04991	0.81468	-0.151
Mof_N 	N 	0.48577	0.30335	0.80624	-0.151
Mof_N 	N 	0.53533	0.48092	0.82011	-0.146
Mof_N 	N 	0.12129	0.98704	0.89961	-0.146
Mof_N 	N 	0.47691	0.87858	0.83551	-0.144
Mof_N 	N 	0.35371	0.28011	0.6932	-0.15
Mof_N 	N 	0.36459	0.05487	0.68532	-0.151
Mof_N 	N 	0.60959	0.29201	0.69376	-0.151
Mof_N 	N 	0.80103	0.35544	0.67989	-0.146
Mof_N 	N 	0.38665	0.0209	0.60039	-0.145
Mof_N 	N 	0.21409	0.31242	0.66449	-0.144
Mof_Cl	Cl	0.08687	0.37126	0.86155	-0.212
Mof_O 	O 	0.08075	0.45738	0.82207	-0.05
Mof_O 	O 	0.16521	0.33014	0.83585	-0.05
Mof_O 	O 	0.97416	0.2791	0.88414	-0.045
Mof_O 	O 	0.1293	0.4232	0.9045	-0.042
Mof_Cl	Cl	0.73281	0.94842	0.63845	-0.212
Mof_O 	O 	0.77945	0.90282	0.67793	-0.05
Mof_O 	O 	0.66599	0.00106	0.66415	-0.05
Mof_O 	O 	0.66324	0.8583	0.61586	-0.045
Mof_O 	O 	0.8277	0.0338	0.5955	-0.042
Mof_Cl	Cl	0.91313	0.62874	0.13845	-0.212
Mof_O 	O 	0.91925	0.54262	0.17793	-0.05
Mof_O 	O 	0.83479	0.66986	0.16415	-0.05
Mof_O 	O 	0.02584	0.7209	0.11586	-0.045
Mof_O 	O 	0.8707	0.5768	0.0955	-0.042
Mof_Cl	Cl	0.26719	0.05158	0.36155	-0.212
Mof_O 	O 	0.22055	0.09718	0.32207	-0.05
Mof_O 	O 	0.33401	0.99894	0.33585	-0.05
Mof_O 	O 	0.33676	0.1417	0.38414	-0.045
Mof_O 	O 	0.1723	0.9662	0.4045	-0.042
_end
