# CIF file generated by openbabel 3.1.0, see https://openbabel.org
data_I
_chemical_name_common 'MUPYIG_clean'
_cell_length_a 5.5144
_cell_length_b 8.0021
_cell_length_c 9.2467
_cell_angle_alpha 78.487
_cell_angle_beta 72.869
_cell_angle_gamma 87.2
_space_group_name_H-M_alt 'P 1'
_space_group_name_Hall 'P 1'
loop_
    _symmetry_equiv_pos_as_xyz
    x,y,z
loop_
    _atom_site_label
    _atom_site_type_symbol
    _atom_site_fract_x
    _atom_site_fract_y
    _atom_site_fract_z
    _atom_site_occupancy
    Cd1      Cd       0.00000    0.00000    0.00000    1.000
    Cd2      Cd       0.50000    0.50000    0.50000    1.000
    H1       H        0.55590    0.20080    0.26780    1.000
    H2       H        0.07880    0.51970    0.24060    1.000
    H3       H        0.23920    0.34290    0.06260    1.000
    H4       H        0.44410    0.79920    0.73220    1.000
    H5       H        0.92120    0.48030    0.75940    1.000
    H6       H        0.76080    0.65710    0.93740    1.000
    C1       C        0.71000    0.25920    0.23730    1.000
    C2       C        0.99110    0.43230    0.22410    1.000
    C3       C        0.29000    0.74080    0.76270    1.000
    C4       C        0.00890    0.56770    0.77590    1.000
    S1       S        0.57944    0.20762    0.80731    1.000
    S2       S        0.42056    0.79238    0.19269    1.000
    N1       N        0.75210    0.38870    0.29970    1.000
    N2       N        0.90900    0.22340    0.12850    1.000
    N3       N        0.08650    0.33580    0.12320    1.000
    N4       N        0.24790    0.61130    0.70030    1.000
    N5       N        0.09100    0.77660    0.87150    1.000
    N6       N        0.91350    0.66420    0.87680    1.000
    O1       O        0.69480    0.30820    0.65030    1.000
    O2       O        0.33470    0.13660    0.80900    1.000
    O3       O        0.75140    0.06860    0.83610    1.000
    O4       O        0.53800    0.31820    0.91960    1.000
    O5       O        0.30520    0.69180    0.34970    1.000
    O6       O        0.66530    0.86340    0.19100    1.000
    O7       O        0.24860    0.93140    0.16390    1.000
    O8       O        0.46200    0.68180    0.08040    1.000
