data_functionalizedCrystal
_audit_creation_method	'EQeq! by Chris Wilmer'
_symmetry_space_group_name_H-M	'P1'
_symmetry_Int_Tables_number	1
_symmetry_cell_setting	triclinic
loop_
_symmetry_equiv_pos_as_xyz
  x,y,z
_cell_length_a	12.113
_cell_length_b	12.226
_cell_length_c	12.289
_cell_angle_alpha	102.178
_cell_angle_beta	100.545
_cell_angle_gamma	119.663
loop_
_atom_site_label
_atom_site_type_symbol
_atom_site_fract_x
_atom_site_fract_y
_atom_site_fract_z
_atom_site_charge
Mof_Co	Co	0.68803	0.99432	0.3361	1.041
Mof_Co	Co	0.31197	0.00568	0.6639	1.041
Mof_Mo	Mo	0.59832	0.51295	0.21558	0.975
Mof_Mo	Mo	0.38993	0.37824	0.36334	1.452
Mof_Mo	Mo	0.46054	0.6837	0.40733	1.464
Mof_Mo	Mo	0.29381	0.58133	0.58683	1.017
Mof_Mo	Mo	0.40168	0.48705	0.78442	0.975
Mof_Mo	Mo	0.61007	0.62176	0.63666	1.452
Mof_Mo	Mo	0.53946	0.3163	0.59267	1.465
Mof_Mo	Mo	0.70619	0.41867	0.41317	1.018
Mof_H 	H 	0.008	0.24	0.8628	0.066
Mof_H 	H 	0.9838	0.2187	0.9795	0.071
Mof_H 	H 	0.3147	0.513	0.0917	-0.069
Mof_H 	H 	0.3622	0.2187	0.0285	-0.048
Mof_H 	H 	0.1031	0.3706	0.1731	-0.003
Mof_H 	H 	0.08	0.4671	0.2567	-0.014
Mof_H 	H 	0.971	0.2631	0.3424	-0.064
Mof_H 	H 	0.6378	0.0341	0.0849	-0.049
Mof_H 	H 	0.9257	0.5074	0.2488	0.005
Mof_H 	H 	0.8949	0.6047	0.2068	0.009
Mof_H 	H 	0.0444	0.6879	0.4659	-0.062
Mof_H 	H 	0.3361	0.9695	0.4067	-0.018
Mof_H 	H 	0.992	0.76	0.1372	0.066
Mof_H 	H 	0.0162	0.7813	0.0205	0.071
Mof_H 	H 	0.6853	0.487	0.9083	-0.069
Mof_H 	H 	0.6378	0.7813	0.9715	-0.048
Mof_H 	H 	0.8969	0.6294	0.8269	-0.003
Mof_H 	H 	0.92	0.5329	0.7433	-0.014
Mof_H 	H 	0.029	0.7369	0.6576	-0.064
Mof_H 	H 	0.3622	0.9659	0.9151	-0.049
Mof_H 	H 	0.0743	0.4926	0.7512	0.005
Mof_H 	H 	0.1051	0.3953	0.7932	0.009
Mof_H 	H 	0.9556	0.3121	0.5341	-0.062
Mof_H 	H 	0.6639	0.0305	0.5933	-0.018
Mof_C 	C 	0.0295	0.4044	0.9776	0.01
Mof_C 	C 	0.0144	0.4438	0.0854	-0.023
Mof_C 	C 	0.9833	0.5422	0.1093	-0.019
Mof_C 	C 	0.0417	0.2831	0.9481	-0.115
Mof_C 	C 	0.2993	0.428	0.0646	0.07
Mof_C 	C 	0.3207	0.2655	0.0293	0.062
Mof_C 	C 	0.0388	0.3942	0.1814	-0.035
Mof_C 	C 	0.903	0.2257	0.2701	0.078
Mof_C 	C 	0.7257	0.1051	0.131	0.066
Mof_C 	C 	0.9621	0.5833	0.222	-0.037
Mof_C 	C 	0.1019	0.7384	0.4299	0.083
Mof_C 	C 	0.2575	0.8887	0.3955	0.058
Mof_C 	C 	0.9705	0.5956	0.0224	0.01
Mof_C 	C 	0.9856	0.5562	0.9146	-0.023
Mof_C 	C 	0.0167	0.4578	0.8907	-0.019
Mof_C 	C 	0.9583	0.7169	0.0519	-0.115
Mof_C 	C 	0.7007	0.572	0.9354	0.07
Mof_C 	C 	0.6793	0.7345	0.9707	0.062
Mof_C 	C 	0.9612	0.6058	0.8186	-0.035
Mof_C 	C 	0.097	0.7743	0.7299	0.078
Mof_C 	C 	0.2743	0.8949	0.869	0.066
Mof_C 	C 	0.0379	0.4167	0.778	-0.037
Mof_C 	C 	0.8981	0.2616	0.5701	0.083
Mof_C 	C 	0.7425	0.1113	0.6045	0.058
Mof_N 	N 	0.3901	0.4008	0.089	-0.272
Mof_N 	N 	0.179	0.3141	0.9938	-0.112
Mof_N 	N 	0.1927	0.2066	0.9738	-0.135
Mof_N 	N 	0.7832	0.1176	0.2414	-0.3
Mof_N 	N 	0.9166	0.2761	0.1848	-0.114
Mof_N 	N 	0.8003	0.1984	0.0921	-0.114
Mof_N 	N 	0.2123	0.8587	0.4875	-0.273
Mof_N 	N 	0.0812	0.6967	0.3158	-0.117
Mof_N 	N 	0.1808	0.7942	0.2916	-0.12
Mof_N 	N 	0.6099	0.5992	0.911	-0.272
Mof_N 	N 	0.821	0.6859	0.0062	-0.112
Mof_N 	N 	0.8073	0.7934	0.0262	-0.135
Mof_N 	N 	0.2168	0.8824	0.7586	-0.3
Mof_N 	N 	0.0834	0.7239	0.8152	-0.114
Mof_N 	N 	0.1997	0.8016	0.9079	-0.114
Mof_N 	N 	0.7877	0.1413	0.5125	-0.273
Mof_N 	N 	0.9188	0.3033	0.6842	-0.117
Mof_N 	N 	0.8192	0.2058	0.7084	-0.12
Mof_O 	O 	0.7386	0.5665	0.3525	-0.554
Mof_O 	O 	0.5002	0.351	0.2846	-0.602
Mof_O 	O 	0.498	0.5604	0.3264	-0.696
Mof_O 	O 	0.3569	0.2626	0.4369	-0.574
Mof_O 	O 	0.3924	0.5158	0.4794	-0.699
Mof_O 	O 	0.5784	0.8375	0.402	-0.679
Mof_O 	O 	0.406	0.7303	0.539	-0.611
Mof_O 	O 	0.2614	0.4335	0.6475	-0.554
Mof_O 	O 	0.4998	0.649	0.7154	-0.602
Mof_O 	O 	0.502	0.4396	0.6736	-0.696
Mof_O 	O 	0.6431	0.7374	0.5631	-0.574
Mof_O 	O 	0.6076	0.4842	0.5206	-0.699
Mof_O 	O 	0.4216	0.1625	0.598	-0.679
Mof_O 	O 	0.594	0.2697	0.461	-0.611
_end
