data_functionalizedCrystal
_audit_creation_method	'EQeq! by Chris Wilmer'
_symmetry_space_group_name_H-M	'P1'
_symmetry_Int_Tables_number	1
_symmetry_cell_setting	triclinic
loop_
_symmetry_equiv_pos_as_xyz
  x,y,z
_cell_length_a	9.7799
_cell_length_b	11.3381
_cell_length_c	12.6008
_cell_angle_alpha	90
_cell_angle_beta	90
_cell_angle_gamma	90
loop_
_atom_site_label
_atom_site_type_symbol
_atom_site_fract_x
_atom_site_fract_y
_atom_site_fract_z
_atom_site_charge
Mof_U 	U 	0.92668	0.32386	0.4565	0.007
Mof_S 	S 	0.51514	0.50707	0.24219	0.108
Mof_O 	O 	0.7103	0.394	0.3893	-0.179
Mof_O 	O 	0.5583	0.3491	0.5163	-0.169
Mof_O 	O 	0.188	0.6682	0.1387	-0.18
Mof_O 	O 	0.3794	0.6174	0.0543	-0.19
Mof_C 	C 	0.5921	0.3972	0.4301	0.285
Mof_C 	C 	0.4858	0.464	0.3703	-0.056
Mof_C 	C 	0.3587	0.4939	0.4053	-0.007
Mof_H 	H 	0.3259	0.477	0.4746	0.08
Mof_C 	C 	0.2814	0.5528	0.327	-0.004
Mof_H 	H 	0.1903	0.5799	0.337	0.074
Mof_C 	C 	0.3542	0.5663	0.2345	-0.062
Mof_C 	C 	0.3039	0.622	0.1352	0.29
Mof_U 	U 	0.57332	0.67614	0.9565	0.008
Mof_S 	S 	0.98486	0.49293	0.74219	0.108
Mof_O 	O 	0.7897	0.606	0.8893	-0.179
Mof_O 	O 	0.9417	0.6509	0.0163	-0.168
Mof_O 	O 	0.312	0.3318	0.6387	-0.18
Mof_O 	O 	0.1206	0.3826	0.5543	-0.19
Mof_C 	C 	0.9079	0.6028	0.9301	0.285
Mof_C 	C 	0.0142	0.536	0.8703	-0.055
Mof_C 	C 	0.1413	0.5061	0.9053	-0.007
Mof_H 	H 	0.1741	0.523	0.9746	0.08
Mof_C 	C 	0.2186	0.4472	0.827	-0.004
Mof_H 	H 	0.3097	0.4201	0.837	0.074
Mof_C 	C 	0.1458	0.4337	0.7345	-0.062
Mof_C 	C 	0.1961	0.378	0.6352	0.29
Mof_U 	U 	0.07332	0.82386	0.0435	0.008
Mof_S 	S 	0.48486	0.00707	0.25781	0.109
Mof_O 	O 	0.2897	0.894	0.1107	-0.179
Mof_O 	O 	0.4417	0.8491	0.9837	-0.168
Mof_O 	O 	0.812	0.1682	0.3613	-0.18
Mof_O 	O 	0.6206	0.1174	0.4457	-0.19
Mof_C 	C 	0.4079	0.8972	0.0699	0.285
Mof_C 	C 	0.5142	0.964	0.1297	-0.056
Mof_C 	C 	0.6413	0.9939	0.0947	-0.007
Mof_H 	H 	0.6741	0.977	0.0254	0.08
Mof_C 	C 	0.7186	0.0528	0.173	-0.003
Mof_H 	H 	0.8097	0.0799	0.163	0.074
Mof_C 	C 	0.6458	0.0663	0.2655	-0.062
Mof_C 	C 	0.6961	0.122	0.3648	0.29
Mof_U 	U 	0.42668	0.17614	0.5435	0.008
Mof_S 	S 	0.01514	0.99293	0.75781	0.109
Mof_O 	O 	0.2103	0.106	0.6107	-0.179
Mof_O 	O 	0.0583	0.1509	0.4837	-0.168
Mof_O 	O 	0.688	0.8318	0.8613	-0.18
Mof_O 	O 	0.8794	0.8826	0.9457	-0.19
Mof_C 	C 	0.0921	0.1028	0.5699	0.286
Mof_C 	C 	0.9858	0.036	0.6297	-0.056
Mof_C 	C 	0.8587	0.0061	0.5947	-0.007
Mof_H 	H 	0.8259	0.023	0.5254	0.08
Mof_C 	C 	0.7814	0.9472	0.673	-0.003
Mof_H 	H 	0.6903	0.9201	0.663	0.074
Mof_C 	C 	0.8542	0.9337	0.7655	-0.062
Mof_C 	C 	0.8039	0.878	0.8648	0.29
_end
