data_functionalizedCrystal
_audit_creation_method	'EQeq! by Chris Wilmer'
_symmetry_space_group_name_H-M	'P1'
_symmetry_Int_Tables_number	1
_symmetry_cell_setting	triclinic
loop_
_symmetry_equiv_pos_as_xyz
  x,y,z
_cell_length_a	16.0671
_cell_length_b	16.3128
_cell_length_c	20.8626
_cell_angle_alpha	72.919
_cell_angle_beta	72.729
_cell_angle_gamma	80.883
loop_
_atom_site_label
_atom_site_type_symbol
_atom_site_fract_x
_atom_site_fract_y
_atom_site_fract_z
_atom_site_charge
Mof_Rb	Rb	0.04199	0.05409	0.83968	3.23
Mof_Rb	Rb	0.08346	0.34223	0.47741	2.851
Mof_Rb	Rb	0.00405	0.57492	0.85804	3.071
Mof_Rb	Rb	0.66548	0.92274	0.94139	2.817
Mof_Rb	Rb	0.42612	0.99661	0.38727	2.979
Mof_Rb	Rb	0.95801	0.94591	0.16032	3.23
Mof_Rb	Rb	0.91654	0.65777	0.52259	2.851
Mof_Rb	Rb	0.99595	0.42508	0.14196	3.071
Mof_Rb	Rb	0.33452	0.07726	0.05861	2.817
Mof_Rb	Rb	0.57388	0.00339	0.61273	2.979
Mof_Na	Na	0.2483	0.252	0.75018	2.705
Mof_Na	Na	0.7517	0.748	0.24982	2.705
Mof_Mo	Mo	0.21298	0.47176	0.74559	0.736
Mof_Mo	Mo	0.30287	0.57782	0.55922	1.015
Mof_Mo	Mo	0.1672	0.56061	0.47999	1.886
Mof_Mo	Mo	0.52721	0.78126	0.3286	0.74
Mof_Mo	Mo	0.43147	0.69641	0.2226	1.048
Mof_Mo	Mo	0.44864	0.83662	0.07722	1.905
Mof_Mo	Mo	0.12	0.20078	0.65391	1.172
Mof_Mo	Mo	0.16788	0.96481	0.68552	1.303
Mof_Mo	Mo	0.36197	0.93258	0.596	1.947
Mof_Mo	Mo	0.81184	0.88151	0.07096	1.288
Mof_Mo	Mo	0.94792	0.16859	0.98417	2.087
Mof_Mo	Mo	0.91829	0.36065	0.99938	1.874
Mof_Mo	Mo	0.78702	0.52824	0.25441	0.736
Mof_Mo	Mo	0.69713	0.42218	0.44078	1.015
Mof_Mo	Mo	0.8328	0.43939	0.52001	1.886
Mof_Mo	Mo	0.47279	0.21874	0.6714	0.74
Mof_Mo	Mo	0.56853	0.30359	0.7774	1.048
Mof_Mo	Mo	0.55136	0.16338	0.92278	1.905
Mof_Mo	Mo	0.88	0.79922	0.34609	1.172
Mof_Mo	Mo	0.83212	0.03519	0.31448	1.303
Mof_Mo	Mo	0.63803	0.06742	0.404	1.947
Mof_Mo	Mo	0.18816	0.11849	0.92904	1.288
Mof_Mo	Mo	0.05208	0.83141	0.01583	2.087
Mof_Mo	Mo	0.08171	0.63935	0.00062	1.874
Mof_P 	P 	0.16833	0.40301	0.6205	0.51
Mof_P 	P 	0.07681	0.57112	0.6418	0.463
Mof_P 	P 	0.56904	0.08108	0.79259	0.47
Mof_P 	P 	0.60477	0.83302	0.15077	0.523
Mof_P 	P 	0.25804	0.11313	0.52804	0.478
Mof_P 	P 	0.33007	0.11224	0.64463	0.483
Mof_P 	P 	0.10192	0.32763	0.88299	0.474
Mof_P 	P 	0.90056	0.74576	0.96723	0.47
Mof_P 	P 	0.83167	0.59699	0.3795	0.51
Mof_P 	P 	0.92319	0.42888	0.3582	0.463
Mof_P 	P 	0.43096	0.91892	0.20741	0.47
Mof_P 	P 	0.39523	0.16698	0.84923	0.523
Mof_P 	P 	0.74196	0.88687	0.47196	0.478
Mof_P 	P 	0.66993	0.88776	0.35537	0.483
Mof_P 	P 	0.89808	0.67237	0.11701	0.474
Mof_P 	P 	0.09944	0.25424	0.03277	0.47
Mof_H 	H 	0.9338	0.4719	0.6451	-0.137
Mof_H 	H 	0.9815	0.3816	0.6406	-0.138
Mof_H 	H 	0.9531	0.4518	0.7559	-0.039
Mof_H 	H 	0.0105	0.3654	0.751	0.039
Mof_H 	H 	0.8924	0.2978	0.7591	-0.114
Mof_H 	H 	0.8339	0.3846	0.75	-0.073
Mof_H 	H 	0.8904	0.3001	0.8593	0.083
Mof_H 	H 	0.8542	0.3885	0.8508	0.062
Mof_H 	H 	0.7648	0.2746	0.9227	0.045
Mof_H 	H 	0.7234	0.3584	0.8799	0.017
Mof_H 	H 	0.7495	0.2764	0.8515	0
Mof_H 	H 	0.6254	0.0171	0.0824	-0.11
Mof_H 	H 	0.5344	0.0639	0.1088	-0.104
Mof_H 	H 	0.6378	0.98	0.1994	0.021
Mof_H 	H 	0.5556	0.0451	0.2146	-0.069
Mof_H 	H 	0.7264	0.0925	0.1196	-0.044
Mof_H 	H 	0.6443	0.1571	0.1114	-0.036
Mof_H 	H 	0.7026	0.1003	0.2186	0.101
Mof_H 	H 	0.6224	0.1542	0.2155	0.06
Mof_H 	H 	0.7843	0.2103	0.1416	0.023
Mof_H 	H 	0.729	0.2354	0.2097	0.001
Mof_H 	H 	0.6967	0.2685	0.1419	0.021
Mof_H 	H 	0.4315	0.186	0.4571	-0.071
Mof_H 	H 	0.4648	0.1907	0.5191	-0.097
Mof_H 	H 	0.3192	0.2906	0.481	-0.039
Mof_H 	H 	0.3506	0.2944	0.5445	-0.017
Mof_H 	H 	0.4625	0.3366	0.4034	-0.031
Mof_H 	H 	0.4875	0.3472	0.4675	-0.061
Mof_H 	H 	0.3491	0.4343	0.4296	0.072
Mof_H 	H 	0.3929	0.4515	0.4751	0.055
Mof_H 	H 	0.4257	0.5049	0.3407	-0.052
Mof_H 	H 	0.4356	0.5516	0.3936	-0.049
Mof_H 	H 	0.5078	0.4814	0.3706	-0.052
Mof_H 	H 	0.1774	0.4273	0.9918	-0.083
Mof_H 	H 	0.1854	0.456	0.9117	-0.094
Mof_H 	H 	0.2873	0.3346	0.8963	-0.033
Mof_H 	H 	0.2788	0.3052	0.9764	-0.07
Mof_H 	H 	0.4076	0.3757	0.923	0.003
Mof_H 	H 	0.3415	0.4353	0.9656	0.002
Mof_H 	H 	0.3012	0.4987	0.8569	0.031
Mof_H 	H 	0.385	0.4599	0.8238	0.02
Mof_H 	H 	0.4338	0.5344	0.8943	0.059
Mof_H 	H 	0.4381	0.5751	0.8155	0.039
Mof_H 	H 	0.3571	0.5985	0.8728	0.067
Mof_H 	H 	0.0662	0.5281	0.3549	-0.137
Mof_H 	H 	0.0185	0.6184	0.3594	-0.138
Mof_H 	H 	0.0469	0.5482	0.2441	-0.039
Mof_H 	H 	0.9895	0.6346	0.249	0.039
Mof_H 	H 	0.1076	0.7022	0.2409	-0.114
Mof_H 	H 	0.1661	0.6154	0.25	-0.073
Mof_H 	H 	0.1096	0.6999	0.1407	0.083
Mof_H 	H 	0.1458	0.6115	0.1492	0.062
Mof_H 	H 	0.2352	0.7254	0.0773	0.045
Mof_H 	H 	0.2766	0.6416	0.1201	0.017
Mof_H 	H 	0.2505	0.7236	0.1485	0
Mof_H 	H 	0.3746	0.9829	0.9176	-0.11
Mof_H 	H 	0.4656	0.9361	0.8912	-0.104
Mof_H 	H 	0.3622	0.02	0.8006	0.021
Mof_H 	H 	0.4444	0.9549	0.7854	-0.069
Mof_H 	H 	0.2736	0.9075	0.8804	-0.044
Mof_H 	H 	0.3557	0.8429	0.8886	-0.036
Mof_H 	H 	0.2974	0.8997	0.7814	0.101
Mof_H 	H 	0.3776	0.8458	0.7845	0.06
Mof_H 	H 	0.2157	0.7897	0.8584	0.023
Mof_H 	H 	0.271	0.7646	0.7903	0.001
Mof_H 	H 	0.3033	0.7315	0.8581	0.021
Mof_H 	H 	0.5685	0.814	0.5429	-0.071
Mof_H 	H 	0.5352	0.8093	0.4809	-0.097
Mof_H 	H 	0.6808	0.7094	0.519	-0.039
Mof_H 	H 	0.6494	0.7056	0.4555	-0.017
Mof_H 	H 	0.5375	0.6634	0.5966	-0.031
Mof_H 	H 	0.5125	0.6528	0.5325	-0.061
Mof_H 	H 	0.6509	0.5657	0.5704	0.072
Mof_H 	H 	0.6071	0.5485	0.5249	0.055
Mof_H 	H 	0.5743	0.4951	0.6593	-0.052
Mof_H 	H 	0.5644	0.4484	0.6064	-0.049
Mof_H 	H 	0.4922	0.5186	0.6294	-0.052
Mof_H 	H 	0.8226	0.5727	0.0082	-0.083
Mof_H 	H 	0.8146	0.544	0.0883	-0.094
Mof_H 	H 	0.7127	0.6654	0.1037	-0.033
Mof_H 	H 	0.7212	0.6948	0.0236	-0.07
Mof_H 	H 	0.5924	0.6243	0.077	0.003
Mof_H 	H 	0.6585	0.5647	0.0344	0.002
Mof_H 	H 	0.6988	0.5013	0.1431	0.031
Mof_H 	H 	0.615	0.5401	0.1762	0.02
Mof_H 	H 	0.5662	0.4656	0.1057	0.059
Mof_H 	H 	0.5619	0.4249	0.1845	0.039
Mof_H 	H 	0.6429	0.4015	0.1272	0.067
Mof_C 	C 	0.0666	0.4726	0.6196	-0.107
Mof_C 	C 	0.9811	0.4312	0.6574	0.116
Mof_C 	C 	0.961	0.4017	0.738	-0.196
Mof_C 	C 	0.8803	0.3529	0.7703	0.12
Mof_C 	C 	0.765	0.3096	0.8768	-0.089
Mof_C 	C 	0.5313	0.9322	0.1387	-0.103
Mof_C 	C 	0.5753	0.016	0.1224	0.077
Mof_C 	C 	0.6055	0.0314	0.1786	-0.138
Mof_C 	C 	0.6692	0.1124	0.1444	0.092
Mof_C 	C 	0.7262	0.2213	0.1689	-0.078
Mof_C 	C 	0.3565	0.1227	0.5515	-0.097
Mof_C 	C 	0.4128	0.1949	0.5034	0.042
Mof_C 	C 	0.3699	0.2839	0.4988	-0.12
Mof_C 	C 	0.4393	0.3514	0.4475	0.017
Mof_C 	C 	0.4462	0.4981	0.3809	0.013
Mof_C 	C 	0.1103	0.3517	0.9625	-0.087
Mof_C 	C 	0.1862	0.4064	0.951	0.006
Mof_C 	C 	0.2779	0.355	0.9373	-0.045
Mof_C 	C 	0.3525	0.4106	0.9266	-0.068
Mof_C 	C 	0.4001	0.5536	0.8608	-0.233
Mof_C 	C 	0.9334	0.5274	0.3804	-0.107
Mof_C 	C 	0.0189	0.5688	0.3426	0.116
Mof_C 	C 	0.039	0.5983	0.262	-0.196
Mof_C 	C 	0.1197	0.6471	0.2297	0.12
Mof_C 	C 	0.235	0.6904	0.1232	-0.089
Mof_C 	C 	0.4687	0.0678	0.8613	-0.103
Mof_C 	C 	0.4247	0.984	0.8776	0.077
Mof_C 	C 	0.3945	0.9686	0.8214	-0.138
Mof_C 	C 	0.3308	0.8876	0.8556	0.092
Mof_C 	C 	0.2738	0.7787	0.8311	-0.078
Mof_C 	C 	0.6435	0.8773	0.4485	-0.097
Mof_C 	C 	0.5872	0.8051	0.4966	0.042
Mof_C 	C 	0.6301	0.7161	0.5012	-0.12
Mof_C 	C 	0.5607	0.6486	0.5525	0.017
Mof_C 	C 	0.5538	0.5019	0.6191	0.013
Mof_C 	C 	0.8897	0.6483	0.0375	-0.087
Mof_C 	C 	0.8138	0.5936	0.049	0.006
Mof_C 	C 	0.7221	0.645	0.0627	-0.045
Mof_C 	C 	0.6475	0.5894	0.0734	-0.068
Mof_C 	C 	0.5999	0.4464	0.1392	-0.233
Mof_N 	N 	0.8518	0.339	0.8408	-0.254
Mof_N 	N 	0.6766	0.1421	0.1902	-0.253
Mof_N 	N 	0.402	0.435	0.4359	-0.243
Mof_N 	N 	0.3558	0.4805	0.8606	-0.173
Mof_N 	N 	0.1482	0.661	0.1592	-0.254
Mof_N 	N 	0.3234	0.8579	0.8098	-0.253
Mof_N 	N 	0.598	0.565	0.5641	-0.243
Mof_N 	N 	0.6442	0.5195	0.1394	-0.173
Mof_O 	O 	0.1867	0.3827	0.6913	-0.719
Mof_O 	O 	0.6215	0.8117	0.2217	-0.73
Mof_O 	O 	0.2346	0.4583	0.5595	-0.515
Mof_O 	O 	0.0298	0.4052	0.9816	-0.767
Mof_O 	O 	0.3027	0.0187	0.6754	-0.518
Mof_O 	O 	0.5516	0.7694	0.1419	-0.523
Mof_O 	O 	0.0061	0.3047	0.9067	-0.561
Mof_O 	O 	0.1118	0.4111	0.8231	-0.653
Mof_O 	O 	0.2776	0.5289	0.6559	-0.603
Mof_O 	O 	0.4131	0.12	0.6627	-0.658
Mof_O 	O 	0.0688	0.5021	0.546	-0.752
Mof_O 	O 	0.1019	0.546	0.7108	-0.604
Mof_O 	O 	0.5067	0.9325	0.0765	-0.744
Mof_O 	O 	0.6885	0.845	0.0922	-0.686
Mof_O 	O 	0.168	0.2547	0.8662	-0.746
Mof_O 	O 	0.1588	0.3222	0.6022	-0.673
Mof_O 	O 	0.2569	0.1785	0.6647	-0.728
Mof_O 	O 	0.1876	0.1793	0.5532	-0.66
Mof_O 	O 	0.8331	0.8166	0.9904	-0.693
Mof_O 	O 	0.2774	0.1203	0.452	-0.676
Mof_O 	O 	0.9969	0.7633	0.959	-0.669
Mof_O 	O 	0.0642	0.1235	0.9535	-1.026
Mof_O 	O 	0.2748	0.6009	0.4698	-0.707
Mof_O 	O 	0.1528	0.6088	0.5799	-0.555
Mof_O 	O 	0.2079	0.0914	0.8524	-0.884
Mof_O 	O 	0.2378	0.0197	0.5719	-0.619
Mof_O 	O 	0.8936	0.7251	0.904	-0.719
Mof_O 	O 	0.0938	0.9094	0.9444	-0.981
Mof_O 	O 	0.0905	0.2201	0.7339	-0.897
Mof_O 	O 	0.6046	0.1559	0.8063	-0.556
Mof_O 	O 	0.4134	0.7269	0.1287	-0.677
Mof_O 	O 	0.123	0.0793	0.6838	-0.917
Mof_O 	O 	0.9939	0.6287	0.6407	-0.701
Mof_O 	O 	0.8631	0.2654	0.0018	-0.74
Mof_O 	O 	0.872	0.4417	0.9435	-0.824
Mof_O 	O 	0.41	0.041	0.5447	-0.741
Mof_O 	O 	0.6303	0.0023	0.8023	-0.711
Mof_O 	O 	0.9084	0.155	0.9201	-0.969
Mof_O 	O 	0.8873	0.349	0.5594	-0.872
Mof_O 	O 	0.4735	0.7219	0.2892	-0.608
Mof_O 	O 	0.1309	0.6221	0.9209	-0.851
Mof_O 	O 	0.6447	0.1098	0.9428	-0.864
Mof_O 	O 	0.1478	0.9267	0.7734	-0.832
Mof_O 	O 	0.5138	0.8153	0.0024	-0.849
Mof_O 	O 	0.5578	0.1173	0.3642	-0.863
Mof_O 	O 	0.3757	0.886	0.5305	-0.916
Mof_O 	O 	0.5467	0.1072	0.7235	-0.606
Mof_O 	O 	0.1946	0.4964	0.4239	-0.824
Mof_O 	O 	0.2644	0.8816	0.6606	-0.745
Mof_O 	O 	0.8133	0.6173	0.3087	-0.719
Mof_O 	O 	0.3785	0.1883	0.7783	-0.73
Mof_O 	O 	0.7654	0.5417	0.4405	-0.515
Mof_O 	O 	0.9702	0.5948	0.0184	-0.767
Mof_O 	O 	0.6973	0.9813	0.3246	-0.518
Mof_O 	O 	0.4484	0.2306	0.8581	-0.523
Mof_O 	O 	0.9939	0.6953	0.0933	-0.561
Mof_O 	O 	0.8882	0.5889	0.1769	-0.653
Mof_O 	O 	0.7224	0.4711	0.3441	-0.603
Mof_O 	O 	0.5869	0.88	0.3373	-0.658
Mof_O 	O 	0.9312	0.4979	0.454	-0.752
Mof_O 	O 	0.8981	0.454	0.2892	-0.604
Mof_O 	O 	0.4933	0.0675	0.9235	-0.744
Mof_O 	O 	0.3115	0.155	0.9078	-0.686
Mof_O 	O 	0.832	0.7453	0.1338	-0.746
Mof_O 	O 	0.8412	0.6778	0.3978	-0.673
Mof_O 	O 	0.7431	0.8215	0.3353	-0.728
Mof_O 	O 	0.8124	0.8207	0.4468	-0.66
Mof_O 	O 	0.1669	0.1834	0.0096	-0.693
Mof_O 	O 	0.7226	0.8797	0.548	-0.676
Mof_O 	O 	0.0031	0.2367	0.041	-0.669
Mof_O 	O 	0.9358	0.8765	0.0465	-1.026
Mof_O 	O 	0.7252	0.3991	0.5302	-0.707
Mof_O 	O 	0.8472	0.3912	0.4201	-0.555
Mof_O 	O 	0.7921	0.9086	0.1476	-0.884
Mof_O 	O 	0.7622	0.9803	0.4281	-0.619
Mof_O 	O 	0.1064	0.2749	0.096	-0.719
Mof_O 	O 	0.9062	0.0906	0.0556	-0.981
Mof_O 	O 	0.9095	0.7799	0.2661	-0.897
Mof_O 	O 	0.3954	0.8441	0.1937	-0.556
Mof_O 	O 	0.5866	0.2731	0.8713	-0.677
Mof_O 	O 	0.877	0.9207	0.3162	-0.917
Mof_O 	O 	0.0061	0.3713	0.3593	-0.701
Mof_O 	O 	0.1369	0.7346	0.9982	-0.74
Mof_O 	O 	0.128	0.5583	0.0565	-0.824
Mof_O 	O 	0.59	0.959	0.4553	-0.741
Mof_O 	O 	0.3697	0.9977	0.1977	-0.711
Mof_O 	O 	0.0916	0.845	0.0799	-0.969
Mof_O 	O 	0.1127	0.651	0.4406	-0.872
Mof_O 	O 	0.5265	0.2781	0.7108	-0.608
Mof_O 	O 	0.8691	0.3779	0.0791	-0.851
Mof_O 	O 	0.3553	0.8902	0.0572	-0.864
Mof_O 	O 	0.8522	0.0733	0.2266	-0.832
Mof_O 	O 	0.4862	0.1847	0.9976	-0.849
Mof_O 	O 	0.4422	0.8827	0.6358	-0.863
Mof_O 	O 	0.6243	0.114	0.4695	-0.916
Mof_O 	O 	0.4533	0.8928	0.2765	-0.606
Mof_O 	O 	0.8054	0.5036	0.5761	-0.824
Mof_O 	O 	0.7356	0.1184	0.3394	-0.745
_end
