data_functionalizedCrystal
_audit_creation_method	'EQeq! by Chris Wilmer'
_symmetry_space_group_name_H-M	'P1'
_symmetry_Int_Tables_number	1
_symmetry_cell_setting	triclinic
loop_
_symmetry_equiv_pos_as_xyz
  x,y,z
_cell_length_a	14.845
_cell_length_b	19.4518
_cell_length_c	30.8
_cell_angle_alpha	101.946
_cell_angle_beta	90
_cell_angle_gamma	112.432
loop_
_atom_site_label
_atom_site_type_symbol
_atom_site_fract_x
_atom_site_fract_y
_atom_site_fract_z
_atom_site_charge
Mof_Zn	Zn	0.96093	0.17056	0.59292	1.164
Mof_Zn	Zn	0.81461	0.3463	0.77362	1.163
Mof_Zn	Zn	0.28813	0.76002	0.93428	1.165
Mof_Zn	Zn	0.20963	0.17056	0.09292	1.165
Mof_Zn	Zn	0.53169	0.3463	0.27362	1.164
Mof_Zn	Zn	0.47189	0.76002	0.43428	1.166
Mof_H 	H 	0.4399	0.6964	0.916	-0.003
Mof_H 	H 	0.4651	0.5948	0.872	0.087
Mof_H 	H 	0.2	0.5318	0.8075	0.095
Mof_H 	H 	0.1833	0.6358	0.8535	-0.005
Mof_H 	H 	0.468	0.3002	0.7348	0.084
Mof_H 	H 	0.6125	0.2802	0.7329	-0.016
Mof_H 	H 	0.7473	0.4696	0.8221	-0.011
Mof_H 	H 	0.6072	0.495	0.8276	0.08
Mof_H 	H 	0.1162	0.395	0.7231	0.082
Mof_H 	H 	0.9993	0.3164	0.6646	-0.015
Mof_H 	H 	0.1474	0.1866	0.633	-0.008
Mof_H 	H 	0.2697	0.2632	0.6876	0.097
Mof_H 	H 	0.0307	0.0416	0.5578	-0.007
Mof_H 	H 	0.15	0.021	0.5146	0.068
Mof_H 	H 	0.2208	0.2304	0.4886	0.078
Mof_H 	H 	0.1041	0.2466	0.5344	-0.011
Mof_H 	H 	0.3394	0.9566	0.5012	0.081
Mof_H 	H 	0.3788	0.8516	0.4963	-0.009
Mof_H 	H 	0.486	0.8728	0.3824	-0.018
Mof_H 	H 	0.4456	0.9768	0.3824	0.087
Mof_H 	H 	0.3436	0.2648	0.4006	0.093
Mof_H 	H 	0.4091	0.341	0.3526	-0.017
Mof_H 	H 	0.5578	0.2204	0.3064	-0.025
Mof_H 	H 	0.4919	0.1374	0.3517	0.093
Mof_H 	H 	0.2565	0.6964	0.416	-0.003
Mof_H 	H 	0.1297	0.5948	0.372	0.087
Mof_H 	H 	0.3318	0.5318	0.3075	0.095
Mof_H 	H 	0.4525	0.6358	0.3535	-0.005
Mof_H 	H 	0.8322	0.3002	0.2348	0.084
Mof_H 	H 	0.6677	0.2802	0.2329	-0.016
Mof_H 	H 	0.7223	0.4696	0.3221	-0.011
Mof_H 	H 	0.8878	0.495	0.3276	0.08
Mof_H 	H 	0.2788	0.395	0.2231	0.081
Mof_H 	H 	0.3171	0.3164	0.1646	-0.014
Mof_H 	H 	0.0392	0.1866	0.133	-0.007
Mof_H 	H 	0.9935	0.2632	0.1876	0.095
Mof_H 	H 	0.0109	0.0416	0.0578	-0.008
Mof_H 	H 	0.871	0.021	0.0146	0.069
Mof_H 	H 	0.0096	0.2304	0.9886	0.078
Mof_H 	H 	0.1425	0.2466	0.0344	-0.011
Mof_H 	H 	0.6172	0.9566	0.0012	0.082
Mof_H 	H 	0.4728	0.8516	0.9963	-0.009
Mof_H 	H 	0.3868	0.8728	0.8824	-0.018
Mof_H 	H 	0.5312	0.9768	0.8824	0.087
Mof_H 	H 	0.9212	0.2648	0.9006	0.092
Mof_H 	H 	0.9319	0.341	0.8526	-0.018
Mof_H 	H 	0.6626	0.2204	0.8064	-0.025
Mof_H 	H 	0.6455	0.1374	0.8517	0.093
Mof_C 	C 	0.38989	0.66178	0.8938	0.079
Mof_C 	C 	0.40602	0.60164	0.8676	-0.127
Mof_C 	C 	0.33471	0.55202	0.83505	0.052
Mof_C 	C 	0.25059	0.56498	0.8299	-0.128
Mof_C 	C 	0.24088	0.62676	0.8576	0.073
Mof_C 	C 	0.34682	0.48744	0.80444	0.089
Mof_C 	C 	0.43168	0.41576	0.78091	0.107
Mof_C 	C 	0.28472	0.38644	0.74715	0.106
Mof_C 	C 	0.52207	0.40054	0.7815	0.059
Mof_C 	C 	0.52459	0.33598	0.7533	-0.121
Mof_C 	C 	0.61111	0.32442	0.7525	0.071
Mof_C 	C 	0.68926	0.43452	0.8044	0.073
Mof_C 	C 	0.60638	0.45036	0.8077	-0.122
Mof_C 	C 	0.2062	0.3376	0.7109	0.064
Mof_C 	C 	0.12469	0.35298	0.7043	-0.132
Mof_C 	C 	0.05524	0.30568	0.6696	0.076
Mof_C 	C 	0.14213	0.23066	0.6511	0.082
Mof_C 	C 	0.2142	0.275	0.6837	-0.129
Mof_C 	C 	0.0709	0.0806	0.544	0.066
Mof_C 	C 	0.14099	0.06758	0.51784	-0.109
Mof_C 	C 	0.19778	0.12336	0.49635	0.049
Mof_C 	C 	0.18311	0.19102	0.5028	-0.112
Mof_C 	C 	0.11336	0.20012	0.5299	0.067
Mof_C 	C 	0.27168	0.11116	0.4674	0.096
Mof_C 	C 	0.36201	0.04422	0.44247	0.096
Mof_C 	C 	0.36678	0.14056	0.4121	0.106
Mof_C 	C 	0.38832	0.97824	0.44212	0.058
Mof_C 	C 	0.36899	0.94018	0.476	-0.135
Mof_C 	C 	0.39314	0.87788	0.4727	0.086
Mof_C 	C 	0.4545	0.8896	0.4068	0.078
Mof_C 	C 	0.4316	0.9522	0.4067	-0.125
Mof_C 	C 	0.40769	0.19098	0.3805	0.087
Mof_C 	C 	0.3865	0.253	0.3803	-0.142
Mof_C 	C 	0.4256	0.2982	0.3517	0.093
Mof_C 	C 	0.5101	0.2282	0.3251	0.103
Mof_C 	C 	0.4727	0.179	0.3524	-0.146
Mof_C 	C 	0.27189	0.66178	0.3938	0.079
Mof_C 	C 	0.19562	0.60164	0.3676	-0.127
Mof_C 	C 	0.21731	0.55202	0.33505	0.052
Mof_C 	C 	0.31439	0.56498	0.3299	-0.128
Mof_C 	C 	0.38588	0.62676	0.3576	0.073
Mof_C 	C 	0.14062	0.48744	0.30444	0.089
Mof_C 	C 	0.98408	0.41576	0.28091	0.107
Mof_C 	C 	0.10172	0.38644	0.24715	0.106
Mof_C 	C 	0.87847	0.40054	0.2815	0.059
Mof_C 	C 	0.81139	0.33598	0.2533	-0.121
Mof_C 	C 	0.71331	0.32442	0.2525	0.071
Mof_C 	C 	0.74526	0.43452	0.3044	0.073
Mof_C 	C 	0.84398	0.45036	0.3077	-0.122
Mof_C 	C 	0.1314	0.3376	0.2109	0.063
Mof_C 	C 	0.22829	0.35298	0.2043	-0.13
Mof_C 	C 	0.25044	0.30568	0.1696	0.074
Mof_C 	C 	0.08853	0.23066	0.1511	0.081
Mof_C 	C 	0.0608	0.275	0.1837	-0.126
Mof_C 	C 	0.0097	0.0806	0.044	0.069
Mof_C 	C 	0.92659	0.06758	0.01784	-0.113
Mof_C 	C 	0.92558	0.12336	0.99635	0.049
Mof_C 	C 	0.00791	0.19102	0.0028	-0.111
Mof_C 	C 	0.08676	0.20012	0.0299	0.066
Mof_C 	C 	0.83948	0.11116	0.9674	0.095
Mof_C 	C 	0.68221	0.04422	0.94247	0.095
Mof_C 	C 	0.77378	0.14056	0.9121	0.106
Mof_C 	C 	0.58992	0.97824	0.94212	0.06
Mof_C 	C 	0.57119	0.94018	0.976	-0.136
Mof_C 	C 	0.48474	0.87788	0.9727	0.086
Mof_C 	C 	0.4351	0.8896	0.9068	0.079
Mof_C 	C 	0.5206	0.9522	0.9067	-0.126
Mof_C 	C 	0.78329	0.19098	0.8805	0.087
Mof_C 	C 	0.8665	0.253	0.8803	-0.142
Mof_C 	C 	0.8726	0.2982	0.8517	0.093
Mof_C 	C 	0.7181	0.2282	0.8251	0.103
Mof_C 	C 	0.7063	0.179	0.8524	-0.146
Mof_I 	I 	0.15827	0.78848	0.89718	-0.383
Mof_I 	I 	0.96764	0.46664	0.79764	-0.381
Mof_I 	I 	0.79006	0.24951	0.70045	-0.402
Mof_I 	I 	0.27307	0.71938	0.00787	-0.362
Mof_I 	I 	0.88852	0.24154	0.55291	-0.381
Mof_I 	I 	0.86809	0.0552	0.6241	-0.354
Mof_I 	I 	0.63021	0.78848	0.39718	-0.382
Mof_I 	I 	0.499	0.46664	0.29764	-0.381
Mof_I 	I 	0.45945	0.24951	0.20045	-0.402
Mof_I 	I 	0.44631	0.71938	0.50787	-0.362
Mof_I 	I 	0.35302	0.24154	0.05291	-0.38
Mof_I 	I 	0.18711	0.0552	0.1241	-0.352
Mof_N 	N 	0.30918	0.67416	0.88982	-0.277
Mof_N 	N 	0.27429	0.44598	0.77257	-0.142
Mof_N 	N 	0.36116	0.36852	0.74972	-0.137
Mof_N 	N 	0.42813	0.47506	0.81027	-0.14
Mof_N 	N 	0.06449	0.24578	0.64306	-0.275
Mof_N 	N 	0.69165	0.3719	0.77746	-0.276
Mof_N 	N 	0.48567	0.28534	0.3225	-0.286
Mof_N 	N 	0.30214	0.05648	0.47232	-0.146
Mof_N 	N 	0.3978	0.0852	0.41192	-0.134
Mof_N 	N 	0.30208	0.15516	0.43783	-0.135
Mof_N 	N 	0.05761	0.14602	0.55055	-0.27
Mof_N 	N 	0.43501	0.85222	0.43902	-0.282
Mof_N 	N 	0.36498	0.67416	0.38982	-0.277
Mof_N 	N 	0.17169	0.44598	0.27257	-0.142
Mof_N 	N 	0.00736	0.36852	0.24972	-0.137
Mof_N 	N 	0.04693	0.47506	0.31027	-0.14
Mof_N 	N 	0.18129	0.24578	0.14306	-0.275
Mof_N 	N 	0.68025	0.3719	0.27746	-0.276
Mof_N 	N 	0.79967	0.28534	0.8225	-0.286
Mof_N 	N 	0.75434	0.05648	0.97232	-0.146
Mof_N 	N 	0.6874	0.0852	0.91192	-0.134
Mof_N 	N 	0.85308	0.15516	0.93783	-0.135
Mof_N 	N 	0.08841	0.14602	0.05055	-0.27
Mof_N 	N 	0.41721	0.85222	0.93902	-0.282
Mof_Zn	Zn	0.79037	0.82944	0.90708	1.166
Mof_Zn	Zn	0.46831	0.6537	0.72638	1.164
Mof_Zn	Zn	0.52811	0.23998	0.56572	1.166
Mof_Zn	Zn	0.03907	0.82944	0.40708	1.165
Mof_Zn	Zn	0.18539	0.6537	0.22638	1.164
Mof_Zn	Zn	0.71187	0.23998	0.06572	1.166
Mof_H 	H 	0.7435	0.3036	0.584	-0.003
Mof_H 	H 	0.8703	0.4052	0.628	0.087
Mof_H 	H 	0.6682	0.4682	0.6925	0.095
Mof_H 	H 	0.5475	0.3642	0.6465	-0.005
Mof_H 	H 	0.1678	0.6998	0.7652	0.084
Mof_H 	H 	0.3323	0.7198	0.7671	-0.016
Mof_H 	H 	0.2777	0.5304	0.6779	-0.011
Mof_H 	H 	0.1122	0.505	0.6724	0.08
Mof_H 	H 	0.7212	0.605	0.7769	0.081
Mof_H 	H 	0.6829	0.6836	0.8354	-0.014
Mof_H 	H 	0.9608	0.8134	0.867	-0.007
Mof_H 	H 	0.0065	0.7368	0.8124	0.095
Mof_H 	H 	0.9891	0.9584	0.9422	-0.008
Mof_H 	H 	0.129	0.979	0.9854	0.069
Mof_H 	H 	0.9904	0.7696	0.0114	0.078
Mof_H 	H 	0.8575	0.7534	0.9656	-0.011
Mof_H 	H 	0.3828	0.0434	0.9988	0.082
Mof_H 	H 	0.5272	0.1484	0.0037	-0.009
Mof_H 	H 	0.6132	0.1272	0.1176	-0.018
Mof_H 	H 	0.4688	0.0232	0.1176	0.087
Mof_H 	H 	0.0788	0.7352	0.0994	0.092
Mof_H 	H 	0.0681	0.659	0.1474	-0.018
Mof_H 	H 	0.3374	0.7796	0.1936	-0.025
Mof_H 	H 	0.3545	0.8626	0.1483	0.093
Mof_H 	H 	0.5601	0.3036	0.084	-0.003
Mof_H 	H 	0.5349	0.4052	0.128	0.087
Mof_H 	H 	0.8	0.4682	0.1925	0.095
Mof_H 	H 	0.8167	0.3642	0.1465	-0.005
Mof_H 	H 	0.532	0.6998	0.2652	0.084
Mof_H 	H 	0.3875	0.7198	0.2671	-0.016
Mof_H 	H 	0.2527	0.5304	0.1779	-0.011
Mof_H 	H 	0.3928	0.505	0.1724	0.08
Mof_H 	H 	0.8838	0.605	0.2769	0.082
Mof_H 	H 	0.0007	0.6836	0.3354	-0.015
Mof_H 	H 	0.8526	0.8134	0.367	-0.008
Mof_H 	H 	0.7303	0.7368	0.3124	0.097
Mof_H 	H 	0.9693	0.9584	0.4422	-0.007
Mof_H 	H 	0.85	0.979	0.4854	0.068
Mof_H 	H 	0.7792	0.7696	0.5114	0.078
Mof_H 	H 	0.8959	0.7534	0.4656	-0.011
Mof_H 	H 	0.6606	0.0434	0.4988	0.081
Mof_H 	H 	0.6212	0.1484	0.5037	-0.009
Mof_H 	H 	0.514	0.1272	0.6176	-0.018
Mof_H 	H 	0.5544	0.0232	0.6176	0.087
Mof_H 	H 	0.6564	0.7352	0.5994	0.093
Mof_H 	H 	0.5909	0.659	0.6474	-0.017
Mof_H 	H 	0.4422	0.7796	0.6936	-0.025
Mof_H 	H 	0.5081	0.8626	0.6483	0.093
Mof_C 	C 	0.72811	0.33822	0.6062	0.079
Mof_C 	C 	0.80438	0.39836	0.6324	-0.127
Mof_C 	C 	0.78269	0.44798	0.66495	0.052
Mof_C 	C 	0.68561	0.43502	0.6701	-0.128
Mof_C 	C 	0.61412	0.37324	0.6424	0.073
Mof_C 	C 	0.85938	0.51256	0.69556	0.089
Mof_C 	C 	0.01592	0.58424	0.71909	0.107
Mof_C 	C 	0.89828	0.61356	0.75285	0.106
Mof_C 	C 	0.12153	0.59946	0.7185	0.059
Mof_C 	C 	0.18861	0.66402	0.7467	-0.121
Mof_C 	C 	0.28669	0.67558	0.7475	0.071
Mof_C 	C 	0.25474	0.56548	0.6956	0.073
Mof_C 	C 	0.15602	0.54964	0.6923	-0.122
Mof_C 	C 	0.8686	0.6624	0.7891	0.063
Mof_C 	C 	0.77171	0.64702	0.7957	-0.13
Mof_C 	C 	0.74956	0.69432	0.8304	0.074
Mof_C 	C 	0.91147	0.76934	0.8489	0.081
Mof_C 	C 	0.9392	0.725	0.8163	-0.126
Mof_C 	C 	0.9903	0.9194	0.956	0.069
Mof_C 	C 	0.07341	0.93242	0.98216	-0.113
Mof_C 	C 	0.07442	0.87664	0.00365	0.049
Mof_C 	C 	0.99209	0.80898	0.9972	-0.111
Mof_C 	C 	0.91324	0.79988	0.9701	0.066
Mof_C 	C 	0.16052	0.88884	0.0326	0.095
Mof_C 	C 	0.31779	0.95578	0.05753	0.095
Mof_C 	C 	0.22622	0.85944	0.0879	0.106
Mof_C 	C 	0.41008	0.02176	0.05788	0.06
Mof_C 	C 	0.42881	0.05982	0.024	-0.136
Mof_C 	C 	0.51526	0.12212	0.0273	0.086
Mof_C 	C 	0.5649	0.1104	0.0932	0.079
Mof_C 	C 	0.4794	0.0478	0.0933	-0.126
Mof_C 	C 	0.21671	0.80902	0.1195	0.087
Mof_C 	C 	0.1335	0.747	0.1197	-0.142
Mof_C 	C 	0.1274	0.7018	0.1483	0.093
Mof_C 	C 	0.2819	0.7718	0.1749	0.103
Mof_C 	C 	0.2937	0.821	0.1476	-0.146
Mof_C 	C 	0.61011	0.33822	0.1062	0.079
Mof_C 	C 	0.59398	0.39836	0.1324	-0.127
Mof_C 	C 	0.66529	0.44798	0.16495	0.052
Mof_C 	C 	0.74941	0.43502	0.1701	-0.128
Mof_C 	C 	0.75912	0.37324	0.1424	0.073
Mof_C 	C 	0.65318	0.51256	0.19556	0.089
Mof_C 	C 	0.56832	0.58424	0.21909	0.107
Mof_C 	C 	0.71528	0.61356	0.25285	0.106
Mof_C 	C 	0.47793	0.59946	0.2185	0.059
Mof_C 	C 	0.47541	0.66402	0.2467	-0.121
Mof_C 	C 	0.38889	0.67558	0.2475	0.071
Mof_C 	C 	0.31074	0.56548	0.1956	0.073
Mof_C 	C 	0.39362	0.54964	0.1923	-0.122
Mof_C 	C 	0.7938	0.6624	0.2891	0.064
Mof_C 	C 	0.87531	0.64702	0.2957	-0.132
Mof_C 	C 	0.94476	0.69432	0.3304	0.076
Mof_C 	C 	0.85787	0.76934	0.3489	0.082
Mof_C 	C 	0.7858	0.725	0.3163	-0.129
Mof_C 	C 	0.9291	0.9194	0.456	0.066
Mof_C 	C 	0.85901	0.93242	0.48216	-0.109
Mof_C 	C 	0.80222	0.87664	0.50365	0.049
Mof_C 	C 	0.81689	0.80898	0.4972	-0.112
Mof_C 	C 	0.88664	0.79988	0.4701	0.067
Mof_C 	C 	0.72832	0.88884	0.5326	0.096
Mof_C 	C 	0.63799	0.95578	0.55753	0.096
Mof_C 	C 	0.63322	0.85944	0.5879	0.106
Mof_C 	C 	0.61168	0.02176	0.55788	0.058
Mof_C 	C 	0.63101	0.05982	0.524	-0.135
Mof_C 	C 	0.60686	0.12212	0.5273	0.086
Mof_C 	C 	0.5455	0.1104	0.5932	0.078
Mof_C 	C 	0.5684	0.0478	0.5933	-0.125
Mof_C 	C 	0.59231	0.80902	0.6195	0.087
Mof_C 	C 	0.6135	0.747	0.6197	-0.142
Mof_C 	C 	0.5744	0.7018	0.6483	0.093
Mof_C 	C 	0.4899	0.7718	0.6749	0.103
Mof_C 	C 	0.5273	0.821	0.6476	-0.146
Mof_I 	I 	0.36979	0.21152	0.60282	-0.382
Mof_I 	I 	0.501	0.53336	0.70236	-0.381
Mof_I 	I 	0.54055	0.75049	0.79955	-0.402
Mof_I 	I 	0.55369	0.28062	0.49213	-0.362
Mof_I 	I 	0.64698	0.75846	0.94709	-0.38
Mof_I 	I 	0.81289	0.9448	0.8759	-0.352
Mof_I 	I 	0.84173	0.21152	0.10282	-0.383
Mof_I 	I 	0.03236	0.53336	0.20236	-0.381
Mof_I 	I 	0.20994	0.75049	0.29955	-0.402
Mof_I 	I 	0.72693	0.28062	0.99213	-0.362
Mof_I 	I 	0.11148	0.75846	0.44709	-0.381
Mof_I 	I 	0.13191	0.9448	0.3759	-0.354
Mof_N 	N 	0.63502	0.32584	0.61018	-0.277
Mof_N 	N 	0.82831	0.55402	0.72743	-0.142
Mof_N 	N 	0.99264	0.63148	0.75028	-0.137
Mof_N 	N 	0.95307	0.52494	0.68973	-0.14
Mof_N 	N 	0.81871	0.75422	0.85694	-0.275
Mof_N 	N 	0.31975	0.6281	0.72254	-0.276
Mof_N 	N 	0.20033	0.71466	0.1775	-0.286
Mof_N 	N 	0.24566	0.94352	0.02768	-0.146
Mof_N 	N 	0.3126	0.9148	0.08808	-0.134
Mof_N 	N 	0.14692	0.84484	0.06217	-0.135
Mof_N 	N 	0.91159	0.85398	0.94945	-0.27
Mof_N 	N 	0.58279	0.14778	0.06098	-0.282
Mof_N 	N 	0.69082	0.32584	0.11018	-0.277
Mof_N 	N 	0.72571	0.55402	0.22743	-0.142
Mof_N 	N 	0.63884	0.63148	0.25028	-0.137
Mof_N 	N 	0.57187	0.52494	0.18973	-0.14
Mof_N 	N 	0.93551	0.75422	0.35694	-0.275
Mof_N 	N 	0.30835	0.6281	0.22254	-0.276
Mof_N 	N 	0.51433	0.71466	0.6775	-0.286
Mof_N 	N 	0.69786	0.94352	0.52768	-0.146
Mof_N 	N 	0.6022	0.9148	0.58808	-0.134
Mof_N 	N 	0.69792	0.84484	0.56217	-0.135
Mof_N 	N 	0.94239	0.85398	0.44945	-0.27
Mof_N 	N 	0.56499	0.14778	0.56098	-0.282
_end
