data_functionalizedCrystal
_audit_creation_method	'EQeq! by Chris Wilmer'
_symmetry_space_group_name_H-M	'P1'
_symmetry_Int_Tables_number	1
_symmetry_cell_setting	triclinic
loop_
_symmetry_equiv_pos_as_xyz
  x,y,z
_cell_length_a	7.6297
_cell_length_b	26.8079
_cell_length_c	15.0922
_cell_angle_alpha	90
_cell_angle_beta	90.838
_cell_angle_gamma	90
loop_
_atom_site_label
_atom_site_type_symbol
_atom_site_fract_x
_atom_site_fract_y
_atom_site_fract_z
_atom_site_charge
Mof_C 	C 	0.0127	0.09409	0.5273	0.272
Mof_C 	C 	0.8692	0.10645	0.4606	0.013
Mof_C 	C 	0.9056	0.1235	0.3765	-0.079
Mof_C 	C 	0.766	0.13665	0.3217	0.064
Mof_H 	H 	0.7906	0.147	0.2644	0.028
Mof_C 	C 	0.564	0.11952	0.4284	0.058
Mof_H 	H 	0.4483	0.1186	0.447	0.046
Mof_C 	C 	0.6948	0.10455	0.4863	-0.08
Mof_H 	H 	0.6667	0.0932	0.5426	0.079
Mof_C 	C 	0.0881	0.12841	0.3391	0.322
Mof_C 	C 	0.4338	0.05095	0.1783	0.08
Mof_H 	H 	0.4091	0.044	0.2372	0.027
Mof_C 	C 	0.4525	0.01151	0.1203	-0.133
Mof_H 	H 	0.4381	0.9789	0.1401	0.093
Mof_C 	C 	0.4929	0.02064	0.0323	0.062
Mof_C 	C 	0.5162	0.0701	0.0083	-0.133
Mof_H 	H 	0.5472	0.0782	0.9507	0.089
Mof_C 	C 	0.4931	0.10726	0.0706	0.077
Mof_H 	H 	0.5091	0.1402	0.0532	0.023
Mof_N 	N 	0.5977	0.13547	0.346	-0.135
Mof_N 	N 	0.4493	0.09846	0.154	-0.153
Mof_O 	O 	0.9842	0.06084	0.58419	-0.25
Mof_O 	O 	0.1507	0.11913	0.5255	-0.243
Mof_O 	O 	0.1749	0.09084	0.3241	-0.261
Mof_O 	O 	0.1376	0.17181	0.3216	-0.279
Mof_Cd	Cd	0.3832	0.16474	0.24487	0.427
Mof_C 	C 	0.9873	0.90591	0.4727	0.271
Mof_C 	C 	0.1308	0.89355	0.5394	0.012
Mof_C 	C 	0.0944	0.8765	0.6235	-0.079
Mof_C 	C 	0.234	0.86335	0.6783	0.064
Mof_H 	H 	0.2094	0.853	0.7356	0.028
Mof_C 	C 	0.436	0.88048	0.5716	0.058
Mof_H 	H 	0.5517	0.8814	0.553	0.046
Mof_C 	C 	0.3052	0.89545	0.5137	-0.08
Mof_H 	H 	0.3333	0.9068	0.4574	0.079
Mof_C 	C 	0.9119	0.87159	0.6609	0.322
Mof_C 	C 	0.5662	0.94905	0.8217	0.08
Mof_H 	H 	0.5909	0.956	0.7628	0.027
Mof_C 	C 	0.5475	0.98849	0.8797	-0.133
Mof_H 	H 	0.5619	0.0211	0.8599	0.093
Mof_C 	C 	0.5071	0.97936	0.9677	0.062
Mof_C 	C 	0.4838	0.9299	0.9917	-0.133
Mof_H 	H 	0.4528	0.9218	0.0493	0.089
Mof_C 	C 	0.5069	0.89274	0.9294	0.077
Mof_H 	H 	0.4909	0.8598	0.9468	0.023
Mof_N 	N 	0.4023	0.86453	0.654	-0.135
Mof_N 	N 	0.5507	0.90154	0.846	-0.153
Mof_O 	O 	0.0158	0.93916	0.41581	-0.25
Mof_O 	O 	0.8493	0.88087	0.4745	-0.243
Mof_O 	O 	0.8251	0.90916	0.6759	-0.261
Mof_O 	O 	0.8624	0.82819	0.6784	-0.279
Mof_Cd	Cd	0.6168	0.83526	0.75513	0.427
Mof_C 	C 	0.0568	0.19894	0.721	0.063
Mof_H 	H 	0.1715	0.2107	0.721	0.043
Mof_C 	C 	0.9213	0.23294	0.7221	-0.08
Mof_H 	H 	0.9454	0.2669	0.7243	0.084
Mof_C 	C 	0.749	0.21644	0.72	0.009
Mof_C 	C 	0.7196	0.16507	0.7218	-0.082
Mof_C 	C 	0.8642	0.13369	0.7227	0.064
Mof_H 	H 	0.8449	0.0995	0.7255	0.034
Mof_C 	C 	0.5435	0.14023	0.7126	0.32
Mof_C 	C 	0.6051	0.25499	0.721	0.286
Mof_C 	C 	0.1489	0.07596	0.8697	0.086
Mof_H 	H 	0.1899	0.1086	0.8669	0.016
Mof_C 	C 	0.0895	0.05893	0.9496	-0.132
Mof_H 	H 	0.0886	0.0799	0.9987	0.081
Mof_C 	C 	0.0305	0.00989	0.9565	0.058
Mof_C 	C 	0.0369	0.9812	0.8808	-0.124
Mof_H 	H 	0.0018	0.948	0.8822	0.081
Mof_C 	C 	0.0958	0.00199	0.8025	0.078
Mof_H 	H 	0.0964	0.9823	0.7518	0.023
Mof_N 	N 	0.0297	0.14996	0.7198	-0.135
Mof_N 	N 	0.1514	0.04888	0.7968	-0.152
Mof_O 	O 	0.6202	0.29175	0.671	-0.262
Mof_O 	O 	0.4838	0.25106	0.7746	-0.249
Mof_O 	O 	0.5157	0.10133	0.7545	-0.283
Mof_O 	O 	0.4366	0.15744	0.6584	-0.265
Mof_Cd	Cd	0.24169	0.09031	0.67064	0.425
Mof_C 	C 	0.9432	0.80106	0.279	0.063
Mof_H 	H 	0.8285	0.7893	0.279	0.043
Mof_C 	C 	0.0787	0.76706	0.2779	-0.08
Mof_H 	H 	0.0546	0.7331	0.2757	0.084
Mof_C 	C 	0.251	0.78356	0.28	0.009
Mof_C 	C 	0.2804	0.83493	0.2782	-0.082
Mof_C 	C 	0.1358	0.86631	0.2773	0.064
Mof_H 	H 	0.1551	0.9005	0.2745	0.034
Mof_C 	C 	0.4565	0.85977	0.2874	0.32
Mof_C 	C 	0.3949	0.74501	0.279	0.286
Mof_C 	C 	0.8511	0.92404	0.1303	0.086
Mof_H 	H 	0.8101	0.8914	0.1331	0.016
Mof_C 	C 	0.9105	0.94107	0.0504	-0.132
Mof_H 	H 	0.9114	0.9201	0.0013	0.081
Mof_C 	C 	0.9695	0.99011	0.0435	0.058
Mof_C 	C 	0.9631	0.0188	0.1192	-0.124
Mof_H 	H 	0.9982	0.052	0.1178	0.081
Mof_C 	C 	0.9042	0.99801	0.1975	0.078
Mof_H 	H 	0.9036	0.0177	0.2482	0.023
Mof_N 	N 	0.9703	0.85004	0.2802	-0.135
Mof_N 	N 	0.8486	0.95112	0.2032	-0.152
Mof_O 	O 	0.3798	0.70825	0.329	-0.262
Mof_O 	O 	0.5162	0.74894	0.2254	-0.249
Mof_O 	O 	0.4843	0.89867	0.2455	-0.283
Mof_O 	O 	0.5634	0.84256	0.3416	-0.265
Mof_Cd	Cd	0.75831	0.90969	0.32936	0.425
Mof_C 	C 	0.9873	0.59409	0.9727	0.27
Mof_C 	C 	0.1308	0.60645	0.0394	0.012
Mof_C 	C 	0.0944	0.6235	0.1235	-0.08
Mof_C 	C 	0.234	0.63665	0.1783	0.064
Mof_H 	H 	0.2094	0.647	0.2356	0.028
Mof_C 	C 	0.436	0.61952	0.0716	0.059
Mof_H 	H 	0.5517	0.6186	0.053	0.046
Mof_C 	C 	0.3052	0.60455	0.0137	-0.081
Mof_H 	H 	0.3333	0.5932	0.9574	0.08
Mof_C 	C 	0.9119	0.62841	0.1609	0.323
Mof_C 	C 	0.5662	0.55095	0.3217	0.08
Mof_H 	H 	0.5909	0.544	0.2628	0.026
Mof_C 	C 	0.5475	0.51151	0.3797	-0.134
Mof_H 	H 	0.5619	0.4789	0.3599	0.094
Mof_C 	C 	0.5071	0.52064	0.4677	0.063
Mof_C 	C 	0.4838	0.5701	0.4917	-0.134
Mof_H 	H 	0.4528	0.5782	0.5493	0.09
Mof_C 	C 	0.5069	0.60726	0.4294	0.078
Mof_H 	H 	0.4909	0.6402	0.4468	0.023
Mof_N 	N 	0.4023	0.63547	0.154	-0.135
Mof_N 	N 	0.5507	0.59846	0.346	-0.153
Mof_O 	O 	0.0158	0.56084	0.91581	-0.25
Mof_O 	O 	0.8493	0.61913	0.9745	-0.243
Mof_O 	O 	0.8251	0.59084	0.1759	-0.261
Mof_O 	O 	0.8624	0.67181	0.1784	-0.279
Mof_Cd	Cd	0.6168	0.66474	0.25513	0.427
Mof_C 	C 	0.0127	0.40591	0.0273	0.27
Mof_C 	C 	0.8692	0.39355	0.9606	0.012
Mof_C 	C 	0.9056	0.3765	0.8765	-0.08
Mof_C 	C 	0.766	0.36335	0.8217	0.064
Mof_H 	H 	0.7906	0.353	0.7644	0.028
Mof_C 	C 	0.564	0.38048	0.9284	0.059
Mof_H 	H 	0.4483	0.3814	0.947	0.046
Mof_C 	C 	0.6948	0.39545	0.9863	-0.081
Mof_H 	H 	0.6667	0.4068	0.0426	0.08
Mof_C 	C 	0.0881	0.37159	0.8391	0.323
Mof_C 	C 	0.4338	0.44905	0.6783	0.08
Mof_H 	H 	0.4091	0.456	0.7372	0.026
Mof_C 	C 	0.4525	0.48849	0.6203	-0.134
Mof_H 	H 	0.4381	0.5211	0.6401	0.094
Mof_C 	C 	0.4929	0.47936	0.5323	0.063
Mof_C 	C 	0.5162	0.4299	0.5083	-0.134
Mof_H 	H 	0.5472	0.4218	0.4507	0.09
Mof_C 	C 	0.4931	0.39274	0.5706	0.078
Mof_H 	H 	0.5091	0.3598	0.5532	0.023
Mof_N 	N 	0.5977	0.36453	0.846	-0.135
Mof_N 	N 	0.4493	0.40154	0.654	-0.153
Mof_O 	O 	0.9842	0.43916	0.08419	-0.25
Mof_O 	O 	0.1507	0.38087	0.0255	-0.243
Mof_O 	O 	0.1749	0.40916	0.8241	-0.261
Mof_O 	O 	0.1376	0.32819	0.8216	-0.279
Mof_Cd	Cd	0.3832	0.33526	0.74487	0.427
Mof_C 	C 	0.9432	0.69894	0.779	0.062
Mof_H 	H 	0.8285	0.7107	0.779	0.044
Mof_C 	C 	0.0787	0.73294	0.7779	-0.079
Mof_H 	H 	0.0546	0.7669	0.7757	0.084
Mof_C 	C 	0.251	0.71644	0.78	0.009
Mof_C 	C 	0.2804	0.66507	0.7782	-0.082
Mof_C 	C 	0.1358	0.63369	0.7773	0.064
Mof_H 	H 	0.1551	0.5995	0.7745	0.034
Mof_C 	C 	0.4565	0.64023	0.7874	0.32
Mof_C 	C 	0.3949	0.75499	0.779	0.286
Mof_C 	C 	0.8511	0.57596	0.6303	0.086
Mof_H 	H 	0.8101	0.6086	0.6331	0.016
Mof_C 	C 	0.9105	0.55893	0.5504	-0.133
Mof_H 	H 	0.9114	0.5799	0.5013	0.082
Mof_C 	C 	0.9695	0.50989	0.5435	0.06
Mof_C 	C 	0.9631	0.4812	0.6192	-0.128
Mof_H 	H 	0.9982	0.448	0.6178	0.082
Mof_C 	C 	0.9042	0.50199	0.6975	0.081
Mof_H 	H 	0.9036	0.4823	0.7482	0.021
Mof_N 	N 	0.9703	0.64996	0.7802	-0.135
Mof_N 	N 	0.8486	0.54888	0.7032	-0.153
Mof_O 	O 	0.3798	0.79175	0.829	-0.262
Mof_O 	O 	0.5162	0.75106	0.7254	-0.249
Mof_O 	O 	0.4843	0.60133	0.7455	-0.283
Mof_O 	O 	0.5634	0.65744	0.8416	-0.265
Mof_Cd	Cd	0.75831	0.59031	0.82936	0.425
Mof_C 	C 	0.0568	0.30106	0.221	0.062
Mof_H 	H 	0.1715	0.2893	0.221	0.044
Mof_C 	C 	0.9213	0.26706	0.2221	-0.079
Mof_H 	H 	0.9454	0.2331	0.2243	0.084
Mof_C 	C 	0.749	0.28356	0.22	0.009
Mof_C 	C 	0.7196	0.33493	0.2218	-0.082
Mof_C 	C 	0.8642	0.36631	0.2227	0.064
Mof_H 	H 	0.8449	0.4005	0.2255	0.034
Mof_C 	C 	0.5435	0.35977	0.2126	0.32
Mof_C 	C 	0.6051	0.24501	0.221	0.286
Mof_C 	C 	0.1489	0.42404	0.3697	0.086
Mof_H 	H 	0.1899	0.3914	0.3669	0.016
Mof_C 	C 	0.0895	0.44107	0.4496	-0.133
Mof_H 	H 	0.0886	0.4201	0.4987	0.082
Mof_C 	C 	0.0305	0.49011	0.4565	0.06
Mof_C 	C 	0.0369	0.5188	0.3808	-0.128
Mof_H 	H 	0.0018	0.552	0.3822	0.082
Mof_C 	C 	0.0958	0.49801	0.3025	0.081
Mof_H 	H 	0.0964	0.5177	0.2518	0.021
Mof_N 	N 	0.0297	0.35004	0.2198	-0.135
Mof_N 	N 	0.1514	0.45112	0.2968	-0.153
Mof_O 	O 	0.6202	0.20825	0.171	-0.262
Mof_O 	O 	0.4838	0.24894	0.2746	-0.249
Mof_O 	O 	0.5157	0.39867	0.2545	-0.283
Mof_O 	O 	0.4366	0.34256	0.1584	-0.265
Mof_Cd	Cd	0.24169	0.40969	0.17064	0.425
_end
