data_functionalizedCrystal
_audit_creation_method	'EQeq! by Chris Wilmer'
_symmetry_space_group_name_H-M	'P1'
_symmetry_Int_Tables_number	1
_symmetry_cell_setting	triclinic
loop_
_symmetry_equiv_pos_as_xyz
  x,y,z
_cell_length_a	16.2668
_cell_length_b	16.2668
_cell_length_c	24.016
_cell_angle_alpha	91.3136
_cell_angle_beta	91.3136
_cell_angle_gamma	107.353
loop_
_atom_site_label
_atom_site_type_symbol
_atom_site_fract_x
_atom_site_fract_y
_atom_site_fract_z
_atom_site_charge
Mof_Na	Na	0.93288	0.0743	0.00995	2.665
Mof_Na	Na	0.9257	0.06712	0.49005	2.696
Mof_Na	Na	0.06712	0.9257	0.99005	2.665
Mof_Na	Na	0.0743	0.93288	0.50995	2.696
Mof_H 	H 	0.4595	0.3545	0.8487	0.147
Mof_H 	H 	0.4622	0.4924	0.8954	0.169
Mof_H 	H 	0.7777	0.5507	0.9376	0.063
Mof_H 	H 	0.771	0.4068	0.9017	0.063
Mof_H 	H 	0.5162	0.136	0.8181	0.062
Mof_H 	H 	0.373	0.1226	0.7781	0.063
Mof_H 	H 	0.1759	0.3343	0.7623	0.063
Mof_H 	H 	0.1742	0.4648	0.815	0.062
Mof_H 	H 	0.3894	0.6794	0.9618	0.054
Mof_H 	H 	0.5407	0.7039	0.9891	0.064
Mof_H 	H 	0.666	0.6186	0.0513	0.148
Mof_H 	H 	0.7712	0.7318	0.0933	-0.043
Mof_H 	H 	0.8344	0.8316	0.9446	-0.11
Mof_H 	H 	0.7272	0.7198	0.9029	0.142
Mof_H 	H 	0.9342	0.9132	0.1214	0.234
Mof_H 	H 	0.6702	0.2254	0.7855	0.122
Mof_H 	H 	0.7678	0.1476	0.7907	-0.015
Mof_H 	H 	0.7783	0.1743	0.9569	-0.09
Mof_H 	H 	0.6821	0.2529	0.9521	0.123
Mof_H 	H 	0.9177	0.0581	0.8357	0.236
Mof_H 	H 	0.1502	0.1858	0.8015	0.134
Mof_H 	H 	0.0514	0.0912	0.742	0.001
Mof_H 	H 	0.2362	0.1024	0.633	-0.032
Mof_H 	H 	0.3344	0.1998	0.6911	0.116
Mof_H 	H 	0.217	0.5462	0.9729	0.108
Mof_H 	H 	0.1345	0.6371	0.9887	-0.013
Mof_H 	H 	0.1832	0.7278	0.8365	-0.006
Mof_H 	H 	0.2709	0.6419	0.8221	0.103
Mof_H 	H 	0.0522	0.8276	0.8848	0.181
Mof_H 	H 	0.6455	0.5405	0.6513	0.146
Mof_H 	H 	0.5076	0.5378	0.6046	0.169
Mof_H 	H 	0.4493	0.2223	0.5624	0.063
Mof_H 	H 	0.5932	0.229	0.5983	0.062
Mof_H 	H 	0.864	0.4838	0.6819	0.062
Mof_H 	H 	0.8774	0.627	0.7219	0.063
Mof_H 	H 	0.6657	0.8241	0.7377	0.063
Mof_H 	H 	0.5352	0.8258	0.685	0.062
Mof_H 	H 	0.3206	0.6106	0.5382	0.055
Mof_H 	H 	0.2961	0.4593	0.5109	0.065
Mof_H 	H 	0.3814	0.334	0.4487	0.15
Mof_H 	H 	0.2682	0.2288	0.4067	-0.046
Mof_H 	H 	0.1684	0.1656	0.5554	-0.114
Mof_H 	H 	0.2802	0.2728	0.5971	0.145
Mof_H 	H 	0.0868	0.0658	0.3786	0.233
Mof_H 	H 	0.7746	0.3298	0.7145	0.123
Mof_H 	H 	0.8524	0.2322	0.7093	-0.016
Mof_H 	H 	0.8257	0.2217	0.5431	-0.094
Mof_H 	H 	0.7471	0.3179	0.5479	0.122
Mof_H 	H 	0.9419	0.0823	0.6643	0.236
Mof_H 	H 	0.8142	0.8498	0.6985	0.133
Mof_H 	H 	0.9088	0.9486	0.758	0.001
Mof_H 	H 	0.8976	0.7638	0.867	-0.031
Mof_H 	H 	0.8002	0.6656	0.8089	0.116
Mof_H 	H 	0.4538	0.783	0.5271	0.109
Mof_H 	H 	0.3629	0.8655	0.5113	-0.012
Mof_H 	H 	0.2722	0.8168	0.6635	-0.006
Mof_H 	H 	0.3581	0.7291	0.6779	0.103
Mof_H 	H 	0.1724	0.9478	0.6152	0.181
Mof_H 	H 	0.5405	0.6455	0.1513	0.147
Mof_H 	H 	0.5378	0.5076	0.1046	0.169
Mof_H 	H 	0.2223	0.4493	0.0624	0.063
Mof_H 	H 	0.229	0.5932	0.0983	0.063
Mof_H 	H 	0.4838	0.864	0.1819	0.062
Mof_H 	H 	0.627	0.8774	0.2219	0.063
Mof_H 	H 	0.8241	0.6657	0.2377	0.063
Mof_H 	H 	0.8258	0.5352	0.185	0.062
Mof_H 	H 	0.6106	0.3206	0.0382	0.054
Mof_H 	H 	0.4593	0.2961	0.0109	0.064
Mof_H 	H 	0.334	0.3814	0.9487	0.148
Mof_H 	H 	0.2288	0.2682	0.9067	-0.043
Mof_H 	H 	0.1656	0.1684	0.0554	-0.11
Mof_H 	H 	0.2728	0.2802	0.0971	0.142
Mof_H 	H 	0.0658	0.0868	0.8786	0.234
Mof_H 	H 	0.3298	0.7746	0.2145	0.122
Mof_H 	H 	0.2322	0.8524	0.2093	-0.015
Mof_H 	H 	0.2217	0.8257	0.0431	-0.09
Mof_H 	H 	0.3179	0.7471	0.0479	0.123
Mof_H 	H 	0.0823	0.9419	0.1643	0.236
Mof_H 	H 	0.8498	0.8142	0.1985	0.134
Mof_H 	H 	0.9486	0.9088	0.258	0.001
Mof_H 	H 	0.7638	0.8976	0.367	-0.032
Mof_H 	H 	0.6656	0.8002	0.3089	0.116
Mof_H 	H 	0.783	0.4538	0.0271	0.108
Mof_H 	H 	0.8655	0.3629	0.0113	-0.013
Mof_H 	H 	0.8168	0.2722	0.1635	-0.006
Mof_H 	H 	0.7291	0.3581	0.1779	0.103
Mof_H 	H 	0.9478	0.1724	0.1152	0.181
Mof_H 	H 	0.3545	0.4595	0.3487	0.146
Mof_H 	H 	0.4924	0.4622	0.3954	0.169
Mof_H 	H 	0.5507	0.7777	0.4376	0.063
Mof_H 	H 	0.4068	0.771	0.4017	0.062
Mof_H 	H 	0.136	0.5162	0.3181	0.062
Mof_H 	H 	0.1226	0.373	0.2781	0.063
Mof_H 	H 	0.3343	0.1759	0.2623	0.063
Mof_H 	H 	0.4648	0.1742	0.315	0.062
Mof_H 	H 	0.6794	0.3894	0.4618	0.055
Mof_H 	H 	0.7039	0.5407	0.4891	0.065
Mof_H 	H 	0.6186	0.666	0.5513	0.15
Mof_H 	H 	0.7318	0.7712	0.5933	-0.046
Mof_H 	H 	0.8316	0.8344	0.4446	-0.114
Mof_H 	H 	0.7198	0.7272	0.4029	0.145
Mof_H 	H 	0.9132	0.9342	0.6214	0.233
Mof_H 	H 	0.2254	0.6702	0.2855	0.123
Mof_H 	H 	0.1476	0.7678	0.2907	-0.016
Mof_H 	H 	0.1743	0.7783	0.4569	-0.094
Mof_H 	H 	0.2529	0.6821	0.4521	0.122
Mof_H 	H 	0.0581	0.9177	0.3357	0.236
Mof_H 	H 	0.1858	0.1502	0.3015	0.133
Mof_H 	H 	0.0912	0.0514	0.242	0.001
Mof_H 	H 	0.1024	0.2362	0.133	-0.031
Mof_H 	H 	0.1998	0.3344	0.1911	0.116
Mof_H 	H 	0.5462	0.217	0.4729	0.109
Mof_H 	H 	0.6371	0.1345	0.4887	-0.012
Mof_H 	H 	0.7278	0.1832	0.3365	-0.006
Mof_H 	H 	0.6419	0.2709	0.3221	0.103
Mof_H 	H 	0.8276	0.0522	0.3848	0.181
Mof_C 	C 	0.53383	0.58903	0.94353	0.161
Mof_C 	C 	0.61729	0.58295	0.94501	-0.179
Mof_C 	C 	0.64217	0.51435	0.92337	0.131
Mof_C 	C 	0.72832	0.50798	0.92499	-0.096
Mof_C 	C 	0.72481	0.42893	0.90492	-0.084
Mof_C 	C 	0.63542	0.38488	0.88931	0.118
Mof_C 	C 	0.60435	0.30083	0.86679	-0.157
Mof_C 	C 	0.52211	0.26397	0.84308	0.141
Mof_C 	C 	0.48857	0.17843	0.81859	-0.098
Mof_C 	C 	0.40942	0.17128	0.79648	-0.092
Mof_C 	C 	0.39097	0.25121	0.80614	0.132
Mof_C 	C 	0.31571	0.27003	0.78938	-0.147
Mof_C 	C 	0.29478	0.34456	0.80539	0.116
Mof_C 	C 	0.21752	0.36522	0.78835	-0.085
Mof_C 	C 	0.21665	0.43731	0.81704	-0.085
Mof_C 	C 	0.29449	0.46345	0.85155	0.113
Mof_C 	C 	0.31718	0.53478	0.88908	-0.148
Mof_C 	C 	0.39593	0.56645	0.91857	0.136
Mof_C 	C 	0.42314	0.64446	0.95213	-0.082
Mof_C 	C 	0.5067	0.65792	0.96719	-0.104
Mof_C 	C 	0.68593	0.65659	0.97207	0.235
Mof_C 	C 	0.69993	0.66151	0.02953	-0.31
Mof_C 	C 	0.76329	0.72909	0.05474	0.242
Mof_C 	C 	0.81503	0.79279	0.02308	-0.376
Mof_C 	C 	0.80055	0.78863	0.96639	0.261
Mof_C 	C 	0.73631	0.72125	0.94131	-0.334
Mof_C 	C 	0.88276	0.8674	0.04847	0.581
Mof_C 	C 	0.66495	0.24705	0.86839	0.195
Mof_C 	C 	0.69177	0.21533	0.82008	-0.262
Mof_C 	C 	0.75044	0.16888	0.8232	0.191
Mof_C 	C 	0.78375	0.15369	0.87436	-0.307
Mof_C 	C 	0.75708	0.18482	0.92243	0.222
Mof_C 	C 	0.69891	0.23147	0.91941	-0.282
Mof_C 	C 	0.84807	0.10535	0.8791	0.571
Mof_C 	C 	0.25294	0.20536	0.75225	0.177
Mof_C 	C 	0.16762	0.17036	0.76725	-0.237
Mof_C 	C 	0.10845	0.11281	0.73169	0.158
Mof_C 	C 	0.13296	0.0873	0.68143	-0.248
Mof_C 	C 	0.21856	0.11996	0.66659	0.168
Mof_C 	C 	0.27751	0.17831	0.7016	-0.244
Mof_C 	C 	0.06925	0.02333	0.64311	0.508
Mof_C 	C 	0.2554	0.58574	0.89656	0.162
Mof_C 	C 	0.21194	0.58408	0.94553	-0.22
Mof_C 	C 	0.16109	0.63763	0.95473	0.131
Mof_C 	C 	0.14987	0.69097	0.91424	-0.211
Mof_C 	C 	0.19089	0.69195	0.86443	0.124
Mof_C 	C 	0.24335	0.64015	0.85576	-0.216
Mof_C 	C 	0.09739	0.75049	0.92426	0.418
Mof_C 	C 	0.41097	0.46617	0.55647	0.161
Mof_C 	C 	0.41705	0.38271	0.55499	-0.181
Mof_C 	C 	0.48565	0.35783	0.57663	0.132
Mof_C 	C 	0.49202	0.27168	0.57501	-0.097
Mof_C 	C 	0.57107	0.27519	0.59508	-0.084
Mof_C 	C 	0.61512	0.36458	0.61069	0.118
Mof_C 	C 	0.69917	0.39565	0.63321	-0.157
Mof_C 	C 	0.73603	0.47789	0.65692	0.141
Mof_C 	C 	0.82157	0.51143	0.68141	-0.098
Mof_C 	C 	0.82872	0.59058	0.70352	-0.092
Mof_C 	C 	0.74879	0.60903	0.69386	0.131
Mof_C 	C 	0.72997	0.68429	0.71062	-0.147
Mof_C 	C 	0.65544	0.70522	0.69461	0.116
Mof_C 	C 	0.63478	0.78248	0.71165	-0.085
Mof_C 	C 	0.56269	0.78335	0.68296	-0.085
Mof_C 	C 	0.53655	0.70551	0.64845	0.113
Mof_C 	C 	0.46522	0.68282	0.61092	-0.148
Mof_C 	C 	0.43355	0.60407	0.58143	0.136
Mof_C 	C 	0.35554	0.57686	0.54787	-0.081
Mof_C 	C 	0.34208	0.4933	0.53281	-0.105
Mof_C 	C 	0.34341	0.31407	0.52793	0.241
Mof_C 	C 	0.33849	0.30007	0.47047	-0.318
Mof_C 	C 	0.27091	0.23671	0.44526	0.249
Mof_C 	C 	0.20721	0.18497	0.47692	-0.386
Mof_C 	C 	0.21137	0.19945	0.53361	0.27
Mof_C 	C 	0.27875	0.26369	0.55869	-0.341
Mof_C 	C 	0.1326	0.11724	0.45153	0.585
Mof_C 	C 	0.75295	0.33505	0.63161	0.196
Mof_C 	C 	0.78467	0.30823	0.67992	-0.264
Mof_C 	C 	0.83112	0.24956	0.6768	0.193
Mof_C 	C 	0.84631	0.21625	0.62564	-0.311
Mof_C 	C 	0.81518	0.24292	0.57757	0.225
Mof_C 	C 	0.76853	0.30109	0.58059	-0.284
Mof_C 	C 	0.89465	0.15193	0.6209	0.574
Mof_C 	C 	0.79464	0.74706	0.74775	0.176
Mof_C 	C 	0.82964	0.83238	0.73275	-0.236
Mof_C 	C 	0.88719	0.89155	0.76831	0.156
Mof_C 	C 	0.9127	0.86704	0.81857	-0.246
Mof_C 	C 	0.88004	0.78144	0.83341	0.166
Mof_C 	C 	0.82169	0.72249	0.7984	-0.243
Mof_C 	C 	0.97667	0.93075	0.85689	0.502
Mof_C 	C 	0.41426	0.7446	0.60344	0.162
Mof_C 	C 	0.41592	0.78806	0.55447	-0.22
Mof_C 	C 	0.36237	0.83891	0.54527	0.131
Mof_C 	C 	0.30903	0.85013	0.58576	-0.211
Mof_C 	C 	0.30805	0.80911	0.63557	0.123
Mof_C 	C 	0.35985	0.75665	0.64424	-0.216
Mof_C 	C 	0.24951	0.90261	0.57574	0.419
Mof_C 	C 	0.46617	0.41097	0.05647	0.161
Mof_C 	C 	0.38271	0.41705	0.05499	-0.179
Mof_C 	C 	0.35783	0.48565	0.07663	0.131
Mof_C 	C 	0.27168	0.49202	0.07501	-0.096
Mof_C 	C 	0.27519	0.57107	0.09508	-0.084
Mof_C 	C 	0.36458	0.61512	0.11069	0.118
Mof_C 	C 	0.39565	0.69917	0.13321	-0.157
Mof_C 	C 	0.47789	0.73603	0.15692	0.141
Mof_C 	C 	0.51143	0.82157	0.18141	-0.098
Mof_C 	C 	0.59058	0.82872	0.20352	-0.092
Mof_C 	C 	0.60903	0.74879	0.19386	0.132
Mof_C 	C 	0.68429	0.72997	0.21062	-0.147
Mof_C 	C 	0.70522	0.65544	0.19461	0.116
Mof_C 	C 	0.78248	0.63478	0.21165	-0.085
Mof_C 	C 	0.78335	0.56269	0.18296	-0.085
Mof_C 	C 	0.70551	0.53655	0.14845	0.113
Mof_C 	C 	0.68282	0.46522	0.11092	-0.148
Mof_C 	C 	0.60407	0.43355	0.08143	0.136
Mof_C 	C 	0.57686	0.35554	0.04787	-0.082
Mof_C 	C 	0.4933	0.34208	0.03281	-0.104
Mof_C 	C 	0.31407	0.34341	0.02793	0.235
Mof_C 	C 	0.30007	0.33849	0.97047	-0.31
Mof_C 	C 	0.23671	0.27091	0.94526	0.242
Mof_C 	C 	0.18497	0.20721	0.97692	-0.376
Mof_C 	C 	0.19945	0.21137	0.03361	0.261
Mof_C 	C 	0.26369	0.27875	0.05869	-0.334
Mof_C 	C 	0.11724	0.1326	0.95153	0.581
Mof_C 	C 	0.33505	0.75295	0.13161	0.195
Mof_C 	C 	0.30823	0.78467	0.17992	-0.262
Mof_C 	C 	0.24956	0.83112	0.1768	0.191
Mof_C 	C 	0.21625	0.84631	0.12564	-0.307
Mof_C 	C 	0.24292	0.81518	0.07757	0.222
Mof_C 	C 	0.30109	0.76853	0.08059	-0.282
Mof_C 	C 	0.15193	0.89465	0.1209	0.571
Mof_C 	C 	0.74706	0.79464	0.24775	0.177
Mof_C 	C 	0.83238	0.82964	0.23275	-0.237
Mof_C 	C 	0.89155	0.88719	0.26831	0.158
Mof_C 	C 	0.86704	0.9127	0.31857	-0.248
Mof_C 	C 	0.78144	0.88004	0.33341	0.168
Mof_C 	C 	0.72249	0.82169	0.2984	-0.244
Mof_C 	C 	0.93075	0.97667	0.35689	0.508
Mof_C 	C 	0.7446	0.41426	0.10344	0.162
Mof_C 	C 	0.78806	0.41592	0.05447	-0.22
Mof_C 	C 	0.83891	0.36237	0.04527	0.131
Mof_C 	C 	0.85013	0.30903	0.08576	-0.211
Mof_C 	C 	0.80911	0.30805	0.13557	0.124
Mof_C 	C 	0.75665	0.35985	0.14424	-0.216
Mof_C 	C 	0.90261	0.24951	0.07574	0.418
Mof_C 	C 	0.58903	0.53383	0.44353	0.161
Mof_C 	C 	0.58295	0.61729	0.44501	-0.181
Mof_C 	C 	0.51435	0.64217	0.42337	0.132
Mof_C 	C 	0.50798	0.72832	0.42499	-0.097
Mof_C 	C 	0.42893	0.72481	0.40492	-0.084
Mof_C 	C 	0.38488	0.63542	0.38931	0.118
Mof_C 	C 	0.30083	0.60435	0.36679	-0.157
Mof_C 	C 	0.26397	0.52211	0.34308	0.141
Mof_C 	C 	0.17843	0.48857	0.31859	-0.098
Mof_C 	C 	0.17128	0.40942	0.29648	-0.092
Mof_C 	C 	0.25121	0.39097	0.30614	0.131
Mof_C 	C 	0.27003	0.31571	0.28938	-0.147
Mof_C 	C 	0.34456	0.29478	0.30539	0.116
Mof_C 	C 	0.36522	0.21752	0.28835	-0.085
Mof_C 	C 	0.43731	0.21665	0.31704	-0.085
Mof_C 	C 	0.46345	0.29449	0.35155	0.113
Mof_C 	C 	0.53478	0.31718	0.38908	-0.148
Mof_C 	C 	0.56645	0.39593	0.41857	0.136
Mof_C 	C 	0.64446	0.42314	0.45213	-0.081
Mof_C 	C 	0.65792	0.5067	0.46719	-0.105
Mof_C 	C 	0.65659	0.68593	0.47207	0.241
Mof_C 	C 	0.66151	0.69993	0.52953	-0.318
Mof_C 	C 	0.72909	0.76329	0.55474	0.249
Mof_C 	C 	0.79279	0.81503	0.52308	-0.386
Mof_C 	C 	0.78863	0.80055	0.46639	0.27
Mof_C 	C 	0.72125	0.73631	0.44131	-0.341
Mof_C 	C 	0.8674	0.88276	0.54847	0.585
Mof_C 	C 	0.24705	0.66495	0.36839	0.196
Mof_C 	C 	0.21533	0.69177	0.32008	-0.264
Mof_C 	C 	0.16888	0.75044	0.3232	0.193
Mof_C 	C 	0.15369	0.78375	0.37436	-0.311
Mof_C 	C 	0.18482	0.75708	0.42243	0.225
Mof_C 	C 	0.23147	0.69891	0.41941	-0.284
Mof_C 	C 	0.10535	0.84807	0.3791	0.574
Mof_C 	C 	0.20536	0.25294	0.25225	0.176
Mof_C 	C 	0.17036	0.16762	0.26725	-0.236
Mof_C 	C 	0.11281	0.10845	0.23169	0.156
Mof_C 	C 	0.0873	0.13296	0.18143	-0.246
Mof_C 	C 	0.11996	0.21856	0.16659	0.166
Mof_C 	C 	0.17831	0.27751	0.2016	-0.243
Mof_C 	C 	0.02333	0.06925	0.14311	0.502
Mof_C 	C 	0.58574	0.2554	0.39656	0.162
Mof_C 	C 	0.58408	0.21194	0.44553	-0.22
Mof_C 	C 	0.63763	0.16109	0.45473	0.131
Mof_C 	C 	0.69097	0.14987	0.41424	-0.211
Mof_C 	C 	0.69195	0.19089	0.36443	0.123
Mof_C 	C 	0.64015	0.24335	0.35576	-0.216
Mof_C 	C 	0.75049	0.09739	0.42426	0.419
Mof_N 	N 	0.58672	0.43962	0.89967	-0.147
Mof_N 	N 	0.46085	0.30495	0.83561	-0.231
Mof_N 	N 	0.34147	0.40739	0.84312	-0.151
Mof_N 	N 	0.46398	0.53378	0.91556	-0.258
Mof_N 	N 	0.56038	0.41328	0.60033	-0.147
Mof_N 	N 	0.69505	0.53915	0.66439	-0.231
Mof_N 	N 	0.59261	0.65853	0.65688	-0.151
Mof_N 	N 	0.46622	0.53602	0.58444	-0.258
Mof_N 	N 	0.41328	0.56038	0.10033	-0.147
Mof_N 	N 	0.53915	0.69505	0.16439	-0.231
Mof_N 	N 	0.65853	0.59261	0.15688	-0.151
Mof_N 	N 	0.53602	0.46622	0.08444	-0.258
Mof_N 	N 	0.43962	0.58672	0.39967	-0.147
Mof_N 	N 	0.30495	0.46085	0.33561	-0.231
Mof_N 	N 	0.40739	0.34147	0.34312	-0.151
Mof_N 	N 	0.53378	0.46398	0.41556	-0.258
Mof_O 	O 	0.92746	0.9247	0.02006	-0.98
Mof_O 	O 	0.89185	0.86767	0.10231	-0.518
Mof_O 	O 	0.87439	0.08549	0.82991	-0.447
Mof_O 	O 	0.87481	0.08607	0.92311	-0.757
Mof_O 	O 	0.98991	0.00595	0.65391	-0.406
Mof_O 	O 	0.0967	0.98944	0.60305	-0.708
Mof_O 	O 	0.07678	0.7705	0.96957	-0.567
Mof_O 	O 	0.07718	0.7828	0.87763	-0.432
Mof_O 	O 	0.0753	0.07254	0.47994	-0.992
Mof_O 	O 	0.13233	0.10815	0.39769	-0.52
Mof_O 	O 	0.91451	0.12561	0.67009	-0.449
Mof_O 	O 	0.91393	0.12519	0.57689	-0.766
Mof_O 	O 	0.99405	0.01009	0.84609	-0.401
Mof_O 	O 	0.01056	0.9033	0.89695	-0.705
Mof_O 	O 	0.2295	0.92322	0.53043	-0.567
Mof_O 	O 	0.2172	0.92282	0.62237	-0.432
Mof_O 	O 	0.07254	0.0753	0.97994	-0.98
Mof_O 	O 	0.10815	0.13233	0.89769	-0.518
Mof_O 	O 	0.12561	0.91451	0.17009	-0.447
Mof_O 	O 	0.12519	0.91393	0.07689	-0.757
Mof_O 	O 	0.01009	0.99405	0.34609	-0.406
Mof_O 	O 	0.9033	0.01056	0.39695	-0.708
Mof_O 	O 	0.92322	0.2295	0.03043	-0.567
Mof_O 	O 	0.92282	0.2172	0.12237	-0.432
Mof_O 	O 	0.9247	0.92746	0.52006	-0.992
Mof_O 	O 	0.86767	0.89185	0.60231	-0.52
Mof_O 	O 	0.08549	0.87439	0.32991	-0.449
Mof_O 	O 	0.08607	0.87481	0.42311	-0.766
Mof_O 	O 	0.00595	0.98991	0.15391	-0.401
Mof_O 	O 	0.98944	0.0967	0.10305	-0.705
Mof_O 	O 	0.7705	0.07678	0.46957	-0.567
Mof_O 	O 	0.7828	0.07718	0.37763	-0.432
_end
