# CIF file generated by openbabel 3.1.0, see https://openbabel.org
data_I
_chemical_name_common 'image0'
_cell_length_a 26.2
_cell_length_b 17.465
_cell_length_c 17.275
_cell_angle_alpha 90
_cell_angle_beta 118.183
_cell_angle_gamma 90
_space_group_name_H-M_alt 'P 1'
_space_group_name_Hall 'P 1'
loop_
    _symmetry_equiv_pos_as_xyz
    x,y,z
loop_
    _atom_site_label
    _atom_site_type_symbol
    _atom_site_fract_x
    _atom_site_fract_y
    _atom_site_fract_z
    _atom_site_occupancy
    Co1      Co       0.17809    0.59423    0.23947    1.000
    O1       O        0.46448    0.45980    0.39810    1.000
    O2       O        0.63522    0.46204    0.36490    1.000
    O3       O        0.61061    0.27100    0.54090    1.000
    O4       O        0.08820    0.60640    0.20210    1.000
    N1       N        0.01430    0.68240    0.20560    1.000
    N2       N        0.00920    0.51480    0.12300    1.000
    N3       N        0.26830    0.57530    0.28040    1.000
    N4       N        0.18950    0.71290    0.27480    1.000
    N5       N        0.15630    0.47640    0.19990    1.000
    C1       C        0.51740    0.43060    0.41460    1.000
    C2       C        0.55190    0.46340    0.38280    1.000
    H1       H        0.54040    0.50880    0.34830    1.000
    C3       C        0.60460    0.42720    0.40330    1.000
    C4       C        0.62300    0.36340    0.45530    1.000
    H2       H        0.65890    0.33980    0.46870    1.000
    C5       C        0.58770    0.33410    0.48800    1.000
    C6       C        0.53480    0.36640    0.46810    1.000
    H3       H        0.51100    0.34520    0.49040    1.000
    C7       C        0.44510    0.52620    0.34590    1.000
    H4       H        0.44690    0.51840    0.29050    1.000
    H5       H        0.47040    0.57000    0.37740    1.000
    C8       C        0.29820    0.52010    0.33780    1.000
    H6       H        0.27920    0.49160    0.36360    1.000
    C9       C        0.35510    0.50240    0.36150    1.000
    H7       H        0.37420    0.46220    0.40220    1.000
    C10      C        0.38400    0.54320    0.32590    1.000
    C11      C        0.35390    0.60170    0.26870    1.000
    H8       H        0.37220    0.63180    0.24320    1.000
    C12      C        0.29740    0.61660    0.24850    1.000
    H9       H        0.27810    0.65810    0.21020    1.000
    C13      C        0.69160    0.43230    0.38910    1.000
    H10      H        0.71300    0.42640    0.45370    1.000
    H11      H        0.71290    0.46980    0.37220    1.000
    C14      C        0.14820    0.76470    0.23180    1.000
    H12      H        0.11770    0.75180    0.17540    1.000
    C15      C        0.14760    0.83680    0.26590    1.000
    H13      H        0.11750    0.87210    0.23290    1.000
    C16      C        0.69060    0.35630    0.34700    1.000
    C17      C        0.73430    0.30370    0.39090    1.000
    H14      H        0.76560    0.31590    0.44680    1.000
    C18      C        0.23230    0.73320    0.35300    1.000
    H15      H        0.26270    0.69770    0.38410    1.000
    C19      C        0.57800    0.23860    0.58040    1.000
    H16      H        0.57720    0.27440    0.62430    1.000
    H17      H        0.53760    0.22850    0.53510    1.000
    C20      C        0.12740    0.43300    0.23080    1.000
    H18      H        0.12340    0.45120    0.27950    1.000
    C21      C        0.10330    0.36290    0.19450    1.000
    H19      H        0.08370    0.33410    0.21920    1.000
    C22      C        0.60720    0.16530    0.62380    1.000
    C23      C        0.63830    0.12190    0.59340    1.000
    H20      H        0.64330    0.13950    0.54530    1.000
    C24      C        0.16190    0.44680    0.13320    1.000
    H21      H        0.18360    0.47490    0.11160    1.000
    C25      C        0.06780    0.66380    0.23910    1.000
    H22      H        0.09500    0.68940    0.29080    1.000
    C26      C        0.05100    0.56060    0.12530    1.000
    H23      H        0.05660    0.56340    0.07490    1.000
    C27      C        0.97430    0.65090    0.11650    1.000
    H24      H        0.99360    0.65190    0.07980    1.000
    H25      H        0.93910    0.68210    0.08910    1.000
    H26      H        0.96410    0.59800    0.12230    1.000
    C28      C        0.00120    0.49740    0.19840    1.000
    H27      H        0.03460    0.51580    0.25180    1.000
    H28      H        0.99740    0.44190    0.20240    1.000
    H29      H        0.96600    0.52270    0.19200    1.000
    H30      H        0.02510    0.73160    0.31340    1.000
    H31      H        0.95950    0.73080    0.23650    1.000
    H32      H        0.00530    0.78850    0.23150    1.000
    C29      C        0.97140    0.47390    0.04220    1.000
    H33      H        0.98300    0.48530    0.99720    1.000
    H34      H        0.93130    0.49020    0.02150    1.000
    H35      H        0.97460    0.41870    0.05380    1.000
    Co2      Co       0.67809    0.09423    0.23947    1.000
    O5       O        0.96448    0.95980    0.39810    1.000
    O6       O        0.13522    0.96204    0.36490    1.000
    O7       O        0.11061    0.77100    0.54090    1.000
    O8       O        0.58820    0.10640    0.20210    1.000
    N6       N        0.51430    0.18240    0.20560    1.000
    N7       N        0.50920    0.01480    0.12300    1.000
    N8       N        0.76830    0.07530    0.28040    1.000
    N9       N        0.68950    0.21290    0.27480    1.000
    N10      N        0.65630    0.97640    0.19990    1.000
    C30      C        0.01740    0.93060    0.41460    1.000
    C31      C        0.05190    0.96340    0.38280    1.000
    H36      H        0.04040    0.00880    0.34830    1.000
    C32      C        0.10460    0.92720    0.40330    1.000
    C33      C        0.12300    0.86340    0.45530    1.000
    H37      H        0.15890    0.83980    0.46870    1.000
    C34      C        0.08770    0.83410    0.48800    1.000
    C35      C        0.03480    0.86640    0.46810    1.000
    H38      H        0.01100    0.84520    0.49040    1.000
    C36      C        0.94510    0.02620    0.34590    1.000
    H39      H        0.94690    0.01840    0.29050    1.000
    H40      H        0.97040    0.07000    0.37740    1.000
    C37      C        0.79820    0.02010    0.33780    1.000
    H41      H        0.77920    0.99160    0.36360    1.000
    C38      C        0.85510    0.00240    0.36150    1.000
    H42      H        0.87420    0.96220    0.40220    1.000
    C39      C        0.88400    0.04320    0.32590    1.000
    C40      C        0.85390    0.10170    0.26870    1.000
    H43      H        0.87220    0.13180    0.24320    1.000
    C41      C        0.79740    0.11660    0.24850    1.000
    H44      H        0.77810    0.15810    0.21020    1.000
    C42      C        0.19160    0.93230    0.38910    1.000
    H45      H        0.21300    0.92640    0.45370    1.000
    H46      H        0.21290    0.96980    0.37220    1.000
    C43      C        0.64820    0.26470    0.23180    1.000
    H47      H        0.61770    0.25180    0.17540    1.000
    C44      C        0.64760    0.33680    0.26590    1.000
    H48      H        0.61750    0.37210    0.23290    1.000
    C45      C        0.19060    0.85630    0.34700    1.000
    C46      C        0.23430    0.80370    0.39090    1.000
    H49      H        0.26560    0.81590    0.44680    1.000
    C47      C        0.73230    0.23320    0.35300    1.000
    H50      H        0.76270    0.19770    0.38410    1.000
    C48      C        0.07800    0.73860    0.58040    1.000
    H51      H        0.07720    0.77440    0.62430    1.000
    H52      H        0.03760    0.72850    0.53510    1.000
    C49      C        0.62740    0.93300    0.23080    1.000
    H53      H        0.62340    0.95120    0.27950    1.000
    C50      C        0.60330    0.86290    0.19450    1.000
    H54      H        0.58370    0.83410    0.21920    1.000
    C51      C        0.10720    0.66530    0.62380    1.000
    C52      C        0.13830    0.62190    0.59340    1.000
    H55      H        0.14330    0.63950    0.54530    1.000
    C53      C        0.66190    0.94680    0.13320    1.000
    H56      H        0.68360    0.97490    0.11160    1.000
    C54      C        0.56780    0.16380    0.23910    1.000
    H57      H        0.59500    0.18940    0.29080    1.000
    C55      C        0.55100    0.06060    0.12530    1.000
    H58      H        0.55660    0.06340    0.07490    1.000
    C56      C        0.47430    0.15090    0.11650    1.000
    H59      H        0.49360    0.15190    0.07980    1.000
    H60      H        0.43910    0.18210    0.08910    1.000
    H61      H        0.46410    0.09800    0.12230    1.000
    C57      C        0.50120    0.99740    0.19840    1.000
    H62      H        0.53460    0.01580    0.25180    1.000
    H63      H        0.49740    0.94190    0.20240    1.000
    H64      H        0.46600    0.02270    0.19200    1.000
    H65      H        0.52510    0.23160    0.31340    1.000
    H66      H        0.45950    0.23080    0.23650    1.000
    H67      H        0.50530    0.28850    0.23150    1.000
    C58      C        0.47140    0.97390    0.04220    1.000
    H68      H        0.48300    0.98530    0.99720    1.000
    H69      H        0.43130    0.99020    0.02150    1.000
    H70      H        0.47460    0.91870    0.05380    1.000
    Co3      Co       0.82191    0.59423    0.26053    1.000
    O9       O        0.53552    0.45980    0.10190    1.000
    O10      O        0.36478    0.46204    0.13510    1.000
    O11      O        0.38939    0.27100    0.95910    1.000
    O12      O        0.91180    0.60640    0.29790    1.000
    N11      N        0.98570    0.68240    0.29440    1.000
    N12      N        0.99080    0.51480    0.37700    1.000
    N13      N        0.73170    0.57530    0.21960    1.000
    N14      N        0.81050    0.71290    0.22520    1.000
    N15      N        0.84370    0.47640    0.30010    1.000
    C59      C        0.48260    0.43060    0.08540    1.000
    C60      C        0.44810    0.46340    0.11720    1.000
    H71      H        0.45960    0.50880    0.15170    1.000
    C61      C        0.39540    0.42720    0.09670    1.000
    C62      C        0.37700    0.36340    0.04470    1.000
    H72      H        0.34110    0.33980    0.03130    1.000
    C63      C        0.41230    0.33410    0.01200    1.000
    C64      C        0.46520    0.36640    0.03190    1.000
    H73      H        0.48900    0.34520    0.00960    1.000
    C65      C        0.55490    0.52620    0.15410    1.000
    H74      H        0.55310    0.51840    0.20950    1.000
    H75      H        0.52960    0.57000    0.12260    1.000
    C66      C        0.70180    0.52010    0.16220    1.000
    H76      H        0.72080    0.49160    0.13640    1.000
    C67      C        0.64490    0.50240    0.13850    1.000
    H77      H        0.62580    0.46220    0.09780    1.000
    C68      C        0.61600    0.54320    0.17410    1.000
    C69      C        0.64610    0.60170    0.23130    1.000
    H78      H        0.62780    0.63180    0.25680    1.000
    C70      C        0.70260    0.61660    0.25150    1.000
    H79      H        0.72190    0.65810    0.28980    1.000
    C71      C        0.30840    0.43230    0.11090    1.000
    H80      H        0.28700    0.42640    0.04630    1.000
    H81      H        0.28710    0.46980    0.12780    1.000
    C72      C        0.85180    0.76470    0.26820    1.000
    H82      H        0.88230    0.75180    0.32460    1.000
    C73      C        0.85240    0.83680    0.23410    1.000
    H83      H        0.88250    0.87210    0.26710    1.000
    C74      C        0.30940    0.35630    0.15300    1.000
    C75      C        0.26570    0.30370    0.10910    1.000
    H84      H        0.23440    0.31590    0.05320    1.000
    C76      C        0.76770    0.73320    0.14700    1.000
    H85      H        0.73730    0.69770    0.11590    1.000
    C77      C        0.42200    0.23860    0.91960    1.000
    H86      H        0.42280    0.27440    0.87570    1.000
    H87      H        0.46240    0.22850    0.96490    1.000
    C78      C        0.87260    0.43300    0.26920    1.000
    H88      H        0.87660    0.45120    0.22050    1.000
    C79      C        0.89670    0.36290    0.30550    1.000
    H89      H        0.91630    0.33410    0.28080    1.000
    C80      C        0.39280    0.16530    0.87620    1.000
    C81      C        0.36170    0.12190    0.90660    1.000
    H90      H        0.35670    0.13950    0.95470    1.000
    C82      C        0.83810    0.44680    0.36680    1.000
    H91      H        0.81640    0.47490    0.38840    1.000
    C83      C        0.93220    0.66380    0.26090    1.000
    H92      H        0.90500    0.68940    0.20920    1.000
    C84      C        0.94900    0.56060    0.37470    1.000
    H93      H        0.94340    0.56340    0.42510    1.000
    C85      C        0.02570    0.65090    0.38350    1.000
    H94      H        0.00640    0.65190    0.42020    1.000
    H95      H        0.06090    0.68210    0.41090    1.000
    H96      H        0.03590    0.59800    0.37770    1.000
    C86      C        0.99880    0.49740    0.30160    1.000
    H97      H        0.96540    0.51580    0.24820    1.000
    H98      H        0.00260    0.44190    0.29760    1.000
    H99      H        0.03400    0.52270    0.30800    1.000
    H100     H        0.97490    0.73160    0.18660    1.000
    H101     H        0.04050    0.73080    0.26350    1.000
    H102     H        0.99470    0.78850    0.26850    1.000
    C87      C        0.02860    0.47390    0.45780    1.000
    H103     H        0.01700    0.48530    0.50280    1.000
    H104     H        0.06870    0.49020    0.47850    1.000
    H105     H        0.02540    0.41870    0.44620    1.000
    Co4      Co       0.32191    0.09423    0.26053    1.000
    O13      O        0.03552    0.95980    0.10190    1.000
    O14      O        0.86478    0.96204    0.13510    1.000
    O15      O        0.88939    0.77100    0.95910    1.000
    O16      O        0.41180    0.10640    0.29790    1.000
    N16      N        0.48570    0.18240    0.29440    1.000
    N17      N        0.49080    0.01480    0.37700    1.000
    N18      N        0.23170    0.07530    0.21960    1.000
    N19      N        0.31050    0.21290    0.22520    1.000
    N20      N        0.34370    0.97640    0.30010    1.000
    C88      C        0.98260    0.93060    0.08540    1.000
    C89      C        0.94810    0.96340    0.11720    1.000
    H106     H        0.95960    0.00880    0.15170    1.000
    C90      C        0.89540    0.92720    0.09670    1.000
    C91      C        0.87700    0.86340    0.04470    1.000
    H107     H        0.84110    0.83980    0.03130    1.000
    C92      C        0.91230    0.83410    0.01200    1.000
    C93      C        0.96520    0.86640    0.03190    1.000
    H108     H        0.98900    0.84520    0.00960    1.000
    C94      C        0.05490    0.02620    0.15410    1.000
    H109     H        0.05310    0.01840    0.20950    1.000
    H110     H        0.02960    0.07000    0.12260    1.000
    C95      C        0.20180    0.02010    0.16220    1.000
    H111     H        0.22080    0.99160    0.13640    1.000
    C96      C        0.14490    0.00240    0.13850    1.000
    H112     H        0.12580    0.96220    0.09780    1.000
    C97      C        0.11600    0.04320    0.17410    1.000
    C98      C        0.14610    0.10170    0.23130    1.000
    H113     H        0.12780    0.13180    0.25680    1.000
    C99      C        0.20260    0.11660    0.25150    1.000
    H114     H        0.22190    0.15810    0.28980    1.000
    C100     C        0.80840    0.93230    0.11090    1.000
    H115     H        0.78700    0.92640    0.04630    1.000
    H116     H        0.78710    0.96980    0.12780    1.000
    C101     C        0.35180    0.26470    0.26820    1.000
    H117     H        0.38230    0.25180    0.32460    1.000
    C102     C        0.35240    0.33680    0.23410    1.000
    H118     H        0.38250    0.37210    0.26710    1.000
    C103     C        0.80940    0.85630    0.15300    1.000
    C104     C        0.76570    0.80370    0.10910    1.000
    H119     H        0.73440    0.81590    0.05320    1.000
    C105     C        0.26770    0.23320    0.14700    1.000
    H120     H        0.23730    0.19770    0.11590    1.000
    C106     C        0.92200    0.73860    0.91960    1.000
    H121     H        0.92280    0.77440    0.87570    1.000
    H122     H        0.96240    0.72850    0.96490    1.000
    C107     C        0.37260    0.93300    0.26920    1.000
    H123     H        0.37660    0.95120    0.22050    1.000
    C108     C        0.39670    0.86290    0.30550    1.000
    H124     H        0.41630    0.83410    0.28080    1.000
    C109     C        0.89280    0.66530    0.87620    1.000
    C110     C        0.86170    0.62190    0.90660    1.000
    H125     H        0.85670    0.63950    0.95470    1.000
    C111     C        0.33810    0.94680    0.36680    1.000
    H126     H        0.31640    0.97490    0.38840    1.000
    C112     C        0.43220    0.16380    0.26090    1.000
    H127     H        0.40500    0.18940    0.20920    1.000
    C113     C        0.44900    0.06060    0.37470    1.000
    H128     H        0.44340    0.06340    0.42510    1.000
    C114     C        0.52570    0.15090    0.38350    1.000
    H129     H        0.50640    0.15190    0.42020    1.000
    H130     H        0.56090    0.18210    0.41090    1.000
    H131     H        0.53590    0.09800    0.37770    1.000
    C115     C        0.49880    0.99740    0.30160    1.000
    H132     H        0.46540    0.01580    0.24820    1.000
    H133     H        0.50260    0.94190    0.29760    1.000
    H134     H        0.53400    0.02270    0.30800    1.000
    H135     H        0.47490    0.23160    0.18660    1.000
    H136     H        0.54050    0.23080    0.26350    1.000
    H137     H        0.49470    0.28850    0.26850    1.000
    C116     C        0.52860    0.97390    0.45780    1.000
    H138     H        0.51700    0.98530    0.50280    1.000
    H139     H        0.56870    0.99020    0.47850    1.000
    H140     H        0.52540    0.91870    0.44620    1.000
    Co5      Co       0.82191    0.40577    0.76053    1.000
    O17      O        0.53552    0.54020    0.60190    1.000
    O18      O        0.36478    0.53796    0.63510    1.000
    O19      O        0.38939    0.72900    0.45910    1.000
    O20      O        0.91180    0.39360    0.79790    1.000
    N21      N        0.98570    0.31760    0.79440    1.000
    N22      N        0.99080    0.48520    0.87700    1.000
    N23      N        0.73170    0.42470    0.71960    1.000
    N24      N        0.81050    0.28710    0.72520    1.000
    N25      N        0.84370    0.52360    0.80010    1.000
    C117     C        0.48260    0.56940    0.58540    1.000
    C118     C        0.44810    0.53660    0.61720    1.000
    H141     H        0.45960    0.49120    0.65170    1.000
    C119     C        0.39540    0.57280    0.59670    1.000
    C120     C        0.37700    0.63660    0.54470    1.000
    H142     H        0.34110    0.66020    0.53130    1.000
    C121     C        0.41230    0.66590    0.51200    1.000
    C122     C        0.46520    0.63360    0.53190    1.000
    H143     H        0.48900    0.65480    0.50960    1.000
    C123     C        0.55490    0.47380    0.65410    1.000
    H144     H        0.55310    0.48160    0.70950    1.000
    H145     H        0.52960    0.43000    0.62260    1.000
    C124     C        0.70180    0.47990    0.66220    1.000
    H146     H        0.72080    0.50840    0.63640    1.000
    C125     C        0.64490    0.49760    0.63850    1.000
    H147     H        0.62580    0.53780    0.59780    1.000
    C126     C        0.61600    0.45680    0.67410    1.000
    C127     C        0.64610    0.39830    0.73130    1.000
    H148     H        0.62780    0.36820    0.75680    1.000
    C128     C        0.70260    0.38340    0.75150    1.000
    H149     H        0.72190    0.34190    0.78980    1.000
    C129     C        0.30840    0.56770    0.61090    1.000
    H150     H        0.28700    0.57360    0.54630    1.000
    H151     H        0.28710    0.53020    0.62780    1.000
    C130     C        0.85180    0.23530    0.76820    1.000
    H152     H        0.88230    0.24820    0.82460    1.000
    C131     C        0.85240    0.16320    0.73410    1.000
    H153     H        0.88250    0.12790    0.76710    1.000
    C132     C        0.30940    0.64370    0.65300    1.000
    C133     C        0.26570    0.69630    0.60910    1.000
    H154     H        0.23440    0.68410    0.55320    1.000
    C134     C        0.76770    0.26680    0.64700    1.000
    H155     H        0.73730    0.30230    0.61590    1.000
    C135     C        0.42200    0.76140    0.41960    1.000
    H156     H        0.42280    0.72560    0.37570    1.000
    H157     H        0.46240    0.77150    0.46490    1.000
    C136     C        0.87260    0.56700    0.76920    1.000
    H158     H        0.87660    0.54880    0.72050    1.000
    C137     C        0.89670    0.63710    0.80550    1.000
    H159     H        0.91630    0.66590    0.78080    1.000
    C138     C        0.39280    0.83470    0.37620    1.000
    C139     C        0.36170    0.87810    0.40660    1.000
    H160     H        0.35670    0.86050    0.45470    1.000
    C140     C        0.83810    0.55320    0.86680    1.000
    H161     H        0.81640    0.52510    0.88840    1.000
    C141     C        0.93220    0.33620    0.76090    1.000
    H162     H        0.90500    0.31060    0.70920    1.000
    C142     C        0.94900    0.43940    0.87470    1.000
    H163     H        0.94340    0.43660    0.92510    1.000
    C143     C        0.02570    0.34910    0.88350    1.000
    H164     H        0.00640    0.34810    0.92020    1.000
    H165     H        0.06090    0.31790    0.91090    1.000
    H166     H        0.03590    0.40200    0.87770    1.000
    C144     C        0.99880    0.50260    0.80160    1.000
    H167     H        0.96540    0.48420    0.74820    1.000
    H168     H        0.00260    0.55810    0.79760    1.000
    H169     H        0.03400    0.47730    0.80800    1.000
    H170     H        0.97490    0.26840    0.68660    1.000
    H171     H        0.04050    0.26920    0.76350    1.000
    H172     H        0.99470    0.21150    0.76850    1.000
    C145     C        0.02860    0.52610    0.95780    1.000
    H173     H        0.01700    0.51470    0.00280    1.000
    H174     H        0.06870    0.50980    0.97850    1.000
    H175     H        0.02540    0.58130    0.94620    1.000
    Co6      Co       0.32191    0.90577    0.76053    1.000
    O21      O        0.03552    0.04020    0.60190    1.000
    O22      O        0.86478    0.03796    0.63510    1.000
    O23      O        0.88939    0.22900    0.45910    1.000
    O24      O        0.41180    0.89360    0.79790    1.000
    N26      N        0.48570    0.81760    0.79440    1.000
    N27      N        0.49080    0.98520    0.87700    1.000
    N28      N        0.23170    0.92470    0.71960    1.000
    N29      N        0.31050    0.78710    0.72520    1.000
    N30      N        0.34370    0.02360    0.80010    1.000
    C146     C        0.98260    0.06940    0.58540    1.000
    C147     C        0.94810    0.03660    0.61720    1.000
    H176     H        0.95960    0.99120    0.65170    1.000
    C148     C        0.89540    0.07280    0.59670    1.000
    C149     C        0.87700    0.13660    0.54470    1.000
    H177     H        0.84110    0.16020    0.53130    1.000
    C150     C        0.91230    0.16590    0.51200    1.000
    C151     C        0.96520    0.13360    0.53190    1.000
    H178     H        0.98900    0.15480    0.50960    1.000
    C152     C        0.05490    0.97380    0.65410    1.000
    H179     H        0.05310    0.98160    0.70950    1.000
    H180     H        0.02960    0.93000    0.62260    1.000
    C153     C        0.20180    0.97990    0.66220    1.000
    H181     H        0.22080    0.00840    0.63640    1.000
    C154     C        0.14490    0.99760    0.63850    1.000
    H182     H        0.12580    0.03780    0.59780    1.000
    C155     C        0.11600    0.95680    0.67410    1.000
    C156     C        0.14610    0.89830    0.73130    1.000
    H183     H        0.12780    0.86820    0.75680    1.000
    C157     C        0.20260    0.88340    0.75150    1.000
    H184     H        0.22190    0.84190    0.78980    1.000
    C158     C        0.80840    0.06770    0.61090    1.000
    H185     H        0.78700    0.07360    0.54630    1.000
    H186     H        0.78710    0.03020    0.62780    1.000
    C159     C        0.35180    0.73530    0.76820    1.000
    H187     H        0.38230    0.74820    0.82460    1.000
    C160     C        0.35240    0.66320    0.73410    1.000
    H188     H        0.38250    0.62790    0.76710    1.000
    C161     C        0.80940    0.14370    0.65300    1.000
    C162     C        0.76570    0.19630    0.60910    1.000
    H189     H        0.73440    0.18410    0.55320    1.000
    C163     C        0.26770    0.76680    0.64700    1.000
    H190     H        0.23730    0.80230    0.61590    1.000
    C164     C        0.92200    0.26140    0.41960    1.000
    H191     H        0.92280    0.22560    0.37570    1.000
    H192     H        0.96240    0.27150    0.46490    1.000
    C165     C        0.37260    0.06700    0.76920    1.000
    H193     H        0.37660    0.04880    0.72050    1.000
    C166     C        0.39670    0.13710    0.80550    1.000
    H194     H        0.41630    0.16590    0.78080    1.000
    C167     C        0.89280    0.33470    0.37620    1.000
    C168     C        0.86170    0.37810    0.40660    1.000
    H195     H        0.85670    0.36050    0.45470    1.000
    C169     C        0.33810    0.05320    0.86680    1.000
    H196     H        0.31640    0.02510    0.88840    1.000
    C170     C        0.43220    0.83620    0.76090    1.000
    H197     H        0.40500    0.81060    0.70920    1.000
    C171     C        0.44900    0.93940    0.87470    1.000
    H198     H        0.44340    0.93660    0.92510    1.000
    C172     C        0.52570    0.84910    0.88350    1.000
    H199     H        0.50640    0.84810    0.92020    1.000
    H200     H        0.56090    0.81790    0.91090    1.000
    H201     H        0.53590    0.90200    0.87770    1.000
    C173     C        0.49880    0.00260    0.80160    1.000
    H202     H        0.46540    0.98420    0.74820    1.000
    H203     H        0.50260    0.05810    0.79760    1.000
    H204     H        0.53400    0.97730    0.80800    1.000
    H205     H        0.47490    0.76840    0.68660    1.000
    H206     H        0.54050    0.76920    0.76350    1.000
    H207     H        0.49470    0.71150    0.76850    1.000
    C174     C        0.52860    0.02610    0.95780    1.000
    H208     H        0.51700    0.01470    0.00280    1.000
    H209     H        0.56870    0.00980    0.97850    1.000
    H210     H        0.52540    0.08130    0.94620    1.000
    Co7      Co       0.17809    0.40577    0.73947    1.000
    O25      O        0.46448    0.54020    0.89810    1.000
    O26      O        0.63522    0.53796    0.86490    1.000
    O27      O        0.61061    0.72900    0.04090    1.000
    O28      O        0.08820    0.39360    0.70210    1.000
    N31      N        0.01430    0.31760    0.70560    1.000
    N32      N        0.00920    0.48520    0.62300    1.000
    N33      N        0.26830    0.42470    0.78040    1.000
    N34      N        0.18950    0.28710    0.77480    1.000
    N35      N        0.15630    0.52360    0.69990    1.000
    C175     C        0.51740    0.56940    0.91460    1.000
    C176     C        0.55190    0.53660    0.88280    1.000
    H211     H        0.54040    0.49120    0.84830    1.000
    C177     C        0.60460    0.57280    0.90330    1.000
    C178     C        0.62300    0.63660    0.95530    1.000
    H212     H        0.65890    0.66020    0.96870    1.000
    C179     C        0.58770    0.66590    0.98800    1.000
    C180     C        0.53480    0.63360    0.96810    1.000
    H213     H        0.51100    0.65480    0.99040    1.000
    C181     C        0.44510    0.47380    0.84590    1.000
    H214     H        0.44690    0.48160    0.79050    1.000
    H215     H        0.47040    0.43000    0.87740    1.000
    C182     C        0.29820    0.47990    0.83780    1.000
    H216     H        0.27920    0.50840    0.86360    1.000
    C183     C        0.35510    0.49760    0.86150    1.000
    H217     H        0.37420    0.53780    0.90220    1.000
    C184     C        0.38400    0.45680    0.82590    1.000
    C185     C        0.35390    0.39830    0.76870    1.000
    H218     H        0.37220    0.36820    0.74320    1.000
    C186     C        0.29740    0.38340    0.74850    1.000
    H219     H        0.27810    0.34190    0.71020    1.000
    C187     C        0.69160    0.56770    0.88910    1.000
    H220     H        0.71300    0.57360    0.95370    1.000
    H221     H        0.71290    0.53020    0.87220    1.000
    C188     C        0.14820    0.23530    0.73180    1.000
    H222     H        0.11770    0.24820    0.67540    1.000
    C189     C        0.14760    0.16320    0.76590    1.000
    H223     H        0.11750    0.12790    0.73290    1.000
    C190     C        0.69060    0.64370    0.84700    1.000
    C191     C        0.73430    0.69630    0.89090    1.000
    H224     H        0.76560    0.68410    0.94680    1.000
    C192     C        0.23230    0.26680    0.85300    1.000
    H225     H        0.26270    0.30230    0.88410    1.000
    C193     C        0.57800    0.76140    0.08040    1.000
    H226     H        0.57720    0.72560    0.12430    1.000
    H227     H        0.53760    0.77150    0.03510    1.000
    C194     C        0.12740    0.56700    0.73080    1.000
    H228     H        0.12340    0.54880    0.77950    1.000
    C195     C        0.10330    0.63710    0.69450    1.000
    H229     H        0.08370    0.66590    0.71920    1.000
    C196     C        0.60720    0.83470    0.12380    1.000
    C197     C        0.63830    0.87810    0.09340    1.000
    H230     H        0.64330    0.86050    0.04530    1.000
    C198     C        0.16190    0.55320    0.63320    1.000
    H231     H        0.18360    0.52510    0.61160    1.000
    C199     C        0.06780    0.33620    0.73910    1.000
    H232     H        0.09500    0.31060    0.79080    1.000
    C200     C        0.05100    0.43940    0.62530    1.000
    H233     H        0.05660    0.43660    0.57490    1.000
    C201     C        0.97430    0.34910    0.61650    1.000
    H234     H        0.99360    0.34810    0.57980    1.000
    H235     H        0.93910    0.31790    0.58910    1.000
    H236     H        0.96410    0.40200    0.62230    1.000
    C202     C        0.00120    0.50260    0.69840    1.000
    H237     H        0.03460    0.48420    0.75180    1.000
    H238     H        0.99740    0.55810    0.70240    1.000
    H239     H        0.96600    0.47730    0.69200    1.000
    H240     H        0.02510    0.26840    0.81340    1.000
    H241     H        0.95950    0.26920    0.73650    1.000
    H242     H        0.00530    0.21150    0.73150    1.000
    C203     C        0.97140    0.52610    0.54220    1.000
    H243     H        0.98300    0.51470    0.49720    1.000
    H244     H        0.93130    0.50980    0.52150    1.000
    H245     H        0.97460    0.58130    0.55380    1.000
    Co8      Co       0.67809    0.90577    0.73947    1.000
    O29      O        0.96448    0.04020    0.89810    1.000
    O30      O        0.13522    0.03796    0.86490    1.000
    O31      O        0.11061    0.22900    0.04090    1.000
    O32      O        0.58820    0.89360    0.70210    1.000
    N36      N        0.51430    0.81760    0.70560    1.000
    N37      N        0.50920    0.98520    0.62300    1.000
    N38      N        0.76830    0.92470    0.78040    1.000
    N39      N        0.68950    0.78710    0.77480    1.000
    N40      N        0.65630    0.02360    0.69990    1.000
    C204     C        0.01740    0.06940    0.91460    1.000
    C205     C        0.05190    0.03660    0.88280    1.000
    H246     H        0.04040    0.99120    0.84830    1.000
    C206     C        0.10460    0.07280    0.90330    1.000
    C207     C        0.12300    0.13660    0.95530    1.000
    H247     H        0.15890    0.16020    0.96870    1.000
    C208     C        0.08770    0.16590    0.98800    1.000
    C209     C        0.03480    0.13360    0.96810    1.000
    H248     H        0.01100    0.15480    0.99040    1.000
    C210     C        0.94510    0.97380    0.84590    1.000
    H249     H        0.94690    0.98160    0.79050    1.000
    H250     H        0.97040    0.93000    0.87740    1.000
    C211     C        0.79820    0.97990    0.83780    1.000
    H251     H        0.77920    0.00840    0.86360    1.000
    C212     C        0.85510    0.99760    0.86150    1.000
    H252     H        0.87420    0.03780    0.90220    1.000
    C213     C        0.88400    0.95680    0.82590    1.000
    C214     C        0.85390    0.89830    0.76870    1.000
    H253     H        0.87220    0.86820    0.74320    1.000
    C215     C        0.79740    0.88340    0.74850    1.000
    H254     H        0.77810    0.84190    0.71020    1.000
    C216     C        0.19160    0.06770    0.88910    1.000
    H255     H        0.21300    0.07360    0.95370    1.000
    H256     H        0.21290    0.03020    0.87220    1.000
    C217     C        0.64820    0.73530    0.73180    1.000
    H257     H        0.61770    0.74820    0.67540    1.000
    C218     C        0.64760    0.66320    0.76590    1.000
    H258     H        0.61750    0.62790    0.73290    1.000
    C219     C        0.19060    0.14370    0.84700    1.000
    C220     C        0.23430    0.19630    0.89090    1.000
    H259     H        0.26560    0.18410    0.94680    1.000
    C221     C        0.73230    0.76680    0.85300    1.000
    H260     H        0.76270    0.80230    0.88410    1.000
    C222     C        0.07800    0.26140    0.08040    1.000
    H261     H        0.07720    0.22560    0.12430    1.000
    H262     H        0.03760    0.27150    0.03510    1.000
    C223     C        0.62740    0.06700    0.73080    1.000
    H263     H        0.62340    0.04880    0.77950    1.000
    C224     C        0.60330    0.13710    0.69450    1.000
    H264     H        0.58370    0.16590    0.71920    1.000
    C225     C        0.10720    0.33470    0.12380    1.000
    C226     C        0.13830    0.37810    0.09340    1.000
    H265     H        0.14330    0.36050    0.04530    1.000
    C227     C        0.66190    0.05320    0.63320    1.000
    H266     H        0.68360    0.02510    0.61160    1.000
    C228     C        0.56780    0.83620    0.73910    1.000
    H267     H        0.59500    0.81060    0.79080    1.000
    C229     C        0.55100    0.93940    0.62530    1.000
    H268     H        0.55660    0.93660    0.57490    1.000
    C230     C        0.47430    0.84910    0.61650    1.000
    H269     H        0.49360    0.84810    0.57980    1.000
    H270     H        0.43910    0.81790    0.58910    1.000
    H271     H        0.46410    0.90200    0.62230    1.000
    C231     C        0.50120    0.00260    0.69840    1.000
    H272     H        0.53460    0.98420    0.75180    1.000
    H273     H        0.49740    0.05810    0.70240    1.000
    H274     H        0.46600    0.97730    0.69200    1.000
    H275     H        0.52510    0.76840    0.81340    1.000
    H276     H        0.45950    0.76920    0.73650    1.000
    H277     H        0.50530    0.71150    0.73150    1.000
    C232     C        0.47140    0.02610    0.54220    1.000
    H278     H        0.48300    0.01470    0.49720    1.000
    H279     H        0.43130    0.00980    0.52150    1.000
    H280     H        0.47460    0.08130    0.55380    1.000
    C233     C        0.00000    0.73730    0.25000    1.000
    C234     C        0.50000    0.23730    0.25000    1.000
    C235     C        0.00000    0.26270    0.75000    1.000
    C236     C        0.50000    0.76270    0.75000    1.000
