data_functionalizedCrystal
_audit_creation_method	'EQeq! by Chris Wilmer'
_symmetry_space_group_name_H-M	'P1'
_symmetry_Int_Tables_number	1
_symmetry_cell_setting	triclinic
loop_
_symmetry_equiv_pos_as_xyz
  x,y,z
_cell_length_a	30.2612
_cell_length_b	30.2612
_cell_length_c	30.2612
_cell_angle_alpha	60
_cell_angle_beta	60
_cell_angle_gamma	60
loop_
_atom_site_label
_atom_site_type_symbol
_atom_site_fract_x
_atom_site_fract_y
_atom_site_fract_z
_atom_site_charge
Mof_Cu	Cu	0.26265	4.64148e-17	0.73735	0.856
Mof_Cu	Cu	-0	0.26265	-0	0.801
Mof_Cu	Cu	0.73735	0	0.26265	0.856
Mof_Cu	Cu	4.64148e-17	0.73735	-0	0.808
Mof_Cu	Cu	0.26265	0.73735	-0	0.856
Mof_Cu	Cu	4.64148e-17	4.64148e-17	0.73735	0.808
Mof_Cu	Cu	0.73735	0.26265	-0	0.856
Mof_Cu	Cu	1.16037e-17	0	0.26265	0.801
Mof_Cu	Cu	0.26265	0	-0	0.801
Mof_Cu	Cu	1.16037e-17	0.73735	0.26265	0.856
Mof_Cu	Cu	0.73735	0	-0	0.808
Mof_Cu	Cu	-0	0.26265	0.73735	0.856
Mof_Cu	Cu	-0	0	0.64979	0.798
Mof_Cu	Cu	-3.48111e-17	0	0.35021	0.797
Mof_Cu	Cu	0.64979	0.35021	-0	0.849
Mof_Cu	Cu	0.35021	0.64979	-0	0.848
Mof_Cu	Cu	-8.12259e-17	0.64979	0.35021	0.848
Mof_Cu	Cu	-0	0.35021	0.64979	0.848
Mof_Cu	Cu	0.64979	0	-0	0.797
Mof_Cu	Cu	0.35021	0	-0	0.796
Mof_Cu	Cu	-2.32074e-17	0.35021	-0	0.796
Mof_Cu	Cu	-9.28297e-17	0.64979	-0	0.797
Mof_Cu	Cu	0.64979	0	0.35021	0.848
Mof_Cu	Cu	0.35021	0	0.64979	0.848
Mof_H 	H 	0.5583	0.9685	0.1699	0.071
Mof_H 	H 	0.9685	0.5583	0.3033	0.078
Mof_H 	H 	0.1699	0.3033	0.5583	0.047
Mof_H 	H 	0.3033	0.1699	0.9685	0.067
Mof_H 	H 	0.5583	0.1699	0.3033	0.047
Mof_H 	H 	0.9685	0.3033	0.1699	0.067
Mof_H 	H 	0.1699	0.5583	0.9685	0.071
Mof_H 	H 	0.3033	0.9685	0.5583	0.078
Mof_H 	H 	0.5583	0.3033	0.9685	0.078
Mof_H 	H 	0.9685	0.1699	0.5583	0.071
Mof_H 	H 	0.1699	0.9685	0.3033	0.067
Mof_H 	H 	0.3033	0.5583	0.1699	0.047
Mof_H 	H 	0.0315	0.4417	0.8301	0.061
Mof_H 	H 	0.4417	0.0315	0.6967	0.052
Mof_H 	H 	0.6967	0.8301	0.4417	0.081
Mof_H 	H 	0.8301	0.6967	0.0315	0.066
Mof_H 	H 	0.8301	0.4417	0.6967	0.081
Mof_H 	H 	0.6967	0.0315	0.8301	0.066
Mof_H 	H 	0.4417	0.8301	0.0315	0.061
Mof_H 	H 	0.0315	0.6967	0.4417	0.052
Mof_H 	H 	0.6967	0.4417	0.0315	0.052
Mof_H 	H 	0.8301	0.0315	0.4417	0.061
Mof_H 	H 	0.0315	0.8301	0.6967	0.066
Mof_H 	H 	0.4417	0.6967	0.8301	0.081
Mof_H 	H 	0.4417	0.0315	0.8301	0.061
Mof_H 	H 	0.0315	0.4417	0.6967	0.052
Mof_H 	H 	0.8301	0.6967	0.4417	0.081
Mof_H 	H 	0.6967	0.8301	0.0315	0.066
Mof_H 	H 	0.4417	0.8301	0.6967	0.081
Mof_H 	H 	0.0315	0.6967	0.8301	0.066
Mof_H 	H 	0.8301	0.4417	0.0315	0.061
Mof_H 	H 	0.6967	0.0315	0.4417	0.052
Mof_H 	H 	0.4417	0.6967	0.0315	0.052
Mof_H 	H 	0.0315	0.8301	0.4417	0.061
Mof_H 	H 	0.8301	0.0315	0.6967	0.066
Mof_H 	H 	0.6967	0.4417	0.8301	0.081
Mof_H 	H 	0.9685	0.5583	0.1699	0.071
Mof_H 	H 	0.5583	0.9685	0.3033	0.078
Mof_H 	H 	0.3033	0.1699	0.5583	0.047
Mof_H 	H 	0.1699	0.3033	0.9685	0.067
Mof_H 	H 	0.1699	0.5583	0.3033	0.047
Mof_H 	H 	0.3033	0.9685	0.1699	0.067
Mof_H 	H 	0.5583	0.1699	0.9685	0.071
Mof_H 	H 	0.9685	0.3033	0.5583	0.078
Mof_H 	H 	0.3033	0.5583	0.9685	0.078
Mof_H 	H 	0.1699	0.9685	0.5583	0.071
Mof_H 	H 	0.9685	0.1699	0.3033	0.067
Mof_H 	H 	0.5583	0.3033	0.1699	0.047
Mof_H 	H 	0.6912	0.9776	0.1656	0.076
Mof_H 	H 	0.9776	0.6912	0.1656	0.076
Mof_H 	H 	0.1656	0.1656	0.6912	0.043
Mof_H 	H 	0.1656	0.1656	0.9776	0.062
Mof_H 	H 	0.6912	0.1656	0.1656	0.043
Mof_H 	H 	0.9776	0.1656	0.1656	0.062
Mof_H 	H 	0.1656	0.6912	0.9776	0.076
Mof_H 	H 	0.1656	0.9776	0.6912	0.076
Mof_H 	H 	0.6912	0.1656	0.9776	0.076
Mof_H 	H 	0.9776	0.1656	0.6912	0.076
Mof_H 	H 	0.1656	0.9776	0.1656	0.062
Mof_H 	H 	0.1656	0.6912	0.1656	0.043
Mof_H 	H 	0.0224	0.3088	0.8344	0.052
Mof_H 	H 	0.3088	0.0224	0.8344	0.052
Mof_H 	H 	0.8344	0.8344	0.3088	0.083
Mof_H 	H 	0.8344	0.8344	0.0224	0.068
Mof_H 	H 	0.8344	0.3088	0.8344	0.083
Mof_H 	H 	0.8344	0.0224	0.8344	0.068
Mof_H 	H 	0.3088	0.8344	0.0224	0.052
Mof_H 	H 	0.0224	0.8344	0.3088	0.052
Mof_H 	H 	0.8344	0.3088	0.0224	0.052
Mof_H 	H 	0.8344	0.0224	0.3088	0.052
Mof_H 	H 	0.0224	0.8344	0.8344	0.068
Mof_H 	H 	0.3088	0.8344	0.8344	0.083
Mof_H 	H 	0.397	0.9428	0.2632	0.079
Mof_H 	H 	0.9428	0.397	0.397	0.084
Mof_H 	H 	0.2632	0.397	0.397	0.07
Mof_H 	H 	0.397	0.2632	0.9428	0.079
Mof_H 	H 	0.397	0.2632	0.397	0.07
Mof_H 	H 	0.9428	0.397	0.2632	0.079
Mof_H 	H 	0.2632	0.397	0.9428	0.079
Mof_H 	H 	0.397	0.9428	0.397	0.084
Mof_H 	H 	0.397	0.397	0.9428	0.084
Mof_H 	H 	0.9428	0.2632	0.397	0.079
Mof_H 	H 	0.2632	0.9428	0.397	0.079
Mof_H 	H 	0.397	0.397	0.2632	0.07
Mof_H 	H 	0.0572	0.603	0.7368	0.077
Mof_H 	H 	0.603	0.0572	0.603	0.071
Mof_H 	H 	0.603	0.7368	0.603	0.085
Mof_H 	H 	0.7368	0.603	0.0572	0.077
Mof_H 	H 	0.7368	0.603	0.603	0.085
Mof_H 	H 	0.603	0.0572	0.7368	0.077
Mof_H 	H 	0.603	0.7368	0.0572	0.077
Mof_H 	H 	0.0572	0.603	0.603	0.071
Mof_H 	H 	0.603	0.603	0.0572	0.071
Mof_H 	H 	0.7368	0.0572	0.603	0.077
Mof_H 	H 	0.0572	0.7368	0.603	0.077
Mof_H 	H 	0.603	0.603	0.7368	0.085
Mof_C 	C 	0.6499	0.9827	0.1057	0.293
Mof_C 	C 	0.6242	0.9754	0.1646	-0.032
Mof_C 	C 	0.5753	0.9689	0.1889	-0.057
Mof_C 	C 	0.9827	0.6499	0.2617	0.293
Mof_C 	C 	0.9754	0.6242	0.2358	-0.026
Mof_C 	C 	0.9689	0.5753	0.2669	-0.058
Mof_C 	C 	0.1057	0.2617	0.6499	0.303
Mof_C 	C 	0.1646	0.2358	0.6242	-0.075
Mof_C 	C 	0.1889	0.2669	0.5753	-0.036
Mof_C 	C 	0.2617	0.1057	0.9827	0.294
Mof_C 	C 	0.2358	0.1646	0.9754	-0.043
Mof_C 	C 	0.2669	0.1889	0.9689	-0.051
Mof_C 	C 	0.6499	0.1057	0.2617	0.303
Mof_C 	C 	0.6242	0.1646	0.2358	-0.075
Mof_C 	C 	0.5753	0.1889	0.2669	-0.036
Mof_C 	C 	0.9827	0.2617	0.1057	0.294
Mof_C 	C 	0.9754	0.2358	0.1646	-0.043
Mof_C 	C 	0.9689	0.2669	0.1889	-0.051
Mof_C 	C 	0.1057	0.6499	0.9827	0.293
Mof_C 	C 	0.1646	0.6242	0.9754	-0.032
Mof_C 	C 	0.1889	0.5753	0.9689	-0.057
Mof_C 	C 	0.2617	0.9827	0.6499	0.293
Mof_C 	C 	0.2358	0.9754	0.6242	-0.026
Mof_C 	C 	0.2669	0.9689	0.5753	-0.058
Mof_C 	C 	0.6499	0.2617	0.9827	0.293
Mof_C 	C 	0.6242	0.2358	0.9754	-0.026
Mof_C 	C 	0.5753	0.2669	0.9689	-0.058
Mof_C 	C 	0.9827	0.1057	0.6499	0.293
Mof_C 	C 	0.9754	0.1646	0.6242	-0.032
Mof_C 	C 	0.9689	0.1889	0.5753	-0.057
Mof_C 	C 	0.1057	0.9827	0.2617	0.294
Mof_C 	C 	0.1646	0.9754	0.2358	-0.043
Mof_C 	C 	0.1889	0.9689	0.2669	-0.051
Mof_C 	C 	0.2617	0.6499	0.1057	0.303
Mof_C 	C 	0.2358	0.6242	0.1646	-0.075
Mof_C 	C 	0.2669	0.5753	0.1889	-0.036
Mof_C 	C 	0.0173	0.3501	0.8943	0.294
Mof_C 	C 	0.0246	0.3758	0.8354	-0.055
Mof_C 	C 	0.0311	0.4247	0.8111	-0.045
Mof_C 	C 	0.3501	0.0173	0.7383	0.303
Mof_C 	C 	0.3758	0.0246	0.7642	-0.065
Mof_C 	C 	0.4247	0.0311	0.7331	-0.042
Mof_C 	C 	0.7383	0.8943	0.3501	0.293
Mof_C 	C 	0.7642	0.8354	0.3758	-0.02
Mof_C 	C 	0.7331	0.8111	0.4247	-0.062
Mof_C 	C 	0.8943	0.7383	0.0173	0.292
Mof_C 	C 	0.8354	0.7642	0.0246	-0.041
Mof_C 	C 	0.8111	0.7331	0.0311	-0.054
Mof_C 	C 	0.8943	0.3501	0.7383	0.293
Mof_C 	C 	0.8354	0.3758	0.7642	-0.02
Mof_C 	C 	0.8111	0.4247	0.7331	-0.062
Mof_C 	C 	0.7383	0.0173	0.8943	0.292
Mof_C 	C 	0.7642	0.0246	0.8354	-0.041
Mof_C 	C 	0.7331	0.0311	0.8111	-0.054
Mof_C 	C 	0.3501	0.8943	0.0173	0.294
Mof_C 	C 	0.3758	0.8354	0.0246	-0.055
Mof_C 	C 	0.4247	0.8111	0.0311	-0.045
Mof_C 	C 	0.0173	0.7383	0.3501	0.303
Mof_C 	C 	0.0246	0.7642	0.3758	-0.065
Mof_C 	C 	0.0311	0.7331	0.4247	-0.042
Mof_C 	C 	0.7383	0.3501	0.0173	0.303
Mof_C 	C 	0.7642	0.3758	0.0246	-0.065
Mof_C 	C 	0.7331	0.4247	0.0311	-0.042
Mof_C 	C 	0.8943	0.0173	0.3501	0.294
Mof_C 	C 	0.8354	0.0246	0.3758	-0.055
Mof_C 	C 	0.8111	0.0311	0.4247	-0.045
Mof_C 	C 	0.0173	0.8943	0.7383	0.292
Mof_C 	C 	0.0246	0.8354	0.7642	-0.041
Mof_C 	C 	0.0311	0.8111	0.7331	-0.054
Mof_C 	C 	0.3501	0.7383	0.8943	0.293
Mof_C 	C 	0.3758	0.7642	0.8354	-0.02
Mof_C 	C 	0.4247	0.7331	0.8111	-0.062
Mof_C 	C 	0.3501	0.0173	0.8943	0.294
Mof_C 	C 	0.3758	0.0246	0.8354	-0.055
Mof_C 	C 	0.4247	0.0311	0.8111	-0.045
Mof_C 	C 	0.0173	0.3501	0.7383	0.303
Mof_C 	C 	0.0246	0.3758	0.7642	-0.065
Mof_C 	C 	0.0311	0.4247	0.7331	-0.042
Mof_C 	C 	0.8943	0.7383	0.3501	0.293
Mof_C 	C 	0.8354	0.7642	0.3758	-0.02
Mof_C 	C 	0.8111	0.7331	0.4247	-0.062
Mof_C 	C 	0.7383	0.8943	0.0173	0.292
Mof_C 	C 	0.7642	0.8354	0.0246	-0.041
Mof_C 	C 	0.7331	0.8111	0.0311	-0.054
Mof_C 	C 	0.3501	0.8943	0.7383	0.293
Mof_C 	C 	0.3758	0.8354	0.7642	-0.02
Mof_C 	C 	0.4247	0.8111	0.7331	-0.062
Mof_C 	C 	0.0173	0.7383	0.8943	0.292
Mof_C 	C 	0.0246	0.7642	0.8354	-0.041
Mof_C 	C 	0.0311	0.7331	0.8111	-0.054
Mof_C 	C 	0.8943	0.3501	0.0173	0.294
Mof_C 	C 	0.8354	0.3758	0.0246	-0.055
Mof_C 	C 	0.8111	0.4247	0.0311	-0.045
Mof_C 	C 	0.7383	0.0173	0.3501	0.303
Mof_C 	C 	0.7642	0.0246	0.3758	-0.065
Mof_C 	C 	0.7331	0.0311	0.4247	-0.042
Mof_C 	C 	0.3501	0.7383	0.0173	0.303
Mof_C 	C 	0.3758	0.7642	0.0246	-0.065
Mof_C 	C 	0.4247	0.7331	0.0311	-0.042
Mof_C 	C 	0.0173	0.8943	0.3501	0.294
Mof_C 	C 	0.0246	0.8354	0.3758	-0.055
Mof_C 	C 	0.0311	0.8111	0.4247	-0.045
Mof_C 	C 	0.8943	0.0173	0.7383	0.292
Mof_C 	C 	0.8354	0.0246	0.7642	-0.041
Mof_C 	C 	0.8111	0.0311	0.7331	-0.054
Mof_C 	C 	0.7383	0.3501	0.8943	0.293
Mof_C 	C 	0.7642	0.3758	0.8354	-0.02
Mof_C 	C 	0.7331	0.4247	0.8111	-0.062
Mof_C 	C 	0.9827	0.6499	0.1057	0.293
Mof_C 	C 	0.9754	0.6242	0.1646	-0.032
Mof_C 	C 	0.9689	0.5753	0.1889	-0.057
Mof_C 	C 	0.6499	0.9827	0.2617	0.293
Mof_C 	C 	0.6242	0.9754	0.2358	-0.026
Mof_C 	C 	0.5753	0.9689	0.2669	-0.058
Mof_C 	C 	0.2617	0.1057	0.6499	0.303
Mof_C 	C 	0.2358	0.1646	0.6242	-0.075
Mof_C 	C 	0.2669	0.1889	0.5753	-0.036
Mof_C 	C 	0.1057	0.2617	0.9827	0.294
Mof_C 	C 	0.1646	0.2358	0.9754	-0.043
Mof_C 	C 	0.1889	0.2669	0.9689	-0.051
Mof_C 	C 	0.1057	0.6499	0.2617	0.303
Mof_C 	C 	0.1646	0.6242	0.2358	-0.075
Mof_C 	C 	0.1889	0.5753	0.2669	-0.036
Mof_C 	C 	0.2617	0.9827	0.1057	0.294
Mof_C 	C 	0.2358	0.9754	0.1646	-0.043
Mof_C 	C 	0.2669	0.9689	0.1889	-0.051
Mof_C 	C 	0.6499	0.1057	0.9827	0.293
Mof_C 	C 	0.6242	0.1646	0.9754	-0.032
Mof_C 	C 	0.5753	0.1889	0.9689	-0.057
Mof_C 	C 	0.9827	0.2617	0.6499	0.293
Mof_C 	C 	0.9754	0.2358	0.6242	-0.026
Mof_C 	C 	0.9689	0.2669	0.5753	-0.058
Mof_C 	C 	0.2617	0.6499	0.9827	0.293
Mof_C 	C 	0.2358	0.6242	0.9754	-0.026
Mof_C 	C 	0.2669	0.5753	0.9689	-0.058
Mof_C 	C 	0.1057	0.9827	0.6499	0.293
Mof_C 	C 	0.1646	0.9754	0.6242	-0.032
Mof_C 	C 	0.1889	0.9689	0.5753	-0.057
Mof_C 	C 	0.9827	0.1057	0.2617	0.294
Mof_C 	C 	0.9754	0.1646	0.2358	-0.043
Mof_C 	C 	0.9689	0.1889	0.2669	-0.051
Mof_C 	C 	0.6499	0.2617	0.1057	0.303
Mof_C 	C 	0.6242	0.2358	0.1646	-0.075
Mof_C 	C 	0.5753	0.2669	0.1889	-0.036
Mof_C 	C 	0.6553	0.9765	0.1841	-0.021
Mof_C 	C 	0.5524	0.9628	0.2424	0.044
Mof_C 	C 	0.5002	0.9542	0.2728	-0.001
Mof_C 	C 	0.4619	0.9503	0.2939	-0.03
Mof_C 	C 	0.4088	0.9448	0.3232	0.075
Mof_C 	C 	0.9765	0.6553	0.1841	-0.021
Mof_C 	C 	0.9628	0.5524	0.2424	0.044
Mof_C 	C 	0.9542	0.5002	0.2728	-0.001
Mof_C 	C 	0.9503	0.4619	0.2939	-0.03
Mof_C 	C 	0.9448	0.4088	0.3232	0.075
Mof_C 	C 	0.1841	0.1841	0.6553	0.002
Mof_C 	C 	0.2424	0.2424	0.5524	0.007
Mof_C 	C 	0.2728	0.2728	0.5002	-0.002
Mof_C 	C 	0.2939	0.2939	0.4619	-0.055
Mof_C 	C 	0.3232	0.3232	0.4088	0.068
Mof_C 	C 	0.1841	0.1841	0.9765	-0.014
Mof_C 	C 	0.2424	0.2424	0.9628	0.034
Mof_C 	C 	0.2728	0.2728	0.9542	-0.001
Mof_C 	C 	0.2939	0.2939	0.9503	-0.035
Mof_C 	C 	0.3232	0.3232	0.9448	0.074
Mof_C 	C 	0.6553	0.1841	0.1841	0.002
Mof_C 	C 	0.5524	0.2424	0.2424	0.007
Mof_C 	C 	0.5002	0.2728	0.2728	-0.002
Mof_C 	C 	0.4619	0.2939	0.2939	-0.055
Mof_C 	C 	0.4088	0.3232	0.3232	0.068
Mof_C 	C 	0.9765	0.1841	0.1841	-0.014
Mof_C 	C 	0.9628	0.2424	0.2424	0.034
Mof_C 	C 	0.9542	0.2728	0.2728	-0.001
Mof_C 	C 	0.9503	0.2939	0.2939	-0.035
Mof_C 	C 	0.9448	0.3232	0.3232	0.074
Mof_C 	C 	0.1841	0.6553	0.9765	-0.021
Mof_C 	C 	0.2424	0.5524	0.9628	0.044
Mof_C 	C 	0.2728	0.5002	0.9542	-0.001
Mof_C 	C 	0.2939	0.4619	0.9503	-0.03
Mof_C 	C 	0.3232	0.4088	0.9448	0.075
Mof_C 	C 	0.1841	0.9765	0.6553	-0.021
Mof_C 	C 	0.2424	0.9628	0.5524	0.044
Mof_C 	C 	0.2728	0.9542	0.5002	-0.001
Mof_C 	C 	0.2939	0.9503	0.4619	-0.03
Mof_C 	C 	0.3232	0.9448	0.4088	0.075
Mof_C 	C 	0.6553	0.1841	0.9765	-0.021
Mof_C 	C 	0.5524	0.2424	0.9628	0.044
Mof_C 	C 	0.5002	0.2728	0.9542	-0.001
Mof_C 	C 	0.4619	0.2939	0.9503	-0.03
Mof_C 	C 	0.4088	0.3232	0.9448	0.075
Mof_C 	C 	0.9765	0.1841	0.6553	-0.021
Mof_C 	C 	0.9628	0.2424	0.5524	0.044
Mof_C 	C 	0.9542	0.2728	0.5002	-0.001
Mof_C 	C 	0.9503	0.2939	0.4619	-0.03
Mof_C 	C 	0.9448	0.3232	0.4088	0.075
Mof_C 	C 	0.1841	0.9765	0.1841	-0.014
Mof_C 	C 	0.2424	0.9628	0.2424	0.034
Mof_C 	C 	0.2728	0.9542	0.2728	-0.001
Mof_C 	C 	0.2939	0.9503	0.2939	-0.035
Mof_C 	C 	0.3232	0.9448	0.3232	0.074
Mof_C 	C 	0.1841	0.6553	0.1841	0.002
Mof_C 	C 	0.2424	0.5524	0.2424	0.007
Mof_C 	C 	0.2728	0.5002	0.2728	-0.002
Mof_C 	C 	0.2939	0.4619	0.2939	-0.055
Mof_C 	C 	0.3232	0.4088	0.3232	0.068
Mof_C 	C 	0.0235	0.3447	0.8159	-0.006
Mof_C 	C 	0.0372	0.4476	0.7576	0.019
Mof_C 	C 	0.0458	0.4998	0.7272	-0.002
Mof_C 	C 	0.0497	0.5381	0.7061	-0.046
Mof_C 	C 	0.0552	0.5912	0.6768	0.07
Mof_C 	C 	0.3447	0.0235	0.8159	-0.006
Mof_C 	C 	0.4476	0.0372	0.7576	0.019
Mof_C 	C 	0.4998	0.0458	0.7272	-0.002
Mof_C 	C 	0.5381	0.0497	0.7061	-0.046
Mof_C 	C 	0.5912	0.0552	0.6768	0.07
Mof_C 	C 	0.8159	0.8159	0.3447	-0.025
Mof_C 	C 	0.7576	0.7576	0.4476	0.053
Mof_C 	C 	0.7272	0.7272	0.4998	0.001
Mof_C 	C 	0.7061	0.7061	0.5381	-0.024
Mof_C 	C 	0.6768	0.6768	0.5912	0.077
Mof_C 	C 	0.8159	0.8159	0.0235	-0.018
Mof_C 	C 	0.7576	0.7576	0.0372	0.033
Mof_C 	C 	0.7272	0.7272	0.0458	-0.003
Mof_C 	C 	0.7061	0.7061	0.0497	-0.039
Mof_C 	C 	0.6768	0.6768	0.0552	0.071
Mof_C 	C 	0.8159	0.3447	0.8159	-0.025
Mof_C 	C 	0.7576	0.4476	0.7576	0.053
Mof_C 	C 	0.7272	0.4998	0.7272	0.001
Mof_C 	C 	0.7061	0.5381	0.7061	-0.024
Mof_C 	C 	0.6768	0.5912	0.6768	0.077
Mof_C 	C 	0.8159	0.0235	0.8159	-0.018
Mof_C 	C 	0.7576	0.0372	0.7576	0.033
Mof_C 	C 	0.7272	0.0458	0.7272	-0.003
Mof_C 	C 	0.7061	0.0497	0.7061	-0.039
Mof_C 	C 	0.6768	0.0552	0.6768	0.071
Mof_C 	C 	0.3447	0.8159	0.0235	-0.006
Mof_C 	C 	0.4476	0.7576	0.0372	0.019
Mof_C 	C 	0.4998	0.7272	0.0458	-0.002
Mof_C 	C 	0.5381	0.7061	0.0497	-0.046
Mof_C 	C 	0.5912	0.6768	0.0552	0.07
Mof_C 	C 	0.0235	0.8159	0.3447	-0.006
Mof_C 	C 	0.0372	0.7576	0.4476	0.019
Mof_C 	C 	0.0458	0.7272	0.4998	-0.002
Mof_C 	C 	0.0497	0.7061	0.5381	-0.046
Mof_C 	C 	0.0552	0.6768	0.5912	0.07
Mof_C 	C 	0.8159	0.3447	0.0235	-0.006
Mof_C 	C 	0.7576	0.4476	0.0372	0.019
Mof_C 	C 	0.7272	0.4998	0.0458	-0.002
Mof_C 	C 	0.7061	0.5381	0.0497	-0.046
Mof_C 	C 	0.6768	0.5912	0.0552	0.07
Mof_C 	C 	0.8159	0.0235	0.3447	-0.006
Mof_C 	C 	0.7576	0.0372	0.4476	0.019
Mof_C 	C 	0.7272	0.0458	0.4998	-0.002
Mof_C 	C 	0.7061	0.0497	0.5381	-0.046
Mof_C 	C 	0.6768	0.0552	0.5912	0.07
Mof_C 	C 	0.0235	0.8159	0.8159	-0.018
Mof_C 	C 	0.0372	0.7576	0.7576	0.033
Mof_C 	C 	0.0458	0.7272	0.7272	-0.003
Mof_C 	C 	0.0497	0.7061	0.7061	-0.039
Mof_C 	C 	0.0552	0.6768	0.6768	0.071
Mof_C 	C 	0.3447	0.8159	0.8159	-0.025
Mof_C 	C 	0.4476	0.7576	0.7576	0.053
Mof_C 	C 	0.4998	0.7272	0.7272	0.001
Mof_C 	C 	0.5381	0.7061	0.7061	-0.024
Mof_C 	C 	0.5912	0.6768	0.6768	0.077
Mof_C 	C 	0.3785	0.9441	0.2989	-0.116
Mof_C 	C 	0.9441	0.3785	0.3785	-0.115
Mof_C 	C 	0.2989	0.3785	0.3785	-0.124
Mof_C 	C 	0.3785	0.2989	0.9441	-0.116
Mof_C 	C 	0.3785	0.2989	0.3785	-0.124
Mof_C 	C 	0.9441	0.3785	0.2989	-0.116
Mof_C 	C 	0.2989	0.3785	0.9441	-0.116
Mof_C 	C 	0.3785	0.9441	0.3785	-0.115
Mof_C 	C 	0.3785	0.3785	0.9441	-0.115
Mof_C 	C 	0.9441	0.2989	0.3785	-0.116
Mof_C 	C 	0.2989	0.9441	0.3785	-0.116
Mof_C 	C 	0.3785	0.3785	0.2989	-0.124
Mof_C 	C 	0.0559	0.6215	0.7011	-0.12
Mof_C 	C 	0.6215	0.0559	0.6215	-0.121
Mof_C 	C 	0.6215	0.7011	0.6215	-0.113
Mof_C 	C 	0.7011	0.6215	0.0559	-0.12
Mof_C 	C 	0.7011	0.6215	0.6215	-0.113
Mof_C 	C 	0.6215	0.0559	0.7011	-0.12
Mof_C 	C 	0.6215	0.7011	0.0559	-0.12
Mof_C 	C 	0.0559	0.6215	0.6215	-0.121
Mof_C 	C 	0.6215	0.6215	0.0559	-0.121
Mof_C 	C 	0.7011	0.0559	0.6215	-0.12
Mof_C 	C 	0.0559	0.7011	0.6215	-0.12
Mof_C 	C 	0.6215	0.6215	0.7011	-0.113
Mof_O 	O 	0.6982	0.98758	0.0772	-0.344
Mof_O 	O 	0.62508	0.98592	0.0786	-0.349
Mof_O 	O 	0.98758	0.6982	0.23702	-0.325
Mof_O 	O 	0.98592	0.62508	0.3104	-0.325
Mof_O 	O 	0.0772	0.23702	0.6982	-0.409
Mof_O 	O 	0.0786	0.3104	0.62508	-0.406
Mof_O 	O 	0.23702	0.0772	0.98758	-0.354
Mof_O 	O 	0.3104	0.0786	0.98592	-0.35
Mof_O 	O 	0.6982	0.0772	0.23702	-0.409
Mof_O 	O 	0.62508	0.0786	0.3104	-0.406
Mof_O 	O 	0.98758	0.23702	0.0772	-0.354
Mof_O 	O 	0.98592	0.3104	0.0786	-0.35
Mof_O 	O 	0.0772	0.6982	0.98758	-0.344
Mof_O 	O 	0.0786	0.62508	0.98592	-0.349
Mof_O 	O 	0.23702	0.98758	0.6982	-0.325
Mof_O 	O 	0.3104	0.98592	0.62508	-0.325
Mof_O 	O 	0.6982	0.23702	0.98758	-0.325
Mof_O 	O 	0.62508	0.3104	0.98592	-0.325
Mof_O 	O 	0.98758	0.0772	0.6982	-0.344
Mof_O 	O 	0.98592	0.0786	0.62508	-0.349
Mof_O 	O 	0.0772	0.98758	0.23702	-0.354
Mof_O 	O 	0.0786	0.98592	0.3104	-0.35
Mof_O 	O 	0.23702	0.6982	0.0772	-0.409
Mof_O 	O 	0.3104	0.62508	0.0786	-0.406
Mof_O 	O 	0.01242	0.3018	0.9228	-0.36
Mof_O 	O 	0.01408	0.37492	0.9214	-0.354
Mof_O 	O 	0.3018	0.01242	0.76298	-0.404
Mof_O 	O 	0.37492	0.01408	0.6896	-0.403
Mof_O 	O 	0.76298	0.9228	0.3018	-0.322
Mof_O 	O 	0.6896	0.9214	0.37492	-0.324
Mof_O 	O 	0.9228	0.76298	0.01242	-0.349
Mof_O 	O 	0.9214	0.6896	0.01408	-0.352
Mof_O 	O 	0.9228	0.3018	0.76298	-0.322
Mof_O 	O 	0.9214	0.37492	0.6896	-0.324
Mof_O 	O 	0.76298	0.01242	0.9228	-0.349
Mof_O 	O 	0.6896	0.01408	0.9214	-0.352
Mof_O 	O 	0.3018	0.9228	0.01242	-0.36
Mof_O 	O 	0.37492	0.9214	0.01408	-0.354
Mof_O 	O 	0.01242	0.76298	0.3018	-0.404
Mof_O 	O 	0.01408	0.6896	0.37492	-0.403
Mof_O 	O 	0.76298	0.3018	0.01242	-0.404
Mof_O 	O 	0.6896	0.37492	0.01408	-0.403
Mof_O 	O 	0.9228	0.01242	0.3018	-0.36
Mof_O 	O 	0.9214	0.01408	0.37492	-0.354
Mof_O 	O 	0.01242	0.9228	0.76298	-0.349
Mof_O 	O 	0.01408	0.9214	0.6896	-0.352
Mof_O 	O 	0.3018	0.76298	0.9228	-0.322
Mof_O 	O 	0.37492	0.6896	0.9214	-0.324
Mof_O 	O 	0.3018	0.01242	0.9228	-0.36
Mof_O 	O 	0.37492	0.01408	0.9214	-0.354
Mof_O 	O 	0.01242	0.3018	0.76298	-0.404
Mof_O 	O 	0.01408	0.37492	0.6896	-0.403
Mof_O 	O 	0.9228	0.76298	0.3018	-0.322
Mof_O 	O 	0.9214	0.6896	0.37492	-0.324
Mof_O 	O 	0.76298	0.9228	0.01242	-0.349
Mof_O 	O 	0.6896	0.9214	0.01408	-0.352
Mof_O 	O 	0.3018	0.9228	0.76298	-0.322
Mof_O 	O 	0.37492	0.9214	0.6896	-0.324
Mof_O 	O 	0.01242	0.76298	0.9228	-0.349
Mof_O 	O 	0.01408	0.6896	0.9214	-0.352
Mof_O 	O 	0.9228	0.3018	0.01242	-0.36
Mof_O 	O 	0.9214	0.37492	0.01408	-0.354
Mof_O 	O 	0.76298	0.01242	0.3018	-0.404
Mof_O 	O 	0.6896	0.01408	0.37492	-0.403
Mof_O 	O 	0.3018	0.76298	0.01242	-0.404
Mof_O 	O 	0.37492	0.6896	0.01408	-0.403
Mof_O 	O 	0.01242	0.9228	0.3018	-0.36
Mof_O 	O 	0.01408	0.9214	0.37492	-0.354
Mof_O 	O 	0.9228	0.01242	0.76298	-0.349
Mof_O 	O 	0.9214	0.01408	0.6896	-0.352
Mof_O 	O 	0.76298	0.3018	0.9228	-0.322
Mof_O 	O 	0.6896	0.37492	0.9214	-0.324
Mof_O 	O 	0.98758	0.6982	0.0772	-0.344
Mof_O 	O 	0.98592	0.62508	0.0786	-0.349
Mof_O 	O 	0.6982	0.98758	0.23702	-0.325
Mof_O 	O 	0.62508	0.98592	0.3104	-0.325
Mof_O 	O 	0.23702	0.0772	0.6982	-0.409
Mof_O 	O 	0.3104	0.0786	0.62508	-0.406
Mof_O 	O 	0.0772	0.23702	0.98758	-0.354
Mof_O 	O 	0.0786	0.3104	0.98592	-0.35
Mof_O 	O 	0.0772	0.6982	0.23702	-0.409
Mof_O 	O 	0.0786	0.62508	0.3104	-0.406
Mof_O 	O 	0.23702	0.98758	0.0772	-0.354
Mof_O 	O 	0.3104	0.98592	0.0786	-0.35
Mof_O 	O 	0.6982	0.0772	0.98758	-0.344
Mof_O 	O 	0.62508	0.0786	0.98592	-0.349
Mof_O 	O 	0.98758	0.23702	0.6982	-0.325
Mof_O 	O 	0.98592	0.3104	0.62508	-0.325
Mof_O 	O 	0.23702	0.6982	0.98758	-0.325
Mof_O 	O 	0.3104	0.62508	0.98592	-0.325
Mof_O 	O 	0.0772	0.98758	0.6982	-0.344
Mof_O 	O 	0.0786	0.98592	0.62508	-0.349
Mof_O 	O 	0.98758	0.0772	0.23702	-0.354
Mof_O 	O 	0.98592	0.0786	0.3104	-0.35
Mof_O 	O 	0.6982	0.23702	0.0772	-0.409
Mof_O 	O 	0.62508	0.3104	0.0786	-0.406
_end
