data_functionalizedCrystal
_audit_creation_method	'EQeq! by Chris Wilmer'
_symmetry_space_group_name_H-M	'P1'
_symmetry_Int_Tables_number	1
_symmetry_cell_setting	triclinic
loop_
_symmetry_equiv_pos_as_xyz
  x,y,z
_cell_length_a	7.087
_cell_length_b	17.669
_cell_length_c	17.793
_cell_angle_alpha	90
_cell_angle_beta	90
_cell_angle_gamma	90
loop_
_atom_site_label
_atom_site_type_symbol
_atom_site_fract_x
_atom_site_fract_y
_atom_site_fract_z
_atom_site_charge
Mof_Cd	Cd	0.72246	0.98694	0.52677	0.41
Mof_C 	C 	0.793	0.8146	0.57851	0.087
Mof_H 	H 	0.8081	0.8391	0.6244	0.011
Mof_C 	C 	0.7616	0.74248	0.44375	-0.155
Mof_N 	N 	0.7626	0.85627	0.518	-0.16
Mof_N 	N 	0.7942	0.71711	0.24264	-0.15
Mof_N 	N 	0.8001	0.75143	0.31465	-0.154
Mof_C 	C 	0.7531	0.70789	0.36825	0.322
Mof_C 	C 	0.7872	0.70046	0.50906	0.073
Mof_H 	H 	0.7931	0.6479	0.5067	0.017
Mof_C 	C 	0.7943	0.76427	0.18847	0.296
Mof_C 	C 	0.8037	0.7368	0.57713	-0.141
Mof_H 	H 	0.8217	0.7094	0.6212	0.083
Mof_C 	C 	0.6906	0.62766	0.36155	-0.877
Mof_H 	H 	0.6922	0.6128	0.3096	0.303
Mof_H 	H 	0.5649	0.6227	0.381	0.302
Mof_H 	H 	0.7745	0.5957	0.3897	0.307
Mof_C 	C 	0.7487	0.82083	0.45235	0.091
Mof_H 	H 	0.7293	0.85	0.4095	-0.001
Mof_C 	C 	0.791	0.6538	0.10251	0.071
Mof_H 	H 	0.7926	0.6235	0.1452	0.005
Mof_C 	C 	0.7924	0.73181	0.11148	-0.142
Mof_C 	C 	0.7947	0.8486	0.19682	-0.822
Mof_H 	H 	0.6828	0.8691	0.1743	0.279
Mof_H 	H 	0.9039	0.8692	0.1723	0.276
Mof_H 	H 	0.7978	0.8615	0.2492	0.287
Mof_N 	N 	0.7873	0.62009	0.0348	-0.16
Mof_O 	O 	0.6618	0.97623	0.65546	-0.296
Mof_O 	O 	0.4068	0.96668	0.58708	-0.288
Mof_C 	C 	0.7915	0.77571	0.04731	0.049
Mof_H 	H 	0.7941	0.8282	0.0509	0.011
Mof_C 	C 	0.4852	0.9681	0.64919	0.322
Mof_C 	C 	0.7843	0.6622	0.9738	0.087
Mof_H 	H 	0.7806	0.6391	0.9269	0.013
Mof_C 	C 	0.7867	0.7415	0.9788	-0.119
Mof_H 	H 	0.7849	0.7707	0.9352	0.077
Mof_C 	C 	0.364	0.96112	0.71944	-0.209
Mof_H 	H 	0.246	0.9877	0.7113	0.097
Mof_H 	H 	0.3347	0.9081	0.7278	0.098
Mof_C 	C 	0.4563	0.9921	0.78771	-0.229
Mof_H 	H 	0.5	0.0428	0.7762	0.095
Mof_H 	H 	0.567	0.9615	0.7982	0.112
Mof_O 	O 	0.1669	0.99249	0.8578	-0.295
Mof_C 	C 	0.3384	0.99601	0.85926	0.341
Mof_O 	O 	0.4344	0.00613	0.91874	-0.3
Mof_Cd	Cd	0.27754	0.01306	0.02677	0.399
Mof_C 	C 	0.207	0.1854	0.07851	0.077
Mof_H 	H 	0.1919	0.1609	0.1244	0.011
Mof_C 	C 	0.2384	0.25752	0.94375	-0.141
Mof_N 	N 	0.2374	0.14373	0.018	-0.165
Mof_N 	N 	0.2058	0.28289	0.74264	-0.152
Mof_N 	N 	0.1999	0.24857	0.81465	-0.155
Mof_C 	C 	0.2469	0.29211	0.86825	0.316
Mof_C 	C 	0.2128	0.29954	0.00906	0.048
Mof_H 	H 	0.2069	0.3521	0.0067	0.02
Mof_C 	C 	0.2057	0.23573	0.68847	0.297
Mof_C 	C 	0.1963	0.2632	0.07713	-0.13
Mof_H 	H 	0.1783	0.2906	0.1212	0.078
Mof_C 	C 	0.3094	0.37234	0.86155	-0.871
Mof_H 	H 	0.3078	0.3872	0.8096	0.301
Mof_H 	H 	0.4351	0.3773	0.881	0.302
Mof_H 	H 	0.2255	0.4043	0.8897	0.306
Mof_C 	C 	0.2513	0.17917	0.95235	0.098
Mof_H 	H 	0.2707	0.15	0.9095	-0.003
Mof_C 	C 	0.209	0.3462	0.60251	0.076
Mof_H 	H 	0.2074	0.3765	0.6452	0.003
Mof_C 	C 	0.2076	0.26819	0.61148	-0.152
Mof_C 	C 	0.2053	0.1514	0.69682	-0.822
Mof_H 	H 	0.3172	0.1309	0.6743	0.279
Mof_H 	H 	0.0961	0.1308	0.6723	0.274
Mof_H 	H 	0.2022	0.1385	0.7492	0.286
Mof_N 	N 	0.2127	0.37991	0.5348	-0.156
Mof_O 	O 	0.3382	0.02377	0.15546	-0.298
Mof_O 	O 	0.5932	0.03332	0.08708	-0.289
Mof_C 	C 	0.2085	0.22429	0.54731	0.076
Mof_H 	H 	0.2059	0.1718	0.5509	0.004
Mof_C 	C 	0.5148	0.0319	0.14919	0.324
Mof_C 	C 	0.2157	0.3378	0.4738	0.082
Mof_H 	H 	0.2194	0.3609	0.4269	0.012
Mof_C 	C 	0.2133	0.2585	0.4788	-0.144
Mof_H 	H 	0.2151	0.2293	0.4352	0.082
Mof_C 	C 	0.636	0.03888	0.21944	-0.212
Mof_H 	H 	0.754	0.0123	0.2113	0.099
Mof_H 	H 	0.6653	0.0919	0.2278	0.099
Mof_C 	C 	0.5437	0.0079	0.28771	-0.227
Mof_H 	H 	0.5	0.9572	0.2762	0.094
Mof_H 	H 	0.433	0.0385	0.2982	0.11
Mof_O 	O 	0.8331	0.00751	0.3578	-0.295
Mof_C 	C 	0.6616	0.00399	0.35926	0.341
Mof_O 	O 	0.5656	0.99387	0.41874	-0.306
Mof_Cd	Cd	0.22246	0.51306	0.52677	0.407
Mof_C 	C 	0.293	0.6854	0.57851	0.084
Mof_H 	H 	0.3081	0.6609	0.6244	0.009
Mof_C 	C 	0.2616	0.75752	0.44375	-0.155
Mof_N 	N 	0.2626	0.64373	0.518	-0.16
Mof_N 	N 	0.2942	0.78289	0.24264	-0.151
Mof_N 	N 	0.3001	0.74857	0.31465	-0.155
Mof_C 	C 	0.2531	0.79211	0.36825	0.318
Mof_C 	C 	0.2872	0.79954	0.50906	0.072
Mof_H 	H 	0.2931	0.8521	0.5067	0.017
Mof_C 	C 	0.2943	0.73573	0.18847	0.293
Mof_C 	C 	0.3037	0.7632	0.57713	-0.141
Mof_H 	H 	0.3217	0.7906	0.6212	0.082
Mof_C 	C 	0.1906	0.87234	0.36155	-0.871
Mof_H 	H 	0.1922	0.8872	0.3096	0.3
Mof_H 	H 	0.0649	0.8773	0.381	0.298
Mof_H 	H 	0.2745	0.9043	0.3897	0.304
Mof_C 	C 	0.2487	0.67917	0.45235	0.089
Mof_H 	H 	0.2293	0.65	0.4095	-0.001
Mof_C 	C 	0.291	0.8462	0.10251	0.07
Mof_H 	H 	0.2926	0.8765	0.1452	0.005
Mof_C 	C 	0.2924	0.76819	0.11148	-0.142
Mof_C 	C 	0.2947	0.6514	0.19682	-0.817
Mof_H 	H 	0.1828	0.6309	0.1743	0.276
Mof_H 	H 	0.4039	0.6308	0.1723	0.273
Mof_H 	H 	0.2978	0.6385	0.2492	0.285
Mof_N 	N 	0.2873	0.87991	0.0348	-0.16
Mof_O 	O 	0.1618	0.52377	0.65546	-0.301
Mof_O 	O 	0.9068	0.53332	0.58708	-0.289
Mof_C 	C 	0.2915	0.72429	0.04731	0.048
Mof_H 	H 	0.2941	0.6718	0.0509	0.01
Mof_C 	C 	0.9852	0.5319	0.64919	0.334
Mof_C 	C 	0.2843	0.8378	0.9738	0.086
Mof_H 	H 	0.2806	0.8609	0.9269	0.013
Mof_C 	C 	0.2867	0.7585	0.9788	-0.119
Mof_H 	H 	0.2849	0.7293	0.9352	0.076
Mof_C 	C 	0.864	0.53888	0.71944	-0.228
Mof_H 	H 	0.746	0.5123	0.7113	0.103
Mof_H 	H 	0.8347	0.5919	0.7278	0.104
Mof_C 	C 	0.9563	0.5079	0.78771	-0.198
Mof_H 	H 	2.99666e-32	0.4572	0.7762	0.083
Mof_H 	H 	0.067	0.5385	0.7982	0.1
Mof_O 	O 	0.6669	0.50751	0.8578	-0.291
Mof_C 	C 	0.8384	0.50399	0.85926	0.332
Mof_O 	O 	0.9344	0.49387	0.91874	-0.296
Mof_Cd	Cd	0.77754	0.48694	0.02677	0.401
Mof_C 	C 	0.707	0.3146	0.07851	0.079
Mof_H 	H 	0.6919	0.3391	0.1244	0.012
Mof_C 	C 	0.7384	0.24248	0.94375	-0.141
Mof_N 	N 	0.7374	0.35627	0.018	-0.165
Mof_N 	N 	0.7058	0.21711	0.74264	-0.151
Mof_N 	N 	0.6999	0.25143	0.81465	-0.154
Mof_C 	C 	0.7469	0.20789	0.86825	0.319
Mof_C 	C 	0.7128	0.20046	0.00906	0.05
Mof_H 	H 	0.7069	0.1479	0.0067	0.021
Mof_C 	C 	0.7057	0.26427	0.68847	0.301
Mof_C 	C 	0.6963	0.2368	0.07713	-0.13
Mof_H 	H 	0.6783	0.2094	0.1212	0.078
Mof_C 	C 	0.8094	0.12766	0.86155	-0.878
Mof_H 	H 	0.8078	0.1128	0.8096	0.304
Mof_H 	H 	0.9351	0.1227	0.881	0.305
Mof_H 	H 	0.7255	0.0957	0.8897	0.309
Mof_C 	C 	0.7513	0.32083	0.95235	0.1
Mof_H 	H 	0.7707	0.35	0.9095	-0.002
Mof_C 	C 	0.709	0.1538	0.60251	0.078
Mof_H 	H 	0.7074	0.1235	0.6452	0.003
Mof_C 	C 	0.7076	0.23181	0.61148	-0.152
Mof_C 	C 	0.7053	0.3486	0.69682	-0.828
Mof_H 	H 	0.8172	0.3691	0.6743	0.282
Mof_H 	H 	0.5961	0.3692	0.6723	0.277
Mof_H 	H 	0.7022	0.3615	0.7492	0.289
Mof_N 	N 	0.7127	0.12009	0.5348	-0.156
Mof_O 	O 	0.8382	0.47623	0.15546	-0.292
Mof_O 	O 	0.0932	0.46668	0.08708	-0.289
Mof_C 	C 	0.7085	0.27571	0.54731	0.078
Mof_H 	H 	0.7059	0.3282	0.5509	0.004
Mof_C 	C 	0.0148	0.4681	0.14919	0.315
Mof_C 	C 	0.7157	0.1622	0.4738	0.083
Mof_H 	H 	0.7194	0.1391	0.4269	0.013
Mof_C 	C 	0.7133	0.2415	0.4788	-0.144
Mof_H 	H 	0.7151	0.2707	0.4352	0.084
Mof_C 	C 	0.136	0.46112	0.21944	-0.201
Mof_H 	H 	0.254	0.4877	0.2113	0.095
Mof_H 	H 	0.1653	0.4081	0.2278	0.095
Mof_C 	C 	0.0437	0.4921	0.28771	-0.243
Mof_H 	H 	2.52598e-32	0.5428	0.2762	0.097
Mof_H 	H 	0.933	0.4615	0.2982	0.118
Mof_O 	O 	0.3331	0.49249	0.3578	-0.297
Mof_C 	C 	0.1616	0.49601	0.35926	0.346
Mof_O 	O 	0.0656	0.50613	0.41874	-0.309
_end
