data_functionalizedCrystal
_audit_creation_method	'EQeq! by Chris Wilmer'
_symmetry_space_group_name_H-M	'P1'
_symmetry_Int_Tables_number	1
_symmetry_cell_setting	triclinic
loop_
_symmetry_equiv_pos_as_xyz
  x,y,z
_cell_length_a	30.753
_cell_length_b	15.7285
_cell_length_c	22.119
_cell_angle_alpha	90
_cell_angle_beta	133.118
_cell_angle_gamma	90
loop_
_atom_site_label
_atom_site_type_symbol
_atom_site_fract_x
_atom_site_fract_y
_atom_site_fract_z
_atom_site_charge
Mof_Ce	Ce	0.89005	0.63692	0.32743	1.893
Mof_Ce	Ce	0.83061	0.62847	0.98577	1.914
Mof_N 	N 	0.8386	0.4964	0.2427	-0.181
Mof_N 	N 	0.6334	0.7314	0.0354	-0.187
Mof_O 	O 	0.8655	0.5272	0.3815	-0.599
Mof_O 	O 	0.8261	0.4026	0.3739	-0.546
Mof_O 	O 	0.8758	0.6154	0.2033	-0.553
Mof_O 	O 	0.8405	0.5468	0.0904	-0.595
Mof_O 	O 	0.7476	0.7662	0.1274	-0.56
Mof_O 	O 	0.777	0.6508	0.2058	-0.507
Mof_O 	O 	0.5594	0.8537	0.9311	-0.563
Mof_O 	O 	0.481	0.782	0.8878	-0.59
Mof_C 	C 	0.8386	0.46	0.3463	0.423
Mof_C 	C 	0.815	0.4428	0.2618	-0.123
Mof_C 	C 	0.7756	0.382	0.2083	0.05
Mof_H 	H 	0.7603	0.3458	0.2233	-0.019
Mof_C 	C 	0.7573	0.3727	0.1312	-0.148
Mof_H 	H 	0.7275	0.3347	0.0918	0.038
Mof_C 	C 	0.7862	0.4235	0.1165	0.05
Mof_H 	H 	0.7789	0.4153	0.0686	-0.027
Mof_C 	C 	0.8259	0.4865	0.1722	-0.141
Mof_C 	C 	0.8489	0.5519	0.1536	0.434
Mof_C 	C 	0.7375	0.6985	0.1467	0.411
Mof_C 	C 	0.6745	0.6763	0.0959	-0.116
Mof_C 	C 	0.6558	0.6	0.1058	0.017
Mof_H 	H 	0.6834	0.5603	0.1456	0.003
Mof_C 	C 	0.5958	0.5861	0.0552	-0.117
Mof_H 	H 	0.5828	0.536	0.0608	0.033
Mof_C 	C 	0.5533	0.6461	0.9948	0.014
Mof_H 	H 	0.5125	0.6376	0.9607	-0.016
Mof_C 	C 	0.5766	0.7191	0.9897	-0.12
Mof_C 	C 	0.5352	0.7898	0.9307	0.436
Mof_Ce	Ce	0.39005	0.13692	0.32743	1.895
Mof_Ce	Ce	0.33061	0.12847	0.98577	1.908
Mof_N 	N 	0.3386	0.9964	0.2427	-0.181
Mof_N 	N 	0.1334	0.2314	0.0354	-0.186
Mof_O 	O 	0.3655	0.0272	0.3815	-0.599
Mof_O 	O 	0.3261	0.9026	0.3739	-0.546
Mof_O 	O 	0.3758	0.1154	0.2033	-0.553
Mof_O 	O 	0.3405	0.0468	0.0904	-0.594
Mof_O 	O 	0.2476	0.2662	0.1274	-0.561
Mof_O 	O 	0.277	0.1508	0.2058	-0.507
Mof_O 	O 	0.0594	0.3537	0.9311	-0.565
Mof_O 	O 	0.981	0.282	0.8878	-0.59
Mof_C 	C 	0.3386	0.96	0.3463	0.422
Mof_C 	C 	0.315	0.9428	0.2618	-0.124
Mof_C 	C 	0.2756	0.882	0.2083	0.05
Mof_H 	H 	0.2603	0.8458	0.2233	-0.02
Mof_C 	C 	0.2573	0.8727	0.1312	-0.149
Mof_H 	H 	0.2275	0.8347	0.0918	0.037
Mof_C 	C 	0.2862	0.9235	0.1165	0.051
Mof_H 	H 	0.2789	0.9153	0.0686	-0.029
Mof_C 	C 	0.3259	0.9865	0.1722	-0.143
Mof_C 	C 	0.3489	0.0519	0.1536	0.435
Mof_C 	C 	0.2375	0.1985	0.1467	0.411
Mof_C 	C 	0.1745	0.1763	0.0959	-0.115
Mof_C 	C 	0.1558	0.1	0.1058	0.015
Mof_H 	H 	0.1834	0.0603	0.1456	0.004
Mof_C 	C 	0.0958	0.0861	0.0552	-0.112
Mof_H 	H 	0.0828	0.036	0.0608	0.032
Mof_C 	C 	0.0533	0.1461	0.9948	0.011
Mof_H 	H 	0.0125	0.1376	0.9607	-0.016
Mof_C 	C 	0.0766	0.2191	0.9897	-0.122
Mof_C 	C 	0.0352	0.2898	0.9307	0.436
Mof_Ce	Ce	0.10995	0.63692	0.17257	1.894
Mof_Ce	Ce	0.16939	0.62847	0.51423	1.911
Mof_N 	N 	0.1614	0.4964	0.2573	-0.181
Mof_N 	N 	0.3666	0.7314	0.4646	-0.187
Mof_O 	O 	0.1345	0.5272	0.1185	-0.599
Mof_O 	O 	0.1739	0.4026	0.1261	-0.546
Mof_O 	O 	0.1242	0.6154	0.2967	-0.553
Mof_O 	O 	0.1595	0.5468	0.4096	-0.595
Mof_O 	O 	0.2524	0.7662	0.3726	-0.561
Mof_O 	O 	0.223	0.6508	0.2942	-0.507
Mof_O 	O 	0.4406	0.8537	0.5689	-0.564
Mof_O 	O 	0.519	0.782	0.6122	-0.59
Mof_C 	C 	0.1614	0.46	0.1537	0.423
Mof_C 	C 	0.185	0.4428	0.2382	-0.123
Mof_C 	C 	0.2244	0.382	0.2917	0.05
Mof_H 	H 	0.2397	0.3458	0.2767	-0.019
Mof_C 	C 	0.2427	0.3727	0.3688	-0.148
Mof_H 	H 	0.2725	0.3347	0.4082	0.037
Mof_C 	C 	0.2138	0.4235	0.3835	0.05
Mof_H 	H 	0.2211	0.4153	0.4314	-0.028
Mof_C 	C 	0.1741	0.4865	0.3278	-0.141
Mof_C 	C 	0.1511	0.5519	0.3464	0.433
Mof_C 	C 	0.2625	0.6985	0.3533	0.411
Mof_C 	C 	0.3255	0.6763	0.4041	-0.116
Mof_C 	C 	0.3442	0.6	0.3942	0.016
Mof_H 	H 	0.3166	0.5603	0.3544	0.003
Mof_C 	C 	0.4042	0.5861	0.4448	-0.115
Mof_H 	H 	0.4172	0.536	0.4392	0.033
Mof_C 	C 	0.4467	0.6461	0.5052	0.013
Mof_H 	H 	0.4875	0.6376	0.5393	-0.016
Mof_C 	C 	0.4234	0.7191	0.5103	-0.122
Mof_C 	C 	0.4648	0.7898	0.5693	0.436
Mof_Ce	Ce	0.60995	0.13692	0.17257	1.897
Mof_Ce	Ce	0.66939	0.12847	0.51423	1.91
Mof_N 	N 	0.6614	0.9964	0.2573	-0.182
Mof_N 	N 	0.8666	0.2314	0.4646	-0.187
Mof_O 	O 	0.6345	0.0272	0.1185	-0.597
Mof_O 	O 	0.6739	0.9026	0.1261	-0.545
Mof_O 	O 	0.6242	0.1154	0.2967	-0.553
Mof_O 	O 	0.6595	0.0468	0.4096	-0.595
Mof_O 	O 	0.7524	0.2662	0.3726	-0.56
Mof_O 	O 	0.723	0.1508	0.2942	-0.507
Mof_O 	O 	0.9406	0.3537	0.5689	-0.565
Mof_O 	O 	0.019	0.282	0.6122	-0.59
Mof_C 	C 	0.6614	0.96	0.1537	0.42
Mof_C 	C 	0.685	0.9428	0.2382	-0.123
Mof_C 	C 	0.7244	0.882	0.2917	0.05
Mof_H 	H 	0.7397	0.8458	0.2767	-0.019
Mof_C 	C 	0.7427	0.8727	0.3688	-0.149
Mof_H 	H 	0.7725	0.8347	0.4082	0.037
Mof_C 	C 	0.7138	0.9235	0.3835	0.05
Mof_H 	H 	0.7211	0.9153	0.4314	-0.028
Mof_C 	C 	0.6741	0.9865	0.3278	-0.143
Mof_C 	C 	0.6511	0.0519	0.3464	0.435
Mof_C 	C 	0.7625	0.1985	0.3533	0.411
Mof_C 	C 	0.8255	0.1763	0.4041	-0.116
Mof_C 	C 	0.8442	0.1	0.3942	0.016
Mof_H 	H 	0.8166	0.0603	0.3544	0.004
Mof_C 	C 	0.9042	0.0861	0.4448	-0.116
Mof_H 	H 	0.9172	0.036	0.4392	0.032
Mof_C 	C 	0.9467	0.1461	0.5052	0.013
Mof_H 	H 	0.9875	0.1376	0.5393	-0.016
Mof_C 	C 	0.9234	0.2191	0.5103	-0.122
Mof_C 	C 	0.9648	0.2898	0.5693	0.435
Mof_Ce	Ce	0.10995	0.36308	0.67257	1.894
Mof_Ce	Ce	0.16939	0.37153	0.01423	1.915
Mof_N 	N 	0.1614	0.5036	0.7573	-0.181
Mof_N 	N 	0.3666	0.2686	0.9646	-0.187
Mof_O 	O 	0.1345	0.4728	0.6185	-0.599
Mof_O 	O 	0.1739	0.5974	0.6261	-0.546
Mof_O 	O 	0.1242	0.3846	0.7967	-0.553
Mof_O 	O 	0.1595	0.4532	0.9096	-0.595
Mof_O 	O 	0.2524	0.2338	0.8726	-0.56
Mof_O 	O 	0.223	0.3492	0.7942	-0.507
Mof_O 	O 	0.4406	0.1463	0.0689	-0.563
Mof_O 	O 	0.519	0.218	0.1122	-0.59
Mof_C 	C 	0.1614	0.54	0.6537	0.423
Mof_C 	C 	0.185	0.5572	0.7382	-0.123
Mof_C 	C 	0.2244	0.618	0.7917	0.05
Mof_H 	H 	0.2397	0.6542	0.7767	-0.019
Mof_C 	C 	0.2427	0.6273	0.8688	-0.148
Mof_H 	H 	0.2725	0.6653	0.9082	0.038
Mof_C 	C 	0.2138	0.5765	0.8835	0.05
Mof_H 	H 	0.2211	0.5847	0.9314	-0.027
Mof_C 	C 	0.1741	0.5135	0.8278	-0.141
Mof_C 	C 	0.1511	0.4481	0.8464	0.434
Mof_C 	C 	0.2625	0.3015	0.8533	0.411
Mof_C 	C 	0.3255	0.3237	0.9041	-0.116
Mof_C 	C 	0.3442	0.4	0.8942	0.017
Mof_H 	H 	0.3166	0.4397	0.8544	0.003
Mof_C 	C 	0.4042	0.4139	0.9448	-0.117
Mof_H 	H 	0.4172	0.464	0.9392	0.033
Mof_C 	C 	0.4467	0.3539	0.0052	0.014
Mof_H 	H 	0.4875	0.3624	0.0393	-0.016
Mof_C 	C 	0.4234	0.2809	0.0103	-0.12
Mof_C 	C 	0.4648	0.2102	0.0693	0.436
Mof_Ce	Ce	0.60995	0.86308	0.67257	1.895
Mof_Ce	Ce	0.66939	0.87153	0.01423	1.908
Mof_N 	N 	0.6614	0.0036	0.7573	-0.181
Mof_N 	N 	0.8666	0.7686	0.9646	-0.186
Mof_O 	O 	0.6345	0.9728	0.6185	-0.599
Mof_O 	O 	0.6739	0.0974	0.6261	-0.546
Mof_O 	O 	0.6242	0.8846	0.7967	-0.553
Mof_O 	O 	0.6595	0.9532	0.9096	-0.594
Mof_O 	O 	0.7524	0.7338	0.8726	-0.561
Mof_O 	O 	0.723	0.8492	0.7942	-0.507
Mof_O 	O 	0.9406	0.6463	0.0689	-0.565
Mof_O 	O 	0.019	0.718	0.1122	-0.59
Mof_C 	C 	0.6614	0.04	0.6537	0.422
Mof_C 	C 	0.685	0.0572	0.7382	-0.124
Mof_C 	C 	0.7244	0.118	0.7917	0.05
Mof_H 	H 	0.7397	0.1542	0.7767	-0.02
Mof_C 	C 	0.7427	0.1273	0.8688	-0.149
Mof_H 	H 	0.7725	0.1653	0.9082	0.037
Mof_C 	C 	0.7138	0.0765	0.8835	0.051
Mof_H 	H 	0.7211	0.0847	0.9314	-0.029
Mof_C 	C 	0.6741	0.0135	0.8278	-0.143
Mof_C 	C 	0.6511	0.9481	0.8464	0.435
Mof_C 	C 	0.7625	0.8015	0.8533	0.411
Mof_C 	C 	0.8255	0.8237	0.9041	-0.115
Mof_C 	C 	0.8442	0.9	0.8942	0.015
Mof_H 	H 	0.8166	0.9397	0.8544	0.004
Mof_C 	C 	0.9042	0.9139	0.9448	-0.112
Mof_H 	H 	0.9172	0.964	0.9392	0.032
Mof_C 	C 	0.9467	0.8539	0.0052	0.011
Mof_H 	H 	0.9875	0.8624	0.0393	-0.016
Mof_C 	C 	0.9234	0.7809	0.0103	-0.122
Mof_C 	C 	0.9648	0.7102	0.0693	0.436
Mof_Ce	Ce	0.89005	0.36308	0.82743	1.894
Mof_Ce	Ce	0.83061	0.37153	0.48577	1.911
Mof_N 	N 	0.8386	0.5036	0.7427	-0.181
Mof_N 	N 	0.6334	0.2686	0.5354	-0.187
Mof_O 	O 	0.8655	0.4728	0.8815	-0.599
Mof_O 	O 	0.8261	0.5974	0.8739	-0.546
Mof_O 	O 	0.8758	0.3846	0.7033	-0.553
Mof_O 	O 	0.8405	0.4532	0.5904	-0.595
Mof_O 	O 	0.7476	0.2338	0.6274	-0.561
Mof_O 	O 	0.777	0.3492	0.7058	-0.507
Mof_O 	O 	0.5594	0.1463	0.4311	-0.564
Mof_O 	O 	0.481	0.218	0.3878	-0.59
Mof_C 	C 	0.8386	0.54	0.8463	0.423
Mof_C 	C 	0.815	0.5572	0.7618	-0.123
Mof_C 	C 	0.7756	0.618	0.7083	0.05
Mof_H 	H 	0.7603	0.6542	0.7233	-0.019
Mof_C 	C 	0.7573	0.6273	0.6312	-0.148
Mof_H 	H 	0.7275	0.6653	0.5918	0.037
Mof_C 	C 	0.7862	0.5765	0.6165	0.05
Mof_H 	H 	0.7789	0.5847	0.5686	-0.028
Mof_C 	C 	0.8259	0.5135	0.6722	-0.141
Mof_C 	C 	0.8489	0.4481	0.6536	0.433
Mof_C 	C 	0.7375	0.3015	0.6467	0.411
Mof_C 	C 	0.6745	0.3237	0.5959	-0.116
Mof_C 	C 	0.6558	0.4	0.6058	0.016
Mof_H 	H 	0.6834	0.4397	0.6456	0.003
Mof_C 	C 	0.5958	0.4139	0.5552	-0.115
Mof_H 	H 	0.5828	0.464	0.5608	0.033
Mof_C 	C 	0.5533	0.3539	0.4948	0.013
Mof_H 	H 	0.5125	0.3624	0.4607	-0.016
Mof_C 	C 	0.5766	0.2809	0.4897	-0.122
Mof_C 	C 	0.5352	0.2102	0.4307	0.436
Mof_Ce	Ce	0.39005	0.86308	0.82743	1.897
Mof_Ce	Ce	0.33061	0.87153	0.48577	1.91
Mof_N 	N 	0.3386	0.0036	0.7427	-0.182
Mof_N 	N 	0.1334	0.7686	0.5354	-0.187
Mof_O 	O 	0.3655	0.9728	0.8815	-0.597
Mof_O 	O 	0.3261	0.0974	0.8739	-0.545
Mof_O 	O 	0.3758	0.8846	0.7033	-0.553
Mof_O 	O 	0.3405	0.9532	0.5904	-0.595
Mof_O 	O 	0.2476	0.7338	0.6274	-0.56
Mof_O 	O 	0.277	0.8492	0.7058	-0.507
Mof_O 	O 	0.0594	0.6463	0.4311	-0.565
Mof_O 	O 	0.981	0.718	0.3878	-0.59
Mof_C 	C 	0.3386	0.04	0.8463	0.42
Mof_C 	C 	0.315	0.0572	0.7618	-0.123
Mof_C 	C 	0.2756	0.118	0.7083	0.05
Mof_H 	H 	0.2603	0.1542	0.7233	-0.019
Mof_C 	C 	0.2573	0.1273	0.6312	-0.149
Mof_H 	H 	0.2275	0.1653	0.5918	0.037
Mof_C 	C 	0.2862	0.0765	0.6165	0.05
Mof_H 	H 	0.2789	0.0847	0.5686	-0.028
Mof_C 	C 	0.3259	0.0135	0.6722	-0.143
Mof_C 	C 	0.3489	0.9481	0.6536	0.435
Mof_C 	C 	0.2375	0.8015	0.6467	0.411
Mof_C 	C 	0.1745	0.8237	0.5959	-0.116
Mof_C 	C 	0.1558	0.9	0.6058	0.016
Mof_H 	H 	0.1834	0.9397	0.6456	0.004
Mof_C 	C 	0.0958	0.9139	0.5552	-0.116
Mof_H 	H 	0.0828	0.964	0.5608	0.032
Mof_C 	C 	0.0533	0.8539	0.4948	0.013
Mof_H 	H 	0.0125	0.8624	0.4607	-0.016
Mof_C 	C 	0.0766	0.7809	0.4897	-0.122
Mof_C 	C 	0.0352	0.7102	0.4307	0.435
_end
