data_functionalizedCrystal
_audit_creation_method	'EQeq! by Chris Wilmer'
_symmetry_space_group_name_H-M	'P1'
_symmetry_Int_Tables_number	1
_symmetry_cell_setting	triclinic
loop_
_symmetry_equiv_pos_as_xyz
  x,y,z
_cell_length_a	20.2313
_cell_length_b	20.2313
_cell_length_c	20.2313
_cell_angle_alpha	90
_cell_angle_beta	90
_cell_angle_gamma	90
loop_
_atom_site_label
_atom_site_type_symbol
_atom_site_fract_x
_atom_site_fract_y
_atom_site_fract_z
_atom_site_charge
Mof_N 	N 	0.275	0.518	0.327	-0.162
Mof_N 	N 	0.372	0.417	0.326	-0.211
Mof_N 	N 	0.454	0.41	0.219	-0.169
Mof_C 	C 	0.272	0.463	0.368	0.044
Mof_C 	C 	0.225	0.565	0.328	0.068
Mof_C 	C 	0.328	0.417	0.371	0.108
Mof_C 	C 	0.501	0.411	0.168	0.063
Mof_C 	C 	0.171	0.556	0.37	-0.136
Mof_H 	H 	0.227	0.6015	0.3008	-0.001
Mof_H 	H 	0.4954	0.4395	0.1324	-0.007
Mof_H 	H 	0.1376	0.5873	0.3711	0.072
Mof_N 	N 	0.775	0.018	0.827	-0.172
Mof_N 	N 	0.872	0.917	0.826	-0.201
Mof_N 	N 	0.954	0.91	0.719	-0.136
Mof_C 	C 	0.772	0.963	0.868	0.071
Mof_C 	C 	0.725	0.065	0.828	0.038
Mof_C 	C 	0.828	0.917	0.871	0.111
Mof_C 	C 	0.001	0.911	0.668	-0.042
Mof_C 	C 	0.671	0.056	0.87	-0.079
Mof_H 	H 	0.727	0.1015	0.8008	0.01
Mof_H 	H 	0.9954	0.9395	0.6324	0.063
Mof_H 	H 	0.6376	0.0873	0.8711	0.053
Mof_N 	N 	0.225	0.482	0.827	-0.162
Mof_N 	N 	0.128	0.583	0.826	-0.212
Mof_N 	N 	0.046	0.59	0.719	-0.194
Mof_C 	C 	0.228	0.537	0.868	0.047
Mof_C 	C 	0.275	0.435	0.828	0.07
Mof_C 	C 	0.172	0.583	0.871	0.11
Mof_C 	C 	0.999	0.589	0.668	0.171
Mof_C 	C 	0.329	0.444	0.87	-0.133
Mof_H 	H 	0.273	0.3985	0.8008	-0
Mof_H 	H 	0.0046	0.5605	0.6324	-0.063
Mof_H 	H 	0.3624	0.4127	0.8711	0.076
Mof_N 	N 	0.725	0.982	0.327	-0.145
Mof_N 	N 	0.628	0.083	0.326	-0.212
Mof_N 	N 	0.546	0.09	0.219	-0.169
Mof_C 	C 	0.728	0.037	0.368	0.022
Mof_C 	C 	0.775	0.935	0.328	0.101
Mof_C 	C 	0.672	0.083	0.371	0.11
Mof_C 	C 	0.499	0.089	0.168	0.06
Mof_C 	C 	0.829	0.944	0.37	-0.188
Mof_H 	H 	0.773	0.8985	0.3008	-0.008
Mof_H 	H 	0.5046	0.0605	0.1324	-0.012
Mof_H 	H 	0.8624	0.9127	0.3711	0.101
Mof_N 	N 	0.725	0.018	0.173	-0.172
Mof_N 	N 	0.628	0.917	0.174	-0.201
Mof_N 	N 	0.546	0.91	0.281	-0.161
Mof_C 	C 	0.728	0.963	0.132	0.067
Mof_C 	C 	0.775	0.065	0.172	0.036
Mof_C 	C 	0.672	0.917	0.129	0.106
Mof_C 	C 	0.499	0.911	0.332	0.065
Mof_C 	C 	0.829	0.056	0.13	-0.083
Mof_H 	H 	0.773	0.1015	0.1992	0.01
Mof_H 	H 	0.5046	0.9395	0.3676	0.005
Mof_H 	H 	0.8624	0.0873	0.1289	0.051
Mof_N 	N 	0.225	0.518	0.673	-0.163
Mof_N 	N 	0.128	0.417	0.674	-0.213
Mof_N 	N 	0.046	0.41	0.781	-0.194
Mof_C 	C 	0.228	0.463	0.632	0.044
Mof_C 	C 	0.275	0.565	0.672	0.068
Mof_C 	C 	0.172	0.417	0.629	0.107
Mof_C 	C 	0.999	0.411	0.832	0.171
Mof_C 	C 	0.329	0.556	0.63	-0.135
Mof_H 	H 	0.273	0.6015	0.6992	-0
Mof_H 	H 	0.0046	0.4395	0.8676	-0.059
Mof_H 	H 	0.3624	0.5873	0.6289	0.074
Mof_N 	N 	0.775	0.982	0.673	-0.146
Mof_N 	N 	0.872	0.083	0.674	-0.211
Mof_N 	N 	0.954	0.09	0.781	-0.144
Mof_C 	C 	0.772	0.037	0.632	0.022
Mof_C 	C 	0.725	0.935	0.672	0.1
Mof_C 	C 	0.828	0.083	0.629	0.111
Mof_C 	C 	0.001	0.089	0.832	-0.046
Mof_C 	C 	0.671	0.944	0.63	-0.189
Mof_H 	H 	0.727	0.8985	0.6992	-0.008
Mof_H 	H 	0.9954	0.0605	0.8676	0.052
Mof_H 	H 	0.6376	0.9127	0.6289	0.097
Mof_N 	N 	0.275	0.482	0.173	-0.163
Mof_N 	N 	0.372	0.583	0.174	-0.212
Mof_N 	N 	0.454	0.59	0.281	-0.169
Mof_C 	C 	0.272	0.537	0.132	0.043
Mof_C 	C 	0.225	0.435	0.172	0.067
Mof_C 	C 	0.328	0.583	0.129	0.107
Mof_C 	C 	0.501	0.589	0.332	0.062
Mof_C 	C 	0.171	0.444	0.13	-0.138
Mof_H 	H 	0.227	0.3985	0.1992	-0.001
Mof_H 	H 	0.4954	0.5605	0.3676	-0.004
Mof_H 	H 	0.1376	0.4127	0.1289	0.07
Mof_N 	N 	0.327	0.275	0.518	-0.163
Mof_N 	N 	0.326	0.372	0.417	-0.212
Mof_N 	N 	0.219	0.454	0.41	-0.17
Mof_C 	C 	0.368	0.272	0.463	0.044
Mof_C 	C 	0.328	0.225	0.565	0.068
Mof_C 	C 	0.371	0.328	0.417	0.108
Mof_C 	C 	0.168	0.501	0.411	0.063
Mof_C 	C 	0.37	0.171	0.556	-0.136
Mof_H 	H 	0.3008	0.227	0.6015	-0.001
Mof_H 	H 	0.1324	0.4954	0.4395	-0.007
Mof_H 	H 	0.3711	0.1376	0.5873	0.072
Mof_N 	N 	0.827	0.775	0.018	-0.172
Mof_N 	N 	0.826	0.872	0.917	-0.201
Mof_N 	N 	0.719	0.954	0.91	-0.136
Mof_C 	C 	0.868	0.772	0.963	0.071
Mof_C 	C 	0.828	0.725	0.065	0.038
Mof_C 	C 	0.871	0.828	0.917	0.111
Mof_C 	C 	0.668	0.001	0.911	-0.042
Mof_C 	C 	0.87	0.671	0.056	-0.079
Mof_H 	H 	0.8008	0.727	0.1015	0.01
Mof_H 	H 	0.6324	0.9954	0.9395	0.063
Mof_H 	H 	0.8711	0.6376	0.0873	0.053
Mof_N 	N 	0.827	0.225	0.482	-0.162
Mof_N 	N 	0.826	0.128	0.583	-0.212
Mof_N 	N 	0.719	0.046	0.59	-0.194
Mof_C 	C 	0.868	0.228	0.537	0.047
Mof_C 	C 	0.828	0.275	0.435	0.07
Mof_C 	C 	0.871	0.172	0.583	0.11
Mof_C 	C 	0.668	0.999	0.589	0.171
Mof_C 	C 	0.87	0.329	0.444	-0.133
Mof_H 	H 	0.8008	0.273	0.3985	-0
Mof_H 	H 	0.6324	0.0046	0.5605	-0.063
Mof_H 	H 	0.8711	0.3624	0.4127	0.076
Mof_N 	N 	0.327	0.725	0.982	-0.145
Mof_N 	N 	0.326	0.628	0.083	-0.212
Mof_N 	N 	0.219	0.546	0.09	-0.169
Mof_C 	C 	0.368	0.728	0.037	0.022
Mof_C 	C 	0.328	0.775	0.935	0.101
Mof_C 	C 	0.371	0.672	0.083	0.11
Mof_C 	C 	0.168	0.499	0.089	0.06
Mof_C 	C 	0.37	0.829	0.944	-0.188
Mof_H 	H 	0.3008	0.773	0.8985	-0.008
Mof_H 	H 	0.1324	0.5046	0.0605	-0.012
Mof_H 	H 	0.3711	0.8624	0.9127	0.101
Mof_N 	N 	0.173	0.725	0.018	-0.172
Mof_N 	N 	0.174	0.628	0.917	-0.201
Mof_N 	N 	0.281	0.546	0.91	-0.161
Mof_C 	C 	0.132	0.728	0.963	0.067
Mof_C 	C 	0.172	0.775	0.065	0.036
Mof_C 	C 	0.129	0.672	0.917	0.106
Mof_C 	C 	0.332	0.499	0.911	0.065
Mof_C 	C 	0.13	0.829	0.056	-0.083
Mof_H 	H 	0.1992	0.773	0.1015	0.01
Mof_H 	H 	0.3676	0.5046	0.9395	0.005
Mof_H 	H 	0.1289	0.8624	0.0873	0.051
Mof_N 	N 	0.673	0.225	0.518	-0.163
Mof_N 	N 	0.674	0.128	0.417	-0.213
Mof_N 	N 	0.781	0.046	0.41	-0.194
Mof_C 	C 	0.632	0.228	0.463	0.044
Mof_C 	C 	0.672	0.275	0.565	0.068
Mof_C 	C 	0.629	0.172	0.417	0.107
Mof_C 	C 	0.832	0.999	0.411	0.171
Mof_C 	C 	0.63	0.329	0.556	-0.135
Mof_H 	H 	0.6992	0.273	0.6015	-0
Mof_H 	H 	0.8676	0.0046	0.4395	-0.059
Mof_H 	H 	0.6289	0.3624	0.5873	0.074
Mof_N 	N 	0.673	0.775	0.982	-0.146
Mof_N 	N 	0.674	0.872	0.083	-0.211
Mof_N 	N 	0.781	0.954	0.09	-0.144
Mof_C 	C 	0.632	0.772	0.037	0.022
Mof_C 	C 	0.672	0.725	0.935	0.1
Mof_C 	C 	0.629	0.828	0.083	0.111
Mof_C 	C 	0.832	0.001	0.089	-0.046
Mof_C 	C 	0.63	0.671	0.944	-0.189
Mof_H 	H 	0.6992	0.727	0.8985	-0.008
Mof_H 	H 	0.8676	0.9954	0.0605	0.052
Mof_H 	H 	0.6289	0.6376	0.9127	0.097
Mof_N 	N 	0.173	0.275	0.482	-0.163
Mof_N 	N 	0.174	0.372	0.583	-0.212
Mof_N 	N 	0.281	0.454	0.59	-0.169
Mof_C 	C 	0.132	0.272	0.537	0.043
Mof_C 	C 	0.172	0.225	0.435	0.067
Mof_C 	C 	0.129	0.328	0.583	0.107
Mof_C 	C 	0.332	0.501	0.589	0.062
Mof_C 	C 	0.13	0.171	0.444	-0.138
Mof_H 	H 	0.1992	0.227	0.3985	-0.001
Mof_H 	H 	0.3676	0.4954	0.5605	-0.004
Mof_H 	H 	0.1289	0.1376	0.4127	0.07
Mof_N 	N 	0.518	0.327	0.275	-0.163
Mof_N 	N 	0.417	0.326	0.372	-0.212
Mof_N 	N 	0.41	0.219	0.454	-0.17
Mof_C 	C 	0.463	0.368	0.272	0.044
Mof_C 	C 	0.565	0.328	0.225	0.068
Mof_C 	C 	0.417	0.371	0.328	0.108
Mof_C 	C 	0.411	0.168	0.501	0.063
Mof_C 	C 	0.556	0.37	0.171	-0.136
Mof_H 	H 	0.6015	0.3008	0.227	-0.001
Mof_H 	H 	0.4395	0.1324	0.4954	-0.007
Mof_H 	H 	0.5873	0.3711	0.1376	0.072
Mof_N 	N 	0.018	0.827	0.775	-0.172
Mof_N 	N 	0.917	0.826	0.872	-0.201
Mof_N 	N 	0.91	0.719	0.954	-0.136
Mof_C 	C 	0.963	0.868	0.772	0.071
Mof_C 	C 	0.065	0.828	0.725	0.038
Mof_C 	C 	0.917	0.871	0.828	0.111
Mof_C 	C 	0.911	0.668	0.001	-0.042
Mof_C 	C 	0.056	0.87	0.671	-0.079
Mof_H 	H 	0.1015	0.8008	0.727	0.01
Mof_H 	H 	0.9395	0.6324	0.9954	0.063
Mof_H 	H 	0.0873	0.8711	0.6376	0.053
Mof_N 	N 	0.482	0.827	0.225	-0.162
Mof_N 	N 	0.583	0.826	0.128	-0.212
Mof_N 	N 	0.59	0.719	0.046	-0.194
Mof_C 	C 	0.537	0.868	0.228	0.047
Mof_C 	C 	0.435	0.828	0.275	0.07
Mof_C 	C 	0.583	0.871	0.172	0.11
Mof_C 	C 	0.589	0.668	0.999	0.171
Mof_C 	C 	0.444	0.87	0.329	-0.133
Mof_H 	H 	0.3985	0.8008	0.273	-0
Mof_H 	H 	0.5605	0.6324	0.0046	-0.063
Mof_H 	H 	0.4127	0.8711	0.3624	0.076
Mof_N 	N 	0.982	0.327	0.725	-0.145
Mof_N 	N 	0.083	0.326	0.628	-0.212
Mof_N 	N 	0.09	0.219	0.546	-0.169
Mof_C 	C 	0.037	0.368	0.728	0.022
Mof_C 	C 	0.935	0.328	0.775	0.101
Mof_C 	C 	0.083	0.371	0.672	0.11
Mof_C 	C 	0.089	0.168	0.499	0.06
Mof_C 	C 	0.944	0.37	0.829	-0.188
Mof_H 	H 	0.8985	0.3008	0.773	-0.008
Mof_H 	H 	0.0605	0.1324	0.5046	-0.012
Mof_H 	H 	0.9127	0.3711	0.8624	0.101
Mof_N 	N 	0.018	0.173	0.725	-0.172
Mof_N 	N 	0.917	0.174	0.628	-0.201
Mof_N 	N 	0.91	0.281	0.546	-0.161
Mof_C 	C 	0.963	0.132	0.728	0.067
Mof_C 	C 	0.065	0.172	0.775	0.036
Mof_C 	C 	0.917	0.129	0.672	0.106
Mof_C 	C 	0.911	0.332	0.499	0.065
Mof_C 	C 	0.056	0.13	0.829	-0.083
Mof_H 	H 	0.1015	0.1992	0.773	0.01
Mof_H 	H 	0.9395	0.3676	0.5046	0.005
Mof_H 	H 	0.0873	0.1289	0.8624	0.051
Mof_N 	N 	0.518	0.673	0.225	-0.163
Mof_N 	N 	0.417	0.674	0.128	-0.213
Mof_N 	N 	0.41	0.781	0.046	-0.194
Mof_C 	C 	0.463	0.632	0.228	0.044
Mof_C 	C 	0.565	0.672	0.275	0.068
Mof_C 	C 	0.417	0.629	0.172	0.107
Mof_C 	C 	0.411	0.832	0.999	0.171
Mof_C 	C 	0.556	0.63	0.329	-0.135
Mof_H 	H 	0.6015	0.6992	0.273	-0
Mof_H 	H 	0.4395	0.8676	0.0046	-0.059
Mof_H 	H 	0.5873	0.6289	0.3624	0.074
Mof_N 	N 	0.982	0.673	0.775	-0.146
Mof_N 	N 	0.083	0.674	0.872	-0.211
Mof_N 	N 	0.09	0.781	0.954	-0.144
Mof_C 	C 	0.037	0.632	0.772	0.022
Mof_C 	C 	0.935	0.672	0.725	0.1
Mof_C 	C 	0.083	0.629	0.828	0.111
Mof_C 	C 	0.089	0.832	0.001	-0.046
Mof_C 	C 	0.944	0.63	0.671	-0.189
Mof_H 	H 	0.8985	0.6992	0.727	-0.008
Mof_H 	H 	0.0605	0.8676	0.9954	0.052
Mof_H 	H 	0.9127	0.6289	0.6376	0.097
Mof_N 	N 	0.482	0.173	0.275	-0.163
Mof_N 	N 	0.583	0.174	0.372	-0.212
Mof_N 	N 	0.59	0.281	0.454	-0.169
Mof_C 	C 	0.537	0.132	0.272	0.043
Mof_C 	C 	0.435	0.172	0.225	0.067
Mof_C 	C 	0.583	0.129	0.328	0.107
Mof_C 	C 	0.589	0.332	0.501	0.062
Mof_C 	C 	0.444	0.13	0.171	-0.138
Mof_H 	H 	0.3985	0.1992	0.227	-0.001
Mof_H 	H 	0.5605	0.3676	0.4954	-0.004
Mof_H 	H 	0.4127	0.1289	0.1376	0.07
Mof_Ag	Ag	0.3753	0.5	0.25	0.655
Mof_Ag	Ag	0.1247	0.5	0.75	0.653
Mof_Ag	Ag	0.6247	0	0.25	0.604
Mof_Ag	Ag	0.8753	6.0969e-33	0.75	0.612
Mof_Ag	Ag	0.25	0.3753	0.5	0.655
Mof_Ag	Ag	0.75	0.1247	0.5	0.653
Mof_Ag	Ag	0.25	0.6247	-0	0.604
Mof_Ag	Ag	0.75	0.8753	-0	0.612
Mof_Ag	Ag	0.5	0.25	0.3753	0.655
Mof_Ag	Ag	0.5	0.75	0.1247	0.653
Mof_Ag	Ag	2.34225e-33	0.25	0.6247	0.604
Mof_Ag	Ag	-8.91195e-33	0.75	0.8753	0.612
Mof_N 	N 	0.768	0.525	0.577	-0.162
Mof_N 	N 	0.667	0.622	0.576	-0.212
Mof_N 	N 	0.66	0.704	0.469	-0.169
Mof_C 	C 	0.713	0.522	0.618	0.044
Mof_C 	C 	0.815	0.475	0.578	0.069
Mof_C 	C 	0.667	0.578	0.621	0.108
Mof_C 	C 	0.661	0.751	0.418	0.063
Mof_C 	C 	0.806	0.421	0.62	-0.135
Mof_H 	H 	0.8515	0.477	0.5508	0.003
Mof_H 	H 	0.6895	0.7454	0.3824	-0.003
Mof_H 	H 	0.8373	0.3876	0.6211	0.076
Mof_N 	N 	0.268	0.025	0.077	-0.179
Mof_N 	N 	0.167	0.122	0.076	-0.214
Mof_N 	N 	0.16	0.204	0.969	-0.148
Mof_C 	C 	0.213	0.022	0.118	0.016
Mof_C 	C 	0.315	0.975	0.078	0.101
Mof_C 	C 	0.167	0.078	0.121	0.109
Mof_C 	C 	0.161	0.251	0.918	0.072
Mof_C 	C 	0.306	0.921	0.12	-0.148
Mof_H 	H 	0.3515	0.977	0.0508	-0.009
Mof_H 	H 	0.1895	0.2454	0.8824	-0.005
Mof_H 	H 	0.3373	0.8876	0.1211	0.077
Mof_N 	N 	0.732	0.475	0.077	-0.163
Mof_N 	N 	0.833	0.378	0.076	-0.212
Mof_N 	N 	0.84	0.296	0.969	-0.148
Mof_C 	C 	0.787	0.478	0.118	0.042
Mof_C 	C 	0.685	0.525	0.078	0.065
Mof_C 	C 	0.833	0.422	0.121	0.108
Mof_C 	C 	0.839	0.249	0.918	0.075
Mof_C 	C 	0.694	0.579	0.12	-0.137
Mof_H 	H 	0.6485	0.523	0.0508	-0.006
Mof_H 	H 	0.8105	0.2546	0.8824	-0.005
Mof_H 	H 	0.6627	0.6124	0.1211	0.071
Mof_N 	N 	0.232	0.975	0.577	-0.148
Mof_N 	N 	0.333	0.878	0.576	-0.211
Mof_N 	N 	0.34	0.796	0.469	-0.169
Mof_C 	C 	0.287	0.978	0.618	0.072
Mof_C 	C 	0.185	0.025	0.578	0.032
Mof_C 	C 	0.333	0.922	0.621	0.107
Mof_C 	C 	0.339	0.749	0.418	0.063
Mof_C 	C 	0.194	0.079	0.62	-0.124
Mof_H 	H 	0.1485	0.023	0.5508	-0
Mof_H 	H 	0.3105	0.7546	0.3824	-0.004
Mof_H 	H 	0.1627	0.1124	0.6211	0.067
Mof_N 	N 	0.268	0.975	0.423	-0.147
Mof_N 	N 	0.167	0.878	0.424	-0.211
Mof_N 	N 	0.16	0.796	0.531	-0.169
Mof_C 	C 	0.213	0.978	0.382	0.072
Mof_C 	C 	0.315	0.025	0.422	0.032
Mof_C 	C 	0.167	0.922	0.379	0.105
Mof_C 	C 	0.161	0.749	0.582	0.061
Mof_C 	C 	0.306	0.079	0.38	-0.123
Mof_H 	H 	0.3515	0.023	0.4492	0.003
Mof_H 	H 	0.1895	0.7546	0.6176	-0.004
Mof_H 	H 	0.3373	0.1124	0.3789	0.067
Mof_N 	N 	0.768	0.475	0.923	-0.153
Mof_N 	N 	0.667	0.378	0.924	-0.2
Mof_N 	N 	0.66	0.296	0.031	-0.182
Mof_C 	C 	0.713	0.478	0.882	0.049
Mof_C 	C 	0.815	0.525	0.922	0.072
Mof_C 	C 	0.667	0.422	0.879	0.111
Mof_C 	C 	0.661	0.249	0.082	0.051
Mof_C 	C 	0.806	0.579	0.88	-0.133
Mof_H 	H 	0.8515	0.523	0.9492	0.011
Mof_H 	H 	0.6895	0.2546	0.1176	-0
Mof_H 	H 	0.8373	0.6124	0.8789	0.079
Mof_N 	N 	0.232	0.025	0.923	-0.169
Mof_N 	N 	0.333	0.122	0.924	-0.201
Mof_N 	N 	0.34	0.204	0.031	-0.182
Mof_C 	C 	0.287	0.022	0.882	0.023
Mof_C 	C 	0.185	0.975	0.922	0.107
Mof_C 	C 	0.333	0.078	0.879	0.113
Mof_C 	C 	0.339	0.251	0.082	0.051
Mof_C 	C 	0.194	0.921	0.88	-0.146
Mof_H 	H 	0.1485	0.977	0.9492	0.001
Mof_H 	H 	0.3105	0.2454	0.1176	-0
Mof_H 	H 	0.1627	0.8876	0.8789	0.082
Mof_N 	N 	0.732	0.525	0.423	-0.163
Mof_N 	N 	0.833	0.622	0.424	-0.212
Mof_N 	N 	0.84	0.704	0.531	-0.169
Mof_C 	C 	0.787	0.522	0.382	0.044
Mof_C 	C 	0.685	0.475	0.422	0.069
Mof_C 	C 	0.833	0.578	0.379	0.11
Mof_C 	C 	0.839	0.751	0.582	0.064
Mof_C 	C 	0.694	0.421	0.38	-0.136
Mof_H 	H 	0.6485	0.477	0.4492	-0.001
Mof_H 	H 	0.8105	0.7454	0.6176	-0.003
Mof_H 	H 	0.6627	0.3876	0.3789	0.074
Mof_N 	N 	0.525	0.577	0.768	-0.162
Mof_N 	N 	0.622	0.576	0.667	-0.212
Mof_N 	N 	0.704	0.469	0.66	-0.169
Mof_C 	C 	0.522	0.618	0.713	0.044
Mof_C 	C 	0.475	0.578	0.815	0.069
Mof_C 	C 	0.578	0.621	0.667	0.108
Mof_C 	C 	0.751	0.418	0.661	0.063
Mof_C 	C 	0.421	0.62	0.806	-0.135
Mof_H 	H 	0.477	0.5508	0.8515	0.003
Mof_H 	H 	0.7454	0.3824	0.6895	-0.003
Mof_H 	H 	0.3876	0.6211	0.8373	0.076
Mof_N 	N 	0.025	0.077	0.268	-0.179
Mof_N 	N 	0.122	0.076	0.167	-0.214
Mof_N 	N 	0.204	0.969	0.16	-0.148
Mof_C 	C 	0.022	0.118	0.213	0.016
Mof_C 	C 	0.975	0.078	0.315	0.101
Mof_C 	C 	0.078	0.121	0.167	0.109
Mof_C 	C 	0.251	0.918	0.161	0.072
Mof_C 	C 	0.921	0.12	0.306	-0.148
Mof_H 	H 	0.977	0.0508	0.3515	-0.009
Mof_H 	H 	0.2454	0.8824	0.1895	-0.005
Mof_H 	H 	0.8876	0.1211	0.3373	0.077
Mof_N 	N 	0.475	0.077	0.732	-0.163
Mof_N 	N 	0.378	0.076	0.833	-0.212
Mof_N 	N 	0.296	0.969	0.84	-0.148
Mof_C 	C 	0.478	0.118	0.787	0.042
Mof_C 	C 	0.525	0.078	0.685	0.065
Mof_C 	C 	0.422	0.121	0.833	0.108
Mof_C 	C 	0.249	0.918	0.839	0.075
Mof_C 	C 	0.579	0.12	0.694	-0.137
Mof_H 	H 	0.523	0.0508	0.6485	-0.006
Mof_H 	H 	0.2546	0.8824	0.8105	-0.005
Mof_H 	H 	0.6124	0.1211	0.6627	0.071
Mof_N 	N 	0.975	0.577	0.232	-0.148
Mof_N 	N 	0.878	0.576	0.333	-0.211
Mof_N 	N 	0.796	0.469	0.34	-0.169
Mof_C 	C 	0.978	0.618	0.287	0.072
Mof_C 	C 	0.025	0.578	0.185	0.032
Mof_C 	C 	0.922	0.621	0.333	0.107
Mof_C 	C 	0.749	0.418	0.339	0.063
Mof_C 	C 	0.079	0.62	0.194	-0.124
Mof_H 	H 	0.023	0.5508	0.1485	-0
Mof_H 	H 	0.7546	0.3824	0.3105	-0.004
Mof_H 	H 	0.1124	0.6211	0.1627	0.067
Mof_N 	N 	0.975	0.423	0.268	-0.147
Mof_N 	N 	0.878	0.424	0.167	-0.211
Mof_N 	N 	0.796	0.531	0.16	-0.169
Mof_C 	C 	0.978	0.382	0.213	0.072
Mof_C 	C 	0.025	0.422	0.315	0.032
Mof_C 	C 	0.922	0.379	0.167	0.105
Mof_C 	C 	0.749	0.582	0.161	0.061
Mof_C 	C 	0.079	0.38	0.306	-0.123
Mof_H 	H 	0.023	0.4492	0.3515	0.003
Mof_H 	H 	0.7546	0.6176	0.1895	-0.004
Mof_H 	H 	0.1124	0.3789	0.3373	0.067
Mof_N 	N 	0.475	0.923	0.768	-0.153
Mof_N 	N 	0.378	0.924	0.667	-0.2
Mof_N 	N 	0.296	0.031	0.66	-0.182
Mof_C 	C 	0.478	0.882	0.713	0.049
Mof_C 	C 	0.525	0.922	0.815	0.072
Mof_C 	C 	0.422	0.879	0.667	0.111
Mof_C 	C 	0.249	0.082	0.661	0.051
Mof_C 	C 	0.579	0.88	0.806	-0.133
Mof_H 	H 	0.523	0.9492	0.8515	0.011
Mof_H 	H 	0.2546	0.1176	0.6895	-0
Mof_H 	H 	0.6124	0.8789	0.8373	0.079
Mof_N 	N 	0.025	0.923	0.232	-0.169
Mof_N 	N 	0.122	0.924	0.333	-0.201
Mof_N 	N 	0.204	0.031	0.34	-0.182
Mof_C 	C 	0.022	0.882	0.287	0.023
Mof_C 	C 	0.975	0.922	0.185	0.107
Mof_C 	C 	0.078	0.879	0.333	0.113
Mof_C 	C 	0.251	0.082	0.339	0.051
Mof_C 	C 	0.921	0.88	0.194	-0.146
Mof_H 	H 	0.977	0.9492	0.1485	0.001
Mof_H 	H 	0.2454	0.1176	0.3105	-0
Mof_H 	H 	0.8876	0.8789	0.1627	0.082
Mof_N 	N 	0.525	0.423	0.732	-0.163
Mof_N 	N 	0.622	0.424	0.833	-0.212
Mof_N 	N 	0.704	0.531	0.84	-0.169
Mof_C 	C 	0.522	0.382	0.787	0.044
Mof_C 	C 	0.475	0.422	0.685	0.069
Mof_C 	C 	0.578	0.379	0.833	0.11
Mof_C 	C 	0.751	0.582	0.839	0.064
Mof_C 	C 	0.421	0.38	0.694	-0.136
Mof_H 	H 	0.477	0.4492	0.6485	-0.001
Mof_H 	H 	0.7454	0.6176	0.8105	-0.003
Mof_H 	H 	0.3876	0.3789	0.6627	0.074
Mof_N 	N 	0.577	0.768	0.525	-0.162
Mof_N 	N 	0.576	0.667	0.622	-0.212
Mof_N 	N 	0.469	0.66	0.704	-0.169
Mof_C 	C 	0.618	0.713	0.522	0.044
Mof_C 	C 	0.578	0.815	0.475	0.069
Mof_C 	C 	0.621	0.667	0.578	0.108
Mof_C 	C 	0.418	0.661	0.751	0.063
Mof_C 	C 	0.62	0.806	0.421	-0.135
Mof_H 	H 	0.5508	0.8515	0.477	0.003
Mof_H 	H 	0.3824	0.6895	0.7454	-0.003
Mof_H 	H 	0.6211	0.8373	0.3876	0.076
Mof_N 	N 	0.077	0.268	0.025	-0.179
Mof_N 	N 	0.076	0.167	0.122	-0.214
Mof_N 	N 	0.969	0.16	0.204	-0.148
Mof_C 	C 	0.118	0.213	0.022	0.016
Mof_C 	C 	0.078	0.315	0.975	0.101
Mof_C 	C 	0.121	0.167	0.078	0.109
Mof_C 	C 	0.918	0.161	0.251	0.072
Mof_C 	C 	0.12	0.306	0.921	-0.148
Mof_H 	H 	0.0508	0.3515	0.977	-0.009
Mof_H 	H 	0.8824	0.1895	0.2454	-0.005
Mof_H 	H 	0.1211	0.3373	0.8876	0.077
Mof_N 	N 	0.077	0.732	0.475	-0.163
Mof_N 	N 	0.076	0.833	0.378	-0.212
Mof_N 	N 	0.969	0.84	0.296	-0.148
Mof_C 	C 	0.118	0.787	0.478	0.042
Mof_C 	C 	0.078	0.685	0.525	0.065
Mof_C 	C 	0.121	0.833	0.422	0.108
Mof_C 	C 	0.918	0.839	0.249	0.075
Mof_C 	C 	0.12	0.694	0.579	-0.137
Mof_H 	H 	0.0508	0.6485	0.523	-0.006
Mof_H 	H 	0.8824	0.8105	0.2546	-0.005
Mof_H 	H 	0.1211	0.6627	0.6124	0.071
Mof_N 	N 	0.577	0.232	0.975	-0.148
Mof_N 	N 	0.576	0.333	0.878	-0.211
Mof_N 	N 	0.469	0.34	0.796	-0.169
Mof_C 	C 	0.618	0.287	0.978	0.072
Mof_C 	C 	0.578	0.185	0.025	0.032
Mof_C 	C 	0.621	0.333	0.922	0.107
Mof_C 	C 	0.418	0.339	0.749	0.063
Mof_C 	C 	0.62	0.194	0.079	-0.124
Mof_H 	H 	0.5508	0.1485	0.023	-0
Mof_H 	H 	0.3824	0.3105	0.7546	-0.004
Mof_H 	H 	0.6211	0.1627	0.1124	0.067
Mof_N 	N 	0.423	0.268	0.975	-0.147
Mof_N 	N 	0.424	0.167	0.878	-0.211
Mof_N 	N 	0.531	0.16	0.796	-0.169
Mof_C 	C 	0.382	0.213	0.978	0.072
Mof_C 	C 	0.422	0.315	0.025	0.032
Mof_C 	C 	0.379	0.167	0.922	0.105
Mof_C 	C 	0.582	0.161	0.749	0.061
Mof_C 	C 	0.38	0.306	0.079	-0.123
Mof_H 	H 	0.4492	0.3515	0.023	0.003
Mof_H 	H 	0.6176	0.1895	0.7546	-0.004
Mof_H 	H 	0.3789	0.3373	0.1124	0.067
Mof_N 	N 	0.923	0.768	0.475	-0.153
Mof_N 	N 	0.924	0.667	0.378	-0.2
Mof_N 	N 	0.031	0.66	0.296	-0.182
Mof_C 	C 	0.882	0.713	0.478	0.049
Mof_C 	C 	0.922	0.815	0.525	0.072
Mof_C 	C 	0.879	0.667	0.422	0.111
Mof_C 	C 	0.082	0.661	0.249	0.051
Mof_C 	C 	0.88	0.806	0.579	-0.133
Mof_H 	H 	0.9492	0.8515	0.523	0.011
Mof_H 	H 	0.1176	0.6895	0.2546	-0
Mof_H 	H 	0.8789	0.8373	0.6124	0.079
Mof_N 	N 	0.923	0.232	0.025	-0.169
Mof_N 	N 	0.924	0.333	0.122	-0.201
Mof_N 	N 	0.031	0.34	0.204	-0.182
Mof_C 	C 	0.882	0.287	0.022	0.023
Mof_C 	C 	0.922	0.185	0.975	0.107
Mof_C 	C 	0.879	0.333	0.078	0.113
Mof_C 	C 	0.082	0.339	0.251	0.051
Mof_C 	C 	0.88	0.194	0.921	-0.146
Mof_H 	H 	0.9492	0.1485	0.977	0.001
Mof_H 	H 	0.1176	0.3105	0.2454	-0
Mof_H 	H 	0.8789	0.1627	0.8876	0.082
Mof_N 	N 	0.423	0.732	0.525	-0.163
Mof_N 	N 	0.424	0.833	0.622	-0.212
Mof_N 	N 	0.531	0.84	0.704	-0.169
Mof_C 	C 	0.382	0.787	0.522	0.044
Mof_C 	C 	0.422	0.685	0.475	0.069
Mof_C 	C 	0.379	0.833	0.578	0.11
Mof_C 	C 	0.582	0.839	0.751	0.064
Mof_C 	C 	0.38	0.694	0.421	-0.136
Mof_H 	H 	0.4492	0.6485	0.477	-0.001
Mof_H 	H 	0.6176	0.8105	0.7454	-0.003
Mof_H 	H 	0.3789	0.6627	0.3876	0.074
Mof_Ag	Ag	0.75	0.6253	0.5	0.657
Mof_Ag	Ag	0.75	0.3747	-0	0.606
Mof_Ag	Ag	0.25	0.8747	0.5	0.663
Mof_Ag	Ag	0.25	0.1253	-0	0.598
Mof_Ag	Ag	0.6253	0.5	0.75	0.657
Mof_Ag	Ag	0.3747	6.0969e-33	0.75	0.606
Mof_Ag	Ag	0.8747	0.5	0.25	0.663
Mof_Ag	Ag	0.1253	0	0.25	0.598
Mof_Ag	Ag	0.5	0.75	0.6253	0.657
Mof_Ag	Ag	7.5018e-33	0.75	0.3747	0.606
Mof_Ag	Ag	0.5	0.25	0.8747	0.663
Mof_Ag	Ag	-2.57865e-33	0.25	0.1253	0.598
_end
