data_functionalizedCrystal
_audit_creation_method	'EQeq! by Chris Wilmer'
_symmetry_space_group_name_H-M	'P1'
_symmetry_Int_Tables_number	1
_symmetry_cell_setting	triclinic
loop_
_symmetry_equiv_pos_as_xyz
  x,y,z
_cell_length_a	6.6287
_cell_length_b	16.7224
_cell_length_c	12.8406
_cell_angle_alpha	90
_cell_angle_beta	90
_cell_angle_gamma	90
loop_
_atom_site_label
_atom_site_type_symbol
_atom_site_fract_x
_atom_site_fract_y
_atom_site_fract_z
_atom_site_charge
Mof_O 	O 	0.16524	0.16847	0.84274	-1.508
Mof_C 	C 	0.8091	0.03582	0.9677	0.028
Mof_O 	O 	0.66524	0.66847	0.34274	-1.5
Mof_C 	C 	0.3091	0.53582	0.4677	0.075
Mof_O 	O 	0.83476	0.33153	0.84274	-1.53
Mof_C 	C 	0.1909	0.46418	0.9677	0.061
Mof_O 	O 	0.33476	0.83153	0.34274	-1.499
Mof_C 	C 	0.6909	0.96418	0.4677	0.053
Mof_O 	O 	0.83476	0.66847	0.15726	-1.53
Mof_C 	C 	0.1909	0.53582	0.0323	0.061
Mof_O 	O 	0.33476	0.16847	0.65726	-1.499
Mof_C 	C 	0.6909	0.03582	0.5323	0.053
Mof_O 	O 	0.16524	0.83153	0.15726	-1.508
Mof_C 	C 	0.8091	0.96418	0.0323	0.028
Mof_O 	O 	0.66524	0.33153	0.65726	-1.5
Mof_C 	C 	0.3091	0.46418	0.5323	0.075
Mof_O 	O 	0.83476	0.83153	0.15726	-1.53
Mof_C 	C 	0.1909	0.96418	0.0323	0.061
Mof_O 	O 	0.33476	0.33153	0.65726	-1.499
Mof_C 	C 	0.6909	0.46418	0.5323	0.053
Mof_O 	O 	0.16524	0.66847	0.15726	-1.508
Mof_C 	C 	0.8091	0.53582	0.0323	0.028
Mof_O 	O 	0.66524	0.16847	0.65726	-1.5
Mof_C 	C 	0.3091	0.03582	0.5323	0.075
Mof_O 	O 	0.16524	0.33153	0.84274	-1.508
Mof_C 	C 	0.8091	0.46418	0.9677	0.028
Mof_O 	O 	0.66524	0.83153	0.34274	-1.5
Mof_C 	C 	0.3091	0.96418	0.4677	0.075
Mof_O 	O 	0.83476	0.16847	0.84274	-1.53
Mof_C 	C 	0.1909	0.03582	0.9677	0.061
Mof_O 	O 	0.33476	0.66847	0.34274	-1.499
Mof_C 	C 	0.6909	0.53582	0.4677	0.053
Mof_Al	Al	0.25	0.25	0.75	6.366
Mof_Al	Al	0.75	0.25	0.75	6.276
Mof_Al	Al	0.75	0.75	0.25	6.276
Mof_Al	Al	0.25	0.75	0.25	6.366
Mof_O 	O 	4.97809e-33	0.25	0.6854	-2.193
Mof_O 	O 	0.5	0.75	0.1854	-2.22
Mof_O 	O 	-6.58269e-33	0.75	0.3146	-2.193
Mof_O 	O 	0.5	0.25	0.8146	-2.22
Mof_C 	C 	6.88101e-33	0.0621	0.9474	-0.256
Mof_C 	C 	6.33701e-33	0.1363	0.8725	1.151
Mof_C 	C 	0.5	0.5621	0.4474	-0.297
Mof_C 	C 	0.5	0.6363	0.3725	1.107
Mof_C 	C 	6.88101e-33	0.4379	0.9474	-0.256
Mof_C 	C 	-1.13983e-32	0.3637	0.8725	1.152
Mof_C 	C 	0.5	0.9379	0.4474	-0.297
Mof_C 	C 	0.5	0.8637	0.3725	1.107
Mof_C 	C 	-7.37715e-33	0.5621	0.0526	-0.256
Mof_C 	C 	-1.29087e-33	0.6363	0.1275	1.152
Mof_C 	C 	0.5	0.0621	0.5526	-0.297
Mof_C 	C 	0.5	0.1363	0.6275	1.107
Mof_C 	C 	2.80934e-32	0.9379	0.0526	-0.256
Mof_C 	C 	-1.29087e-33	0.8637	0.1275	1.151
Mof_C 	C 	0.5	0.4379	0.5526	-0.297
Mof_C 	C 	0.5	0.3637	0.6275	1.107
_end
