data_functionalizedCrystal
_audit_creation_method	'EQeq! by Chris Wilmer'
_symmetry_space_group_name_H-M	'P1'
_symmetry_Int_Tables_number	1
_symmetry_cell_setting	triclinic
loop_
_symmetry_equiv_pos_as_xyz
  x,y,z
_cell_length_a	12.0195
_cell_length_b	12.2543
_cell_length_c	28.954
_cell_angle_alpha	96.876
_cell_angle_beta	90
_cell_angle_gamma	119.368
loop_
_atom_site_label
_atom_site_type_symbol
_atom_site_fract_x
_atom_site_fract_y
_atom_site_fract_z
_atom_site_charge
Mof_Cu	Cu	0.97952	0.9782	0.04398	0.901
Mof_Cu	Cu	0.13945	0.80858	0.03215	0.908
Mof_Cu	Cu	0.30788	0.14758	0.04738	0.904
Mof_Cu	Cu	0.20399	0.27776	0.36781	0.904
Mof_Cu	Cu	0.36895	0.11544	0.37636	0.91
Mof_Cu	Cu	0.90701	0.9493	0.87968	0.903
Mof_Cu	Cu	0.99868	0.9782	0.54398	0.902
Mof_Cu	Cu	0.66913	0.80858	0.53215	0.91
Mof_Cu	Cu	0.8397	0.14758	0.54738	0.907
Mof_Cu	Cu	0.07377	0.27776	0.86781	0.907
Mof_Cu	Cu	0.74649	0.11544	0.87636	0.911
Mof_Cu	Cu	0.04229	0.9493	0.37968	0.91
Mof_H 	H 	0.1213	0.9558	0.9931	0.304
Mof_H 	H 	0.2155	0.1236	0.424	0.278
Mof_H 	H 	0.9485	0.2366	0.0439	0.036
Mof_H 	H 	0.3281	0.4194	0.0526	0.039
Mof_H 	H 	0.1568	0.5156	0.1287	0.033
Mof_H 	H 	0.1377	0.543	0.9946	0.082
Mof_H 	H 	0.7102	0.7412	0.0683	0.045
Mof_H 	H 	0.9088	0.56	0.0743	0.042
Mof_H 	H 	0.67	0.5264	0.1577	0.024
Mof_H 	H 	0.5788	0.4092	0.0243	0.034
Mof_H 	H 	0.4015	0.8058	0.0659	0.051
Mof_H 	H 	0.5885	0.175	0.0652	0.041
Mof_H 	H 	0.6776	0.0234	0.1486	0.055
Mof_H 	H 	0.7142	0.9634	0.0118	0.038
Mof_H 	H 	0.4546	0.5546	0.3645	0.048
Mof_H 	H 	0.6509	0.369	0.3668	0.051
Mof_H 	H 	0.6908	0.59	0.2805	0.033
Mof_H 	H 	0.7995	0.7068	0.416	0.031
Mof_H 	H 	0.944	0.2832	0.3485	0.042
Mof_H 	H 	0.7619	0.9204	0.3638	0.033
Mof_H 	H 	0.6705	0.0666	0.274	0.044
Mof_H 	H 	0.6485	0.1486	0.4095	0.066
Mof_H 	H 	0.0141	0.6758	0.3367	0.044
Mof_H 	H 	0.3925	0.857	0.3487	0.047
Mof_H 	H 	0.1892	0.5828	0.2538	0.036
Mof_H 	H 	0.2034	0.5522	0.3879	0.046
Mof_H 	H 	0.0021	0.9962	0.1725	0.014
Mof_H 	H 	0.3768	0.1932	0.1624	0.03
Mof_H 	H 	0.1435	0.235	0.2534	0.02
Mof_H 	H 	0.3161	0.0314	0.2462	0.048
Mof_H 	H 	0.8345	0.9558	0.4931	0.274
Mof_H 	H 	0.9081	0.1236	0.924	0.281
Mof_H 	H 	0.2881	0.2366	0.5439	0.048
Mof_H 	H 	0.0913	0.4194	0.5526	0.043
Mof_H 	H 	0.3588	0.5156	0.6287	0.032
Mof_H 	H 	0.4053	0.543	0.4946	0.049
Mof_H 	H 	0.031	0.7412	0.5683	0.061
Mof_H 	H 	0.6512	0.56	0.5743	0.045
Mof_H 	H 	0.8564	0.5264	0.6577	0.024
Mof_H 	H 	0.8304	0.4092	0.5243	0.041
Mof_H 	H 	0.4043	0.8058	0.5659	0.052
Mof_H 	H 	0.5865	0.175	0.5652	0.044
Mof_H 	H 	0.3458	0.0234	0.6486	0.057
Mof_H 	H 	0.2492	0.9634	0.5118	0.048
Mof_H 	H 	0.1	0.5546	0.8645	0.043
Mof_H 	H 	0.7181	0.369	0.8668	0.052
Mof_H 	H 	0.8992	0.59	0.7805	0.032
Mof_H 	H 	0.9073	0.7068	0.916	0.034
Mof_H 	H 	0.3392	0.2832	0.8485	0.041
Mof_H 	H 	0.1585	0.9204	0.8638	0.039
Mof_H 	H 	0.3961	0.0666	0.774	0.044
Mof_H 	H 	0.5001	0.1486	0.9095	0.067
Mof_H 	H 	0.6617	0.6758	0.8367	0.04
Mof_H 	H 	0.4645	0.857	0.8487	0.047
Mof_H 	H 	0.3936	0.5828	0.7538	0.035
Mof_H 	H 	0.3488	0.5522	0.8879	0.048
Mof_H 	H 	0.9941	0.9962	0.6725	0.001
Mof_H 	H 	0.8164	0.1932	0.6624	0.03
Mof_H 	H 	0.0915	0.235	0.7534	0.015
Mof_H 	H 	0.7153	0.0314	0.7462	0.048
Mof_C 	C 	0.0336	0.2532	0.0443	0.115
Mof_C 	C 	0.2426	0.354	0.049	0.134
Mof_C 	C 	0.1524	0.5464	0.101	0.132
Mof_C 	C 	0.1421	0.561	0.0272	0.08
Mof_C 	C 	0.7776	0.723	0.0676	0.108
Mof_C 	C 	0.888	0.6232	0.0707	0.095
Mof_C 	C 	0.625	0.478	0.1295	0.134
Mof_C 	C 	0.5751	0.4142	0.0569	0.119
Mof_C 	C 	0.4204	0.8888	0.0634	0.116
Mof_C 	C 	0.5222	0.0906	0.0626	0.138
Mof_C 	C 	0.7096	0.0112	0.12	0.125
Mof_C 	C 	0.7303	0.9794	0.0444	0.114
Mof_C 	C 	0.4749	0.49	0.3657	0.118
Mof_C 	C 	0.5847	0.389	0.3677	0.1
Mof_C 	C 	0.7365	0.6386	0.3087	0.115
Mof_C 	C 	0.7953	0.703	0.3834	0.133
Mof_C 	C 	0.9267	0.2024	0.3541	0.118
Mof_C 	C 	0.8268	0.004	0.3626	0.136
Mof_C 	C 	0.6405	0.0834	0.3025	0.12
Mof_C 	C 	0.6276	0.126	0.3772	0.111
Mof_C 	C 	0.1	0.7398	0.3427	0.117
Mof_C 	C 	0.3073	0.84	0.3488	0.108
Mof_C 	C 	0.1904	0.552	0.2819	0.114
Mof_C 	C 	0.1993	0.5346	0.3553	0.121
Mof_C 	C 	0.0823	0.037	0.1599	0.116
Mof_C 	C 	0.2883	0.145	0.1545	0.114
Mof_C 	C 	0.1827	0.1896	0.262	0.104
Mof_C 	C 	0.2779	0.0788	0.2583	0.096
Mof_C 	C 	0.2196	0.2532	0.5443	0.105
Mof_C 	C 	0.1114	0.354	0.549	0.138
Mof_C 	C 	0.394	0.5464	0.601	0.131
Mof_C 	C 	0.4189	0.561	0.5272	0.127
Mof_C 	C 	0.9454	0.723	0.5676	0.089
Mof_C 	C 	0.7352	0.6232	0.5707	0.099
Mof_C 	C 	0.853	0.478	0.6295	0.133
Mof_C 	C 	0.8391	0.4142	0.5569	0.118
Mof_C 	C 	0.4684	0.8888	0.5634	0.119
Mof_C 	C 	0.5684	0.0906	0.5626	0.142
Mof_C 	C 	0.3016	0.0112	0.62	0.123
Mof_C 	C 	0.2491	0.9794	0.5444	0.115
Mof_C 	C 	0.0151	0.49	0.8657	0.137
Mof_C 	C 	0.8043	0.389	0.8677	0.101
Mof_C 	C 	0.9021	0.6386	0.8087	0.113
Mof_C 	C 	0.9077	0.703	0.8834	0.131
Mof_C 	C 	0.2757	0.2024	0.8541	0.129
Mof_C 	C 	0.1772	0.004	0.8626	0.131
Mof_C 	C 	0.4429	0.0834	0.8025	0.12
Mof_C 	C 	0.4984	0.126	0.8772	0.111
Mof_C 	C 	0.6398	0.7398	0.8427	0.117
Mof_C 	C 	0.5327	0.84	0.8488	0.109
Mof_C 	C 	0.3616	0.552	0.7819	0.113
Mof_C 	C 	0.3353	0.5346	0.8553	0.119
Mof_C 	C 	0.9547	0.037	0.6599	0.124
Mof_C 	C 	0.8567	0.145	0.6545	0.112
Mof_C 	C 	0.0069	0.1896	0.762	0.12
Mof_C 	C 	0.8009	0.0788	0.7583	0.096
Mof_N 	N 	0.0727	0.168	0.0398	-0.176
Mof_N 	N 	0.2063	0.2372	0.043	-0.185
Mof_N 	N 	0.1415	0.3694	0.0496	-0.093
Mof_N 	N 	0.157	0.6518	0.0986	-0.092
Mof_N 	N 	0.1511	0.662	0.0502	-0.178
Mof_N 	N 	0.1403	0.4858	0.0577	-0.086
Mof_N 	N 	0.8946	0.799	0.0584	-0.184
Mof_N 	N 	0.9648	0.7358	0.0598	-0.185
Mof_N 	N 	0.7699	0.6156	0.0759	-0.093
Mof_N 	N 	0.4832	0.331	0.0796	-0.151
Mof_N 	N 	0.5187	0.3756	0.1256	-0.089
Mof_N 	N 	0.6611	0.5058	0.0878	-0.102
Mof_N 	N 	0.3368	0.9238	0.0553	-0.169
Mof_N 	N 	0.4025	0.0536	0.0538	-0.18
Mof_N 	N 	0.5387	0.9914	0.0676	-0.092
Mof_N 	N 	0.83	0.9918	0.0667	-0.19
Mof_N 	N 	0.8145	0.0084	0.115	-0.09
Mof_N 	N 	0.6514	0.9934	0.0764	-0.086
Mof_N 	N 	0.3964	0.3762	0.3705	-0.182
Mof_N 	N 	0.4641	0.3118	0.3742	-0.168
Mof_N 	N 	0.5963	0.503	0.3624	-0.085
Mof_N 	N 	0.8433	0.7474	0.3131	-0.097
Mof_N 	N 	0.8762	0.787	0.3601	-0.187
Mof_N 	N 	0.7033	0.6084	0.3535	-0.088
Mof_N 	N 	0.0095	0.1718	0.3621	-0.175
Mof_N 	N 	0.9469	0.0452	0.3681	-0.189
Mof_N 	N 	0.8085	0.1012	0.3546	-0.09
Mof_N 	N 	0.5339	0.0924	0.307	-0.082
Mof_N 	N 	0.526	0.1118	0.3543	-0.177
Mof_N 	N 	0.6966	0.1014	0.3443	-0.086
Mof_N 	N 	0.1389	0.8576	0.3567	-0.178
Mof_N 	N 	0.2707	0.924	0.3589	-0.178
Mof_N 	N 	0.2007	0.7236	0.3383	-0.093
Mof_N 	N 	0.1828	0.4414	0.2855	-0.083
Mof_N 	N 	0.1925	0.4348	0.3332	-0.149
Mof_N 	N 	0.1999	0.6126	0.325	-0.089
Mof_N 	N 	0.1019	0.0398	0.1147	-0.151
Mof_N 	N 	0.2327	0.1076	0.1129	-0.176
Mof_N 	N 	0.195	0.1016	0.1844	-0.103
Mof_N 	N 	0.2147	0.186	0.3052	-0.187
Mof_N 	N 	0.2772	0.116	0.3022	-0.147
Mof_N 	N 	0.2141	0.1198	0.2327	-0.1
Mof_N 	N 	0.0953	0.168	0.5398	-0.171
Mof_N 	N 	0.0309	0.2372	0.543	-0.179
Mof_N 	N 	0.2279	0.3694	0.5496	-0.089
Mof_N 	N 	0.4948	0.6518	0.5986	-0.094
Mof_N 	N 	0.5109	0.662	0.5502	-0.185
Mof_N 	N 	0.3455	0.4858	0.5577	-0.093
Mof_N 	N 	0.9044	0.799	0.5584	-0.179
Mof_N 	N 	0.771	0.7358	0.5598	-0.181
Mof_N 	N 	0.8457	0.6156	0.5759	-0.089
Mof_N 	N 	0.8478	0.331	0.5796	-0.15
Mof_N 	N 	0.8569	0.3756	0.6256	-0.09
Mof_N 	N 	0.8447	0.5058	0.5878	-0.102
Mof_N 	N 	0.587	0.9238	0.5553	-0.168
Mof_N 	N 	0.6511	0.0536	0.5538	-0.176
Mof_N 	N 	0.4527	0.9914	0.5676	-0.091
Mof_N 	N 	0.1618	0.9918	0.5667	-0.183
Mof_N 	N 	0.1939	0.0084	0.615	-0.088
Mof_N 	N 	0.342	0.9934	0.5764	-0.084
Mof_N 	N 	0.9798	0.3762	0.8705	-0.19
Mof_N 	N 	0.8477	0.3118	0.8742	-0.168
Mof_N 	N 	0.9067	0.503	0.8624	-0.091
Mof_N 	N 	0.9041	0.7474	0.8131	-0.096
Mof_N 	N 	0.9108	0.787	0.8601	-0.184
Mof_N 	N 	0.9051	0.6084	0.8535	-0.088
Mof_N 	N 	0.1623	0.1718	0.8621	-0.181
Mof_N 	N 	0.0983	0.0452	0.8681	-0.181
Mof_N 	N 	0.2927	0.1012	0.8546	-0.09
Mof_N 	N 	0.5585	0.0924	0.807	-0.082
Mof_N 	N 	0.5858	0.1118	0.8543	-0.177
Mof_N 	N 	0.4048	0.1014	0.8443	-0.086
Mof_N 	N 	0.7187	0.8576	0.8567	-0.179
Mof_N 	N 	0.6533	0.924	0.8589	-0.179
Mof_N 	N 	0.5229	0.7236	0.8383	-0.093
Mof_N 	N 	0.2586	0.4414	0.7855	-0.083
Mof_N 	N 	0.2423	0.4348	0.8332	-0.149
Mof_N 	N 	0.4127	0.6126	0.825	-0.089
Mof_N 	N 	0.9379	0.0398	0.6147	-0.155
Mof_N 	N 	0.8749	0.1076	0.6129	-0.177
Mof_N 	N 	0.9066	0.1016	0.6844	-0.105
Mof_N 	N 	0.9713	0.186	0.8052	-0.194
Mof_N 	N 	0.8388	0.116	0.8022	-0.148
Mof_N 	N 	0.9057	0.1198	0.7327	-0.106
Mof_Cl	Cl	0.87323	0.90526	0.95956	-0.516
Mof_Cl	Cl	0.1528	0.7562	0.95201	-0.392
Mof_Cl	Cl	0.3633	0.1702	0.9721	-0.385
Mof_Cl	Cl	0.19871	0.37042	0.44026	-0.41
Mof_Cl	Cl	0.4392	0.1386	0.46135	-0.377
Mof_Cl	Cl	0.03203	0.90526	0.45956	-0.518
Mof_Cl	Cl	0.6034	0.7562	0.45201	-0.409
Mof_Cl	Cl	0.8069	0.1702	0.4721	-0.407
Mof_Cl	Cl	0.17171	0.37042	0.94026	-0.4
Mof_Cl	Cl	0.6994	0.1386	0.96135	-0.36
Mof_O 	O 	0.1266	0.9588	0.0225	-0.699
Mof_O 	O 	0.2078	0.107	0.3944	-0.667
Mof_O 	O 	0.8322	0.9588	0.5225	-0.673
Mof_O 	O 	0.8992	0.107	0.8944	-0.668
Mof_Cl	Cl	0.534	0.7606	0.317	-0.263
Mof_Cl	Cl	0.477	0.6504	0.0644	-0.274
Mof_Cl	Cl	0.8744	0.4444	0.3545	-0.279
Mof_Cl	Cl	0.4532	0.9834	0.1796	-0.275
Mof_Cl	Cl	0.8265	0.3342	0.1015	-0.271
Mof_Cl	Cl	0.2266	0.7606	0.817	-0.258
Mof_Cl	Cl	0.1734	0.6504	0.5644	-0.264
Mof_Cl	Cl	0.57	0.4444	0.8545	-0.27
Mof_Cl	Cl	0.5302	0.9834	0.6796	-0.276
Mof_Cl	Cl	0.5077	0.3342	0.6015	-0.265
_end
