# CIF file generated by openbabel 3.1.0, see https://openbabel.org
data_I
_chemical_name_common 'UGUQOC_charged'
_cell_length_a 9.5866
_cell_length_b 9.5866
_cell_length_c 11.072
_cell_angle_alpha 91.1871
_cell_angle_beta 91.1871
_cell_angle_gamma 105.878
_space_group_name_H-M_alt 'P 1'
_space_group_name_Hall 'P 1'
loop_
    _symmetry_equiv_pos_as_xyz
    x,y,z
loop_
    _atom_site_label
    _atom_site_type_symbol
    _atom_site_fract_x
    _atom_site_fract_y
    _atom_site_fract_z
    _atom_site_occupancy
    Zn1      Zn       0.99495    0.00505    0.75000    1.000
    Zn2      Zn       0.00505    0.99495    0.25000    1.000
    H1       H        0.44600    0.95000    0.78800    1.000
    H2       H        0.05000    0.55400    0.71200    1.000
    H3       H        0.55400    0.05000    0.21200    1.000
    H4       H        0.95000    0.44600    0.28800    1.000
    C1       C        0.20752    0.94798    0.89966    1.000
    C2       C        0.35786    0.97862    0.95565    1.000
    C3       C        0.46914    0.97836    0.87789    1.000
    C4       C        0.38855    0.00097    0.07962    1.000
    C5       C        0.27417    0.00501    0.16921    1.000
    C6       C        0.05202    0.79248    0.60034    1.000
    C7       C        0.02138    0.64214    0.54435    1.000
    C8       C        0.02164    0.53086    0.62211    1.000
    C9       C        0.99903    0.61145    0.42038    1.000
    C10      C        0.99499    0.72583    0.33079    1.000
    C11      C        0.79248    0.05202    0.10034    1.000
    C12      C        0.64214    0.02138    0.04435    1.000
    C13      C        0.53086    0.02164    0.12211    1.000
    C14      C        0.61145    0.99903    0.92038    1.000
    C15      C        0.72583    0.99499    0.83079    1.000
    C16      C        0.94798    0.20752    0.39966    1.000
    C17      C        0.97862    0.35786    0.45565    1.000
    C18      C        0.97836    0.46914    0.37789    1.000
    C19      C        0.00097    0.38855    0.57962    1.000
    C20      C        0.00501    0.27417    0.66921    1.000
    O1       O        0.17844    0.05416    0.84694    1.000
    O2       O        0.12594    0.82354    0.90031    1.000
    O3       O        0.29851    0.99189    0.27795    1.000
    O4       O        0.15639    0.02317    0.12755    1.000
    O5       O        0.94584    0.82156    0.65306    1.000
    O6       O        0.17646    0.87406    0.59969    1.000
    O7       O        0.00811    0.70149    0.22205    1.000
    O8       O        0.97683    0.84361    0.37245    1.000
    O9       O        0.82156    0.94584    0.15306    1.000
    O10      O        0.87406    0.17646    0.09969    1.000
    O11      O        0.70149    0.00811    0.72205    1.000
    O12      O        0.84361    0.97683    0.87245    1.000
    O13      O        0.05416    0.17844    0.34694    1.000
    O14      O        0.82354    0.12594    0.40031    1.000
    O15      O        0.99189    0.29851    0.77795    1.000
    O16      O        0.02317    0.15639    0.62755    1.000
    H5       H        0.85600    0.59600    0.98000    1.000
    H6       H        0.77900    0.73900    0.95600    1.000
    H7       H        0.91900    0.74500    0.95400    1.000
    H8       H        0.87800    0.73200    0.08800    1.000
    N1       N        0.84900    0.69680    0.99800    1.000
    H9       H        0.40400    0.14400    0.52000    1.000
    H10      H        0.26100    0.22100    0.54400    1.000
    H11      H        0.25500    0.08100    0.54600    1.000
    H12      H        0.26800    0.12200    0.41200    1.000
    N2       N        0.30320    0.15100    0.50200    1.000
    H13      H        0.14400    0.40400    0.02000    1.000
    H14      H        0.22100    0.26100    0.04400    1.000
    H15      H        0.08100    0.25500    0.04600    1.000
    H16      H        0.12200    0.26800    0.91200    1.000
    N3       N        0.15100    0.30320    0.00200    1.000
    H17      H        0.59600    0.85600    0.48000    1.000
    H18      H        0.73900    0.77900    0.45600    1.000
    H19      H        0.74500    0.91900    0.45400    1.000
    H20      H        0.73200    0.87800    0.58800    1.000
    N4       N        0.69680    0.84900    0.49800    1.000
