# CIF file generated by openbabel 3.1.0, see https://openbabel.org
data_I
_chemical_name_common 'OKIXIQ_charged'
_cell_length_a 15.8832
_cell_length_b 15.8832
_cell_length_c 21.7
_cell_angle_alpha 90
_cell_angle_beta 90
_cell_angle_gamma 90
_space_group_name_H-M_alt 'P 1'
_space_group_name_Hall 'P 1'
loop_
    _symmetry_equiv_pos_as_xyz
    x,y,z
loop_
    _atom_site_label
    _atom_site_type_symbol
    _atom_site_fract_x
    _atom_site_fract_y
    _atom_site_fract_z
    _atom_site_occupancy
    Cd1      Cd       0.05872    0.94128    0.25000    1.000
    Cd2      Cd       0.94128    0.05872    0.75000    1.000
    Cd3      Cd       0.55872    0.55872    0.50000    1.000
    Cd4      Cd       0.44128    0.44128    0.00000    1.000
    H1       H        0.53690    0.61220    0.35040    1.000
    H2       H        0.58670    0.71460    0.28450    1.000
    H3       H        0.79010    0.73620    0.39480    1.000
    H4       H        0.73030    0.63990    0.45940    1.000
    H5       H        0.65380    0.79490    0.21990    1.000
    H6       H        0.70290    0.91070    0.16480    1.000
    H7       H        0.80220    0.00240    0.20820    1.000
    H8       H        0.80360    0.85970    0.36290    1.000
    H9       H        0.04610    0.12170    0.45950    1.000
    H10      H        0.06660    0.23410    0.52500    1.000
    H11      H        0.96570    0.33760    0.53620    1.000
    H12      H        0.82390    0.22290    0.40560    1.000
    H13      H        0.85100    0.40130    0.56200    1.000
    H14      H        0.74040    0.49520    0.57330    1.000
    H15      H        0.65600    0.43880    0.40890    1.000
    H16      H        0.76210    0.34370    0.39290    1.000
    H17      H        0.74480    0.02580    0.39590    1.000
    H18      H        0.73860    0.09580    0.35070    1.000
    H19      H        0.46310    0.38780    0.85040    1.000
    H20      H        0.41330    0.28540    0.78450    1.000
    H21      H        0.20990    0.26380    0.89480    1.000
    H22      H        0.26970    0.36010    0.95940    1.000
    H23      H        0.34620    0.20510    0.71990    1.000
    H24      H        0.29710    0.08930    0.66480    1.000
    H25      H        0.19780    0.99760    0.70820    1.000
    H26      H        0.19640    0.14030    0.86290    1.000
    H27      H        0.95390    0.87830    0.95950    1.000
    H28      H        0.93340    0.76590    0.02500    1.000
    H29      H        0.03430    0.66240    0.03620    1.000
    H30      H        0.17610    0.77710    0.90560    1.000
    H31      H        0.14900    0.59870    0.06200    1.000
    H32      H        0.25960    0.50480    0.07330    1.000
    H33      H        0.34400    0.56120    0.90890    1.000
    H34      H        0.23790    0.65630    0.89290    1.000
    H35      H        0.25520    0.97420    0.89590    1.000
    H36      H        0.26140    0.90420    0.85070    1.000
    H37      H        0.88780    0.03690    0.60040    1.000
    H38      H        0.78540    0.08670    0.53450    1.000
    H39      H        0.76380    0.29010    0.64480    1.000
    H40      H        0.86010    0.23030    0.70940    1.000
    H41      H        0.70510    0.15380    0.46990    1.000
    H42      H        0.58930    0.20290    0.41480    1.000
    H43      H        0.49760    0.30220    0.45820    1.000
    H44      H        0.64030    0.30360    0.61290    1.000
    H45      H        0.37830    0.54610    0.70950    1.000
    H46      H        0.26590    0.56660    0.77500    1.000
    H47      H        0.16240    0.46570    0.78620    1.000
    H48      H        0.27710    0.32390    0.65560    1.000
    H49      H        0.09870    0.35100    0.81200    1.000
    H50      H        0.00480    0.24040    0.82330    1.000
    H51      H        0.06120    0.15600    0.65890    1.000
    H52      H        0.15630    0.26210    0.64290    1.000
    H53      H        0.47420    0.24480    0.64590    1.000
    H54      H        0.40420    0.23860    0.60070    1.000
    H55      H        0.11220    0.96310    0.10040    1.000
    H56      H        0.21460    0.91330    0.03450    1.000
    H57      H        0.23620    0.70990    0.14480    1.000
    H58      H        0.13990    0.76970    0.20940    1.000
    H59      H        0.29490    0.84620    0.96990    1.000
    H60      H        0.41070    0.79710    0.91480    1.000
    H61      H        0.50240    0.69780    0.95820    1.000
    H62      H        0.35970    0.69640    0.11290    1.000
    H63      H        0.62170    0.45390    0.20950    1.000
    H64      H        0.73410    0.43340    0.27500    1.000
    H65      H        0.83760    0.53430    0.28620    1.000
    H66      H        0.72290    0.67610    0.15560    1.000
    H67      H        0.90130    0.64900    0.31200    1.000
    H68      H        0.99520    0.75960    0.32330    1.000
    H69      H        0.93880    0.84400    0.15890    1.000
    H70      H        0.84370    0.73790    0.14290    1.000
    H71      H        0.52580    0.75520    0.14590    1.000
    H72      H        0.59580    0.76140    0.10070    1.000
    H73      H        0.96310    0.11220    0.89960    1.000
    H74      H        0.91330    0.21460    0.96550    1.000
    H75      H        0.70990    0.23620    0.85520    1.000
    H76      H        0.76970    0.13990    0.79060    1.000
    H77      H        0.84620    0.29490    0.03010    1.000
    H78      H        0.79710    0.41070    0.08520    1.000
    H79      H        0.69780    0.50240    0.04180    1.000
    H80      H        0.69640    0.35970    0.88710    1.000
    H81      H        0.45390    0.62170    0.79050    1.000
    H82      H        0.43340    0.73410    0.72500    1.000
    H83      H        0.53430    0.83760    0.71380    1.000
    H84      H        0.67610    0.72290    0.84440    1.000
    H85      H        0.64900    0.90130    0.68800    1.000
    H86      H        0.75960    0.99520    0.67670    1.000
    H87      H        0.84400    0.93880    0.84110    1.000
    H88      H        0.73790    0.84370    0.85710    1.000
    H89      H        0.75520    0.52580    0.85410    1.000
    H90      H        0.76140    0.59580    0.89930    1.000
    H91      H        0.03690    0.88780    0.39960    1.000
    H92      H        0.08670    0.78540    0.46550    1.000
    H93      H        0.29010    0.76380    0.35520    1.000
    H94      H        0.23030    0.86010    0.29060    1.000
    H95      H        0.15380    0.70510    0.53010    1.000
    H96      H        0.20290    0.58930    0.58520    1.000
    H97      H        0.30220    0.49760    0.54180    1.000
    H98      H        0.30360    0.64030    0.38710    1.000
    H99      H        0.54610    0.37830    0.29050    1.000
    H100     H        0.56660    0.26590    0.22500    1.000
    H101     H        0.46570    0.16240    0.21380    1.000
    H102     H        0.32390    0.27710    0.34440    1.000
    H103     H        0.35100    0.09870    0.18800    1.000
    H104     H        0.24040    0.00480    0.17670    1.000
    H105     H        0.15600    0.06120    0.34110    1.000
    H106     H        0.26210    0.15630    0.35710    1.000
    H107     H        0.24480    0.47420    0.35410    1.000
    H108     H        0.23860    0.40420    0.39930    1.000
    H109     H        0.61220    0.53690    0.64960    1.000
    H110     H        0.71460    0.58670    0.71550    1.000
    H111     H        0.73620    0.79010    0.60520    1.000
    H112     H        0.63990    0.73030    0.54060    1.000
    H113     H        0.79490    0.65380    0.78010    1.000
    H114     H        0.91070    0.70290    0.83520    1.000
    H115     H        0.00240    0.80220    0.79180    1.000
    H116     H        0.85970    0.80360    0.63710    1.000
    H117     H        0.12170    0.04610    0.54050    1.000
    H118     H        0.23410    0.06660    0.47500    1.000
    H119     H        0.33760    0.96570    0.46380    1.000
    H120     H        0.22290    0.82390    0.59440    1.000
    H121     H        0.40130    0.85100    0.43800    1.000
    H122     H        0.49520    0.74040    0.42670    1.000
    H123     H        0.43880    0.65600    0.59110    1.000
    H124     H        0.34370    0.76210    0.60710    1.000
    H125     H        0.02580    0.74480    0.60410    1.000
    H126     H        0.09580    0.73860    0.64930    1.000
    H127     H        0.38780    0.46310    0.14960    1.000
    H128     H        0.28540    0.41330    0.21550    1.000
    H129     H        0.26380    0.20990    0.10520    1.000
    H130     H        0.36010    0.26970    0.04060    1.000
    H131     H        0.20510    0.34620    0.28010    1.000
    H132     H        0.08930    0.29710    0.33520    1.000
    H133     H        0.99760    0.19780    0.29180    1.000
    H134     H        0.14030    0.19640    0.13710    1.000
    H135     H        0.87830    0.95390    0.04050    1.000
    H136     H        0.76590    0.93340    0.97500    1.000
    H137     H        0.66240    0.03430    0.96380    1.000
    H138     H        0.77710    0.17610    0.09440    1.000
    H139     H        0.59870    0.14900    0.93800    1.000
    H140     H        0.50480    0.25960    0.92670    1.000
    H141     H        0.56120    0.34400    0.09110    1.000
    H142     H        0.65630    0.23790    0.10710    1.000
    H143     H        0.97420    0.25520    0.10410    1.000
    H144     H        0.90420    0.26140    0.14930    1.000
    C1       C        0.58750    0.64070    0.36100    1.000
    C2       C        0.61700    0.70160    0.32100    1.000
    C3       C        0.69130    0.74380    0.33470    1.000
    C4       C        0.73550    0.71490    0.38600    1.000
    C5       C        0.70010    0.65610    0.42350    1.000
    C6       C        0.72280    0.81650    0.29760    1.000
    C7       C        0.69380    0.83180    0.23810    1.000
    C8       C        0.72330    0.90060    0.20530    1.000
    C9       C        0.78240    0.95520    0.23080    1.000
    C10      C        0.81200    0.93900    0.29050    1.000
    C11      C        0.78260    0.87040    0.32270    1.000
    C12      C        0.87350    0.99460    0.32010    1.000
    C13      C        0.92450    0.09170    0.38170    1.000
    C14      C        0.93270    0.16140    0.42560    1.000
    C15      C        0.00500    0.16510    0.46210    1.000
    C16      C        0.01640    0.23120    0.50130    1.000
    C17      C        0.95720    0.29340    0.50740    1.000
    C18      C        0.88440    0.29200    0.47130    1.000
    C19      C        0.87310    0.22500    0.43040    1.000
    C20      C        0.81830    0.35790    0.47790    1.000
    C21      C        0.81070    0.40660    0.53000    1.000
    C22      C        0.74460    0.46360    0.53630    1.000
    C23      C        0.69600    0.43040    0.44090    1.000
    C24      C        0.75870    0.37310    0.43100    1.000
    C25      C        0.41250    0.35930    0.86100    1.000
    C26      C        0.38300    0.29840    0.82100    1.000
    C27      C        0.30870    0.25620    0.83470    1.000
    C28      C        0.26450    0.28510    0.88600    1.000
    C29      C        0.29990    0.34390    0.92350    1.000
    C30      C        0.27720    0.18350    0.79760    1.000
    C31      C        0.30620    0.16820    0.73810    1.000
    C32      C        0.27670    0.09940    0.70530    1.000
    C33      C        0.21760    0.04480    0.73080    1.000
    C34      C        0.18800    0.06100    0.79050    1.000
    C35      C        0.21740    0.12960    0.82270    1.000
    C36      C        0.12650    0.00540    0.82010    1.000
    C37      C        0.07550    0.90830    0.88170    1.000
    C38      C        0.06730    0.83860    0.92560    1.000
    C39      C        0.99500    0.83490    0.96210    1.000
    C40      C        0.98360    0.76880    0.00130    1.000
    C41      C        0.04280    0.70660    0.00740    1.000
    C42      C        0.11560    0.70800    0.97130    1.000
    C43      C        0.12690    0.77500    0.93040    1.000
    C44      C        0.18170    0.64210    0.97790    1.000
    C45      C        0.18930    0.59340    0.03000    1.000
    C46      C        0.25540    0.53640    0.03630    1.000
    C47      C        0.30400    0.56960    0.94090    1.000
    C48      C        0.24130    0.62690    0.93100    1.000
    C49      C        0.85930    0.08750    0.61100    1.000
    C50      C        0.79840    0.11700    0.57100    1.000
    C51      C        0.75620    0.19130    0.58470    1.000
    C52      C        0.78510    0.23550    0.63600    1.000
    C53      C        0.84390    0.20010    0.67350    1.000
    C54      C        0.68350    0.22280    0.54760    1.000
    C55      C        0.66820    0.19380    0.48810    1.000
    C56      C        0.59940    0.22330    0.45530    1.000
    C57      C        0.54480    0.28240    0.48080    1.000
    C58      C        0.56100    0.31200    0.54050    1.000
    C59      C        0.62960    0.28260    0.57270    1.000
    C60      C        0.50540    0.37350    0.57010    1.000
    C61      C        0.40830    0.42450    0.63170    1.000
    C62      C        0.33860    0.43270    0.67560    1.000
    C63      C        0.33490    0.50500    0.71210    1.000
    C64      C        0.26880    0.51640    0.75130    1.000
    C65      C        0.20660    0.45720    0.75740    1.000
    C66      C        0.20800    0.38440    0.72130    1.000
    C67      C        0.27500    0.37310    0.68040    1.000
    C68      C        0.14210    0.31830    0.72790    1.000
    C69      C        0.09340    0.31070    0.78000    1.000
    C70      C        0.03640    0.24460    0.78630    1.000
    C71      C        0.06960    0.19600    0.69090    1.000
    C72      C        0.12690    0.25870    0.68100    1.000
    C73      C        0.14070    0.91250    0.11100    1.000
    C74      C        0.20160    0.88300    0.07100    1.000
    C75      C        0.24380    0.80870    0.08470    1.000
    C76      C        0.21490    0.76450    0.13600    1.000
    C77      C        0.15610    0.79990    0.17350    1.000
    C78      C        0.31650    0.77720    0.04760    1.000
    C79      C        0.33180    0.80620    0.98810    1.000
    C80      C        0.40060    0.77670    0.95530    1.000
    C81      C        0.45520    0.71760    0.98080    1.000
    C82      C        0.43900    0.68800    0.04050    1.000
    C83      C        0.37040    0.71740    0.07270    1.000
    C84      C        0.49460    0.62650    0.07010    1.000
    C85      C        0.59170    0.57550    0.13170    1.000
    C86      C        0.66140    0.56730    0.17560    1.000
    C87      C        0.66510    0.49500    0.21210    1.000
    C88      C        0.73120    0.48360    0.25130    1.000
    C89      C        0.79340    0.54280    0.25740    1.000
    C90      C        0.79200    0.61560    0.22130    1.000
    C91      C        0.72500    0.62690    0.18040    1.000
    C92      C        0.85790    0.68170    0.22790    1.000
    C93      C        0.90660    0.68930    0.28000    1.000
    C94      C        0.96360    0.75540    0.28630    1.000
    C95      C        0.93040    0.80400    0.19090    1.000
    C96      C        0.87310    0.74130    0.18100    1.000
    C97      C        0.91250    0.14070    0.88900    1.000
    C98      C        0.88300    0.20160    0.92900    1.000
    C99      C        0.80870    0.24380    0.91530    1.000
    C100     C        0.76450    0.21490    0.86400    1.000
    C101     C        0.79990    0.15610    0.82650    1.000
    C102     C        0.77720    0.31650    0.95240    1.000
    C103     C        0.80620    0.33180    0.01190    1.000
    C104     C        0.77670    0.40060    0.04470    1.000
    C105     C        0.71760    0.45520    0.01920    1.000
    C106     C        0.68800    0.43900    0.95950    1.000
    C107     C        0.71740    0.37040    0.92730    1.000
    C108     C        0.62650    0.49460    0.92990    1.000
    C109     C        0.57550    0.59170    0.86830    1.000
    C110     C        0.56730    0.66140    0.82440    1.000
    C111     C        0.49500    0.66510    0.78790    1.000
    C112     C        0.48360    0.73120    0.74870    1.000
    C113     C        0.54280    0.79340    0.74260    1.000
    C114     C        0.61560    0.79200    0.77870    1.000
    C115     C        0.62690    0.72500    0.81960    1.000
    C116     C        0.68170    0.85790    0.77210    1.000
    C117     C        0.68930    0.90660    0.72000    1.000
    C118     C        0.75540    0.96360    0.71370    1.000
    C119     C        0.80400    0.93040    0.80910    1.000
    C120     C        0.74130    0.87310    0.81900    1.000
    C121     C        0.08750    0.85930    0.38900    1.000
    C122     C        0.11700    0.79840    0.42900    1.000
    C123     C        0.19130    0.75620    0.41530    1.000
    C124     C        0.23550    0.78510    0.36400    1.000
    C125     C        0.20010    0.84390    0.32650    1.000
    C126     C        0.22280    0.68350    0.45240    1.000
    C127     C        0.19380    0.66820    0.51190    1.000
    C128     C        0.22330    0.59940    0.54470    1.000
    C129     C        0.28240    0.54480    0.51920    1.000
    C130     C        0.31200    0.56100    0.45950    1.000
    C131     C        0.28260    0.62960    0.42730    1.000
    C132     C        0.37350    0.50540    0.42990    1.000
    C133     C        0.42450    0.40830    0.36830    1.000
    C134     C        0.43270    0.33860    0.32440    1.000
    C135     C        0.50500    0.33490    0.28790    1.000
    C136     C        0.51640    0.26880    0.24870    1.000
    C137     C        0.45720    0.20660    0.24260    1.000
    C138     C        0.38440    0.20800    0.27870    1.000
    C139     C        0.37310    0.27500    0.31960    1.000
    C140     C        0.31830    0.14210    0.27210    1.000
    C141     C        0.31070    0.09340    0.22000    1.000
    C142     C        0.24460    0.03640    0.21370    1.000
    C143     C        0.19600    0.06960    0.30910    1.000
    C144     C        0.25870    0.12690    0.31900    1.000
    C145     C        0.64070    0.58750    0.63900    1.000
    C146     C        0.70160    0.61700    0.67900    1.000
    C147     C        0.74380    0.69130    0.66530    1.000
    C148     C        0.71490    0.73550    0.61400    1.000
    C149     C        0.65610    0.70010    0.57650    1.000
    C150     C        0.81650    0.72280    0.70240    1.000
    C151     C        0.83180    0.69380    0.76190    1.000
    C152     C        0.90060    0.72330    0.79470    1.000
    C153     C        0.95520    0.78240    0.76920    1.000
    C154     C        0.93900    0.81200    0.70950    1.000
    C155     C        0.87040    0.78260    0.67730    1.000
    C156     C        0.99460    0.87350    0.67990    1.000
    C157     C        0.09170    0.92450    0.61830    1.000
    C158     C        0.16140    0.93270    0.57440    1.000
    C159     C        0.16510    0.00500    0.53790    1.000
    C160     C        0.23120    0.01640    0.49870    1.000
    C161     C        0.29340    0.95720    0.49260    1.000
    C162     C        0.29200    0.88440    0.52870    1.000
    C163     C        0.22500    0.87310    0.56960    1.000
    C164     C        0.35790    0.81830    0.52210    1.000
    C165     C        0.40660    0.81070    0.47000    1.000
    C166     C        0.46360    0.74460    0.46370    1.000
    C167     C        0.43040    0.69600    0.55910    1.000
    C168     C        0.37310    0.75870    0.56900    1.000
    C169     C        0.35930    0.41250    0.13900    1.000
    C170     C        0.29840    0.38300    0.17900    1.000
    C171     C        0.25620    0.30870    0.16530    1.000
    C172     C        0.28510    0.26450    0.11400    1.000
    C173     C        0.34390    0.29990    0.07650    1.000
    C174     C        0.18350    0.27720    0.20240    1.000
    C175     C        0.16820    0.30620    0.26190    1.000
    C176     C        0.09940    0.27670    0.29470    1.000
    C177     C        0.04480    0.21760    0.26920    1.000
    C178     C        0.06100    0.18800    0.20950    1.000
    C179     C        0.12960    0.21740    0.17730    1.000
    C180     C        0.00540    0.12650    0.17990    1.000
    C181     C        0.90830    0.07550    0.11830    1.000
    C182     C        0.83860    0.06730    0.07440    1.000
    C183     C        0.83490    0.99500    0.03790    1.000
    C184     C        0.76880    0.98360    0.99870    1.000
    C185     C        0.70660    0.04280    0.99260    1.000
    C186     C        0.70800    0.11560    0.02870    1.000
    C187     C        0.77500    0.12690    0.06960    1.000
    C188     C        0.64210    0.18170    0.02210    1.000
    C189     C        0.59340    0.18930    0.97000    1.000
    C190     C        0.53640    0.25540    0.96370    1.000
    C191     C        0.56960    0.30400    0.05910    1.000
    C192     C        0.62690    0.24130    0.06900    1.000
    N1       N        0.62530    0.61960    0.41300    1.000
    N2       N        0.95560    0.99390    0.31630    1.000
    N3       N        0.98780    0.05490    0.35480    1.000
    N4       N        0.85130    0.05550    0.36110    1.000
    N5       N        0.76950    0.07400    0.38220    1.000
    N6       N        0.68700    0.47550    0.49250    1.000
    N7       N        0.37470    0.38040    0.91300    1.000
    N8       N        0.04440    0.00610    0.81630    1.000
    N9       N        0.01220    0.94510    0.85480    1.000
    N10      N        0.14870    0.94450    0.86110    1.000
    N11      N        0.23050    0.92600    0.88220    1.000
    N12      N        0.31300    0.52450    0.99250    1.000
    N13      N        0.88040    0.12530    0.66300    1.000
    N14      N        0.50610    0.45560    0.56630    1.000
    N15      N        0.44510    0.48780    0.60480    1.000
    N16      N        0.44450    0.35130    0.61110    1.000
    N17      N        0.42600    0.26950    0.63220    1.000
    N18      N        0.02450    0.18700    0.74250    1.000
    N19      N        0.11960    0.87470    0.16300    1.000
    N20      N        0.49390    0.54440    0.06630    1.000
    N21      N        0.55490    0.51220    0.10480    1.000
    N22      N        0.55550    0.64870    0.11110    1.000
    N23      N        0.57400    0.73050    0.13220    1.000
    N24      N        0.97550    0.81300    0.24250    1.000
    N25      N        0.87470    0.11960    0.83700    1.000
    N26      N        0.54440    0.49390    0.93370    1.000
    N27      N        0.51220    0.55490    0.89520    1.000
    N28      N        0.64870    0.55550    0.88890    1.000
    N29      N        0.73050    0.57400    0.86780    1.000
    N30      N        0.81300    0.97550    0.75750    1.000
    N31      N        0.12530    0.88040    0.33700    1.000
    N32      N        0.45560    0.50610    0.43370    1.000
    N33      N        0.48780    0.44510    0.39520    1.000
    N34      N        0.35130    0.44450    0.38890    1.000
    N35      N        0.26950    0.42600    0.36780    1.000
    N36      N        0.18700    0.02450    0.25750    1.000
    N37      N        0.61960    0.62530    0.58700    1.000
    N38      N        0.99390    0.95560    0.68370    1.000
    N39      N        0.05490    0.98780    0.64520    1.000
    N40      N        0.05550    0.85130    0.63890    1.000
    N41      N        0.07400    0.76950    0.61780    1.000
    N42      N        0.47550    0.68700    0.50750    1.000
    N43      N        0.38040    0.37470    0.08700    1.000
    N44      N        0.00610    0.04440    0.18370    1.000
    N45      N        0.94510    0.01220    0.14520    1.000
    N46      N        0.94450    0.14870    0.13890    1.000
    N47      N        0.92600    0.23050    0.11780    1.000
    N48      N        0.52450    0.31300    0.00750    1.000
    Cl1      Cl       0.62082    0.37918    0.75000    1.000
    O1       O        0.61280    0.32300    0.79400    1.000
    O2       O        0.63480    0.44190    0.78450    1.000
    O3       O        0.67700    0.38720    0.70600    1.000
    O4       O        0.55810    0.36520    0.71550    1.000
    Cl2      Cl       0.37918    0.62082    0.25000    1.000
    O5       O        0.38720    0.67700    0.29400    1.000
    O6       O        0.36520    0.55810    0.28450    1.000
    O7       O        0.32300    0.61280    0.20600    1.000
    O8       O        0.44190    0.63480    0.21550    1.000
    Cl3      Cl       0.12082    0.12082    0.00000    1.000
    O9       O        0.17700    0.11280    0.04400    1.000
    O10      O        0.05810    0.13480    0.03450    1.000
    O11      O        0.11280    0.17700    0.95600    1.000
    O12      O        0.13480    0.05810    0.96550    1.000
    Cl4      Cl       0.87918    0.87918    0.50000    1.000
    O13      O        0.82300    0.88720    0.54400    1.000
    O14      O        0.94190    0.86520    0.53450    1.000
    O15      O        0.88720    0.82300    0.45600    1.000
    O16      O        0.86520    0.94190    0.46550    1.000
