data_functionalizedCrystal
_audit_creation_method	'EQeq! by Chris Wilmer'
_symmetry_space_group_name_H-M	'P1'
_symmetry_Int_Tables_number	1
_symmetry_cell_setting	triclinic
loop_
_symmetry_equiv_pos_as_xyz
  x,y,z
_cell_length_a	7.602
_cell_length_b	14.251
_cell_length_c	14.251
_cell_angle_alpha	97.9523
_cell_angle_beta	101.47
_cell_angle_gamma	101.47
loop_
_atom_site_label
_atom_site_type_symbol
_atom_site_fract_x
_atom_site_fract_y
_atom_site_fract_z
_atom_site_charge
Mof_Ni	Ni	0.75	0.58943	0.41057	1.048
Mof_Ni	Ni	0.25	0.41057	0.58943	1.044
Mof_Ni	Ni	0.5	0	-0	0.971
Mof_Ni	Ni	-0	0	-0	0.96
Mof_H 	H 	0.9572	0.783	0.9368	0.071
Mof_H 	H 	0.9042	0.6625	0.8017	0.082
Mof_H 	H 	0.8633	0.8647	0.6321	0.09
Mof_H 	H 	0.9126	0.9797	0.7717	0.069
Mof_H 	H 	0.6288	0.7743	0.3825	0.011
Mof_H 	H 	0.6205	0.8824	0.276	0.099
Mof_H 	H 	0.5428	0.0632	0.217	-0.019
Mof_H 	H 	0.5958	0.1983	0.3375	0.064
Mof_H 	H 	0.6367	0.3679	0.1353	0.059
Mof_H 	H 	0.5874	0.2283	0.0203	-0.028
Mof_H 	H 	0.8712	0.6175	0.2257	0.001
Mof_H 	H 	0.8795	0.724	0.1176	0.054
Mof_H 	H 	0.0428	0.217	0.0632	-0.024
Mof_H 	H 	0.0958	0.3375	0.1983	0.056
Mof_H 	H 	0.1367	0.1353	0.3679	0.053
Mof_H 	H 	0.0874	0.0203	0.2283	-0.034
Mof_H 	H 	0.3712	0.2257	0.6175	-0.003
Mof_H 	H 	0.3795	0.1176	0.724	0.048
Mof_H 	H 	0.4572	0.9368	0.783	0.066
Mof_H 	H 	0.4042	0.8017	0.6625	0.074
Mof_H 	H 	0.3633	0.6321	0.8647	0.084
Mof_H 	H 	0.4126	0.7717	0.9797	0.063
Mof_H 	H 	0.1288	0.3825	0.7743	0.007
Mof_H 	H 	0.1205	0.276	0.8824	0.093
Mof_C 	C 	0.9381	0.7997	0.8753	0.046
Mof_C 	C 	0.9066	0.7264	0.794	-0.061
Mof_C 	C 	0.8785	0.7497	0.7005	-0.004
Mof_C 	C 	0.8815	0.8464	0.6928	-0.064
Mof_C 	C 	0.9125	0.9155	0.7779	0.056
Mof_C 	C 	0.8417	0.67	0.61	0.284
Mof_C 	C 	0.6781	0.7635	0.3283	0.051
Mof_C 	C 	0.6737	0.8298	0.2646	-0.071
Mof_C 	C 	0.5619	0.1247	0.2003	0.039
Mof_C 	C 	0.5934	0.206	0.2736	-0.078
Mof_C 	C 	0.6215	0.2995	0.2503	-0.008
Mof_C 	C 	0.6185	0.3072	0.1536	-0.086
Mof_C 	C 	0.5875	0.2221	0.0845	0.044
Mof_C 	C 	0.6583	0.39	0.33	0.283
Mof_C 	C 	0.8219	0.6717	0.2365	0.043
Mof_C 	C 	0.8263	0.7354	0.1702	-0.071
Mof_C 	C 	0.0619	0.2003	0.1247	0.03
Mof_C 	C 	0.0934	0.2736	0.206	-0.08
Mof_C 	C 	0.1215	0.2503	0.2995	-0.018
Mof_C 	C 	0.1185	0.1536	0.3072	-0.088
Mof_C 	C 	0.0875	0.0845	0.2221	0.036
Mof_C 	C 	0.1583	0.33	0.39	0.28
Mof_C 	C 	0.3219	0.2365	0.6717	0.038
Mof_C 	C 	0.3263	0.1702	0.7354	-0.072
Mof_C 	C 	0.4381	0.8753	0.7997	0.037
Mof_C 	C 	0.4066	0.794	0.7264	-0.063
Mof_C 	C 	0.3785	0.7005	0.7497	-0.014
Mof_C 	C 	0.3815	0.6928	0.8464	-0.067
Mof_C 	C 	0.4125	0.7779	0.9155	0.048
Mof_C 	C 	0.3417	0.61	0.67	0.281
Mof_C 	C 	0.1781	0.3283	0.7635	0.047
Mof_C 	C 	0.1737	0.2646	0.8298	-0.072
Mof_C 	C 	0.75	0.8162	0.1838	-0.017
Mof_C 	C 	0.75	0.8872	0.1128	0.318
Mof_C 	C 	0.25	0.1838	0.8162	-0.024
Mof_C 	C 	0.25	0.1128	0.8872	0.317
Mof_N 	N 	0.9421	0.89449	0.86851	-0.154
Mof_N 	N 	0.5579	0.13149	0.10551	-0.243
Mof_N 	N 	0.0579	0.10551	0.13149	-0.248
Mof_N 	N 	0.4421	0.86851	0.89449	-0.161
Mof_N 	N 	0.75	0.6845	0.3155	-0.235
Mof_N 	N 	0.25	0.3155	0.6845	-0.236
Mof_N 	N 	0.25	0.9525	0.0475	-0.238
Mof_N 	N 	0.25	0.8969	0.1031	-0.042
Mof_N 	N 	0.25	0.8432	0.1568	-0.078
Mof_N 	N 	0.75	0.0475	0.9525	-0.225
Mof_N 	N 	0.75	0.1031	0.8969	-0.035
Mof_N 	N 	0.75	0.1568	0.8432	-0.064
Mof_O 	O 	0.8249	0.698	0.52882	-0.405
Mof_O 	O 	0.8293	0.582	0.6222	-0.297
Mof_O 	O 	0.6279	0.93659	0.10969	-0.363
Mof_O 	O 	0.6751	0.47118	0.302	-0.42
Mof_O 	O 	0.6707	0.3778	0.418	-0.304
Mof_O 	O 	0.8721	0.89031	0.06341	-0.39
Mof_O 	O 	0.1751	0.302	0.47118	-0.428
Mof_O 	O 	0.1707	0.418	0.3778	-0.318
Mof_O 	O 	0.3721	0.06341	0.89031	-0.402
Mof_O 	O 	0.3249	0.52882	0.698	-0.412
Mof_O 	O 	0.3293	0.6222	0.582	-0.31
Mof_O 	O 	0.1279	0.10969	0.93659	-0.371
_end
