data_functionalizedCrystal
_audit_creation_method	'EQeq! by Chris Wilmer'
_symmetry_space_group_name_H-M	'P1'
_symmetry_Int_Tables_number	1
_symmetry_cell_setting	triclinic
loop_
_symmetry_equiv_pos_as_xyz
  x,y,z
_cell_length_a	13.2712
_cell_length_b	13.2712
_cell_length_c	13.2712
_cell_angle_alpha	90
_cell_angle_beta	90
_cell_angle_gamma	90
loop_
_atom_site_label
_atom_site_type_symbol
_atom_site_fract_x
_atom_site_fract_y
_atom_site_fract_z
_atom_site_charge
Mof_N 	N 	0.44	0.137	0.9657	0.573
Mof_N 	N 	0.44	0.637	0.4657	-0.081
Mof_N 	N 	0.94	0.137	0.4657	-0.575
Mof_N 	N 	0.94	0.637	0.9657	0.132
Mof_N 	N 	0.56	0.863	0.9657	0.628
Mof_N 	N 	0.56	0.363	0.4657	-0.074
Mof_N 	N 	0.06	0.863	0.4657	0.394
Mof_N 	N 	0.06	0.363	0.9657	1.064
Mof_N 	N 	0.56	0.137	0.0343	-0.812
Mof_N 	N 	0.56	0.637	0.5343	-0.086
Mof_N 	N 	0.06	0.137	0.5343	0.341
Mof_N 	N 	0.06	0.637	0.0343	-0.335
Mof_N 	N 	0.44	0.863	0.0343	-0.785
Mof_N 	N 	0.44	0.363	0.5343	-0.085
Mof_N 	N 	0.94	0.863	0.5343	-0.55
Mof_N 	N 	0.94	0.363	0.0343	-1.256
Mof_N 	N 	0.9657	0.44	0.137	0.574
Mof_N 	N 	0.9657	0.94	0.637	0.132
Mof_N 	N 	0.4657	0.44	0.637	-0.081
Mof_N 	N 	0.4657	0.94	0.137	-0.575
Mof_N 	N 	0.9657	0.56	0.863	0.628
Mof_N 	N 	0.9657	0.06	0.363	1.064
Mof_N 	N 	0.4657	0.56	0.363	-0.074
Mof_N 	N 	0.4657	0.06	0.863	0.394
Mof_N 	N 	0.0343	0.56	0.137	-0.812
Mof_N 	N 	0.0343	0.06	0.637	-0.335
Mof_N 	N 	0.5343	0.56	0.637	-0.086
Mof_N 	N 	0.5343	0.06	0.137	0.341
Mof_N 	N 	0.0343	0.44	0.863	-0.785
Mof_N 	N 	0.0343	0.94	0.363	-1.256
Mof_N 	N 	0.5343	0.44	0.363	-0.085
Mof_N 	N 	0.5343	0.94	0.863	-0.55
Mof_N 	N 	0.137	0.9657	0.44	0.574
Mof_N 	N 	0.137	0.4657	0.94	-0.575
Mof_N 	N 	0.637	0.9657	0.94	0.132
Mof_N 	N 	0.637	0.4657	0.44	-0.081
Mof_N 	N 	0.863	0.9657	0.56	0.628
Mof_N 	N 	0.863	0.4657	0.06	0.394
Mof_N 	N 	0.363	0.9657	0.06	1.064
Mof_N 	N 	0.363	0.4657	0.56	-0.074
Mof_N 	N 	0.137	0.0343	0.56	-0.812
Mof_N 	N 	0.137	0.5343	0.06	0.341
Mof_N 	N 	0.637	0.0343	0.06	-0.335
Mof_N 	N 	0.637	0.5343	0.56	-0.086
Mof_N 	N 	0.863	0.0343	0.44	-0.785
Mof_N 	N 	0.863	0.5343	0.94	-0.55
Mof_N 	N 	0.363	0.0343	0.94	-1.256
Mof_N 	N 	0.363	0.5343	0.44	-0.085
Mof_N 	N 	0.137	0.44	0.0343	-0.815
Mof_N 	N 	0.137	0.94	0.5343	-0.584
Mof_N 	N 	0.637	0.44	0.5343	-0.089
Mof_N 	N 	0.637	0.94	0.0343	-1.266
Mof_N 	N 	0.863	0.56	0.0343	-0.783
Mof_N 	N 	0.863	0.06	0.5343	0.388
Mof_N 	N 	0.363	0.56	0.5343	-0.082
Mof_N 	N 	0.363	0.06	0.0343	-0.329
Mof_N 	N 	0.137	0.56	0.9657	0.578
Mof_N 	N 	0.137	0.06	0.4657	0.348
Mof_N 	N 	0.637	0.56	0.4657	-0.078
Mof_N 	N 	0.637	0.06	0.9657	1.066
Mof_N 	N 	0.863	0.44	0.9657	0.626
Mof_N 	N 	0.863	0.94	0.4657	-0.543
Mof_N 	N 	0.363	0.44	0.4657	-0.078
Mof_N 	N 	0.363	0.94	0.9657	0.133
Mof_N 	N 	0.44	0.9657	0.863	0.626
Mof_N 	N 	0.44	0.4657	0.363	-0.078
Mof_N 	N 	0.94	0.9657	0.363	0.133
Mof_N 	N 	0.94	0.4657	0.863	-0.543
Mof_N 	N 	0.56	0.9657	0.137	0.578
Mof_N 	N 	0.56	0.4657	0.637	-0.078
Mof_N 	N 	0.06	0.9657	0.637	1.066
Mof_N 	N 	0.06	0.4657	0.137	0.348
Mof_N 	N 	0.56	0.0343	0.863	-0.783
Mof_N 	N 	0.56	0.5343	0.363	-0.082
Mof_N 	N 	0.06	0.0343	0.363	-0.329
Mof_N 	N 	0.06	0.5343	0.863	0.388
Mof_N 	N 	0.44	0.0343	0.137	-0.815
Mof_N 	N 	0.44	0.5343	0.637	-0.089
Mof_N 	N 	0.94	0.0343	0.637	-1.266
Mof_N 	N 	0.94	0.5343	0.137	-0.584
Mof_N 	N 	0.9657	0.137	0.56	0.578
Mof_N 	N 	0.9657	0.637	0.06	1.066
Mof_N 	N 	0.4657	0.137	0.06	0.348
Mof_N 	N 	0.4657	0.637	0.56	-0.078
Mof_N 	N 	0.9657	0.863	0.44	0.626
Mof_N 	N 	0.9657	0.363	0.94	0.133
Mof_N 	N 	0.4657	0.863	0.94	-0.543
Mof_N 	N 	0.4657	0.363	0.44	-0.078
Mof_N 	N 	0.0343	0.137	0.44	-0.815
Mof_N 	N 	0.0343	0.637	0.94	-1.266
Mof_N 	N 	0.5343	0.137	0.94	-0.584
Mof_N 	N 	0.5343	0.637	0.44	-0.089
Mof_N 	N 	0.0343	0.863	0.56	-0.783
Mof_N 	N 	0.0343	0.363	0.06	-0.329
Mof_N 	N 	0.5343	0.863	0.06	0.388
Mof_N 	N 	0.5343	0.363	0.56	-0.082
Mof_N 	N 	0.56	0.863	0.0343	-0.783
Mof_N 	N 	0.56	0.363	0.5343	-0.082
Mof_N 	N 	0.06	0.863	0.5343	0.388
Mof_N 	N 	0.06	0.363	0.0343	-0.329
Mof_N 	N 	0.44	0.137	0.0343	-0.815
Mof_N 	N 	0.44	0.637	0.5343	-0.089
Mof_N 	N 	0.94	0.137	0.5343	-0.584
Mof_N 	N 	0.94	0.637	0.0343	-1.266
Mof_N 	N 	0.44	0.863	0.9657	0.626
Mof_N 	N 	0.44	0.363	0.4657	-0.078
Mof_N 	N 	0.94	0.863	0.4657	-0.543
Mof_N 	N 	0.94	0.363	0.9657	0.133
Mof_N 	N 	0.56	0.137	0.9657	0.578
Mof_N 	N 	0.56	0.637	0.4657	-0.078
Mof_N 	N 	0.06	0.137	0.4657	0.348
Mof_N 	N 	0.06	0.637	0.9657	1.066
Mof_N 	N 	0.0343	0.56	0.863	-0.783
Mof_N 	N 	0.0343	0.06	0.363	-0.329
Mof_N 	N 	0.5343	0.56	0.363	-0.082
Mof_N 	N 	0.5343	0.06	0.863	0.388
Mof_N 	N 	0.0343	0.44	0.137	-0.815
Mof_N 	N 	0.0343	0.94	0.637	-1.266
Mof_N 	N 	0.5343	0.44	0.637	-0.089
Mof_N 	N 	0.5343	0.94	0.137	-0.584
Mof_N 	N 	0.9657	0.44	0.863	0.626
Mof_N 	N 	0.9657	0.94	0.363	0.133
Mof_N 	N 	0.4657	0.44	0.363	-0.078
Mof_N 	N 	0.4657	0.94	0.863	-0.543
Mof_N 	N 	0.9657	0.56	0.137	0.578
Mof_N 	N 	0.9657	0.06	0.637	1.066
Mof_N 	N 	0.4657	0.56	0.637	-0.078
Mof_N 	N 	0.4657	0.06	0.137	0.348
Mof_N 	N 	0.863	0.0343	0.56	-0.783
Mof_N 	N 	0.863	0.5343	0.06	0.388
Mof_N 	N 	0.363	0.0343	0.06	-0.329
Mof_N 	N 	0.363	0.5343	0.56	-0.082
Mof_N 	N 	0.137	0.0343	0.44	-0.815
Mof_N 	N 	0.137	0.5343	0.94	-0.584
Mof_N 	N 	0.637	0.0343	0.94	-1.266
Mof_N 	N 	0.637	0.5343	0.44	-0.089
Mof_N 	N 	0.863	0.9657	0.44	0.626
Mof_N 	N 	0.863	0.4657	0.94	-0.543
Mof_N 	N 	0.363	0.9657	0.94	0.133
Mof_N 	N 	0.363	0.4657	0.44	-0.078
Mof_N 	N 	0.137	0.9657	0.56	0.578
Mof_N 	N 	0.137	0.4657	0.06	0.348
Mof_N 	N 	0.637	0.9657	0.06	1.066
Mof_N 	N 	0.637	0.4657	0.56	-0.078
Mof_N 	N 	0.863	0.56	0.9657	0.628
Mof_N 	N 	0.863	0.06	0.4657	0.394
Mof_N 	N 	0.363	0.56	0.4657	-0.074
Mof_N 	N 	0.363	0.06	0.9657	1.064
Mof_N 	N 	0.137	0.44	0.9657	0.574
Mof_N 	N 	0.137	0.94	0.4657	-0.575
Mof_N 	N 	0.637	0.44	0.4657	-0.081
Mof_N 	N 	0.637	0.94	0.9657	0.132
Mof_N 	N 	0.863	0.44	0.0343	-0.785
Mof_N 	N 	0.863	0.94	0.5343	-0.55
Mof_N 	N 	0.363	0.44	0.5343	-0.085
Mof_N 	N 	0.363	0.94	0.0343	-1.256
Mof_N 	N 	0.137	0.56	0.0343	-0.812
Mof_N 	N 	0.137	0.06	0.5343	0.341
Mof_N 	N 	0.637	0.56	0.5343	-0.086
Mof_N 	N 	0.637	0.06	0.0343	-0.335
Mof_N 	N 	0.56	0.0343	0.137	-0.812
Mof_N 	N 	0.56	0.5343	0.637	-0.086
Mof_N 	N 	0.06	0.0343	0.637	-0.335
Mof_N 	N 	0.06	0.5343	0.137	0.341
Mof_N 	N 	0.44	0.0343	0.863	-0.785
Mof_N 	N 	0.44	0.5343	0.363	-0.085
Mof_N 	N 	0.94	0.0343	0.363	-1.256
Mof_N 	N 	0.94	0.5343	0.863	-0.55
Mof_N 	N 	0.44	0.9657	0.137	0.574
Mof_N 	N 	0.44	0.4657	0.637	-0.081
Mof_N 	N 	0.94	0.9657	0.637	0.132
Mof_N 	N 	0.94	0.4657	0.137	-0.575
Mof_N 	N 	0.56	0.9657	0.863	0.628
Mof_N 	N 	0.56	0.4657	0.363	-0.074
Mof_N 	N 	0.06	0.9657	0.363	1.064
Mof_N 	N 	0.06	0.4657	0.863	0.394
Mof_N 	N 	0.0343	0.863	0.44	-0.785
Mof_N 	N 	0.0343	0.363	0.94	-1.256
Mof_N 	N 	0.5343	0.863	0.94	-0.55
Mof_N 	N 	0.5343	0.363	0.44	-0.085
Mof_N 	N 	0.0343	0.137	0.56	-0.812
Mof_N 	N 	0.0343	0.637	0.06	-0.335
Mof_N 	N 	0.5343	0.137	0.06	0.341
Mof_N 	N 	0.5343	0.637	0.56	-0.086
Mof_N 	N 	0.9657	0.863	0.56	0.628
Mof_N 	N 	0.9657	0.363	0.06	1.064
Mof_N 	N 	0.4657	0.863	0.06	0.394
Mof_N 	N 	0.4657	0.363	0.56	-0.074
Mof_N 	N 	0.9657	0.137	0.44	0.574
Mof_N 	N 	0.9657	0.637	0.94	0.132
Mof_N 	N 	0.4657	0.137	0.94	-0.575
Mof_N 	N 	0.4657	0.637	0.44	-0.081
Mof_K 	K 	0.5	0.5	-0	3.41
Mof_K 	K 	1.26746e-32	0.5	0.5	3.41
Mof_K 	K 	0.5	5.39995e-33	0.5	3.41
Mof_K 	K 	-0	0	-0	3.965
Mof_N 	N 	0.4798	0.2142	0.9798	-0.296
Mof_N 	N 	0.4798	0.7142	0.4798	0.017
Mof_N 	N 	0.5202	0.7858	0.9798	-0.315
Mof_N 	N 	0.5202	0.2858	0.4798	0.01
Mof_N 	N 	0.0202	0.7858	0.4798	0.328
Mof_N 	N 	0.5202	0.2142	0.0202	0.32
Mof_N 	N 	0.5202	0.7142	0.5202	-0.004
Mof_N 	N 	0.0202	0.7142	0.0202	0.622
Mof_N 	N 	0.4798	0.7858	0.0202	0.328
Mof_N 	N 	0.4798	0.2858	0.5202	0.01
Mof_N 	N 	0.9798	0.4798	0.2142	-0.296
Mof_N 	N 	0.9798	0.9798	0.7142	-0.607
Mof_N 	N 	0.4798	0.4798	0.7142	0.017
Mof_N 	N 	0.9798	0.5202	0.7858	-0.315
Mof_N 	N 	0.9798	0.0202	0.2858	0.004
Mof_N 	N 	0.4798	0.0202	0.7858	0.328
Mof_N 	N 	0.0202	0.5202	0.2142	0.32
Mof_N 	N 	0.0202	0.0202	0.7142	0.622
Mof_N 	N 	0.0202	0.4798	0.7858	0.328
Mof_N 	N 	0.0202	0.9798	0.2858	0.004
Mof_N 	N 	0.2142	0.9798	0.4798	-0.296
Mof_N 	N 	0.7142	0.9798	0.9798	-0.607
Mof_N 	N 	0.7142	0.4798	0.4798	0.017
Mof_N 	N 	0.7858	0.9798	0.5202	-0.315
Mof_N 	N 	0.7858	0.4798	0.0202	0.328
Mof_N 	N 	0.2858	0.9798	0.0202	0.004
Mof_N 	N 	0.2142	0.0202	0.5202	0.32
Mof_N 	N 	0.7142	0.0202	0.0202	0.622
Mof_N 	N 	0.7858	0.0202	0.4798	0.328
Mof_N 	N 	0.2858	0.0202	0.9798	0.004
Mof_N 	N 	0.2142	0.4798	0.0202	0.33
Mof_N 	N 	0.7142	0.4798	0.5202	0.007
Mof_N 	N 	0.7858	0.5202	0.0202	0.318
Mof_N 	N 	0.2858	0.5202	0.5202	0
Mof_N 	N 	0.2858	0.0202	0.0202	0.612
Mof_N 	N 	0.2142	0.5202	0.9798	-0.305
Mof_N 	N 	0.2142	0.0202	0.4798	0.33
Mof_N 	N 	0.7142	0.5202	0.4798	0.007
Mof_N 	N 	0.7858	0.4798	0.9798	-0.305
Mof_N 	N 	0.2858	0.4798	0.4798	0.02
Mof_N 	N 	0.4798	0.9798	0.7858	-0.305
Mof_N 	N 	0.4798	0.4798	0.2858	0.02
Mof_N 	N 	0.5202	0.9798	0.2142	-0.305
Mof_N 	N 	0.5202	0.4798	0.7142	0.007
Mof_N 	N 	0.0202	0.4798	0.2142	0.33
Mof_N 	N 	0.5202	0.0202	0.7858	0.318
Mof_N 	N 	0.5202	0.5202	0.2858	0
Mof_N 	N 	0.0202	0.0202	0.2858	0.612
Mof_N 	N 	0.4798	0.0202	0.2142	0.33
Mof_N 	N 	0.4798	0.5202	0.7142	0.007
Mof_N 	N 	0.9798	0.2142	0.5202	-0.305
Mof_N 	N 	0.9798	0.7142	0.0202	0.002
Mof_N 	N 	0.4798	0.2142	0.0202	0.33
Mof_N 	N 	0.9798	0.7858	0.4798	-0.305
Mof_N 	N 	0.9798	0.2858	0.9798	-0.588
Mof_N 	N 	0.4798	0.2858	0.4798	0.02
Mof_N 	N 	0.0202	0.2142	0.4798	0.33
Mof_N 	N 	0.0202	0.7142	0.9798	0.002
Mof_N 	N 	0.0202	0.7858	0.5202	0.318
Mof_N 	N 	0.0202	0.2858	0.0202	0.612
Mof_N 	N 	0.5202	0.7858	0.0202	0.318
Mof_N 	N 	0.5202	0.2858	0.5202	0
Mof_N 	N 	0.4798	0.7142	0.5202	0.007
Mof_N 	N 	0.4798	0.7858	0.9798	-0.305
Mof_N 	N 	0.5202	0.2142	0.9798	-0.305
Mof_N 	N 	0.5202	0.7142	0.4798	0.007
Mof_N 	N 	0.0202	0.5202	0.7858	0.318
Mof_N 	N 	0.0202	0.9798	0.7142	0.002
Mof_N 	N 	0.9798	0.4798	0.7858	-0.305
Mof_N 	N 	0.9798	0.9798	0.2858	-0.588
Mof_N 	N 	0.9798	0.5202	0.2142	-0.305
Mof_N 	N 	0.9798	0.0202	0.7142	0.002
Mof_N 	N 	0.7858	0.0202	0.5202	0.318
Mof_N 	N 	0.7142	0.0202	0.9798	0.002
Mof_N 	N 	0.7858	0.9798	0.4798	-0.305
Mof_N 	N 	0.2858	0.9798	0.9798	-0.588
Mof_N 	N 	0.2142	0.9798	0.5202	-0.305
Mof_N 	N 	0.7142	0.9798	0.0202	0.002
Mof_N 	N 	0.7858	0.5202	0.9798	-0.315
Mof_N 	N 	0.2858	0.5202	0.4798	0.01
Mof_N 	N 	0.2142	0.4798	0.9798	-0.296
Mof_N 	N 	0.2858	0.4798	0.5202	0.01
Mof_N 	N 	0.2142	0.5202	0.0202	0.32
Mof_N 	N 	0.7142	0.5202	0.5202	-0.004
Mof_N 	N 	0.5202	0.0202	0.2142	0.32
Mof_N 	N 	0.5202	0.5202	0.7142	-0.004
Mof_N 	N 	0.4798	0.5202	0.2858	0.01
Mof_N 	N 	0.4798	0.9798	0.2142	-0.296
Mof_N 	N 	0.5202	0.9798	0.7858	-0.315
Mof_N 	N 	0.5202	0.4798	0.2858	0.01
Mof_N 	N 	0.0202	0.2858	0.9798	0.004
Mof_N 	N 	0.0202	0.2142	0.5202	0.32
Mof_N 	N 	0.9798	0.7858	0.5202	-0.315
Mof_N 	N 	0.9798	0.2858	0.0202	0.004
Mof_N 	N 	0.9798	0.2142	0.4798	-0.296
Mof_N 	N 	0.9798	0.7142	0.9798	-0.607
Mof_N 	N 	0.517	0.2916	-0	-0.174
Mof_N 	N 	0.517	0.7916	0.5	-0.09
Mof_N 	N 	0.017	0.2916	0.5	-0.894
Mof_N 	N 	0.017	0.7916	-0	-0.985
Mof_N 	N 	0.483	0.7084	-0	-0.196
Mof_N 	N 	0.483	0.2084	0.5	-0.095
Mof_N 	N 	0.983	0.7084	0.5	0.923
Mof_N 	N 	0.983	0.2084	-0	0.772
Mof_N 	N 	0.483	0.2916	-0	-0.194
Mof_N 	N 	0.483	0.7916	0.5	-0.114
Mof_N 	N 	0.983	0.2916	0.5	0.914
Mof_N 	N 	0.983	0.7916	-0	0.78
Mof_N 	N 	0.517	0.7084	-0	-0.174
Mof_N 	N 	0.517	0.2084	0.5	-0.073
Mof_N 	N 	0.017	0.7084	0.5	-0.9
Mof_N 	N 	0.017	0.2084	-0	-0.944
Mof_N 	N 	1.18932e-32	0.517	0.2916	-0.174
Mof_N 	N 	8.36798e-33	0.017	0.7916	-0.985
Mof_N 	N 	0.5	0.517	0.7916	-0.09
Mof_N 	N 	0.5	0.017	0.2916	-0.894
Mof_N 	N 	-1.35438e-32	0.483	0.7084	-0.196
Mof_N 	N 	-7.31855e-33	0.983	0.2084	0.772
Mof_N 	N 	0.5	0.483	0.2084	-0.095
Mof_N 	N 	0.5	0.983	0.7084	0.923
Mof_N 	N 	1.09332e-33	0.483	0.2916	-0.194
Mof_N 	N 	1.37679e-32	0.983	0.7916	0.78
Mof_N 	N 	0.5	0.483	0.7916	-0.114
Mof_N 	N 	0.5	0.983	0.2916	0.914
Mof_N 	N 	-1.35438e-32	0.517	0.7084	-0.174
Mof_N 	N 	7.81375e-34	0.017	0.2084	-0.944
Mof_N 	N 	0.5	0.517	0.2084	-0.073
Mof_N 	N 	0.5	0.017	0.7084	-0.9
Mof_N 	N 	0.2916	5.39995e-33	0.517	-0.174
Mof_N 	N 	0.2916	0.5	0.017	-0.894
Mof_N 	N 	0.7916	0	0.017	-0.985
Mof_N 	N 	0.7916	0.5	0.517	-0.09
Mof_N 	N 	0.7084	-5.39995e-33	0.483	-0.196
Mof_N 	N 	0.7084	0.5	0.983	0.923
Mof_N 	N 	0.2084	0	0.983	0.772
Mof_N 	N 	0.2084	0.5	0.483	-0.095
Mof_N 	N 	0.2916	-5.39995e-33	0.483	-0.194
Mof_N 	N 	0.2916	0.5	0.983	0.914
Mof_N 	N 	0.7916	0	0.983	0.78
Mof_N 	N 	0.7916	0.5	0.483	-0.114
Mof_N 	N 	0.7084	5.39995e-33	0.517	-0.174
Mof_N 	N 	0.7084	0.5	0.017	-0.9
Mof_N 	N 	0.2084	0	0.017	-0.944
Mof_N 	N 	0.2084	0.5	0.517	-0.073
Mof_N 	N 	0.2916	0.517	-0	-0.174
Mof_N 	N 	0.2916	0.017	0.5	-0.894
Mof_N 	N 	0.7916	0.517	0.5	-0.09
Mof_N 	N 	0.7916	0.017	-0	-0.985
Mof_N 	N 	0.7084	0.483	-0	-0.196
Mof_N 	N 	0.7084	0.983	0.5	0.923
Mof_N 	N 	0.2084	0.483	0.5	-0.095
Mof_N 	N 	0.2084	0.983	-0	0.772
Mof_N 	N 	0.2916	0.483	-0	-0.194
Mof_N 	N 	0.2916	0.983	0.5	0.914
Mof_N 	N 	0.7916	0.483	0.5	-0.114
Mof_N 	N 	0.7916	0.983	-0	0.78
Mof_N 	N 	0.7084	0.517	-0	-0.174
Mof_N 	N 	0.7084	0.017	0.5	-0.9
Mof_N 	N 	0.2084	0.517	0.5	-0.073
Mof_N 	N 	0.2084	0.017	-0	-0.944
Mof_N 	N 	0.517	-5.39995e-33	0.7084	-0.174
Mof_N 	N 	0.517	0.5	0.2084	-0.073
Mof_N 	N 	0.017	0	0.2084	-0.944
Mof_N 	N 	0.017	0.5	0.7084	-0.9
Mof_N 	N 	0.483	0	0.2916	-0.194
Mof_N 	N 	0.483	0.5	0.7916	-0.114
Mof_N 	N 	0.983	5.39995e-33	0.7916	0.78
Mof_N 	N 	0.983	0.5	0.2916	0.914
Mof_N 	N 	0.483	-5.39995e-33	0.7084	-0.196
Mof_N 	N 	0.483	0.5	0.2084	-0.095
Mof_N 	N 	0.983	0	0.2084	0.772
Mof_N 	N 	0.983	0.5	0.7084	0.923
Mof_N 	N 	0.517	0	0.2916	-0.174
Mof_N 	N 	0.517	0.5	0.7916	-0.09
Mof_N 	N 	0.017	5.39995e-33	0.7916	-0.985
Mof_N 	N 	0.017	0.5	0.2916	-0.894
Mof_N 	N 	1.81096e-33	0.2916	0.483	-0.194
Mof_N 	N 	1.44856e-32	0.7916	0.983	0.78
Mof_N 	N 	0.5	0.2916	0.983	0.914
Mof_N 	N 	0.5	0.7916	0.483	-0.114
Mof_N 	N 	-8.86146e-33	0.7084	0.517	-0.174
Mof_N 	N 	1.91997e-33	0.2084	0.017	-0.944
Mof_N 	N 	0.5	0.7084	0.017	-0.9
Mof_N 	N 	0.5	0.2084	0.517	-0.073
Mof_N 	N 	7.33839e-33	0.2916	0.517	-0.174
Mof_N 	N 	7.31992e-33	0.7916	0.017	-0.985
Mof_N 	N 	0.5	0.2916	0.017	-0.894
Mof_N 	N 	0.5	0.7916	0.517	-0.09
Mof_N 	N 	-1.43889e-32	0.7084	0.483	-0.196
Mof_N 	N 	-7.11424e-33	0.2084	0.983	0.772
Mof_N 	N 	0.5	0.7084	0.983	0.923
Mof_N 	N 	0.5	0.2084	0.483	-0.095
Mof_Cr	Cr	0.5	0	-0	3.098
Mof_Cr	Cr	0.5	0.5	0.5	2.456
Mof_Cr	Cr	7.27465e-33	5.39995e-33	0.5	3.098
Mof_Cr	Cr	5.39995e-33	0.5	-0	3.098
_end
