data_functionalizedCrystal
_audit_creation_method	'EQeq! by Chris Wilmer'
_symmetry_space_group_name_H-M	'P1'
_symmetry_Int_Tables_number	1
_symmetry_cell_setting	triclinic
loop_
_symmetry_equiv_pos_as_xyz
  x,y,z
_cell_length_a	19.541
_cell_length_b	19.541
_cell_length_c	25.95
_cell_angle_alpha	90
_cell_angle_beta	90
_cell_angle_gamma	90
loop_
_atom_site_label
_atom_site_type_symbol
_atom_site_fract_x
_atom_site_fract_y
_atom_site_fract_z
_atom_site_charge
Mof_O 	O 	0.0721	0.9555	0.3308	-0.316
Mof_O 	O 	0.864	0.9779	0.26153	-0.333
Mof_O 	O 	0.9329	0.0318	0.2064	-0.486
Mof_O 	O 	0.1151	0.0168	0.2665	-0.481
Mof_O 	O 	0.2234	0.8356	0.45	-0.291
Mof_O 	O 	0.3343	0.8386	0.4392	-0.262
Mof_C 	C 	0.3166	0.9653	0.3099	-0.2
Mof_C 	C 	0.1219	0.9789	0.3057	0.425
Mof_C 	C 	0.1919	0.9618	0.324	-0.179
Mof_C 	C 	0.2493	0.9847	0.2955	0.114
Mof_H 	H 	0.2428	0.0129	0.267	-0.005
Mof_C 	C 	0.2012	0.9222	0.3676	0.096
Mof_H 	H 	0.1635	0.9081	0.3868	0.029
Mof_C 	C 	0.3235	0.9272	0.3535	0.12
Mof_H 	H 	0.3674	0.9163	0.3647	-0.015
Mof_C 	C 	0.8752	0.012	0.222	0.442
Mof_C 	C 	0.2671	0.9031	0.3828	-0.157
Mof_C 	C 	0.2733	0.8561	0.4269	0.342
Mof_O 	O 	0.4279	0.5445	0.3308	-0.318
Mof_O 	O 	0.636	0.5221	0.26153	-0.333
Mof_O 	O 	0.5671	0.4682	0.2064	-0.488
Mof_O 	O 	0.3849	0.4832	0.2665	-0.481
Mof_O 	O 	0.2766	0.6644	0.45	-0.291
Mof_O 	O 	0.1657	0.6614	0.4392	-0.262
Mof_C 	C 	0.1834	0.5347	0.3099	-0.199
Mof_C 	C 	0.3781	0.5211	0.3057	0.422
Mof_C 	C 	0.3081	0.5382	0.324	-0.178
Mof_C 	C 	0.2507	0.5153	0.2955	0.111
Mof_H 	H 	0.2572	0.4871	0.267	-0.004
Mof_C 	C 	0.2988	0.5778	0.3676	0.095
Mof_H 	H 	0.3365	0.5919	0.3868	0.029
Mof_C 	C 	0.1765	0.5728	0.3535	0.118
Mof_H 	H 	0.1326	0.5837	0.3647	-0.014
Mof_C 	C 	0.6248	0.488	0.222	0.44
Mof_C 	C 	0.2329	0.5969	0.3828	-0.156
Mof_C 	C 	0.2267	0.6439	0.4269	0.342
Mof_O 	O 	0.5445	0.0721	0.8308	-0.316
Mof_O 	O 	0.5221	0.864	0.76153	-0.332
Mof_O 	O 	0.4682	0.9329	0.7064	-0.488
Mof_O 	O 	0.4832	0.1151	0.7665	-0.481
Mof_O 	O 	0.6644	0.2234	0.95	-0.281
Mof_O 	O 	0.6614	0.3343	0.9392	-0.254
Mof_C 	C 	0.5347	0.3166	0.8099	-0.197
Mof_C 	C 	0.5211	0.1219	0.8057	0.422
Mof_C 	C 	0.5382	0.1919	0.824	-0.176
Mof_C 	C 	0.5153	0.2493	0.7955	0.11
Mof_H 	H 	0.4871	0.2428	0.767	-0.003
Mof_C 	C 	0.5778	0.2012	0.8676	0.094
Mof_H 	H 	0.5919	0.1635	0.8868	0.031
Mof_C 	C 	0.5728	0.3235	0.8535	0.117
Mof_H 	H 	0.5837	0.3674	0.8647	-0.013
Mof_C 	C 	0.488	0.8752	0.722	0.44
Mof_C 	C 	0.5969	0.2671	0.8828	-0.152
Mof_C 	C 	0.6439	0.2733	0.9269	0.34
Mof_O 	O 	0.9555	0.4279	0.8308	-0.317
Mof_O 	O 	0.9779	0.636	0.76153	-0.333
Mof_O 	O 	0.0318	0.5671	0.7064	-0.488
Mof_O 	O 	0.0168	0.3849	0.7665	-0.481
Mof_O 	O 	0.8356	0.2766	0.95	-0.281
Mof_O 	O 	0.8386	0.1657	0.9392	-0.254
Mof_C 	C 	0.9653	0.1834	0.8099	-0.197
Mof_C 	C 	0.9789	0.3781	0.8057	0.422
Mof_C 	C 	0.9618	0.3081	0.824	-0.176
Mof_C 	C 	0.9847	0.2507	0.7955	0.111
Mof_H 	H 	0.0129	0.2572	0.767	-0.003
Mof_C 	C 	0.9222	0.2988	0.8676	0.094
Mof_H 	H 	0.9081	0.3365	0.8868	0.031
Mof_C 	C 	0.9272	0.1765	0.8535	0.117
Mof_H 	H 	0.9163	0.1326	0.8647	-0.012
Mof_C 	C 	0.012	0.6248	0.722	0.442
Mof_C 	C 	0.9031	0.2329	0.8828	-0.152
Mof_C 	C 	0.8561	0.2267	0.9269	0.34
Mof_O 	O 	0.9279	0.4555	0.1692	-0.319
Mof_O 	O 	0.136	0.4779	0.23847	-0.333
Mof_O 	O 	0.0671	0.5318	0.2936	-0.488
Mof_O 	O 	0.8849	0.5168	0.2335	-0.481
Mof_O 	O 	0.7766	0.3356	0.05	-0.294
Mof_O 	O 	0.6657	0.3386	0.0608	-0.266
Mof_C 	C 	0.6834	0.4653	0.1901	-0.2
Mof_C 	C 	0.8781	0.4789	0.1943	0.423
Mof_C 	C 	0.8081	0.4618	0.176	-0.18
Mof_C 	C 	0.7507	0.4847	0.2045	0.111
Mof_H 	H 	0.7572	0.5129	0.233	-0.004
Mof_C 	C 	0.7988	0.4222	0.1324	0.096
Mof_H 	H 	0.8365	0.4081	0.1132	0.027
Mof_C 	C 	0.6765	0.4272	0.1465	0.119
Mof_H 	H 	0.6326	0.4163	0.1353	-0.016
Mof_C 	C 	0.1248	0.512	0.278	0.44
Mof_C 	C 	0.7329	0.4031	0.1172	-0.159
Mof_C 	C 	0.7267	0.3561	0.0731	0.343
Mof_O 	O 	0.5721	0.0445	0.1692	-0.32
Mof_O 	O 	0.364	0.0221	0.23847	-0.334
Mof_O 	O 	0.4329	0.9682	0.2936	-0.488
Mof_O 	O 	0.6151	0.9832	0.2335	-0.482
Mof_O 	O 	0.7234	0.1644	0.05	-0.294
Mof_O 	O 	0.8343	0.1614	0.0608	-0.266
Mof_C 	C 	0.8166	0.0347	0.1901	-0.2
Mof_C 	C 	0.6219	0.0211	0.1943	0.424
Mof_C 	C 	0.6919	0.0382	0.176	-0.18
Mof_C 	C 	0.7493	0.0153	0.2045	0.113
Mof_H 	H 	0.7428	0.9871	0.233	-0.005
Mof_C 	C 	0.7012	0.0778	0.1324	0.097
Mof_H 	H 	0.6635	0.0919	0.1132	0.027
Mof_C 	C 	0.8235	0.0728	0.1465	0.12
Mof_H 	H 	0.8674	0.0837	0.1353	-0.016
Mof_C 	C 	0.3752	0.988	0.278	0.442
Mof_C 	C 	0.7671	0.0969	0.1172	-0.159
Mof_C 	C 	0.7733	0.1439	0.0731	0.343
Mof_O 	O 	0.4555	0.5721	0.6692	-0.318
Mof_O 	O 	0.4779	0.364	0.73847	-0.332
Mof_O 	O 	0.5318	0.4329	0.7936	-0.488
Mof_O 	O 	0.5168	0.6151	0.7335	-0.481
Mof_O 	O 	0.3356	0.7234	0.55	-0.291
Mof_O 	O 	0.3386	0.8343	0.5608	-0.262
Mof_C 	C 	0.4653	0.8166	0.6901	-0.198
Mof_C 	C 	0.4789	0.6219	0.6943	0.423
Mof_C 	C 	0.4618	0.6919	0.676	-0.178
Mof_C 	C 	0.4847	0.7493	0.7045	0.111
Mof_H 	H 	0.5129	0.7428	0.733	-0.003
Mof_C 	C 	0.4222	0.7012	0.6324	0.095
Mof_H 	H 	0.4081	0.6635	0.6132	0.029
Mof_C 	C 	0.4272	0.8235	0.6465	0.118
Mof_H 	H 	0.4163	0.8674	0.6353	-0.014
Mof_C 	C 	0.512	0.3752	0.778	0.44
Mof_C 	C 	0.4031	0.7671	0.6172	-0.156
Mof_C 	C 	0.3561	0.7733	0.5731	0.342
Mof_O 	O 	0.0445	0.9279	0.6692	-0.318
Mof_O 	O 	0.0221	0.136	0.73847	-0.333
Mof_O 	O 	0.9682	0.0671	0.7936	-0.487
Mof_O 	O 	0.9832	0.8849	0.7335	-0.483
Mof_O 	O 	0.1644	0.7766	0.55	-0.291
Mof_O 	O 	0.1614	0.6657	0.5608	-0.262
Mof_C 	C 	0.0347	0.6834	0.6901	-0.2
Mof_C 	C 	0.0211	0.8781	0.6943	0.425
Mof_C 	C 	0.0382	0.8081	0.676	-0.18
Mof_C 	C 	0.0153	0.7507	0.7045	0.115
Mof_H 	H 	0.9871	0.7572	0.733	-0.005
Mof_C 	C 	0.0778	0.7988	0.6324	0.097
Mof_H 	H 	0.0919	0.8365	0.6132	0.029
Mof_C 	C 	0.0728	0.6765	0.6465	0.12
Mof_H 	H 	0.0837	0.6326	0.6353	-0.015
Mof_C 	C 	0.988	0.1248	0.778	0.441
Mof_C 	C 	0.0969	0.7329	0.6172	-0.157
Mof_C 	C 	0.1439	0.7267	0.5731	0.342
Mof_O 	O 	0.9279	0.0445	0.6692	-0.318
Mof_O 	O 	0.136	0.0221	0.73847	-0.333
Mof_O 	O 	0.0671	0.9682	0.7936	-0.487
Mof_O 	O 	0.8849	0.9832	0.7335	-0.483
Mof_O 	O 	0.7766	0.1644	0.55	-0.291
Mof_O 	O 	0.6657	0.1614	0.5608	-0.262
Mof_C 	C 	0.6834	0.0347	0.6901	-0.2
Mof_C 	C 	0.8781	0.0211	0.6943	0.425
Mof_C 	C 	0.8081	0.0382	0.676	-0.18
Mof_C 	C 	0.7507	0.0153	0.7045	0.115
Mof_H 	H 	0.7572	0.9871	0.733	-0.005
Mof_C 	C 	0.7988	0.0778	0.6324	0.097
Mof_H 	H 	0.8365	0.0919	0.6132	0.029
Mof_C 	C 	0.6765	0.0728	0.6465	0.12
Mof_H 	H 	0.6326	0.0837	0.6353	-0.015
Mof_C 	C 	0.1248	0.988	0.778	0.441
Mof_C 	C 	0.7329	0.0969	0.6172	-0.157
Mof_C 	C 	0.7267	0.1439	0.5731	0.342
Mof_O 	O 	0.5721	0.4555	0.6692	-0.318
Mof_O 	O 	0.364	0.4779	0.73847	-0.332
Mof_O 	O 	0.4329	0.5318	0.7936	-0.488
Mof_O 	O 	0.6151	0.5168	0.7335	-0.481
Mof_O 	O 	0.7234	0.3356	0.55	-0.291
Mof_O 	O 	0.8343	0.3386	0.5608	-0.262
Mof_C 	C 	0.8166	0.4653	0.6901	-0.198
Mof_C 	C 	0.6219	0.4789	0.6943	0.423
Mof_C 	C 	0.6919	0.4618	0.676	-0.178
Mof_C 	C 	0.7493	0.4847	0.7045	0.111
Mof_H 	H 	0.7428	0.5129	0.733	-0.003
Mof_C 	C 	0.7012	0.4222	0.6324	0.095
Mof_H 	H 	0.6635	0.4081	0.6132	0.029
Mof_C 	C 	0.8235	0.4272	0.6465	0.118
Mof_H 	H 	0.8674	0.4163	0.6353	-0.014
Mof_C 	C 	0.3752	0.512	0.778	0.44
Mof_C 	C 	0.7671	0.4031	0.6172	-0.156
Mof_C 	C 	0.7733	0.3561	0.5731	0.342
Mof_O 	O 	0.4555	0.9279	0.1692	-0.319
Mof_O 	O 	0.4779	0.136	0.23847	-0.333
Mof_O 	O 	0.5318	0.0671	0.2936	-0.488
Mof_O 	O 	0.5168	0.8849	0.2335	-0.481
Mof_O 	O 	0.3356	0.7766	0.05	-0.294
Mof_O 	O 	0.3386	0.6657	0.0608	-0.266
Mof_C 	C 	0.4653	0.6834	0.1901	-0.2
Mof_C 	C 	0.4789	0.8781	0.1943	0.423
Mof_C 	C 	0.4618	0.8081	0.176	-0.18
Mof_C 	C 	0.4847	0.7507	0.2045	0.111
Mof_H 	H 	0.5129	0.7572	0.233	-0.004
Mof_C 	C 	0.4222	0.7988	0.1324	0.096
Mof_H 	H 	0.4081	0.8365	0.1132	0.027
Mof_C 	C 	0.4272	0.6765	0.1465	0.119
Mof_H 	H 	0.4163	0.6326	0.1353	-0.016
Mof_C 	C 	0.512	0.1248	0.278	0.44
Mof_C 	C 	0.4031	0.7329	0.1172	-0.159
Mof_C 	C 	0.3561	0.7267	0.0731	0.343
Mof_O 	O 	0.0445	0.5721	0.1692	-0.32
Mof_O 	O 	0.0221	0.364	0.23847	-0.334
Mof_O 	O 	0.9682	0.4329	0.2936	-0.488
Mof_O 	O 	0.9832	0.6151	0.2335	-0.482
Mof_O 	O 	0.1644	0.7234	0.05	-0.294
Mof_O 	O 	0.1614	0.8343	0.0608	-0.266
Mof_C 	C 	0.0347	0.8166	0.1901	-0.2
Mof_C 	C 	0.0211	0.6219	0.1943	0.424
Mof_C 	C 	0.0382	0.6919	0.176	-0.18
Mof_C 	C 	0.0153	0.7493	0.2045	0.113
Mof_H 	H 	0.9871	0.7428	0.233	-0.005
Mof_C 	C 	0.0778	0.7012	0.1324	0.097
Mof_H 	H 	0.0919	0.6635	0.1132	0.027
Mof_C 	C 	0.0728	0.8235	0.1465	0.12
Mof_H 	H 	0.0837	0.8674	0.1353	-0.016
Mof_C 	C 	0.988	0.3752	0.278	0.442
Mof_C 	C 	0.0969	0.7671	0.1172	-0.159
Mof_C 	C 	0.1439	0.7733	0.0731	0.343
Mof_O 	O 	0.0721	0.5445	0.8308	-0.316
Mof_O 	O 	0.864	0.5221	0.76153	-0.332
Mof_O 	O 	0.9329	0.4682	0.7064	-0.488
Mof_O 	O 	0.1151	0.4832	0.7665	-0.481
Mof_O 	O 	0.2234	0.6644	0.95	-0.281
Mof_O 	O 	0.3343	0.6614	0.9392	-0.254
Mof_C 	C 	0.3166	0.5347	0.8099	-0.197
Mof_C 	C 	0.1219	0.5211	0.8057	0.422
Mof_C 	C 	0.1919	0.5382	0.824	-0.176
Mof_C 	C 	0.2493	0.5153	0.7955	0.11
Mof_H 	H 	0.2428	0.4871	0.767	-0.003
Mof_C 	C 	0.2012	0.5778	0.8676	0.094
Mof_H 	H 	0.1635	0.5919	0.8868	0.031
Mof_C 	C 	0.3235	0.5728	0.8535	0.117
Mof_H 	H 	0.3674	0.5837	0.8647	-0.013
Mof_C 	C 	0.8752	0.488	0.722	0.44
Mof_C 	C 	0.2671	0.5969	0.8828	-0.152
Mof_C 	C 	0.2733	0.6439	0.9269	0.34
Mof_O 	O 	0.4279	0.9555	0.8308	-0.317
Mof_O 	O 	0.636	0.9779	0.76153	-0.333
Mof_O 	O 	0.5671	0.0318	0.7064	-0.488
Mof_O 	O 	0.3849	0.0168	0.7665	-0.481
Mof_O 	O 	0.2766	0.8356	0.95	-0.281
Mof_O 	O 	0.1657	0.8386	0.9392	-0.254
Mof_C 	C 	0.1834	0.9653	0.8099	-0.197
Mof_C 	C 	0.3781	0.9789	0.8057	0.422
Mof_C 	C 	0.3081	0.9618	0.824	-0.176
Mof_C 	C 	0.2507	0.9847	0.7955	0.111
Mof_H 	H 	0.2572	0.0129	0.767	-0.003
Mof_C 	C 	0.2988	0.9222	0.8676	0.094
Mof_H 	H 	0.3365	0.9081	0.8868	0.031
Mof_C 	C 	0.1765	0.9272	0.8535	0.117
Mof_H 	H 	0.1326	0.9163	0.8647	-0.012
Mof_C 	C 	0.6248	0.012	0.722	0.442
Mof_C 	C 	0.2329	0.9031	0.8828	-0.152
Mof_C 	C 	0.2267	0.8561	0.9269	0.34
Mof_O 	O 	0.5445	0.4279	0.3308	-0.318
Mof_O 	O 	0.5221	0.636	0.26153	-0.333
Mof_O 	O 	0.4682	0.5671	0.2064	-0.488
Mof_O 	O 	0.4832	0.3849	0.2665	-0.481
Mof_O 	O 	0.6644	0.2766	0.45	-0.291
Mof_O 	O 	0.6614	0.1657	0.4392	-0.262
Mof_C 	C 	0.5347	0.1834	0.3099	-0.199
Mof_C 	C 	0.5211	0.3781	0.3057	0.422
Mof_C 	C 	0.5382	0.3081	0.324	-0.178
Mof_C 	C 	0.5153	0.2507	0.2955	0.111
Mof_H 	H 	0.4871	0.2572	0.267	-0.004
Mof_C 	C 	0.5778	0.2988	0.3676	0.095
Mof_H 	H 	0.5919	0.3365	0.3868	0.029
Mof_C 	C 	0.5728	0.1765	0.3535	0.118
Mof_H 	H 	0.5837	0.1326	0.3647	-0.014
Mof_C 	C 	0.488	0.6248	0.222	0.44
Mof_C 	C 	0.5969	0.2329	0.3828	-0.156
Mof_C 	C 	0.6439	0.2267	0.4269	0.342
Mof_O 	O 	0.9555	0.0721	0.3308	-0.317
Mof_O 	O 	0.9779	0.864	0.26153	-0.334
Mof_O 	O 	0.0318	0.9329	0.2064	-0.487
Mof_O 	O 	0.0168	0.1151	0.2665	-0.482
Mof_O 	O 	0.8356	0.2234	0.45	-0.291
Mof_O 	O 	0.8386	0.3343	0.4392	-0.262
Mof_C 	C 	0.9653	0.3166	0.3099	-0.2
Mof_C 	C 	0.9789	0.1219	0.3057	0.425
Mof_C 	C 	0.9618	0.1919	0.324	-0.179
Mof_C 	C 	0.9847	0.2493	0.2955	0.114
Mof_H 	H 	0.0129	0.2428	0.267	-0.005
Mof_C 	C 	0.9222	0.2012	0.3676	0.096
Mof_H 	H 	0.9081	0.1635	0.3868	0.029
Mof_C 	C 	0.9272	0.3235	0.3535	0.12
Mof_H 	H 	0.9163	0.3674	0.3647	-0.015
Mof_C 	C 	0.012	0.8752	0.222	0.442
Mof_C 	C 	0.9031	0.2671	0.3828	-0.157
Mof_C 	C 	0.8561	0.2733	0.4269	0.342
Mof_Cd	Cd	0.96287	0.96287	0.30699	0.449
Mof_Tb	Tb	0.0503	0.0503	0.19638	1.599
Mof_Cd	Cd	0.53713	0.53713	0.30699	0.45
Mof_Tb	Tb	0.4497	0.4497	0.19638	1.601
Mof_Cd	Cd	0.53713	0.96287	0.80699	0.452
Mof_Tb	Tb	0.4497	0.0503	0.69638	1.607
Mof_Cd	Cd	0.96287	0.53713	0.80699	0.452
Mof_Tb	Tb	0.0503	0.4497	0.69638	1.607
Mof_Cd	Cd	0.03713	0.46287	0.19301	0.448
Mof_Tb	Tb	0.9497	0.5503	0.30362	1.607
Mof_Cd	Cd	0.46287	0.03713	0.19301	0.448
Mof_Tb	Tb	0.5503	0.9497	0.30362	1.607
Mof_Cd	Cd	0.46287	0.46287	0.69301	0.45
Mof_Tb	Tb	0.5503	0.5503	0.80362	1.612
Mof_Cd	Cd	0.03713	0.03713	0.69301	0.45
Mof_Tb	Tb	0.9497	0.9497	0.80362	1.609
Mof_Cd	Cd	0.26524	0.76524	0.5	0.27
Mof_Cd	Cd	0.23476	0.73476	0.5	0.27
Mof_Cd	Cd	0.73476	0.26524	-0	0.26
Mof_Cd	Cd	0.76524	0.23476	-0	0.262
Mof_Cd	Cd	0.73476	0.23476	0.5	0.27
Mof_Cd	Cd	0.76524	0.26524	0.5	0.27
Mof_Cd	Cd	0.26524	0.73476	-0	0.26
Mof_Cd	Cd	0.23476	0.76524	-0	0.262
_end
