# CIF file generated by openbabel 3.1.0, see https://openbabel.org
data_I
_chemical_name_common 'image0'
_cell_length_a 8.6006
_cell_length_b 10.173
_cell_length_c 11.125
_cell_angle_alpha 65.11
_cell_angle_beta 71.8
_cell_angle_gamma 78.86
_space_group_name_H-M_alt 'P 1'
_space_group_name_Hall 'P 1'
loop_
    _symmetry_equiv_pos_as_xyz
    x,y,z
loop_
    _atom_site_label
    _atom_site_type_symbol
    _atom_site_fract_x
    _atom_site_fract_y
    _atom_site_fract_z
    _atom_site_occupancy
    Gd1      Gd       0.13188    0.43942    0.65371    1.000
    O1       O        0.03460    0.36800    0.47930    1.000
    O2       O        0.13190    0.20420    0.64710    1.000
    O3       O        0.84430    0.38030    0.76430    1.000
    O4       O        0.93910    0.52260    0.82580    1.000
    O5       O        0.17890    0.26480    0.86850    1.000
    O6       O        0.39790    0.30030    0.69440    1.000
    C1       C        0.06790    0.23590    0.55230    1.000
    C2       C        0.03420    0.11470    0.52290    1.000
    C3       C        0.99270    0.98420    0.63050    1.000
    H1       H        0.89450    0.99990    0.69510    1.000
    C4       C        0.04290    0.13270    0.39030    1.000
    H2       H        0.96610    0.21070    0.35440    1.000
    C5       C        0.82100    0.46000    0.83260    1.000
    C6       C        0.65490    0.48180    0.91770    1.000
    C7       C        0.52640    0.40920    0.92850    1.000
    H3       H        0.51080    0.43680    0.83910    1.000
    C8       C        0.63020    0.56950    0.99230    1.000
    H4       H        0.65920    0.66610    0.92980    1.000
    C9       C        0.32590    0.23200    0.81930    1.000
    C10      C        0.41770    0.11160    0.91020    1.000
    C11      C        0.33780    0.04020    0.04810    1.000
    H5       H        0.30300    0.10930    0.09090    1.000
    C12      C        0.58120    0.07040    0.86210    1.000
    H6       H        0.64590    0.15170    0.82890    1.000
    Gd2      Gd       0.86812    0.56058    0.34629    1.000
    O7       O        0.96540    0.63200    0.52070    1.000
    O8       O        0.86810    0.79580    0.35290    1.000
    O9       O        0.15570    0.61970    0.23570    1.000
    O10      O        0.06090    0.47740    0.17420    1.000
    O11      O        0.82110    0.73520    0.13150    1.000
    O12      O        0.60210    0.69970    0.30560    1.000
    C13      C        0.93210    0.76410    0.44770    1.000
    C14      C        0.96580    0.88530    0.47710    1.000
    C15      C        0.00730    0.01580    0.36950    1.000
    H7       H        0.10550    0.00010    0.30490    1.000
    C16      C        0.95710    0.86730    0.60970    1.000
    H8       H        0.03390    0.78930    0.64560    1.000
    C17      C        0.17900    0.54000    0.16740    1.000
    C18      C        0.34510    0.51820    0.08230    1.000
    C19      C        0.47360    0.59080    0.07150    1.000
    H9       H        0.48920    0.56320    0.16090    1.000
    C20      C        0.36980    0.43050    0.00770    1.000
    H10      H        0.34080    0.33390    0.07020    1.000
    C21      C        0.67410    0.76800    0.18070    1.000
    C22      C        0.58230    0.88840    0.08980    1.000
    C23      C        0.66220    0.95980    0.95190    1.000
    H11      H        0.69700    0.89070    0.90910    1.000
    C24      C        0.41880    0.92960    0.13790    1.000
    H12      H        0.35410    0.84830    0.17110    1.000
