# CIF file generated by openbabel 3.1.0, see https://openbabel.org
data_I
_chemical_name_common 'ATIBAG_clean'
_cell_length_a 10.1279
_cell_length_b 11.6495
_cell_length_c 14.8608
_cell_angle_alpha 91.67
_cell_angle_beta 90
_cell_angle_gamma 90
_space_group_name_H-M_alt 'P 1'
_space_group_name_Hall 'P 1'
loop_
    _symmetry_equiv_pos_as_xyz
    x,y,z
loop_
    _atom_site_label
    _atom_site_type_symbol
    _atom_site_fract_x
    _atom_site_fract_y
    _atom_site_fract_z
    _atom_site_occupancy
    Mn1      Mn       0.91559    0.75683    0.13115    1.000
    Mn2      Mn       0.10029    0.73955    0.31508    1.000
    Mn3      Mn       0.41559    0.74317    0.36885    1.000
    Mn4      Mn       0.60029    0.76045    0.18492    1.000
    Mn5      Mn       0.08441    0.24317    0.86885    1.000
    Mn6      Mn       0.89971    0.26045    0.68492    1.000
    Mn7      Mn       0.58441    0.25683    0.63115    1.000
    Mn8      Mn       0.39971    0.23955    0.81508    1.000
    Mn9      Mn       0.00000    0.50000    0.00000    1.000
    Mn10     Mn       0.50000    0.00000    0.50000    1.000
    Mn11     Mn       0.00000    0.00000    0.00000    1.000
    Mn12     Mn       0.50000    0.50000    0.50000    1.000
    H1       H        0.74940    0.86390    0.36460    1.000
    H2       H        0.02340    0.47850    0.26500    1.000
    H3       H        0.61880    0.55400    0.04260    1.000
    H4       H        0.18770    0.97550    0.23230    1.000
    H5       H        0.15760    0.69890    0.92880    1.000
    H6       H        0.70210    0.99420    0.01300    1.000
    H7       H        0.24940    0.63610    0.13540    1.000
    H8       H        0.52340    0.02150    0.23500    1.000
    H9       H        0.11880    0.94600    0.45740    1.000
    H10      H        0.68770    0.52450    0.26770    1.000
    H11      H        0.65760    0.80110    0.57120    1.000
    H12      H        0.20210    0.50580    0.48700    1.000
    H13      H        0.25060    0.13610    0.63540    1.000
    H14      H        0.97660    0.52150    0.73500    1.000
    H15      H        0.38120    0.44600    0.95740    1.000
    H16      H        0.81230    0.02450    0.76770    1.000
    H17      H        0.84240    0.30110    0.07120    1.000
    H18      H        0.29790    0.00580    0.98700    1.000
    H19      H        0.75060    0.36390    0.86460    1.000
    H20      H        0.47660    0.97850    0.76500    1.000
    H21      H        0.88120    0.05400    0.54260    1.000
    H22      H        0.31230    0.47550    0.73230    1.000
    H23      H        0.34240    0.19890    0.42880    1.000
    H24      H        0.79790    0.49420    0.51300    1.000
    C1       C        0.81860    0.83115    0.32915    1.000
    C2       C        0.00730    0.51900    0.21150    1.000
    C3       C        0.70930    0.57378    0.04908    1.000
    C4       C        0.12740    0.94947    0.18717    1.000
    C5       C        0.10170    0.74269    0.96809    1.000
    C6       C        0.71840    0.93282    0.05222    1.000
    C7       C        0.31860    0.66885    0.17085    1.000
    C8       C        0.50730    0.98100    0.28850    1.000
    C9       C        0.20930    0.92622    0.45092    1.000
    C10      C        0.62740    0.55053    0.31283    1.000
    C11      C        0.60170    0.75731    0.53191    1.000
    C12      C        0.21840    0.56718    0.44778    1.000
    C13      C        0.18140    0.16885    0.67085    1.000
    C14      C        0.99270    0.48100    0.78850    1.000
    C15      C        0.29070    0.42622    0.95092    1.000
    C16      C        0.87260    0.05053    0.81283    1.000
    C17      C        0.89830    0.25731    0.03191    1.000
    C18      C        0.28160    0.06718    0.94778    1.000
    C19      C        0.68140    0.33115    0.82915    1.000
    C20      C        0.49270    0.01900    0.71150    1.000
    C21      C        0.79070    0.07378    0.54908    1.000
    C22      C        0.37260    0.44947    0.68717    1.000
    C23      C        0.39830    0.24269    0.46809    1.000
    C24      C        0.78160    0.43282    0.55222    1.000
    O1       O        0.79272    0.80811    0.24728    1.000
    O2       O        0.92548    0.81493    0.36767    1.000
    O3       O        0.99950    0.62737    0.21930    1.000
    O4       O        0.99627    0.46169    0.14175    1.000
    O5       O        0.73732    0.65364    0.10609    1.000
    O6       O        0.78908    0.51969    0.00144    1.000
    O7       O        0.07601    0.85156    0.19747    1.000
    O8       O        0.10724    0.01397    0.12488    1.000
    O9       O        0.02882    0.68646    0.02115    1.000
    O10      O        0.10695    0.84640    0.96261    1.000
    O11      O        0.83768    0.90078    0.05982    1.000
    O12      O        0.62173    0.89258    0.09046    1.000
    O13      O        0.29272    0.69189    0.25272    1.000
    O14      O        0.42548    0.68507    0.13233    1.000
    O15      O        0.49950    0.87263    0.28070    1.000
    O16      O        0.49627    0.03831    0.35825    1.000
    O17      O        0.23732    0.84636    0.39391    1.000
    O18      O        0.28908    0.98031    0.49856    1.000
    O19      O        0.57601    0.64844    0.30253    1.000
    O20      O        0.60724    0.48603    0.37512    1.000
    O21      O        0.52882    0.81354    0.47885    1.000
    O22      O        0.60695    0.65360    0.53739    1.000
    O23      O        0.33768    0.59922    0.44018    1.000
    O24      O        0.12173    0.60742    0.40954    1.000
    O25      O        0.20728    0.19189    0.75272    1.000
    O26      O        0.07452    0.18507    0.63233    1.000
    O27      O        0.00050    0.37263    0.78070    1.000
    O28      O        0.00373    0.53831    0.85825    1.000
    O29      O        0.26268    0.34636    0.89391    1.000
    O30      O        0.21092    0.48031    0.99856    1.000
    O31      O        0.92399    0.14844    0.80253    1.000
    O32      O        0.89276    0.98603    0.87512    1.000
    O33      O        0.97118    0.31354    0.97885    1.000
    O34      O        0.89305    0.15360    0.03739    1.000
    O35      O        0.16232    0.09922    0.94018    1.000
    O36      O        0.37827    0.10742    0.90954    1.000
    O37      O        0.70728    0.30811    0.74728    1.000
    O38      O        0.57452    0.31493    0.86767    1.000
    O39      O        0.50050    0.12737    0.71930    1.000
    O40      O        0.50373    0.96169    0.64175    1.000
    O41      O        0.76268    0.15364    0.60609    1.000
    O42      O        0.71092    0.01969    0.50144    1.000
    O43      O        0.42399    0.35156    0.69747    1.000
    O44      O        0.39276    0.51397    0.62488    1.000
    O45      O        0.47118    0.18646    0.52115    1.000
    O46      O        0.39305    0.34640    0.46261    1.000
    O47      O        0.66232    0.40078    0.55982    1.000
    O48      O        0.87827    0.39258    0.59046    1.000
