data_functionalizedCrystal
_audit_creation_method	'EQeq! by Chris Wilmer'
_symmetry_space_group_name_H-M	'P1'
_symmetry_Int_Tables_number	1
_symmetry_cell_setting	triclinic
loop_
_symmetry_equiv_pos_as_xyz
  x,y,z
_cell_length_a	13.57
_cell_length_b	19.8
_cell_length_c	28.39
_cell_angle_alpha	90
_cell_angle_beta	90
_cell_angle_gamma	90
loop_
_atom_site_label
_atom_site_type_symbol
_atom_site_fract_x
_atom_site_fract_y
_atom_site_fract_z
_atom_site_charge
Mof_Zr	Zr	0.19373	0.12193	0.6266	3.212
Mof_Zr	Zr	0.3039	0.8831	0.6236	3.211
Mof_Zr	Zr	0.1425	0.97739	0.69615	3.195
Mof_Zr	Zr	0.3875	0.03	0.67869	3.19
Mof_Zr	Zr	0.3537	0.0278	0.55588	3.196
Mof_Zr	Zr	0.1093	0.9753	0.57093	3.191
Mof_H 	H 	0.2951	0.3237	0.6898	0.035
Mof_H 	H 	0.3777	0.4135	0.7354	0.018
Mof_H 	H 	0.2776	0.3269	0.5553	0.024
Mof_H 	H 	0.377	0.414	0.5156	0.026
Mof_H 	H 	0.2078	0.6752	0.5617	0.032
Mof_H 	H 	0.096	0.5868	0.5325	0.023
Mof_H 	H 	0.1791	0.6794	0.6719	0.038
Mof_H 	H 	0.0789	0.5916	0.7154	0.014
Mof_H 	H 	0.4582	0.015	0.8334	0.031
Mof_H 	H 	0.4599	0.0346	0.9181	0.037
Mof_C 	C 	0.3384	0.1918	0.6983	0.508
Mof_C 	C 	0.3674	0.2549	0.725	-0.138
Mof_C 	C 	0.341	0.3149	0.7135	0.006
Mof_C 	C 	0.387	0.3676	0.7406	0.007
Mof_C 	C 	0.4481	0.342	0.7752	-0.162
Mof_C 	C 	0.5127	0.382	0.8048	0.52
Mof_C 	C 	0.3166	0.1858	0.5421	0.598
Mof_C 	C 	0.352	0.2536	0.5226	-0.166
Mof_C 	C 	0.327	0.3169	0.5338	0.025
Mof_C 	C 	0.383	0.3679	0.5099	-0.012
Mof_C 	C 	0.445	0.3394	0.4776	-0.138
Mof_C 	C 	0.5121	0.3762	0.4461	0.482
Mof_C 	C 	0.1467	0.8149	0.555	0.573
Mof_C 	C 	0.11	0.7452	0.5345	-0.141
Mof_C 	C 	0.15	0.6826	0.5447	0.003
Mof_C 	C 	0.091	0.6325	0.5253	-0.007
Mof_C 	C 	0.0215	0.6592	0.4937	-0.134
Mof_C 	C 	0.9529	0.6188	0.4615	0.528
Mof_C 	C 	0.1675	0.8155	0.7006	0.494
Mof_C 	C 	0.118	0.7523	0.714	-0.142
Mof_C 	C 	0.135	0.6889	0.6962	-0.006
Mof_C 	C 	0.075	0.6378	0.7209	0.018
Mof_C 	C 	0.016	0.6657	0.7513	-0.156
Mof_C 	C 	0.9518	0.6246	0.7836	0.522
Mof_C 	C 	0.285	0.0055	0.7798	0.532
Mof_C 	C 	0.3095	0.0083	0.8296	-0.144
Mof_C 	C 	0.401	0.015	0.8513	0.021
Mof_C 	C 	0.406	0.021	0.9004	-0.002
Mof_C 	C 	0.312	0.0025	0.918	-0.142
Mof_C 	C 	0.292	0.9994	0.9683	0.515
Mof_S 	S 	0.456	0.2561	0.769	0.085
Mof_S 	S 	0.437	0.2521	0.4769	0.068
Mof_S 	S 	0.0216	0.7446	0.4934	0.075
Mof_S 	S 	0.0286	0.7491	0.7586	0.069
Mof_S 	S 	0.2271	0.9914	0.8754	0.094
Mof_O 	O 	0.3633	0.0979	0.6189	-1.125
Mof_O 	O 	0.217	0.0534	0.5736	-1.55
Mof_O 	O 	0.0783	0.0345	0.6338	-1.132
Mof_O 	O 	0.2356	0.0558	0.678	-1.721
Mof_O 	O 	0.2963	0.9362	0.6936	-1.048
Mof_O 	O 	0.3799	0.9736	0.6203	-1.603
Mof_O 	O 	0.2664	0.9345	0.5557	-1.048
Mof_O 	O 	0.1652	0.9265	0.63	-1.532
Mof_O 	O 	0.2519	0.1924	0.5747	-0.704
Mof_O 	O 	0.3469	0.1357	0.5263	-0.747
Mof_O 	O 	0.5647	0.3439	0.417	-0.648
Mof_O 	O 	0.5167	0.4402	0.4553	-0.716
Mof_O 	O 	0.9112	0.6571	0.8183	-0.652
Mof_O 	O 	0.934	0.5663	0.7719	-0.725
Mof_O 	O 	0.2736	0.1987	0.6713	-0.683
Mof_O 	O 	0.3885	0.1375	0.7114	-0.68
Mof_O 	O 	0.1983	0.9875	0.7673	-0.705
Mof_O 	O 	0.3591	0.0224	0.757	-0.691
Mof_O 	O 	0.3643	0.0165	0.9931	-0.675
Mof_O 	O 	0.2054	0.9813	0.982	-0.653
Mof_O 	O 	0.5104	0.445	0.8007	-0.726
Mof_O 	O 	0.5674	0.3493	0.8347	-0.66
Mof_O 	O 	0.9507	0.5552	0.4715	-0.719
Mof_O 	O 	0.9152	0.6499	0.4295	-0.682
Mof_O 	O 	0.1023	0.865	0.5449	-0.73
Mof_O 	O 	0.2209	0.8091	0.5808	-0.687
Mof_O 	O 	0.1307	0.8691	0.7195	-0.707
Mof_O 	O 	0.2343	0.8073	0.6719	-0.662
Mof_H 	H 	0.69266	0.41537	0.45319	0.159
Mof_H 	H 	0.75674	0.42122	0.2998	0.382
Mof_H 	H 	0.64466	0.61967	0.36411	0.155
Mof_H 	H 	0.93031	0.55828	0.37827	0.182
Mof_Zr	Zr	0.30627	0.87807	0.1266	3.213
Mof_Zr	Zr	0.1961	0.1169	0.1236	3.212
Mof_Zr	Zr	0.3575	0.02261	0.19615	3.196
Mof_Zr	Zr	0.1125	0.97	0.17869	3.191
Mof_Zr	Zr	0.1463	0.9722	0.05588	3.197
Mof_Zr	Zr	0.3907	0.0247	0.07093	3.192
Mof_H 	H 	0.2049	0.6763	0.1898	0.036
Mof_H 	H 	0.1223	0.5865	0.2354	0.019
Mof_H 	H 	0.2224	0.6731	0.0553	0.024
Mof_H 	H 	0.123	0.586	0.0156	0.027
Mof_H 	H 	0.2922	0.3248	0.0617	0.033
Mof_H 	H 	0.404	0.4132	0.0325	0.025
Mof_H 	H 	0.3209	0.3206	0.1719	0.039
Mof_H 	H 	0.4211	0.4084	0.2154	0.015
Mof_H 	H 	0.0418	0.985	0.3334	0.031
Mof_H 	H 	0.0401	0.9654	0.4181	0.037
Mof_C 	C 	0.1616	0.8082	0.1983	0.507
Mof_C 	C 	0.1326	0.7451	0.225	-0.138
Mof_C 	C 	0.159	0.6851	0.2135	0.005
Mof_C 	C 	0.113	0.6324	0.2406	0.008
Mof_C 	C 	0.0519	0.658	0.2752	-0.165
Mof_C 	C 	0.9873	0.618	0.3048	0.522
Mof_C 	C 	0.1834	0.8142	0.0421	0.598
Mof_C 	C 	0.148	0.7464	0.0226	-0.166
Mof_C 	C 	0.173	0.6831	0.0338	0.025
Mof_C 	C 	0.117	0.6321	0.0099	-0.013
Mof_C 	C 	0.055	0.6606	0.9776	-0.138
Mof_C 	C 	0.9879	0.6238	0.9461	0.483
Mof_C 	C 	0.3533	0.1851	0.055	0.573
Mof_C 	C 	0.39	0.2548	0.0345	-0.141
Mof_C 	C 	0.35	0.3174	0.0447	0.003
Mof_C 	C 	0.409	0.3675	0.0253	-0.007
Mof_C 	C 	0.4785	0.3408	0.9937	-0.133
Mof_C 	C 	0.5471	0.3812	0.9615	0.526
Mof_C 	C 	0.3325	0.1845	0.2006	0.494
Mof_C 	C 	0.382	0.2477	0.214	-0.142
Mof_C 	C 	0.365	0.3111	0.1962	-0.006
Mof_C 	C 	0.425	0.3622	0.2209	0.017
Mof_C 	C 	0.484	0.3343	0.2513	-0.154
Mof_C 	C 	0.5482	0.3754	0.2836	0.52
Mof_C 	C 	0.215	0.9945	0.2798	0.532
Mof_C 	C 	0.1905	0.9917	0.3296	-0.144
Mof_C 	C 	0.099	0.985	0.3513	0.021
Mof_C 	C 	0.094	0.979	0.4004	-0.002
Mof_C 	C 	0.188	0.9975	0.418	-0.142
Mof_C 	C 	0.208	0.0006	0.4683	0.516
Mof_S 	S 	0.044	0.7439	0.269	0.083
Mof_S 	S 	0.063	0.7479	0.9769	0.067
Mof_S 	S 	0.4784	0.2554	0.9934	0.076
Mof_S 	S 	0.4714	0.2509	0.2586	0.07
Mof_S 	S 	0.2729	0.0086	0.3754	0.095
Mof_O 	O 	0.1367	0.9021	0.1189	-1.125
Mof_O 	O 	0.283	0.9466	0.0736	-1.55
Mof_O 	O 	0.4217	0.9655	0.1338	-1.132
Mof_O 	O 	0.2644	0.9442	0.178	-1.721
Mof_O 	O 	0.2037	0.0638	0.1936	-1.048
Mof_O 	O 	0.1201	0.0264	0.1203	-1.603
Mof_O 	O 	0.2336	0.0655	0.0557	-1.048
Mof_O 	O 	0.3348	0.0735	0.13	-1.532
Mof_O 	O 	0.2481	0.8076	0.0747	-0.704
Mof_O 	O 	0.1531	0.8643	0.0263	-0.747
Mof_O 	O 	0.9353	0.6561	0.917	-0.648
Mof_O 	O 	0.9833	0.5598	0.9553	-0.716
Mof_O 	O 	0.5888	0.3429	0.3183	-0.652
Mof_O 	O 	0.566	0.4337	0.2719	-0.725
Mof_O 	O 	0.2264	0.8013	0.1713	-0.683
Mof_O 	O 	0.1115	0.8625	0.2114	-0.681
Mof_O 	O 	0.3017	0.0125	0.2673	-0.705
Mof_O 	O 	0.1409	0.9776	0.257	-0.691
Mof_O 	O 	0.1357	0.9835	0.4931	-0.675
Mof_O 	O 	0.2946	0.0187	0.482	-0.653
Mof_O 	O 	0.9896	0.555	0.3007	-0.727
Mof_O 	O 	0.9326	0.6507	0.3347	-0.66
Mof_O 	O 	0.5493	0.4448	0.9715	-0.719
Mof_O 	O 	0.5848	0.3501	0.9295	-0.683
Mof_O 	O 	0.3977	0.135	0.0449	-0.73
Mof_O 	O 	0.2791	0.1909	0.0808	-0.686
Mof_O 	O 	0.3693	0.1309	0.2195	-0.707
Mof_O 	O 	0.2657	0.1927	0.1719	-0.662
Mof_H 	H 	0.80734	0.58463	0.95319	0.159
Mof_H 	H 	0.74326	0.57878	0.7998	0.382
Mof_H 	H 	0.85534	0.38033	0.86411	0.155
Mof_H 	H 	0.56969	0.44172	0.87827	0.182
Mof_Zr	Zr	0.80627	0.62193	0.8734	3.213
Mof_Zr	Zr	0.6961	0.3831	0.8764	3.212
Mof_Zr	Zr	0.8575	0.47739	0.80385	3.196
Mof_Zr	Zr	0.6125	0.53	0.82131	3.191
Mof_Zr	Zr	0.6463	0.5278	0.94412	3.197
Mof_Zr	Zr	0.8907	0.4753	0.92907	3.192
Mof_H 	H 	0.7049	0.8237	0.8102	0.036
Mof_H 	H 	0.6223	0.9135	0.7646	0.021
Mof_H 	H 	0.7224	0.8269	0.9447	0.025
Mof_H 	H 	0.623	0.914	0.9844	0.029
Mof_H 	H 	0.7922	0.1752	0.9383	0.032
Mof_H 	H 	0.904	0.0868	0.9675	0.023
Mof_H 	H 	0.8209	0.1794	0.8281	0.039
Mof_H 	H 	0.9211	0.0916	0.7846	0.012
Mof_H 	H 	0.5418	0.515	0.6666	0.031
Mof_H 	H 	0.5401	0.5346	0.5819	0.037
Mof_C 	C 	0.6616	0.6918	0.8017	0.508
Mof_C 	C 	0.6326	0.7549	0.775	-0.138
Mof_C 	C 	0.659	0.8149	0.7865	0.007
Mof_C 	C 	0.613	0.8676	0.7594	0.007
Mof_C 	C 	0.5519	0.842	0.7248	-0.162
Mof_C 	C 	0.4873	0.882	0.6952	0.519
Mof_C 	C 	0.6834	0.6858	0.9579	0.599
Mof_C 	C 	0.648	0.7536	0.9774	-0.167
Mof_C 	C 	0.673	0.8169	0.9662	0.026
Mof_C 	C 	0.617	0.8679	0.9901	-0.014
Mof_C 	C 	0.555	0.8394	0.0224	-0.136
Mof_C 	C 	0.4879	0.8762	0.0539	0.481
Mof_C 	C 	0.8533	0.3149	0.945	0.574
Mof_C 	C 	0.89	0.2452	0.9655	-0.143
Mof_C 	C 	0.85	0.1826	0.9553	0.003
Mof_C 	C 	0.909	0.1325	0.9747	-0.009
Mof_C 	C 	0.9785	0.1592	0.0063	-0.135
Mof_C 	C 	0.0471	0.1188	0.0385	0.529
Mof_C 	C 	0.8325	0.3155	0.7994	0.493
Mof_C 	C 	0.882	0.2523	0.786	-0.142
Mof_C 	C 	0.865	0.1889	0.8038	-0.008
Mof_C 	C 	0.925	0.1378	0.7791	0.02
Mof_C 	C 	0.984	0.1657	0.7487	-0.161
Mof_C 	C 	0.0482	0.1246	0.7164	0.525
Mof_C 	C 	0.715	0.5055	0.7202	0.53
Mof_C 	C 	0.6905	0.5083	0.6704	-0.144
Mof_C 	C 	0.599	0.515	0.6487	0.021
Mof_C 	C 	0.594	0.521	0.5996	-0.002
Mof_C 	C 	0.688	0.5025	0.582	-0.141
Mof_C 	C 	0.708	0.4994	0.5317	0.512
Mof_S 	S 	0.544	0.7561	0.731	0.085
Mof_S 	S 	0.563	0.7521	0.0231	0.069
Mof_S 	S 	0.9784	0.2446	0.0066	0.076
Mof_S 	S 	0.9714	0.2491	0.7414	0.069
Mof_S 	S 	0.7729	0.4914	0.6246	0.093
Mof_O 	O 	0.6367	0.5979	0.8811	-1.125
Mof_O 	O 	0.783	0.5534	0.9264	-1.551
Mof_O 	O 	0.9217	0.5345	0.8662	-1.134
Mof_O 	O 	0.7644	0.5558	0.822	-1.721
Mof_O 	O 	0.7037	0.4362	0.8064	-1.049
Mof_O 	O 	0.6201	0.4736	0.8797	-1.604
Mof_O 	O 	0.7336	0.4345	0.9443	-1.049
Mof_O 	O 	0.8348	0.4265	0.87	-1.532
Mof_O 	O 	0.7481	0.6924	0.9253	-0.704
Mof_O 	O 	0.6531	0.6357	0.9737	-0.747
Mof_O 	O 	0.4353	0.8439	0.083	-0.648
Mof_O 	O 	0.4833	0.9402	0.0447	-0.714
Mof_O 	O 	0.0888	0.1571	0.6817	-0.652
Mof_O 	O 	0.066	0.0663	0.7281	-0.724
Mof_O 	O 	0.7264	0.6987	0.8287	-0.683
Mof_O 	O 	0.6115	0.6375	0.7886	-0.68
Mof_O 	O 	0.8017	0.4875	0.7327	-0.705
Mof_O 	O 	0.6409	0.5224	0.743	-0.691
Mof_O 	O 	0.6357	0.5165	0.5069	-0.674
Mof_O 	O 	0.7946	0.4813	0.518	-0.653
Mof_O 	O 	0.4896	0.945	0.6993	-0.724
Mof_O 	O 	0.4326	0.8493	0.6653	-0.66
Mof_O 	O 	0.0493	0.0552	0.0285	-0.718
Mof_O 	O 	0.0848	0.1499	0.0705	-0.683
Mof_O 	O 	0.8977	0.365	0.9551	-0.731
Mof_O 	O 	0.7791	0.3091	0.9192	-0.687
Mof_O 	O 	0.8693	0.3691	0.7805	-0.707
Mof_O 	O 	0.7657	0.3073	0.8281	-0.662
Mof_H 	H 	0.30734	0.91537	0.04681	0.159
Mof_H 	H 	0.24326	0.92122	0.2002	0.381
Mof_H 	H 	0.35534	0.11967	0.13589	0.155
Mof_H 	H 	0.06969	0.05828	0.12173	0.183
Mof_Zr	Zr	0.69373	0.37807	0.3734	3.213
Mof_Zr	Zr	0.8039	0.6169	0.3764	3.212
Mof_Zr	Zr	0.6425	0.52261	0.30385	3.196
Mof_Zr	Zr	0.8875	0.47	0.32131	3.191
Mof_Zr	Zr	0.8537	0.4722	0.44412	3.197
Mof_Zr	Zr	0.6093	0.5247	0.42907	3.192
Mof_H 	H 	0.7951	0.1763	0.3102	0.036
Mof_H 	H 	0.8777	0.0865	0.2646	0.017
Mof_H 	H 	0.7776	0.1731	0.4447	0.025
Mof_H 	H 	0.877	0.086	0.4844	0.025
Mof_H 	H 	0.7078	0.8248	0.4383	0.034
Mof_H 	H 	0.596	0.9132	0.4675	0.026
Mof_H 	H 	0.6791	0.8206	0.3281	0.04
Mof_H 	H 	0.5789	0.9084	0.2846	0.017
Mof_H 	H 	0.9582	0.485	0.1666	0.031
Mof_H 	H 	0.9599	0.4654	0.0819	0.037
Mof_C 	C 	0.8384	0.3082	0.3017	0.507
Mof_C 	C 	0.8674	0.2451	0.275	-0.138
Mof_C 	C 	0.841	0.1851	0.2865	0.004
Mof_C 	C 	0.887	0.1324	0.2594	0.009
Mof_C 	C 	0.9481	0.158	0.2248	-0.168
Mof_C 	C 	0.0127	0.118	0.1952	0.524
Mof_C 	C 	0.8166	0.3142	0.4579	0.598
Mof_C 	C 	0.852	0.2464	0.4774	-0.165
Mof_C 	C 	0.827	0.1831	0.4662	0.023
Mof_C 	C 	0.883	0.1321	0.4901	-0.009
Mof_C 	C 	0.945	0.1606	0.5224	-0.144
Mof_C 	C 	0.0121	0.1238	0.5539	0.486
Mof_C 	C 	0.6467	0.6851	0.445	0.574
Mof_C 	C 	0.61	0.7548	0.4655	-0.141
Mof_C 	C 	0.65	0.8174	0.4553	0.004
Mof_C 	C 	0.591	0.8675	0.4747	-0.008
Mof_C 	C 	0.5215	0.8408	0.5063	-0.132
Mof_C 	C 	0.4529	0.8812	0.5385	0.526
Mof_C 	C 	0.6675	0.6845	0.2994	0.494
Mof_C 	C 	0.618	0.7477	0.286	-0.142
Mof_C 	C 	0.635	0.8111	0.3038	-0.005
Mof_C 	C 	0.575	0.8622	0.2791	0.017
Mof_C 	C 	0.516	0.8343	0.2487	-0.154
Mof_C 	C 	0.4518	0.8754	0.2164	0.52
Mof_C 	C 	0.785	0.4945	0.2202	0.53
Mof_C 	C 	0.8095	0.4917	0.1704	-0.144
Mof_C 	C 	0.901	0.485	0.1487	0.021
Mof_C 	C 	0.906	0.479	0.0996	-0.002
Mof_C 	C 	0.812	0.4975	0.082	-0.141
Mof_C 	C 	0.792	0.5006	0.0317	0.512
Mof_S 	S 	0.956	0.2439	0.231	0.084
Mof_S 	S 	0.937	0.2479	0.5231	0.067
Mof_S 	S 	0.5216	0.7554	0.5066	0.077
Mof_S 	S 	0.5286	0.7509	0.2414	0.07
Mof_S 	S 	0.7271	0.5086	0.1246	0.093
Mof_O 	O 	0.8633	0.4021	0.3811	-1.125
Mof_O 	O 	0.717	0.4466	0.4264	-1.55
Mof_O 	O 	0.5783	0.4655	0.3662	-1.134
Mof_O 	O 	0.7356	0.4442	0.322	-1.721
Mof_O 	O 	0.7963	0.5638	0.3064	-1.049
Mof_O 	O 	0.8799	0.5264	0.3797	-1.604
Mof_O 	O 	0.7664	0.5655	0.4443	-1.048
Mof_O 	O 	0.6652	0.5735	0.37	-1.531
Mof_O 	O 	0.7519	0.3076	0.4253	-0.704
Mof_O 	O 	0.8469	0.3643	0.4737	-0.747
Mof_O 	O 	0.0647	0.1561	0.583	-0.649
Mof_O 	O 	0.0167	0.0598	0.5447	-0.714
Mof_O 	O 	0.4112	0.8429	0.1817	-0.652
Mof_O 	O 	0.434	0.9337	0.2281	-0.724
Mof_O 	O 	0.7736	0.3013	0.3287	-0.683
Mof_O 	O 	0.8885	0.3625	0.2886	-0.68
Mof_O 	O 	0.6983	0.5125	0.2327	-0.705
Mof_O 	O 	0.8591	0.4776	0.243	-0.691
Mof_O 	O 	0.8643	0.4835	0.0069	-0.673
Mof_O 	O 	0.7054	0.5187	0.018	-0.652
Mof_O 	O 	0.0104	0.055	0.1993	-0.725
Mof_O 	O 	0.0674	0.1507	0.1653	-0.661
Mof_O 	O 	0.4507	0.9448	0.5285	-0.717
Mof_O 	O 	0.4152	0.8501	0.5705	-0.682
Mof_O 	O 	0.6023	0.635	0.4551	-0.73
Mof_O 	O 	0.7209	0.6909	0.4192	-0.686
Mof_O 	O 	0.6307	0.6309	0.2805	-0.707
Mof_O 	O 	0.7343	0.6927	0.3281	-0.662
Mof_H 	H 	0.19266	0.08463	0.54681	0.159
Mof_H 	H 	0.25674	0.07878	0.7002	0.382
Mof_H 	H 	0.14466	0.88033	0.63589	0.155
Mof_H 	H 	0.43031	0.94172	0.62173	0.183
_end
