# CIF file generated by openbabel 3.1.0, see https://openbabel.org
data_I
_chemical_name_common 'image0'
_cell_length_a 20.5158
_cell_length_b 10.0012
_cell_length_c 21.5145
_cell_angle_alpha 90
_cell_angle_beta 99.156
_cell_angle_gamma 90
_space_group_name_H-M_alt 'P 1'
_space_group_name_Hall 'P 1'
loop_
    _symmetry_equiv_pos_as_xyz
    x,y,z
loop_
    _atom_site_label
    _atom_site_type_symbol
    _atom_site_fract_x
    _atom_site_fract_y
    _atom_site_fract_z
    _atom_site_occupancy
    Th1      Th       0.14813    0.69528    0.41576    1.000
    Th2      Th       0.35952    0.70347    0.60121    1.000
    O1       O        0.26440    0.78900    0.92170    1.000
    O2       O        0.16520    0.61720    0.52150    1.000
    O3       O        0.10950    0.61530    0.84070    1.000
    O4       O        0.24660    0.64120    0.60150    1.000
    O5       O        0.94680    0.38400    0.66550    1.000
    O6       O        0.35380    0.47270    0.60100    1.000
    C1       C        0.22050    0.14870    0.45530    1.000
    H1       H        0.19650    0.10310    0.42150    1.000
    O7       O        0.17260    0.76500    0.80720    1.000
    C2       C        0.28580    0.14640    0.55870    1.000
    H2       H        0.30530    0.09920    0.59410    1.000
    O8       O        0.18900    0.88380    0.47860    1.000
    O9       O        0.28550    0.86570    0.54360    1.000
    O10      O        0.34800    0.85290    0.99210    1.000
    C3       C        0.14040    0.60480    0.62420    1.000
    O11      O        0.18790    0.48440    0.39670    1.000
    O12      O        0.36400    0.88940    0.67140    1.000
    C4       C        0.22740    0.28700    0.45270    1.000
    C5       C        0.31880    0.84570    0.93700    1.000
    C6       C        0.24940    0.07900    0.50850    1.000
    O13      O        0.53330    0.11000    0.92740    1.000
    O14      O        0.94410    0.46940    0.57110    1.000
    O15      O        0.53330    0.15520    0.82790    1.000
    C7       C        0.18720    0.62370    0.57930    1.000
    C8       C        0.07820    0.54680    0.60390    1.000
    H3       H        0.06430    0.52810    0.56150    1.000
    O16      O        0.34740    0.29410    0.66100    1.000
    C9       C        0.41190    0.97370    0.90250    1.000
    H4       H        0.43130    0.98220    0.94440    1.000
    O17      O        0.17780    0.29480    0.34640    1.000
    C10      C        0.29310    0.28430    0.55640    1.000
    C11      C        0.15830    0.64350    0.68670    1.000
    H5       H        0.19830    0.68660    0.69960    1.000
    O18      O        0.26000    0.92440    0.69490    1.000
    C12      C        0.44270    0.02770    0.85490    1.000
    C13      C        0.03770    0.51790    0.64840    1.000
    C14      C        0.41580    0.00480    0.79200    1.000
    H6       H        0.43840    0.03300    0.76020    1.000
    C15      C        0.13360    0.66530    0.79690    1.000
    C16      C        0.24180    0.93230    0.51080    1.000
    C17      C        0.11590    0.61740    0.73010    1.000
    C18      C        0.32300    0.89080    0.82460    1.000
    H7       H        0.28260    0.84750    0.81480    1.000
    C19      C        0.35220    0.90730    0.88700    1.000
    C20      C        0.26400    0.35460    0.50380    1.000
    H8       H        0.26870    0.44690    0.50240    1.000
    C21      C        0.35540    0.94020    0.77660    1.000
    C22      C        0.05660    0.54940    0.71100    1.000
    H9       H        0.03000    0.52560    0.74040    1.000
    C23      C        0.19500    0.35850    0.39410    1.000
    C24      C        0.97300    0.45300    0.62710    1.000
    C25      C        0.32360    0.91490    0.70950    1.000
    C26      C        0.33360    0.35480    0.61150    1.000
    C27      C        0.50600    0.10100    0.87080    1.000
    Th3      Th       0.85187    0.19528    0.08424    1.000
    Th4      Th       0.64048    0.20347    0.89879    1.000
    O19      O        0.73560    0.28900    0.57830    1.000
    O20      O        0.83480    0.11720    0.97850    1.000
    O21      O        0.89050    0.11530    0.65930    1.000
    O22      O        0.75340    0.14120    0.89850    1.000
    O23      O        0.05320    0.88400    0.83450    1.000
    O24      O        0.64620    0.97270    0.89900    1.000
    C28      C        0.77950    0.64870    0.04470    1.000
    H10      H        0.80350    0.60310    0.07850    1.000
    O25      O        0.82740    0.26500    0.69280    1.000
    C29      C        0.71420    0.64640    0.94130    1.000
    H11      H        0.69470    0.59920    0.90590    1.000
    O26      O        0.81100    0.38380    0.02140    1.000
    O27      O        0.71450    0.36570    0.95640    1.000
    O28      O        0.65200    0.35290    0.50790    1.000
    C30      C        0.85960    0.10480    0.87580    1.000
    O29      O        0.81210    0.98440    0.10330    1.000
    O30      O        0.63600    0.38940    0.82860    1.000
    C31      C        0.77260    0.78700    0.04730    1.000
    C32      C        0.68120    0.34570    0.56300    1.000
    C33      C        0.75060    0.57900    0.99150    1.000
    O31      O        0.46670    0.61000    0.57260    1.000
    O32      O        0.05590    0.96940    0.92890    1.000
    O33      O        0.46670    0.65520    0.67210    1.000
    C34      C        0.81280    0.12370    0.92070    1.000
    C35      C        0.92180    0.04680    0.89610    1.000
    H12      H        0.93570    0.02810    0.93850    1.000
    O34      O        0.65260    0.79410    0.83900    1.000
    C36      C        0.58810    0.47370    0.59750    1.000
    H13      H        0.56870    0.48220    0.55560    1.000
    O35      O        0.82220    0.79480    0.15360    1.000
    C37      C        0.70690    0.78430    0.94360    1.000
    C38      C        0.84170    0.14350    0.81330    1.000
    H14      H        0.80170    0.18660    0.80040    1.000
    O36      O        0.74000    0.42440    0.80510    1.000
    C39      C        0.55730    0.52770    0.64510    1.000
    C40      C        0.96230    0.01790    0.85160    1.000
    C41      C        0.58420    0.50480    0.70800    1.000
    H15      H        0.56160    0.53300    0.73980    1.000
    C42      C        0.86640    0.16530    0.70310    1.000
    C43      C        0.75820    0.43230    0.98920    1.000
    C44      C        0.88410    0.11740    0.76990    1.000
    C45      C        0.67700    0.39080    0.67540    1.000
    H16      H        0.71740    0.34750    0.68520    1.000
    C46      C        0.64780    0.40730    0.61300    1.000
    C47      C        0.73600    0.85460    0.99620    1.000
    H17      H        0.73130    0.94690    0.99760    1.000
    C48      C        0.64460    0.44020    0.72340    1.000
    C49      C        0.94340    0.04940    0.78900    1.000
    H18      H        0.97000    0.02560    0.75960    1.000
    C50      C        0.80500    0.85850    0.10590    1.000
    C51      C        0.02700    0.95300    0.87290    1.000
    C52      C        0.67640    0.41490    0.79050    1.000
    C53      C        0.66640    0.85480    0.88850    1.000
    C54      C        0.49400    0.60100    0.62920    1.000
    Th5      Th       0.85187    0.30472    0.58424    1.000
    Th6      Th       0.64048    0.29653    0.39879    1.000
    O37      O        0.73560    0.21100    0.07830    1.000
    O38      O        0.83480    0.38280    0.47850    1.000
    O39      O        0.89050    0.38470    0.15930    1.000
    O40      O        0.75340    0.35880    0.39850    1.000
    O41      O        0.05320    0.61600    0.33450    1.000
    O42      O        0.64620    0.52730    0.39900    1.000
    C55      C        0.77950    0.85130    0.54470    1.000
    H19      H        0.80350    0.89690    0.57850    1.000
    O43      O        0.82740    0.23500    0.19280    1.000
    C56      C        0.71420    0.85360    0.44130    1.000
    H20      H        0.69470    0.90080    0.40590    1.000
    O44      O        0.81100    0.11620    0.52140    1.000
    O45      O        0.71450    0.13430    0.45640    1.000
    O46      O        0.65200    0.14710    0.00790    1.000
    C57      C        0.85960    0.39520    0.37580    1.000
    O47      O        0.81210    0.51560    0.60330    1.000
    O48      O        0.63600    0.11060    0.32860    1.000
    C58      C        0.77260    0.71300    0.54730    1.000
    C59      C        0.68120    0.15430    0.06300    1.000
    C60      C        0.75060    0.92100    0.49150    1.000
    O49      O        0.46670    0.89000    0.07260    1.000
    O50      O        0.05590    0.53060    0.42890    1.000
    O51      O        0.46670    0.84480    0.17210    1.000
    C61      C        0.81280    0.37630    0.42070    1.000
    C62      C        0.92180    0.45320    0.39610    1.000
    H21      H        0.93570    0.47190    0.43850    1.000
    O52      O        0.65260    0.70590    0.33900    1.000
    C63      C        0.58810    0.02630    0.09750    1.000
    H22      H        0.56870    0.01780    0.05560    1.000
    O53      O        0.82220    0.70520    0.65360    1.000
    C64      C        0.70690    0.71570    0.44360    1.000
    C65      C        0.84170    0.35650    0.31330    1.000
    H23      H        0.80170    0.31340    0.30040    1.000
    O54      O        0.74000    0.07560    0.30510    1.000
    C66      C        0.55730    0.97230    0.14510    1.000
    C67      C        0.96230    0.48210    0.35160    1.000
    C68      C        0.58420    0.99520    0.20800    1.000
    H24      H        0.56160    0.96700    0.23980    1.000
    C69      C        0.86640    0.33470    0.20310    1.000
    C70      C        0.75820    0.06770    0.48920    1.000
    C71      C        0.88410    0.38260    0.26990    1.000
    C72      C        0.67700    0.10920    0.17540    1.000
    H25      H        0.71740    0.15250    0.18520    1.000
    C73      C        0.64780    0.09270    0.11300    1.000
    C74      C        0.73600    0.64540    0.49620    1.000
    H26      H        0.73130    0.55310    0.49760    1.000
    C75      C        0.64460    0.05980    0.22340    1.000
    C76      C        0.94340    0.45060    0.28900    1.000
    H27      H        0.97000    0.47440    0.25960    1.000
    C77      C        0.80500    0.64150    0.60590    1.000
    C78      C        0.02700    0.54700    0.37290    1.000
    C79      C        0.67640    0.08510    0.29050    1.000
    C80      C        0.66640    0.64520    0.38850    1.000
    C81      C        0.49400    0.89900    0.12920    1.000
    Th7      Th       0.14813    0.80472    0.91576    1.000
    Th8      Th       0.35952    0.79653    0.10121    1.000
    O55      O        0.26440    0.71100    0.42170    1.000
    O56      O        0.16520    0.88280    0.02150    1.000
    O57      O        0.10950    0.88470    0.34070    1.000
    O58      O        0.24660    0.85880    0.10150    1.000
    O59      O        0.94680    0.11600    0.16550    1.000
    O60      O        0.35380    0.02730    0.10100    1.000
    C82      C        0.22050    0.35130    0.95530    1.000
    H28      H        0.19650    0.39690    0.92150    1.000
    O61      O        0.17260    0.73500    0.30720    1.000
    C83      C        0.28580    0.35360    0.05870    1.000
    H29      H        0.30530    0.40080    0.09410    1.000
    O62      O        0.18900    0.61620    0.97860    1.000
    O63      O        0.28550    0.63430    0.04360    1.000
    O64      O        0.34800    0.64710    0.49210    1.000
    C84      C        0.14040    0.89520    0.12420    1.000
    O65      O        0.18790    0.01560    0.89670    1.000
    O66      O        0.36400    0.61060    0.17140    1.000
    C85      C        0.22740    0.21300    0.95270    1.000
    C86      C        0.31880    0.65430    0.43700    1.000
    C87      C        0.24940    0.42100    0.00850    1.000
    O67      O        0.53330    0.39000    0.42740    1.000
    O68      O        0.94410    0.03060    0.07110    1.000
    O69      O        0.53330    0.34480    0.32790    1.000
    C88      C        0.18720    0.87630    0.07930    1.000
    C89      C        0.07820    0.95320    0.10390    1.000
    H30      H        0.06430    0.97190    0.06150    1.000
    O70      O        0.34740    0.20590    0.16100    1.000
    C90      C        0.41190    0.52630    0.40250    1.000
    H31      H        0.43130    0.51780    0.44440    1.000
    O71      O        0.17780    0.20520    0.84640    1.000
    C91      C        0.29310    0.21570    0.05640    1.000
    C92      C        0.15830    0.85650    0.18670    1.000
    H32      H        0.19830    0.81340    0.19960    1.000
    O72      O        0.26000    0.57560    0.19490    1.000
    C93      C        0.44270    0.47230    0.35490    1.000
    C94      C        0.03770    0.98210    0.14840    1.000
    C95      C        0.41580    0.49520    0.29200    1.000
    H33      H        0.43840    0.46700    0.26020    1.000
    C96      C        0.13360    0.83470    0.29690    1.000
    C97      C        0.24180    0.56770    0.01080    1.000
    C98      C        0.11590    0.88260    0.23010    1.000
    C99      C        0.32300    0.60920    0.32460    1.000
    H34      H        0.28260    0.65250    0.31480    1.000
    C100     C        0.35220    0.59270    0.38700    1.000
    C101     C        0.26400    0.14540    0.00380    1.000
    H35      H        0.26870    0.05310    0.00240    1.000
    C102     C        0.35540    0.55980    0.27660    1.000
    C103     C        0.05660    0.95060    0.21100    1.000
    H36      H        0.03000    0.97440    0.24040    1.000
    C104     C        0.19500    0.14150    0.89410    1.000
    C105     C        0.97300    0.04700    0.12710    1.000
    C106     C        0.32360    0.58510    0.20950    1.000
    C107     C        0.33360    0.14520    0.11150    1.000
    C108     C        0.50600    0.39900    0.37080    1.000
