data_functionalizedCrystal
_audit_creation_method	'EQeq! by Chris Wilmer'
_symmetry_space_group_name_H-M	'P1'
_symmetry_Int_Tables_number	1
_symmetry_cell_setting	triclinic
loop_
_symmetry_equiv_pos_as_xyz
  x,y,z
_cell_length_a	20.2202
_cell_length_b	20.2202
_cell_length_c	20.2202
_cell_angle_alpha	109.471
_cell_angle_beta	109.471
_cell_angle_gamma	109.471
loop_
_atom_site_label
_atom_site_type_symbol
_atom_site_fract_x
_atom_site_fract_y
_atom_site_fract_z
_atom_site_charge
Mof_Zn	Zn	0.05728	0.53365	0.11155	1.235
Mof_Zn	Zn	0.4221	0.94573	0.88845	1.216
Mof_Zn	Zn	0.5779	0.46635	0.52363	1.229
Mof_Zn	Zn	0.94272	0.05427	0.47637	1.225
Mof_Zn	Zn	0.52363	0.5779	0.46635	1.228
Mof_Zn	Zn	0.47637	0.94272	0.05427	1.224
Mof_Zn	Zn	0.11155	0.05728	0.53365	1.234
Mof_Zn	Zn	0.88845	0.4221	0.94573	1.215
Mof_Zn	Zn	0.94573	0.88845	0.4221	1.215
Mof_Zn	Zn	0.53365	0.11155	0.05728	1.234
Mof_Zn	Zn	0.05427	0.47637	0.94272	1.224
Mof_Zn	Zn	0.46635	0.52363	0.5779	1.228
Mof_Cu	Cu	0.06157	0.56157	0.5	0.919
Mof_Cu	Cu	0.93843	0.43843	0.5	0.895
Mof_Cu	Cu	0.5	0.93843	0.43843	0.895
Mof_Cu	Cu	0.5	0.06157	0.56157	0.919
Mof_Cu	Cu	0.56157	0.5	0.06157	0.919
Mof_Cu	Cu	0.43843	0.5	0.93843	0.895
Mof_H 	H 	0.9699	0.4551	0.2456	0.03
Mof_H 	H 	0.7734	0.2827	0.0327	0.042
Mof_H 	H 	0.776	0.3021	0.2363	0.039
Mof_H 	H 	0.2095	0.7243	0.7544	0.034
Mof_H 	H 	0.25	0.7407	0.9673	0.026
Mof_H 	H 	0.0658	0.5397	0.7637	0.042
Mof_H 	H 	0.7905	0.5449	0.5148	0.032
Mof_H 	H 	0.75	0.7173	0.4907	0.03
Mof_H 	H 	0.9342	0.6979	0.4739	0.03
Mof_H 	H 	0.0301	0.2757	0.4852	0.045
Mof_H 	H 	0.2266	0.2593	0.5093	0.041
Mof_H 	H 	0.224	0.4603	0.5261	0.041
Mof_H 	H 	0.5148	0.7905	0.5449	0.032
Mof_H 	H 	0.4907	0.75	0.7173	0.03
Mof_H 	H 	0.4739	0.9342	0.6979	0.03
Mof_H 	H 	0.4852	0.0301	0.2757	0.045
Mof_H 	H 	0.5093	0.2266	0.2593	0.041
Mof_H 	H 	0.5261	0.224	0.4603	0.041
Mof_H 	H 	0.2456	0.9699	0.4551	0.03
Mof_H 	H 	0.0327	0.7734	0.2827	0.042
Mof_H 	H 	0.2363	0.776	0.3021	0.039
Mof_H 	H 	0.7544	0.2095	0.7243	0.034
Mof_H 	H 	0.9673	0.25	0.7407	0.026
Mof_H 	H 	0.7637	0.0658	0.5397	0.042
Mof_H 	H 	0.7243	0.7544	0.2095	0.034
Mof_H 	H 	0.7407	0.9673	0.25	0.026
Mof_H 	H 	0.5397	0.7637	0.0658	0.042
Mof_H 	H 	0.4551	0.2456	0.9699	0.03
Mof_H 	H 	0.2827	0.0327	0.7734	0.042
Mof_H 	H 	0.3021	0.2363	0.776	0.039
Mof_H 	H 	0.2757	0.4852	0.0301	0.045
Mof_H 	H 	0.2593	0.5093	0.2266	0.041
Mof_H 	H 	0.4603	0.5261	0.224	0.041
Mof_H 	H 	0.5449	0.5148	0.7905	0.032
Mof_H 	H 	0.7173	0.4907	0.75	0.03
Mof_H 	H 	0.6979	0.4739	0.9342	0.03
Mof_C 	C 	0.8806	0.3835	0.2559	-0.142
Mof_C 	C 	0.9176	0.4109	0.2157	0.089
Mof_C 	C 	0.8775	0.3733	0.1322	-0.152
Mof_C 	C 	0.8004	0.3087	0.0889	0.088
Mof_C 	C 	0.7613	0.2809	0.1274	-0.135
Mof_C 	C 	0.8019	0.3194	0.2101	0.086
Mof_C 	C 	0.9248	0.4249	0.3465	0.397
Mof_C 	C 	0.9176	0.4091	0.0923	0.436
Mof_C 	C 	0.6775	0.2109	0.0782	0.374
Mof_C 	C 	0.1276	0.6247	0.7441	-0.14
Mof_C 	C 	0.1952	0.7019	0.7843	0.091
Mof_C 	C 	0.2411	0.7453	0.8678	-0.161
Mof_C 	C 	0.2198	0.7115	0.9111	0.093
Mof_C 	C 	0.1535	0.6339	0.8726	-0.146
Mof_C 	C 	0.1093	0.5918	0.7899	0.088
Mof_C 	C 	0.0784	0.5783	0.6535	0.395
Mof_C 	C 	0.3168	0.8253	0.9077	0.44
Mof_C 	C 	0.1327	0.5993	0.9218	0.378
Mof_C 	C 	0.8724	0.6165	0.4971	-0.15
Mof_C 	C 	0.8048	0.5891	0.5067	0.093
Mof_C 	C 	0.7589	0.6267	0.5042	-0.161
Mof_C 	C 	0.7802	0.6913	0.4917	0.094
Mof_C 	C 	0.8465	0.7191	0.4804	-0.152
Mof_C 	C 	0.8907	0.6806	0.4825	0.093
Mof_C 	C 	0.9216	0.5751	0.4999	0.398
Mof_C 	C 	0.6832	0.5909	0.5085	0.438
Mof_C 	C 	0.8673	0.7891	0.4666	0.379
Mof_C 	C 	0.1194	0.3753	0.5029	-0.131
Mof_C 	C 	0.0824	0.2981	0.4933	0.083
Mof_C 	C 	0.1225	0.2547	0.4958	-0.141
Mof_C 	C 	0.1996	0.2885	0.5083	0.084
Mof_C 	C 	0.2387	0.3661	0.5196	-0.134
Mof_C 	C 	0.1981	0.4082	0.5175	0.082
Mof_C 	C 	0.0752	0.4217	0.5001	0.393
Mof_C 	C 	0.0824	0.1747	0.4915	0.432
Mof_C 	C 	0.3225	0.4007	0.5334	0.375
Mof_C 	C 	0.4971	0.8724	0.6165	-0.15
Mof_C 	C 	0.5067	0.8048	0.5891	0.093
Mof_C 	C 	0.5042	0.7589	0.6267	-0.161
Mof_C 	C 	0.4917	0.7802	0.6913	0.094
Mof_C 	C 	0.4804	0.8465	0.7191	-0.152
Mof_C 	C 	0.4825	0.8907	0.6806	0.093
Mof_C 	C 	0.4999	0.9216	0.5751	0.398
Mof_C 	C 	0.5085	0.6832	0.5909	0.438
Mof_C 	C 	0.4666	0.8673	0.7891	0.379
Mof_C 	C 	0.5029	0.1194	0.3753	-0.131
Mof_C 	C 	0.4933	0.0824	0.2981	0.083
Mof_C 	C 	0.4958	0.1225	0.2547	-0.141
Mof_C 	C 	0.5083	0.1996	0.2885	0.084
Mof_C 	C 	0.5196	0.2387	0.3661	-0.134
Mof_C 	C 	0.5175	0.1981	0.4082	0.082
Mof_C 	C 	0.5001	0.0752	0.4217	0.393
Mof_C 	C 	0.4915	0.0824	0.1747	0.432
Mof_C 	C 	0.5334	0.3225	0.4007	0.375
Mof_C 	C 	0.2559	0.8806	0.3835	-0.142
Mof_C 	C 	0.2157	0.9176	0.4109	0.089
Mof_C 	C 	0.1322	0.8775	0.3733	-0.152
Mof_C 	C 	0.0889	0.8004	0.3087	0.088
Mof_C 	C 	0.1274	0.7613	0.2809	-0.135
Mof_C 	C 	0.2101	0.8019	0.3194	0.086
Mof_C 	C 	0.3465	0.9248	0.4249	0.397
Mof_C 	C 	0.0923	0.9176	0.4091	0.436
Mof_C 	C 	0.0782	0.6775	0.2109	0.374
Mof_C 	C 	0.7441	0.1276	0.6247	-0.14
Mof_C 	C 	0.7843	0.1952	0.7019	0.091
Mof_C 	C 	0.8678	0.2411	0.7453	-0.161
Mof_C 	C 	0.9111	0.2198	0.7115	0.093
Mof_C 	C 	0.8726	0.1535	0.6339	-0.146
Mof_C 	C 	0.7899	0.1093	0.5918	0.088
Mof_C 	C 	0.6535	0.0784	0.5783	0.395
Mof_C 	C 	0.9077	0.3168	0.8253	0.44
Mof_C 	C 	0.9218	0.1327	0.5993	0.378
Mof_C 	C 	0.6247	0.7441	0.1276	-0.14
Mof_C 	C 	0.7019	0.7843	0.1952	0.091
Mof_C 	C 	0.7453	0.8678	0.2411	-0.161
Mof_C 	C 	0.7115	0.9111	0.2198	0.093
Mof_C 	C 	0.6339	0.8726	0.1535	-0.146
Mof_C 	C 	0.5918	0.7899	0.1093	0.088
Mof_C 	C 	0.5783	0.6535	0.0784	0.395
Mof_C 	C 	0.8253	0.9077	0.3168	0.44
Mof_C 	C 	0.5993	0.9218	0.1327	0.378
Mof_C 	C 	0.3835	0.2559	0.8806	-0.142
Mof_C 	C 	0.4109	0.2157	0.9176	0.089
Mof_C 	C 	0.3733	0.1322	0.8775	-0.152
Mof_C 	C 	0.3087	0.0889	0.8004	0.088
Mof_C 	C 	0.2809	0.1274	0.7613	-0.135
Mof_C 	C 	0.3194	0.2101	0.8019	0.086
Mof_C 	C 	0.4249	0.3465	0.9248	0.397
Mof_C 	C 	0.4091	0.0923	0.9176	0.436
Mof_C 	C 	0.2109	0.0782	0.6775	0.374
Mof_C 	C 	0.3753	0.5029	0.1194	-0.131
Mof_C 	C 	0.2981	0.4933	0.0824	0.083
Mof_C 	C 	0.2547	0.4958	0.1225	-0.141
Mof_C 	C 	0.2885	0.5083	0.1996	0.084
Mof_C 	C 	0.3661	0.5196	0.2387	-0.134
Mof_C 	C 	0.4082	0.5175	0.1981	0.082
Mof_C 	C 	0.4217	0.5001	0.0752	0.393
Mof_C 	C 	0.1747	0.4915	0.0824	0.432
Mof_C 	C 	0.4007	0.5334	0.3225	0.375
Mof_C 	C 	0.6165	0.4971	0.8724	-0.15
Mof_C 	C 	0.5891	0.5067	0.8048	0.093
Mof_C 	C 	0.6267	0.5042	0.7589	-0.161
Mof_C 	C 	0.6913	0.4917	0.7802	0.094
Mof_C 	C 	0.7191	0.4804	0.8465	-0.152
Mof_C 	C 	0.6806	0.4825	0.8907	0.093
Mof_C 	C 	0.5751	0.4999	0.9216	0.398
Mof_C 	C 	0.5909	0.5085	0.6832	0.438
Mof_C 	C 	0.7891	0.4666	0.8673	0.379
Mof_O 	O 	0.99421	0.48535	0.38306	-0.427
Mof_O 	O 	0.88883	0.39774	0.37849	-0.405
Mof_O 	O 	0.98884	0.4626	0.13504	-0.519
Mof_O 	O 	0.87457	0.3787	0.01707	-0.479
Mof_O 	O 	0.6403	0.1772	0.0059	-0.306
Mof_O 	O 	0.6456	0.1937	0.1197	-0.446
Mof_O 	O 	0.10229	0.61115	0.61694	-0.406
Mof_O 	O 	0.01925	0.51034	0.62151	-0.387
Mof_O 	O 	0.32756	0.8538	0.86496	-0.516
Mof_O 	O 	0.36163	0.8575	0.98293	-0.513
Mof_O 	O 	0.1713	0.6344	0.9941	-0.34
Mof_O 	O 	0.074	0.5259	0.8803	-0.451
Mof_O 	O 	0.89771	0.51465	0.50886	-0.42
Mof_O 	O 	0.98075	0.60226	0.49109	-0.415
Mof_O 	O 	0.67244	0.5374	0.52624	-0.508
Mof_O 	O 	0.63837	0.6213	0.49587	-0.492
Mof_O 	O 	0.8287	0.8228	0.4631	-0.336
Mof_O 	O 	0.926	0.8063	0.4519	-0.468
Mof_O 	O 	0.00579	0.38885	0.49114	-0.395
Mof_O 	O 	0.11117	0.48966	0.50891	-0.393
Mof_O 	O 	0.01116	0.1462	0.47376	-0.482
Mof_O 	O 	0.12543	0.1425	0.50413	-0.477
Mof_O 	O 	0.3597	0.3656	0.5369	-0.32
Mof_O 	O 	0.3544	0.4741	0.5481	-0.451
Mof_O 	O 	0.50886	0.89771	0.51465	-0.42
Mof_O 	O 	0.49109	0.98075	0.60226	-0.415
Mof_O 	O 	0.52624	0.67244	0.5374	-0.508
Mof_O 	O 	0.49587	0.63837	0.6213	-0.492
Mof_O 	O 	0.4631	0.8287	0.8228	-0.336
Mof_O 	O 	0.4519	0.926	0.8063	-0.468
Mof_O 	O 	0.49114	0.00579	0.38885	-0.395
Mof_O 	O 	0.50891	0.11117	0.48966	-0.393
Mof_O 	O 	0.47376	0.01116	0.1462	-0.482
Mof_O 	O 	0.50413	0.12543	0.1425	-0.477
Mof_O 	O 	0.5369	0.3597	0.3656	-0.32
Mof_O 	O 	0.5481	0.3544	0.4741	-0.451
Mof_O 	O 	0.38306	0.99421	0.48535	-0.427
Mof_O 	O 	0.37849	0.88883	0.39774	-0.405
Mof_O 	O 	0.13504	0.98884	0.4626	-0.519
Mof_O 	O 	0.01707	0.87457	0.3787	-0.479
Mof_O 	O 	0.0059	0.6403	0.1772	-0.306
Mof_O 	O 	0.1197	0.6456	0.1937	-0.446
Mof_O 	O 	0.61694	0.10229	0.61115	-0.406
Mof_O 	O 	0.62151	0.01925	0.51034	-0.387
Mof_O 	O 	0.86496	0.32756	0.8538	-0.516
Mof_O 	O 	0.98293	0.36163	0.8575	-0.513
Mof_O 	O 	0.9941	0.1713	0.6344	-0.34
Mof_O 	O 	0.8803	0.074	0.5259	-0.451
Mof_O 	O 	0.61115	0.61694	0.10229	-0.406
Mof_O 	O 	0.51034	0.62151	0.01925	-0.387
Mof_O 	O 	0.8538	0.86496	0.32756	-0.516
Mof_O 	O 	0.8575	0.98293	0.36163	-0.513
Mof_O 	O 	0.6344	0.9941	0.1713	-0.34
Mof_O 	O 	0.5259	0.8803	0.074	-0.451
Mof_O 	O 	0.48535	0.38306	0.99421	-0.427
Mof_O 	O 	0.39774	0.37849	0.88883	-0.405
Mof_O 	O 	0.4626	0.13504	0.98884	-0.519
Mof_O 	O 	0.3787	0.01707	0.87457	-0.479
Mof_O 	O 	0.1772	0.0059	0.6403	-0.306
Mof_O 	O 	0.1937	0.1197	0.6456	-0.446
Mof_O 	O 	0.38885	0.49114	0.00579	-0.395
Mof_O 	O 	0.48966	0.50891	0.11117	-0.393
Mof_O 	O 	0.1462	0.47376	0.01116	-0.482
Mof_O 	O 	0.1425	0.50413	0.12543	-0.477
Mof_O 	O 	0.3656	0.5369	0.3597	-0.32
Mof_O 	O 	0.4741	0.5481	0.3544	-0.451
Mof_O 	O 	0.51465	0.50886	0.89771	-0.42
Mof_O 	O 	0.60226	0.49109	0.98075	-0.415
Mof_O 	O 	0.5374	0.52624	0.67244	-0.508
Mof_O 	O 	0.6213	0.49587	0.63837	-0.492
Mof_O 	O 	0.8228	0.4631	0.8287	-0.336
Mof_O 	O 	0.8063	0.4519	0.926	-0.468
Mof_O 	O 	3.57275e-17	0.50826	-0	-0.704
Mof_O 	O 	0.50826	0	-0	-0.704
Mof_O 	O 	0.49174	0.49174	0.49174	-0.739
Mof_O 	O 	3.57275e-17	-3.57275e-17	0.50826	-0.704
_end
