data_functionalizedCrystal
_audit_creation_method	'EQeq! by Chris Wilmer'
_symmetry_space_group_name_H-M	'P1'
_symmetry_Int_Tables_number	1
_symmetry_cell_setting	triclinic
loop_
_symmetry_equiv_pos_as_xyz
  x,y,z
_cell_length_a	13.976
_cell_length_b	13.976
_cell_length_c	17.531
_cell_angle_alpha	90
_cell_angle_beta	90
_cell_angle_gamma	90
loop_
_atom_site_label
_atom_site_type_symbol
_atom_site_fract_x
_atom_site_fract_y
_atom_site_fract_z
_atom_site_charge
Mof_Pr	Pr	0.28526	0.60751	0.2498	2.561
Mof_C 	C 	0.459	0.7246	0.3505	0.446
Mof_C 	C 	0.5202	0.6623	0.2989	-0.087
Mof_C 	C 	0.6193	0.664	0.3027	0.03
Mof_H 	H 	0.6513	0.7011	0.3386	0.01
Mof_C 	C 	0.6686	0.6074	0.2503	-0.109
Mof_H 	H 	0.7352	0.6079	0.2498	0.062
Mof_C 	C 	0.6194	0.5509	0.1993	0.03
Mof_H 	H 	0.6516	0.513	0.1641	-0.012
Mof_C 	C 	0.5208	0.5522	0.2021	-0.091
Mof_C 	C 	0.4597	0.4895	0.1506	0.422
Mof_C 	C 	0.3816	0.0666	0.4005	0.331
Mof_C 	C 	0.4445	0.1278	0.4517	-0.097
Mof_C 	C 	0.4437	0.2273	0.448	0.011
Mof_H 	H 	0.4066	0.259	0.4119	0.006
Mof_C 	C 	0.0562	0.488	0.4483	0.088
Mof_H 	H 	0.0933	0.4553	0.4128	-0.015
Mof_C 	C 	0.0553	0.587	0.4511	-0.119
Mof_C 	C 	0.1174	0.6491	0.3998	0.455
Mof_H 	H 	0.309	0.459	0.369	0.257
Mof_H 	H 	0.145	0.413	0.227	0.286
Mof_H 	H 	0.352	0.665	0.137	0.248
Mof_H 	H 	0.885	0.804	0.373	0.236
Mof_H 	H 	0.315	0.763	0.134	0.355
Mof_N 	N 	0.4712	0.6067	0.25	-0.203
Mof_O 	O 	0.3686	0.7181	0.3418	-0.547
Mof_O 	O 	0.5024	0.7778	0.396	-0.571
Mof_O 	O 	0.37	0.4959	0.1582	-0.542
Mof_O 	O 	0.5041	0.4351	0.1048	-0.574
Mof_O 	O 	0.3516	0.4935	0.3504	-0.574
Mof_O 	O 	0.192	0.4442	0.2409	-0.584
Mof_O 	O 	0.3281	0.1113	0.355	-0.568
Mof_O 	O 	0.3526	0.7215	0.1502	-0.883
Mof_O 	O 	0.1707	0.6045	0.3541	-0.582
Mof_O 	O 	0.1111	0.7385	0.4075	-0.542
Mof_O 	O 	0.8858	0.7557	0.4003	-0.532
Mof_O 	O 	0.3888	0.9775	0.408	-0.459
Mof_Pr	Pr	0.78526	0.10751	0.7498	2.435
Mof_C 	C 	0.959	0.2246	0.8505	0.555
Mof_C 	C 	0.0202	0.1623	0.7989	-0.227
Mof_C 	C 	0.1193	0.164	0.8027	0.147
Mof_H 	H 	0.1513	0.2011	0.8386	-0.024
Mof_C 	C 	0.1686	0.1074	0.7503	-0.249
Mof_H 	H 	0.2352	0.1079	0.7498	0.096
Mof_C 	C 	0.1194	0.0509	0.6993	0.193
Mof_H 	H 	0.1516	0.013	0.6641	-0.096
Mof_C 	C 	0.0208	0.0522	0.7021	-0.333
Mof_C 	C 	0.9597	0.9895	0.6506	0.662
Mof_C 	C 	0.8816	0.5666	0.9005	0.446
Mof_C 	C 	0.9445	0.6278	0.9517	-0.05
Mof_C 	C 	0.9437	0.7273	0.948	0.33
Mof_H 	H 	0.9066	0.759	0.9119	-0.068
Mof_C 	C 	0.5562	0.988	0.9483	0.486
Mof_H 	H 	0.5933	0.9553	0.9128	-0.107
Mof_C 	C 	0.5553	0.087	0.9511	-0.205
Mof_C 	C 	0.6174	0.1491	0.8998	0.492
Mof_H 	H 	0.809	0.959	0.869	0.267
Mof_H 	H 	0.645	0.913	0.727	0.286
Mof_H 	H 	0.852	0.165	0.637	0.246
Mof_H 	H 	0.385	0.304	0.873	0.222
Mof_H 	H 	0.815	0.263	0.634	0.354
Mof_N 	N 	0.9712	0.1067	0.75	-0.107
Mof_O 	O 	0.8686	0.2181	0.8418	-0.541
Mof_O 	O 	0.0024	0.2778	0.896	-0.547
Mof_O 	O 	0.87	0.9959	0.6582	-0.539
Mof_O 	O 	0.0041	0.9351	0.6048	-0.655
Mof_O 	O 	0.8516	0.9935	0.8504	-0.486
Mof_O 	O 	0.692	0.9442	0.7409	-0.531
Mof_O 	O 	0.8281	0.6113	0.855	-0.582
Mof_O 	O 	0.8526	0.2215	0.6502	-0.86
Mof_O 	O 	0.6707	0.1045	0.8541	-0.594
Mof_O 	O 	0.6111	0.2385	0.9075	-0.486
Mof_O 	O 	0.3858	0.2557	0.9003	-0.494
Mof_O 	O 	0.8888	0.4775	0.908	-0.434
Mof_Pr	Pr	0.71474	0.60751	0.7502	2.595
Mof_C 	C 	0.541	0.7246	0.6495	0.446
Mof_C 	C 	0.4798	0.6623	0.7011	-0.08
Mof_C 	C 	0.3807	0.664	0.6973	0.023
Mof_H 	H 	0.3487	0.7011	0.6614	0.012
Mof_C 	C 	0.3314	0.6074	0.7497	-0.09
Mof_H 	H 	0.2648	0.6079	0.7502	0.055
Mof_C 	C 	0.3806	0.5509	0.8007	0.02
Mof_H 	H 	0.3484	0.513	0.8359	0.013
Mof_C 	C 	0.4792	0.5522	0.7979	-0.071
Mof_C 	C 	0.5403	0.4895	0.8494	0.419
Mof_C 	C 	0.6184	0.0666	0.5995	0.335
Mof_C 	C 	0.5555	0.1278	0.5483	-0.097
Mof_C 	C 	0.5563	0.2273	0.552	0.012
Mof_H 	H 	0.5934	0.259	0.5881	0.007
Mof_C 	C 	0.9438	0.488	0.5517	0.146
Mof_H 	H 	0.9067	0.4553	0.5872	-0.018
Mof_C 	C 	0.9447	0.587	0.5489	-0.066
Mof_C 	C 	0.8826	0.6491	0.6002	0.454
Mof_H 	H 	0.691	0.459	0.631	0.261
Mof_H 	H 	0.855	0.413	0.773	0.304
Mof_H 	H 	0.648	0.665	0.863	0.271
Mof_H 	H 	0.115	0.804	0.627	0.238
Mof_H 	H 	0.685	0.763	0.866	0.382
Mof_N 	N 	0.5288	0.6067	0.75	-0.206
Mof_O 	O 	0.6314	0.7181	0.6582	-0.547
Mof_O 	O 	0.4976	0.7778	0.604	-0.57
Mof_O 	O 	0.63	0.4959	0.8418	-0.521
Mof_O 	O 	0.4959	0.4351	0.8952	-0.517
Mof_O 	O 	0.6484	0.4935	0.6496	-0.578
Mof_O 	O 	0.808	0.4442	0.7591	-0.583
Mof_O 	O 	0.6719	0.1113	0.645	-0.573
Mof_O 	O 	0.6474	0.7215	0.8498	-0.888
Mof_O 	O 	0.8293	0.6045	0.6459	-0.574
Mof_O 	O 	0.8889	0.7385	0.5925	-0.504
Mof_O 	O 	0.1142	0.7557	0.5997	-0.567
Mof_O 	O 	0.6112	0.9775	0.592	-0.458
Mof_Pr	Pr	0.21474	0.10751	0.2502	2.368
Mof_C 	C 	0.041	0.2246	0.1495	0.249
Mof_C 	C 	0.9798	0.1623	0.2011	0.073
Mof_C 	C 	0.8807	0.164	0.1973	-0.094
Mof_H 	H 	0.8487	0.2011	0.1614	0.044
Mof_C 	C 	0.8314	0.1074	0.2497	-0.018
Mof_H 	H 	0.7648	0.1079	0.2502	0.009
Mof_C 	C 	0.8806	0.0509	0.3007	-0.061
Mof_H 	H 	0.8484	0.013	0.3359	-0.004
Mof_C 	C 	0.9792	0.0522	0.2979	-0.014
Mof_C 	C 	0.0403	0.9895	0.3494	0.348
Mof_C 	C 	0.1184	0.5666	0.0995	0.453
Mof_C 	C 	0.0555	0.6278	0.0483	-0.194
Mof_C 	C 	0.0563	0.7273	0.052	0.17
Mof_H 	H 	0.0934	0.759	0.0881	-0.057
Mof_C 	C 	0.4438	0.988	0.0517	0.394
Mof_H 	H 	0.4067	0.9553	0.0872	-0.102
Mof_C 	C 	0.4447	0.087	0.0489	-0.306
Mof_C 	C 	0.3826	0.1491	0.1002	0.495
Mof_H 	H 	0.191	0.959	0.131	0.252
Mof_H 	H 	0.355	0.913	0.273	0.282
Mof_H 	H 	0.148	0.165	0.363	0.243
Mof_H 	H 	0.615	0.304	0.127	0.23
Mof_H 	H 	0.185	0.263	0.366	0.352
Mof_N 	N 	0.0288	0.1067	0.25	-0.29
Mof_O 	O 	0.1314	0.2181	0.1582	-0.5
Mof_O 	O 	0.9976	0.2778	0.104	-0.43
Mof_O 	O 	0.13	0.9959	0.3418	-0.473
Mof_O 	O 	0.9959	0.9351	0.3952	-0.478
Mof_O 	O 	0.1484	0.9935	0.1496	-0.529
Mof_O 	O 	0.308	0.9442	0.2591	-0.533
Mof_O 	O 	0.1719	0.6113	0.145	-0.604
Mof_O 	O 	0.1474	0.2215	0.3498	-0.875
Mof_O 	O 	0.3293	0.1045	0.1459	-0.606
Mof_O 	O 	0.3889	0.2385	0.0925	-0.541
Mof_O 	O 	0.6142	0.2557	0.0997	-0.568
Mof_O 	O 	0.1112	0.4775	0.092	-0.521
Mof_Pr	Pr	0.5	0.89265	0.5	2.07
Mof_C 	C 	0.5	0.2788	0.5	-0.104
Mof_H 	H 	0.5	0.3453	0.5	0.062
Mof_N 	N 	0.5	0.0778	0.5	-0.253
Mof_Pr	Pr	-0	0.39265	-0	1.578
Mof_C 	C 	7.37187e-33	0.7788	-0	-0.456
Mof_H 	H 	-0	0.8453	-0	0.147
Mof_N 	N 	-0	0.5778	-0	-0.264
Mof_Pr	Pr	-5.02032e-33	0.82225	0.5	2.253
Mof_C 	C 	-5.02032e-33	0.4398	0.5	-0.242
Mof_H 	H 	2.35156e-33	0.3733	0.5	0.086
Mof_N 	N 	2.35156e-33	0.6374	0.5	-0.217
Mof_Pr	Pr	0.5	0.32225	-0	2.088
Mof_C 	C 	0.5	0.9398	-0	-0.548
Mof_H 	H 	0.5	0.8733	-0	0.189
Mof_N 	N 	0.5	0.1374	-0	-0.183
_end
