# CIF file generated by openbabel 3.1.0, see https://openbabel.org
data_I
_chemical_name_common 'image0'
_cell_length_a 10.523
_cell_length_b 11.184
_cell_length_c 12.7
_cell_angle_alpha 102.98
_cell_angle_beta 109.329
_cell_angle_gamma 97.766
_space_group_name_H-M_alt 'P 1'
_space_group_name_Hall 'P 1'
loop_
    _symmetry_equiv_pos_as_xyz
    x,y,z
loop_
    _atom_site_label
    _atom_site_type_symbol
    _atom_site_fract_x
    _atom_site_fract_y
    _atom_site_fract_z
    _atom_site_occupancy
    Nd1      Nd       0.10233    0.54633    0.68132    1.000
    O1       O        0.98300    0.32780    0.58820    1.000
    O2       O        0.92300    0.27130    0.39490    1.000
    O3       O        0.94720    0.05200    0.28910    1.000
    H1       H        0.93550    0.12370    0.29380    1.000
    O4       O        0.15320    0.49320    0.50740    1.000
    O5       O        0.12970    0.43000    0.32430    1.000
    O6       O        0.33820    0.39840    0.26700    1.000
    H2       H        0.25630    0.39450    0.25600    1.000
    O7       O        0.17850    0.75200    0.84920    1.000
    O8       O        0.33550    0.69180    0.78370    1.000
    O9       O        0.23420    0.98460    0.99160    1.000
    H3       H        0.18190    0.91690    0.94950    1.000
    O10      O        0.40160    0.18190    0.11200    1.000
    H4       H        0.46000    0.23040    0.17250    1.000
    C1       C        0.97270    0.03000    0.39450    1.000
    C2       C        0.97800    0.11890    0.49400    1.000
    C3       C        0.00400    0.08700    0.59690    1.000
    H5       H        0.00590    0.14590    0.66230    1.000
    C4       C        0.95990    0.24980    0.49320    1.000
    C5       C        0.41550    0.44910    0.38260    1.000
    C6       C        0.35720    0.48440    0.46590    1.000
    C7       C        0.44280    0.53590    0.58190    1.000
    H6       H        0.40420    0.56080    0.63710    1.000
    C8       C        0.20570    0.46860    0.43200    1.000
    C9       C        0.36200    0.98540    0.99090    1.000
    C10      C        0.40260    0.89010    0.92640    1.000
    C11      C        0.53990    0.90450    0.93560    1.000
    C12      C        0.29910    0.77090    0.84810    1.000
    Nd2      Nd       0.89767    0.45367    0.31868    1.000
    O11      O        0.01700    0.67220    0.41180    1.000
    O12      O        0.07700    0.72870    0.60510    1.000
    O13      O        0.05280    0.94800    0.71090    1.000
    H7       H        0.06450    0.87630    0.70620    1.000
    O14      O        0.84680    0.50680    0.49260    1.000
    O15      O        0.87030    0.57000    0.67570    1.000
    O16      O        0.66180    0.60160    0.73300    1.000
    H8       H        0.74370    0.60550    0.74400    1.000
    O17      O        0.82150    0.24800    0.15080    1.000
    O18      O        0.66450    0.30820    0.21630    1.000
    O19      O        0.76580    0.01540    0.00840    1.000
    H9       H        0.81810    0.08310    0.05050    1.000
    O20      O        0.59840    0.81810    0.88800    1.000
    H10      H        0.54000    0.76960    0.82750    1.000
    C13      C        0.02730    0.97000    0.60550    1.000
    C14      C        0.02200    0.88110    0.50600    1.000
    C15      C        0.99600    0.91300    0.40310    1.000
    H11      H        0.99410    0.85410    0.33770    1.000
    C16      C        0.04010    0.75020    0.50680    1.000
    C17      C        0.58450    0.55090    0.61740    1.000
    C18      C        0.64280    0.51560    0.53410    1.000
    C19      C        0.55720    0.46410    0.41810    1.000
    H12      H        0.59580    0.43920    0.36290    1.000
    C20      C        0.79430    0.53140    0.56800    1.000
    C21      C        0.63800    0.01460    0.00910    1.000
    C22      C        0.59740    0.10990    0.07360    1.000
    C23      C        0.46010    0.09550    0.06440    1.000
    C24      C        0.70090    0.22910    0.15190    1.000
