# CIF file generated by openbabel 3.1.0, see https://openbabel.org
data_I
_chemical_name_common 'OFUYUL_clean'
_cell_length_a 18.3847
_cell_length_b 12.9256
_cell_length_c 14.555
_cell_angle_alpha 90
_cell_angle_beta 120.068
_cell_angle_gamma 90
_space_group_name_H-M_alt 'P 1'
_space_group_name_Hall 'P 1'
loop_
    _symmetry_equiv_pos_as_xyz
    x,y,z
loop_
    _atom_site_label
    _atom_site_type_symbol
    _atom_site_fract_x
    _atom_site_fract_y
    _atom_site_fract_z
    _atom_site_occupancy
    Zn1      Zn       0.18210    0.51378    0.50182    1.000
    Zn2      Zn       0.65449    0.44707    0.25374    1.000
    H3       H        0.49850    0.33080    0.71520    1.000
    H4       H        0.49090    0.07460    0.55530    1.000
    H5       H        0.28960    0.26190    0.43780    1.000
    H6       H        0.95720    0.23750    0.23730    1.000
    H7       H        0.73240    0.27280    0.21670    1.000
    H8       H        0.93080    0.44050    0.42720    1.000
    C9       C        0.34290    0.40050    0.59350    1.000
    C10      C        0.38650    0.30920    0.58060    1.000
    C11      C        0.46950    0.28600    0.65810    1.000
    C12      C        0.50950    0.19680    0.65120    1.000
    C13      C        0.46530    0.13400    0.56190    1.000
    C14      C        0.38460    0.15740    0.48290    1.000
    C15      C        0.34070    0.09430    0.38200    1.000
    C16      C        0.34390    0.24570    0.49100    1.000
    C17      C        0.04740    0.37820    0.38310    1.000
    C18      C        0.95770    0.34430    0.34020    1.000
    C19      C        0.92360    0.26940    0.25990    1.000
    C20      C        0.83950    0.24320    0.21440    1.000
    C21      C        0.80340    0.16230    0.12780    1.000
    C22      C        0.78880    0.29110    0.24760    1.000
    C23      C        0.82230    0.36630    0.32700    1.000
    C24      C        0.90760    0.39140    0.37330    1.000
    O25      O        0.38400    0.45780    0.67300    1.000
    O26      O        0.26820    0.41410    0.52350    1.000
    O27      O        0.58810    0.17710    0.72970    1.000
    O28      O        0.37780    0.01180    0.38190    1.000
    O29      O        0.27430    0.12390    0.30650    1.000
    O30      O        0.07640    0.44200    0.45930    1.000
    O31      O        0.08850    0.34640    0.34270    1.000
    O32      O        0.85500    0.11770    0.10800    1.000
    O33      O        0.72880    0.14050    0.08300    1.000
    O34      O        0.77250    0.41520    0.35830    1.000
    H35      H        0.61953    0.25447    0.74959    1.000
    H36      H        0.22750    0.66217    0.61422    1.000
    Zn37     Zn       0.81790    0.01378    0.99818    1.000
    Zn38     Zn       0.34551    0.94707    0.24626    1.000
    H39      H        0.50150    0.83080    0.78480    1.000
    H40      H        0.50910    0.57460    0.94470    1.000
    H41      H        0.71040    0.76190    0.06220    1.000
    H42      H        0.04280    0.73750    0.26270    1.000
    H43      H        0.26760    0.77280    0.28330    1.000
    H44      H        0.06920    0.94050    0.07280    1.000
    C45      C        0.65710    0.90050    0.90650    1.000
    C46      C        0.61350    0.80920    0.91940    1.000
    C47      C        0.53050    0.78600    0.84190    1.000
    C48      C        0.49050    0.69680    0.84880    1.000
    C49      C        0.53470    0.63400    0.93810    1.000
    C50      C        0.61540    0.65740    0.01710    1.000
    C51      C        0.65930    0.59430    0.11800    1.000
    C52      C        0.65610    0.74570    0.00900    1.000
    C53      C        0.95260    0.87820    0.11690    1.000
    C54      C        0.04230    0.84430    0.15980    1.000
    C55      C        0.07640    0.76940    0.24010    1.000
    C56      C        0.16050    0.74320    0.28560    1.000
    C57      C        0.19660    0.66230    0.37220    1.000
    C58      C        0.21120    0.79110    0.25240    1.000
    C59      C        0.17770    0.86630    0.17300    1.000
    C60      C        0.09240    0.89140    0.12670    1.000
    O61      O        0.61600    0.95780    0.82700    1.000
    O62      O        0.73180    0.91410    0.97650    1.000
    O63      O        0.41190    0.67710    0.77030    1.000
    O64      O        0.62220    0.51180    0.11810    1.000
    O65      O        0.72570    0.62390    0.19350    1.000
    O66      O        0.92360    0.94200    0.04070    1.000
    O67      O        0.91150    0.84640    0.15730    1.000
    O68      O        0.14500    0.61770    0.39200    1.000
    O69      O        0.27120    0.64050    0.41700    1.000
    O70      O        0.22750    0.91520    0.14170    1.000
    H71      H        0.38047    0.75447    0.75041    1.000
    H72      H        0.77250    0.16217    0.88578    1.000
    Zn73     Zn       0.81790    0.48622    0.49818    1.000
    Zn74     Zn       0.34551    0.55293    0.74626    1.000
    H75      H        0.50150    0.66920    0.28480    1.000
    H76      H        0.50910    0.92540    0.44470    1.000
    H77      H        0.71040    0.73810    0.56220    1.000
    H78      H        0.04280    0.76250    0.76270    1.000
    H79      H        0.26760    0.72720    0.78330    1.000
    H80      H        0.06920    0.55950    0.57280    1.000
    C81      C        0.65710    0.59950    0.40650    1.000
    C82      C        0.61350    0.69080    0.41940    1.000
    C83      C        0.53050    0.71400    0.34190    1.000
    C84      C        0.49050    0.80320    0.34880    1.000
    C85      C        0.53470    0.86600    0.43810    1.000
    C86      C        0.61540    0.84260    0.51710    1.000
    C87      C        0.65930    0.90570    0.61800    1.000
    C88      C        0.65610    0.75430    0.50900    1.000
    C89      C        0.95260    0.62180    0.61690    1.000
    C90      C        0.04230    0.65570    0.65980    1.000
    C91      C        0.07640    0.73060    0.74010    1.000
    C92      C        0.16050    0.75680    0.78560    1.000
    C93      C        0.19660    0.83770    0.87220    1.000
    C94      C        0.21120    0.70890    0.75240    1.000
    C95      C        0.17770    0.63370    0.67300    1.000
    C96      C        0.09240    0.60860    0.62670    1.000
    O97      O        0.61600    0.54220    0.32700    1.000
    O98      O        0.73180    0.58590    0.47650    1.000
    O99      O        0.41190    0.82290    0.27030    1.000
    O100     O        0.62220    0.98820    0.61810    1.000
    O101     O        0.72570    0.87610    0.69350    1.000
    O102     O        0.92360    0.55800    0.54070    1.000
    O103     O        0.91150    0.65360    0.65730    1.000
    O104     O        0.14500    0.88230    0.89200    1.000
    O105     O        0.27120    0.85950    0.91700    1.000
    O106     O        0.22750    0.58480    0.64170    1.000
    H107     H        0.38047    0.74553    0.25041    1.000
    H108     H        0.77250    0.33783    0.38578    1.000
    Zn109    Zn       0.18210    0.98622    0.00182    1.000
    Zn110    Zn       0.65449    0.05293    0.75374    1.000
    H111     H        0.49850    0.16920    0.21520    1.000
    H112     H        0.49090    0.42540    0.05530    1.000
    H113     H        0.28960    0.23810    0.93780    1.000
    H114     H        0.95720    0.26250    0.73730    1.000
    H115     H        0.73240    0.22720    0.71670    1.000
    H116     H        0.93080    0.05950    0.92720    1.000
    C117     C        0.34290    0.09950    0.09350    1.000
    C118     C        0.38650    0.19080    0.08060    1.000
    C119     C        0.46950    0.21400    0.15810    1.000
    C120     C        0.50950    0.30320    0.15120    1.000
    C121     C        0.46530    0.36600    0.06190    1.000
    C122     C        0.38460    0.34260    0.98290    1.000
    C123     C        0.34070    0.40570    0.88200    1.000
    C124     C        0.34390    0.25430    0.99100    1.000
    C125     C        0.04740    0.12180    0.88310    1.000
    C126     C        0.95770    0.15570    0.84020    1.000
    C127     C        0.92360    0.23060    0.75990    1.000
    C128     C        0.83950    0.25680    0.71440    1.000
    C129     C        0.80340    0.33770    0.62780    1.000
    C130     C        0.78880    0.20890    0.74760    1.000
    C131     C        0.82230    0.13370    0.82700    1.000
    C132     C        0.90760    0.10860    0.87330    1.000
    O133     O        0.38400    0.04220    0.17300    1.000
    O134     O        0.26820    0.08590    0.02350    1.000
    O135     O        0.58810    0.32290    0.22970    1.000
    O136     O        0.37780    0.48820    0.88190    1.000
    O137     O        0.27430    0.37610    0.80650    1.000
    O138     O        0.07640    0.05800    0.95930    1.000
    O139     O        0.08850    0.15360    0.84270    1.000
    O140     O        0.85500    0.38230    0.60800    1.000
    O141     O        0.72880    0.35950    0.58300    1.000
    O142     O        0.77250    0.08480    0.85830    1.000
    H143     H        0.61953    0.24553    0.24959    1.000
    H144     H        0.22750    0.83783    0.11422    1.000
