# CIF file generated by openbabel 3.1.0, see https://openbabel.org
data_I
_chemical_name_common 'image0'
_cell_length_a 13.4917
_cell_length_b 13.4917
_cell_length_c 8.0644
_cell_angle_alpha 90
_cell_angle_beta 90
_cell_angle_gamma 120
_space_group_name_H-M_alt 'P 1'
_space_group_name_Hall 'P 1'
loop_
    _symmetry_equiv_pos_as_xyz
    x,y,z
loop_
    _atom_site_label
    _atom_site_type_symbol
    _atom_site_fract_x
    _atom_site_fract_y
    _atom_site_fract_z
    _atom_site_occupancy
    Mn1      Mn       0.30259    0.33801    0.95420    1.000
    O1       O        0.22856    0.18034    0.09360    1.000
    C1       C        0.53517    0.32237    0.95090    1.000
    C2       C        0.35398    0.55983    0.72340    1.000
    O2       O        0.24225    0.05669    0.25590    1.000
    C3       C        0.26591    0.15691    0.22050    1.000
    N1       N        0.34703    0.20836    0.50000    1.000
    H1       H        0.28680    0.19840    0.56070    1.000
    H2       H        0.41170    0.25650    0.55440    1.000
    C4       C        0.34531    0.25425    0.33590    1.000
    H3       H        0.42270    0.28630    0.29040    1.000
    N2       N        0.36693    0.42807    0.19720    1.000
    H4       H        0.44370    0.46110    0.19890    1.000
    H5       H        0.34950    0.48420    0.20450    1.000
    C5       C        0.31980    0.35290    0.34400    1.000
    H6       H        0.23770    0.32210    0.34880    1.000
    H7       H        0.35320    0.39730    0.44390    1.000
    N3       N        0.45563    0.32038    0.89410    1.000
    N4       N        0.36820    0.49931    0.80910    1.000
    Mn2      Mn       0.66199    0.96458    0.95420    1.000
    O3       O        0.81966    0.04822    0.09360    1.000
    C6       C        0.67763    0.21280    0.95090    1.000
    C7       C        0.44017    0.79415    0.72340    1.000
    O4       O        0.94331    0.18556    0.25590    1.000
    C8       C        0.84309    0.10900    0.22050    1.000
    N5       N        0.79164    0.13867    0.50000    1.000
    H8       H        0.80160    0.08840    0.56070    1.000
    H9       H        0.74350    0.15520    0.55440    1.000
    C9       C        0.74575    0.09106    0.33590    1.000
    H10      H        0.71370    0.13640    0.29040    1.000
    N6       N        0.57193    0.93886    0.19720    1.000
    H11      H        0.53890    0.98260    0.19890    1.000
    H12      H        0.51580    0.86530    0.20450    1.000
    C10      C        0.64710    0.96690    0.34400    1.000
    H13      H        0.67790    0.91560    0.34880    1.000
    H14      H        0.60270    0.95590    0.44390    1.000
    N7       N        0.67962    0.13525    0.89410    1.000
    N8       N        0.50069    0.86889    0.80910    1.000
    Mn3      Mn       0.03542    0.69741    0.95420    1.000
    O5       O        0.95178    0.77144    0.09360    1.000
    C11      C        0.78720    0.46483    0.95090    1.000
    C12      C        0.20585    0.64602    0.72340    1.000
    O6       O        0.81444    0.75775    0.25590    1.000
    C13      C        0.89100    0.73409    0.22050    1.000
    N9       N        0.86133    0.65297    0.50000    1.000
    H15      H        0.91160    0.71320    0.56070    1.000
    H16      H        0.84480    0.58830    0.55440    1.000
    C14      C        0.90894    0.65469    0.33590    1.000
    H17      H        0.86360    0.57730    0.29040    1.000
    N10      N        0.06114    0.63307    0.19720    1.000
    H18      H        0.01740    0.55630    0.19890    1.000
    H19      H        0.13470    0.65050    0.20450    1.000
    C15      C        0.03310    0.68020    0.34400    1.000
    H20      H        0.08440    0.76230    0.34880    1.000
    H21      H        0.04410    0.64680    0.44390    1.000
    N11      N        0.86475    0.54437    0.89410    1.000
    N12      N        0.13111    0.63180    0.80910    1.000
    Mn4      Mn       0.69741    0.66199    0.45420    1.000
    O7       O        0.77144    0.81966    0.59360    1.000
    C16      C        0.46483    0.67763    0.45090    1.000
    C17      C        0.64602    0.44017    0.22340    1.000
    O8       O        0.75775    0.94331    0.75590    1.000
    C18      C        0.73409    0.84309    0.72050    1.000
    N13      N        0.65297    0.79164    0.00000    1.000
    H22      H        0.71320    0.80160    0.06070    1.000
    H23      H        0.58830    0.74350    0.05440    1.000
    C19      C        0.65469    0.74575    0.83590    1.000
    H24      H        0.57730    0.71370    0.79040    1.000
    N14      N        0.63307    0.57193    0.69720    1.000
    H25      H        0.55630    0.53890    0.69890    1.000
    H26      H        0.65050    0.51580    0.70450    1.000
    C20      C        0.68020    0.64710    0.84400    1.000
    H27      H        0.76230    0.67790    0.84880    1.000
    H28      H        0.64680    0.60270    0.94390    1.000
    N15      N        0.54437    0.67962    0.39410    1.000
    N16      N        0.63180    0.50069    0.30910    1.000
    Mn5      Mn       0.33801    0.03542    0.45420    1.000
    O9       O        0.18034    0.95178    0.59360    1.000
    C21      C        0.32237    0.78720    0.45090    1.000
    C22      C        0.55983    0.20585    0.22340    1.000
    O10      O        0.05669    0.81444    0.75590    1.000
    C23      C        0.15691    0.89100    0.72050    1.000
    N17      N        0.20836    0.86133    0.00000    1.000
    H29      H        0.19840    0.91160    0.06070    1.000
    H30      H        0.25650    0.84480    0.05440    1.000
    C24      C        0.25425    0.90894    0.83590    1.000
    H31      H        0.28630    0.86360    0.79040    1.000
    N18      N        0.42807    0.06114    0.69720    1.000
    H32      H        0.46110    0.01740    0.69890    1.000
    H33      H        0.48420    0.13470    0.70450    1.000
    C25      C        0.35290    0.03310    0.84400    1.000
    H34      H        0.32210    0.08440    0.84880    1.000
    H35      H        0.39730    0.04410    0.94390    1.000
    N19      N        0.32038    0.86475    0.39410    1.000
    N20      N        0.49931    0.13111    0.30910    1.000
    Mn6      Mn       0.96458    0.30259    0.45420    1.000
    O11      O        0.04822    0.22856    0.59360    1.000
    C26      C        0.21280    0.53517    0.45090    1.000
    C27      C        0.79415    0.35398    0.22340    1.000
    O12      O        0.18556    0.24225    0.75590    1.000
    C28      C        0.10900    0.26591    0.72050    1.000
    N21      N        0.13867    0.34703    0.00000    1.000
    H36      H        0.08840    0.28680    0.06070    1.000
    H37      H        0.15520    0.41170    0.05440    1.000
    C29      C        0.09106    0.34531    0.83590    1.000
    H38      H        0.13640    0.42270    0.79040    1.000
    N22      N        0.93886    0.36693    0.69720    1.000
    H39      H        0.98260    0.44370    0.69890    1.000
    H40      H        0.86530    0.34950    0.70450    1.000
    C30      C        0.96690    0.31980    0.84400    1.000
    H41      H        0.91560    0.23770    0.84880    1.000
    H42      H        0.95590    0.35320    0.94390    1.000
    N23      N        0.13525    0.45563    0.39410    1.000
    N24      N        0.86889    0.36820    0.30910    1.000
    Mn7      Mn       0.33333    0.66667    0.57888    1.000
    Mn8      Mn       0.66667    0.33333    0.07888    1.000
