data_functionalizedCrystal
_audit_creation_method	'EQeq! by Chris Wilmer'
_symmetry_space_group_name_H-M	'P1'
_symmetry_Int_Tables_number	1
_symmetry_cell_setting	triclinic
loop_
_symmetry_equiv_pos_as_xyz
  x,y,z
_cell_length_a	13.5107
_cell_length_b	23.38
_cell_length_c	5.8727
_cell_angle_alpha	90
_cell_angle_beta	90
_cell_angle_gamma	90
loop_
_atom_site_label
_atom_site_type_symbol
_atom_site_fract_x
_atom_site_fract_y
_atom_site_fract_z
_atom_site_charge
Mof_O 	O 	0.628	0.6791	0.409	-0.798
Mof_O 	O 	0.6189	0.6592	0.7748	-0.874
Mof_C 	C 	0.5935	0.6526	0.5766	0.619
Mof_C 	C 	0.5106	0.6111	0.5278	-0.34
Mof_C 	C 	0.4781	0.5734	0.6916	0.14
Mof_H 	H 	0.5096	0.5721	0.8323	-0.116
Mof_C 	C 	0.3986	0.5372	0.6488	-0.079
Mof_H 	H 	0.3765	0.5123	0.761	-0.037
Mof_C 	C 	0.3535	0.5385	0.442	-0.103
Mof_C 	C 	0.3849	0.5756	0.2691	-0.105
Mof_H 	H 	0.353	0.5765	0.1288	0.039
Mof_C 	C 	0.465	0.6108	0.3138	0.095
Mof_H 	H 	0.4889	0.6347	0.1998	-0.102
Mof_O 	O 	0.872	0.8209	0.409	-0.797
Mof_O 	O 	0.8811	0.8408	0.7748	-0.87
Mof_C 	C 	0.9065	0.8474	0.5766	0.615
Mof_C 	C 	0.9894	0.8889	0.5278	-0.333
Mof_C 	C 	0.0219	0.9266	0.6916	0.12
Mof_H 	H 	0.9904	0.9279	0.8323	-0.105
Mof_C 	C 	0.1014	0.9628	0.6488	-0.068
Mof_H 	H 	0.1235	0.9877	0.761	-0.042
Mof_C 	C 	0.1465	0.9615	0.442	-0.108
Mof_C 	C 	0.1151	0.9244	0.2691	-0.099
Mof_H 	H 	0.147	0.9235	0.1288	0.037
Mof_C 	C 	0.035	0.8892	0.3138	0.089
Mof_H 	H 	0.0111	0.8653	0.1998	-0.099
Mof_O 	O 	0.372	0.1791	0.591	-0.796
Mof_O 	O 	0.3811	0.1592	0.2252	-0.871
Mof_C 	C 	0.4065	0.1526	0.4234	0.618
Mof_C 	C 	0.4894	0.1111	0.4722	-0.34
Mof_C 	C 	0.5219	0.0734	0.3084	0.139
Mof_H 	H 	0.4904	0.0721	0.1677	-0.115
Mof_C 	C 	0.6014	0.0372	0.3512	-0.079
Mof_H 	H 	0.6235	0.0123	0.239	-0.036
Mof_C 	C 	0.6465	0.0385	0.558	-0.103
Mof_C 	C 	0.6151	0.0756	0.7309	-0.105
Mof_H 	H 	0.647	0.0765	0.8712	0.038
Mof_C 	C 	0.535	0.1108	0.6862	0.095
Mof_H 	H 	0.5111	0.1347	0.8002	-0.102
Mof_O 	O 	0.128	0.3209	0.591	-0.798
Mof_O 	O 	0.1189	0.3408	0.2252	-0.871
Mof_C 	C 	0.0935	0.3474	0.4234	0.614
Mof_C 	C 	0.0106	0.3889	0.4722	-0.33
Mof_C 	C 	0.9781	0.4266	0.3084	0.115
Mof_H 	H 	0.0096	0.4279	0.1677	-0.104
Mof_C 	C 	0.8986	0.4628	0.3512	-0.065
Mof_H 	H 	0.8765	0.4877	0.239	-0.044
Mof_C 	C 	0.8535	0.4615	0.558	-0.11
Mof_C 	C 	0.8849	0.4244	0.7309	-0.097
Mof_H 	H 	0.853	0.4235	0.8712	0.037
Mof_C 	C 	0.965	0.3892	0.6862	0.087
Mof_H 	H 	0.9889	0.3653	0.8002	-0.098
Mof_O 	O 	0.372	0.3209	0.591	-0.797
Mof_O 	O 	0.3811	0.3408	0.2252	-0.873
Mof_C 	C 	0.4065	0.3474	0.4234	0.619
Mof_C 	C 	0.4894	0.3889	0.4722	-0.34
Mof_C 	C 	0.5219	0.4266	0.3084	0.14
Mof_H 	H 	0.4904	0.4279	0.1677	-0.116
Mof_C 	C 	0.6014	0.4628	0.3512	-0.079
Mof_H 	H 	0.6235	0.4877	0.239	-0.037
Mof_C 	C 	0.6465	0.4615	0.558	-0.103
Mof_C 	C 	0.6151	0.4244	0.7309	-0.105
Mof_H 	H 	0.647	0.4235	0.8712	0.039
Mof_C 	C 	0.535	0.3892	0.6862	0.095
Mof_H 	H 	0.5111	0.3653	0.8002	-0.102
Mof_O 	O 	0.128	0.1791	0.591	-0.797
Mof_O 	O 	0.1189	0.1592	0.2252	-0.87
Mof_C 	C 	0.0935	0.1526	0.4234	0.615
Mof_C 	C 	0.0106	0.1111	0.4722	-0.333
Mof_C 	C 	0.9781	0.0734	0.3084	0.12
Mof_H 	H 	0.0096	0.0721	0.1677	-0.105
Mof_C 	C 	0.8986	0.0372	0.3512	-0.068
Mof_H 	H 	0.8765	0.0123	0.239	-0.042
Mof_C 	C 	0.8535	0.0385	0.558	-0.108
Mof_C 	C 	0.8849	0.0756	0.7309	-0.099
Mof_H 	H 	0.853	0.0765	0.8712	0.037
Mof_C 	C 	0.965	0.1108	0.6862	0.089
Mof_H 	H 	0.9889	0.1347	0.8002	-0.099
Mof_O 	O 	0.628	0.8209	0.409	-0.796
Mof_O 	O 	0.6189	0.8408	0.7748	-0.871
Mof_C 	C 	0.5935	0.8474	0.5766	0.618
Mof_C 	C 	0.5106	0.8889	0.5278	-0.34
Mof_C 	C 	0.4781	0.9266	0.6916	0.139
Mof_H 	H 	0.5096	0.9279	0.8323	-0.115
Mof_C 	C 	0.3986	0.9628	0.6488	-0.079
Mof_H 	H 	0.3765	0.9877	0.761	-0.036
Mof_C 	C 	0.3535	0.9615	0.442	-0.103
Mof_C 	C 	0.3849	0.9244	0.2691	-0.105
Mof_H 	H 	0.353	0.9235	0.1288	0.038
Mof_C 	C 	0.465	0.8892	0.3138	0.095
Mof_H 	H 	0.4889	0.8653	0.1998	-0.102
Mof_O 	O 	0.872	0.6791	0.409	-0.798
Mof_O 	O 	0.8811	0.6592	0.7748	-0.871
Mof_C 	C 	0.9065	0.6526	0.5766	0.614
Mof_C 	C 	0.9894	0.6111	0.5278	-0.33
Mof_C 	C 	0.0219	0.5734	0.6916	0.115
Mof_H 	H 	0.9904	0.5721	0.8323	-0.104
Mof_C 	C 	0.1014	0.5372	0.6488	-0.065
Mof_H 	H 	0.1235	0.5123	0.761	-0.044
Mof_C 	C 	0.1465	0.5385	0.442	-0.11
Mof_C 	C 	0.1151	0.5756	0.2691	-0.097
Mof_H 	H 	0.147	0.5765	0.1288	0.037
Mof_C 	C 	0.035	0.6108	0.3138	0.087
Mof_H 	H 	0.0111	0.6347	0.1998	-0.098
Mof_Pb	Pb	0.75	0.75	0.66987	0.351
Mof_O 	O 	0.75	0.75	0.0907	-0.86
Mof_Pb	Pb	0.25	0.25	0.33013	0.351
Mof_O 	O 	0.25	0.25	0.9093	-0.86
Mof_K 	K 	0.25	0.37312	0.9082	4.569
Mof_S 	S 	0.25	0.49411	0.3873	0.564
Mof_O 	O 	0.25	0.4807	0.1464	-0.712
Mof_O 	O 	0.25	0.4491	0.5537	-0.841
Mof_K 	K 	0.25	0.12688	0.9082	4.558
Mof_S 	S 	0.25	0.00589	0.3873	0.562
Mof_O 	O 	0.25	0.0193	0.1464	-0.71
Mof_O 	O 	0.25	0.0509	0.5537	-0.84
Mof_K 	K 	0.75	0.87312	0.0918	4.558
Mof_S 	S 	0.75	0.99411	0.6127	0.562
Mof_O 	O 	0.75	0.9807	0.8536	-0.71
Mof_O 	O 	0.75	0.9491	0.4463	-0.84
Mof_K 	K 	0.75	0.62688	0.0918	4.569
Mof_S 	S 	0.75	0.50589	0.6127	0.564
Mof_O 	O 	0.75	0.5193	0.8536	-0.712
Mof_O 	O 	0.75	0.5509	0.4463	-0.841
_end
