# CIF file generated by openbabel 3.1.0, see https://openbabel.org
data_I
_chemical_name_common 'image0'
_cell_length_a 9.697
_cell_length_b 17.5578
_cell_length_c 17.9345
_cell_angle_alpha 90
_cell_angle_beta 90.327
_cell_angle_gamma 90
_space_group_name_H-M_alt 'P 1'
_space_group_name_Hall 'P 1'
loop_
    _symmetry_equiv_pos_as_xyz
    x,y,z
loop_
    _atom_site_label
    _atom_site_type_symbol
    _atom_site_fract_x
    _atom_site_fract_y
    _atom_site_fract_z
    _atom_site_occupancy
    U1       U        0.39866    0.27548    0.21925    1.000
    U2       U        0.90375    0.21020    0.43887    1.000
    Zn1      Zn       0.23369    0.00750    0.44257    1.000
    P1       P        0.27270    0.17122    0.38441    1.000
    P2       P        0.77380    0.23446    0.24135    1.000
    P3       P        0.20710    0.15085    0.54754    1.000
    P4       P        0.70170    0.33550    0.11015    1.000
    O1       O        0.36410    0.21700    0.33320    1.000
    O2       O        0.56210    0.29740    0.12400    1.000
    O3       O        0.62300    0.23130    0.26090    1.000
    O4       O        0.26720    0.16610    0.62440    1.000
    O5       O        0.12060    0.19350    0.37840    1.000
    O6       O        0.78200    0.29400    0.05000    1.000
    O7       O        0.06550    0.18930    0.53730    1.000
    O8       O        0.86910    0.23100    0.30900    1.000
    O9       O        0.80910    0.17260    0.18260    1.000
    H1       H        0.89240    0.17260    0.17510    1.000
    O10      O        0.29670    0.08620    0.37230    1.000
    O11      O        0.95030    0.33070    0.17460    1.000
    H2       H        0.96740    0.37310    0.15810    1.000
    O12      O        0.45820    0.16340    0.49190    1.000
    H3       H        0.49280    0.18230    0.52940    1.000
    O13      O        0.19970    0.06670    0.53160    1.000
    O14      O        0.68140    0.41940    0.09350    1.000
    C1       C        0.32250    0.19580    0.47970    1.000
    C2       C        0.32270    0.28310    0.48810    1.000
    H4       H        0.35410    0.29650    0.53720    1.000
    H5       H        0.23090    0.30220    0.48050    1.000
    H6       H        0.38320    0.30500    0.45180    1.000
    C3       C        0.80550    0.32700    0.19620    1.000
    C4       C        0.78020    0.39110    0.25390    1.000
    H7       H        0.84890    0.38830    0.29260    1.000
    H8       H        0.69040    0.38500    0.27530    1.000
    H9       H        0.78580    0.43970    0.22960    1.000
    U3       U        0.60134    0.77548    0.28075    1.000
    U4       U        0.09625    0.71020    0.06113    1.000
    Zn2      Zn       0.76631    0.50750    0.05743    1.000
    P5       P        0.72730    0.67122    0.11559    1.000
    P6       P        0.22620    0.73446    0.25865    1.000
    P7       P        0.79290    0.65085    0.95246    1.000
    P8       P        0.29830    0.83550    0.38985    1.000
    O15      O        0.63590    0.71700    0.16680    1.000
    O16      O        0.43790    0.79740    0.37600    1.000
    O17      O        0.37700    0.73130    0.23910    1.000
    O18      O        0.73280    0.66610    0.87560    1.000
    O19      O        0.87940    0.69350    0.12160    1.000
    O20      O        0.21800    0.79400    0.45000    1.000
    O21      O        0.93450    0.68930    0.96270    1.000
    O22      O        0.13090    0.73100    0.19100    1.000
    O23      O        0.19090    0.67260    0.31740    1.000
    H10      H        0.10760    0.67260    0.32490    1.000
    O24      O        0.70330    0.58620    0.12770    1.000
    O25      O        0.04970    0.83070    0.32540    1.000
    H11      H        0.03260    0.87310    0.34190    1.000
    O26      O        0.54180    0.66340    0.00810    1.000
    H12      H        0.50720    0.68230    0.97060    1.000
    O27      O        0.80030    0.56670    0.96840    1.000
    O28      O        0.31860    0.91940    0.40650    1.000
    C5       C        0.67750    0.69580    0.02030    1.000
    C6       C        0.67730    0.78310    0.01190    1.000
    H13      H        0.64590    0.79650    0.96280    1.000
    H14      H        0.76910    0.80220    0.01950    1.000
    H15      H        0.61680    0.80500    0.04820    1.000
    C7       C        0.19450    0.82700    0.30380    1.000
    C8       C        0.21980    0.89110    0.24610    1.000
    H16      H        0.15110    0.88830    0.20740    1.000
    H17      H        0.30960    0.88500    0.22470    1.000
    H18      H        0.21420    0.93970    0.27040    1.000
    U5       U        0.60134    0.72452    0.78075    1.000
    U6       U        0.09625    0.78980    0.56113    1.000
    Zn3      Zn       0.76631    0.99250    0.55743    1.000
    P9       P        0.72730    0.82878    0.61559    1.000
    P10      P        0.22620    0.76554    0.75865    1.000
    P11      P        0.79290    0.84915    0.45246    1.000
    P12      P        0.29830    0.66450    0.88985    1.000
    O29      O        0.63590    0.78300    0.66680    1.000
    O30      O        0.43790    0.70260    0.87600    1.000
    O31      O        0.37700    0.76870    0.73910    1.000
    O32      O        0.73280    0.83390    0.37560    1.000
    O33      O        0.87940    0.80650    0.62160    1.000
    O34      O        0.21800    0.70600    0.95000    1.000
    O35      O        0.93450    0.81070    0.46270    1.000
    O36      O        0.13090    0.76900    0.69100    1.000
    O37      O        0.19090    0.82740    0.81740    1.000
    H19      H        0.10760    0.82740    0.82490    1.000
    O38      O        0.70330    0.91380    0.62770    1.000
    O39      O        0.04970    0.66930    0.82540    1.000
    H20      H        0.03260    0.62690    0.84190    1.000
    O40      O        0.54180    0.83660    0.50810    1.000
    H21      H        0.50720    0.81770    0.47060    1.000
    O41      O        0.80030    0.93330    0.46840    1.000
    O42      O        0.31860    0.58060    0.90650    1.000
    C9       C        0.67750    0.80420    0.52030    1.000
    C10      C        0.67730    0.71690    0.51190    1.000
    H22      H        0.64590    0.70350    0.46280    1.000
    H23      H        0.76910    0.69780    0.51950    1.000
    H24      H        0.61680    0.69500    0.54820    1.000
    C11      C        0.19450    0.67300    0.80380    1.000
    C12      C        0.21980    0.60890    0.74610    1.000
    H25      H        0.15110    0.61170    0.70740    1.000
    H26      H        0.30960    0.61500    0.72470    1.000
    H27      H        0.21420    0.56030    0.77040    1.000
    U7       U        0.39866    0.22452    0.71925    1.000
    U8       U        0.90375    0.28980    0.93887    1.000
    Zn4      Zn       0.23369    0.49250    0.94257    1.000
    P13      P        0.27270    0.32878    0.88441    1.000
    P14      P        0.77380    0.26554    0.74135    1.000
    P15      P        0.20710    0.34915    0.04754    1.000
    P16      P        0.70170    0.16450    0.61015    1.000
    O43      O        0.36410    0.28300    0.83320    1.000
    O44      O        0.56210    0.20260    0.62400    1.000
    O45      O        0.62300    0.26870    0.76090    1.000
    O46      O        0.26720    0.33390    0.12440    1.000
    O47      O        0.12060    0.30650    0.87840    1.000
    O48      O        0.78200    0.20600    0.55000    1.000
    O49      O        0.06550    0.31070    0.03730    1.000
    O50      O        0.86910    0.26900    0.80900    1.000
    O51      O        0.80910    0.32740    0.68260    1.000
    H28      H        0.89240    0.32740    0.67510    1.000
    O52      O        0.29670    0.41380    0.87230    1.000
    O53      O        0.95030    0.16930    0.67460    1.000
    H29      H        0.96740    0.12690    0.65810    1.000
    O54      O        0.45820    0.33660    0.99190    1.000
    H30      H        0.49280    0.31770    0.02940    1.000
    O55      O        0.19970    0.43330    0.03160    1.000
    O56      O        0.68140    0.08060    0.59350    1.000
    C13      C        0.32250    0.30420    0.97970    1.000
    C14      C        0.32270    0.21690    0.98810    1.000
    H31      H        0.35410    0.20350    0.03720    1.000
    H32      H        0.23090    0.19780    0.98050    1.000
    H33      H        0.38320    0.19500    0.95180    1.000
    C15      C        0.80550    0.17300    0.69620    1.000
    C16      C        0.78020    0.10890    0.75390    1.000
    H34      H        0.84890    0.11170    0.79260    1.000
    H35      H        0.69040    0.11500    0.77530    1.000
    H36      H        0.78580    0.06030    0.72960    1.000
