# CIF file generated by openbabel 3.1.0, see https://openbabel.org
data_I
_chemical_name_common 'YONNUL_clean'
_cell_length_a 13.9966
_cell_length_b 13.9966
_cell_length_c 30.521
_cell_angle_alpha 85.0828
_cell_angle_beta 85.0828
_cell_angle_gamma 88.5208
_space_group_name_H-M_alt 'P 1'
_space_group_name_Hall 'P 1'
loop_
    _symmetry_equiv_pos_as_xyz
    x,y,z
loop_
    _atom_site_label
    _atom_site_type_symbol
    _atom_site_fract_x
    _atom_site_fract_y
    _atom_site_fract_z
    _atom_site_occupancy
    Zn1      Zn       0.60187    0.19503    0.53120    1.000
    Zn2      Zn       0.81153    0.19571    0.51458    1.000
    Zn3      Zn       0.19503    0.60187    0.03120    1.000
    Zn4      Zn       0.19571    0.81153    0.01458    1.000
    H1       H        0.83190    0.68910    0.71740    1.000
    H2       H        0.80440    0.77380    0.74710    1.000
    H3       H        0.56870    0.82290    0.67070    1.000
    H4       H        0.57670    0.94050    0.61510    1.000
    H5       H        0.86160    0.94720    0.61600    1.000
    H6       H        0.85540    0.82720    0.67240    1.000
    H7       H        0.81590    0.57190    0.82500    1.000
    H8       H        0.88220    0.58320    0.78050    1.000
    H9       H        0.95130    0.55450    0.85750    1.000
    H10      H        0.03690    0.56330    0.91770    1.000
    H11      H        0.01240    0.84960    0.90610    1.000
    H12      H        0.92540    0.84240    0.84570    1.000
    H13      H        0.69560    0.75040    0.81400    1.000
    H14      H        0.61500    0.71040    0.78790    1.000
    H15      H        0.54450    0.78270    0.84890    1.000
    H16      H        0.42540    0.81280    0.90290    1.000
    H17      H        0.45880    0.54360    0.95860    1.000
    H18      H        0.58390    0.51770    0.90590    1.000
    H19      H        0.65060    0.57800    0.73980    1.000
    H20      H        0.68390    0.51170    0.78020    1.000
    H21      H        0.89210    0.44510    0.67310    1.000
    H22      H        0.86340    0.35240    0.61690    1.000
    H23      H        0.58180    0.36160    0.65310    1.000
    H24      H        0.60820    0.45480    0.71000    1.000
    H25      H        0.46040    0.12300    0.47510    1.000
    H26      H        0.29830    0.12710    0.46790    1.000
    H27      H        0.25950    0.26250    0.57910    1.000
    H28      H        0.42120    0.25460    0.58310    1.000
    H29      H        0.96170    0.32170    0.54100    1.000
    H30      H        0.12370    0.32110    0.54640    1.000
    H31      H        0.14680    0.07760    0.48700    1.000
    H32      H        0.98280    0.08680    0.48130    1.000
    H33      H        0.68910    0.83190    0.21740    1.000
    H34      H        0.77380    0.80440    0.24710    1.000
    H35      H        0.82290    0.56870    0.17070    1.000
    H36      H        0.94050    0.57670    0.11510    1.000
    H37      H        0.94720    0.86160    0.11600    1.000
    H38      H        0.82720    0.85540    0.17240    1.000
    H39      H        0.57190    0.81590    0.32500    1.000
    H40      H        0.58320    0.88220    0.28050    1.000
    H41      H        0.55450    0.95130    0.35750    1.000
    H42      H        0.56330    0.03690    0.41770    1.000
    H43      H        0.84960    0.01240    0.40610    1.000
    H44      H        0.84240    0.92540    0.34570    1.000
    H45      H        0.75040    0.69560    0.31400    1.000
    H46      H        0.71040    0.61500    0.28790    1.000
    H47      H        0.78270    0.54450    0.34890    1.000
    H48      H        0.81280    0.42540    0.40290    1.000
    H49      H        0.54360    0.45880    0.45860    1.000
    H50      H        0.51770    0.58390    0.40590    1.000
    H51      H        0.57800    0.65060    0.23980    1.000
    H52      H        0.51170    0.68390    0.28020    1.000
    H53      H        0.44510    0.89210    0.17310    1.000
    H54      H        0.35240    0.86340    0.11690    1.000
    H55      H        0.36160    0.58180    0.15310    1.000
    H56      H        0.45480    0.60820    0.21000    1.000
    H57      H        0.12300    0.46040    0.97510    1.000
    H58      H        0.12710    0.29830    0.96790    1.000
    H59      H        0.26250    0.25950    0.07910    1.000
    H60      H        0.25460    0.42120    0.08310    1.000
    H61      H        0.32170    0.96170    0.04100    1.000
    H62      H        0.32110    0.12370    0.04640    1.000
    H63      H        0.07760    0.14680    0.98700    1.000
    H64      H        0.08680    0.98280    0.98130    1.000
    C1       C        0.74710    0.64470    0.77423    1.000
    C2       C        0.78060    0.71700    0.73592    1.000
    C3       C        0.71180    0.81300    0.67761    1.000
    C4       C        0.62770    0.84810    0.65990    1.000
    C5       C        0.63300    0.91880    0.62710    1.000
    C6       C        0.71880    0.96080    0.61037    1.000
    C7       C        0.80250    0.92290    0.62750    1.000
    C8       C        0.79910    0.85070    0.66100    1.000
    C9       C        0.71940    0.04440    0.57694    1.000
    C10      C        0.83420    0.61500    0.79930    1.000
    C11      C        0.92620    0.69840    0.84605    1.000
    C12      C        0.96270    0.61390    0.86750    1.000
    C13      C        0.01490    0.61950    0.90310    1.000
    C14      C        0.03600    0.70660    0.91775    1.000
    C15      C        0.00040    0.79040    0.89620    1.000
    C16      C        0.94730    0.78610    0.86030    1.000
    C17      C        0.09310    0.71110    0.95655    1.000
    C18      C        0.67080    0.69300    0.80380    1.000
    C19      C        0.57510    0.64710    0.87134    1.000
    C20      C        0.52760    0.73500    0.87110    1.000
    C21      C        0.45580    0.75300    0.90320    1.000
    C22      C        0.42870    0.68030    0.93667    1.000
    C23      C        0.47650    0.59210    0.93690    1.000
    C24      C        0.55060    0.57600    0.90490    1.000
    C25      C        0.34530    0.69470    0.96948    1.000
    C26      C        0.70510    0.55830    0.75618    1.000
    C27      C        0.75350    0.46150    0.69648    1.000
    C28      C        0.82960    0.42940    0.66890    1.000
    C29      C        0.81230    0.37430    0.63510    1.000
    C30      C        0.71960    0.35140    0.62815    1.000
    C31      C        0.64370    0.37990    0.65688    1.000
    C32      C        0.65930    0.43530    0.69104    1.000
    C33      C        0.70260    0.29320    0.59041    1.000
    C34      C        0.41930    0.15130    0.49610    1.000
    C35      C        0.32180    0.15340    0.49170    1.000
    C36      C        0.25900    0.19420    0.52249    1.000
    C37      C        0.29870    0.23370    0.55765    1.000
    C38      C        0.39580    0.22880    0.55963    1.000
    C39      C        0.99940    0.27160    0.53030    1.000
    C40      C        0.09660    0.27100    0.53380    1.000
    C41      C        0.15480    0.19720    0.51880    1.000
    C42      C        0.11070    0.12770    0.49860    1.000
    C43      C        0.01130    0.13350    0.49550    1.000
    C44      C        0.64470    0.74710    0.27423    1.000
    C45      C        0.71700    0.78060    0.23592    1.000
    C46      C        0.81300    0.71180    0.17761    1.000
    C47      C        0.84810    0.62770    0.15990    1.000
    C48      C        0.91880    0.63300    0.12710    1.000
    C49      C        0.96080    0.71880    0.11037    1.000
    C50      C        0.92290    0.80250    0.12750    1.000
    C51      C        0.85070    0.79910    0.16100    1.000
    C52      C        0.04440    0.71940    0.07694    1.000
    C53      C        0.61500    0.83420    0.29930    1.000
    C54      C        0.69840    0.92620    0.34605    1.000
    C55      C        0.61390    0.96270    0.36750    1.000
    C56      C        0.61950    0.01490    0.40310    1.000
    C57      C        0.70660    0.03600    0.41775    1.000
    C58      C        0.79040    0.00040    0.39620    1.000
    C59      C        0.78610    0.94730    0.36030    1.000
    C60      C        0.71110    0.09310    0.45655    1.000
    C61      C        0.69300    0.67080    0.30380    1.000
    C62      C        0.64710    0.57510    0.37134    1.000
    C63      C        0.73500    0.52760    0.37110    1.000
    C64      C        0.75300    0.45580    0.40320    1.000
    C65      C        0.68030    0.42870    0.43667    1.000
    C66      C        0.59210    0.47650    0.43690    1.000
    C67      C        0.57600    0.55060    0.40490    1.000
    C68      C        0.69470    0.34530    0.46948    1.000
    C69      C        0.55830    0.70510    0.25618    1.000
    C70      C        0.46150    0.75350    0.19648    1.000
    C71      C        0.42940    0.82960    0.16890    1.000
    C72      C        0.37430    0.81230    0.13510    1.000
    C73      C        0.35140    0.71960    0.12815    1.000
    C74      C        0.37990    0.64370    0.15688    1.000
    C75      C        0.43530    0.65930    0.19104    1.000
    C76      C        0.29320    0.70260    0.09041    1.000
    C77      C        0.15130    0.41930    0.99610    1.000
    C78      C        0.15340    0.32180    0.99170    1.000
    C79      C        0.19420    0.25900    0.02249    1.000
    C80      C        0.23370    0.29870    0.05765    1.000
    C81      C        0.22880    0.39580    0.05963    1.000
    C82      C        0.27160    0.99940    0.03030    1.000
    C83      C        0.27100    0.09660    0.03380    1.000
    C84      C        0.19720    0.15480    0.01880    1.000
    C85      C        0.12770    0.11070    0.99860    1.000
    C86      C        0.13350    0.01130    0.99550    1.000
    N1       N        0.45660    0.18900    0.52984    1.000
    N2       N        0.95710    0.20130    0.51179    1.000
    N3       N        0.18900    0.45660    0.02984    1.000
    N4       N        0.20130    0.95710    0.01179    1.000
    O1       O        0.70020    0.74160    0.71106    1.000
    O2       O        0.64100    0.07320    0.56455    1.000
    O3       O        0.79890    0.08050    0.56273    1.000
    O4       O        0.87080    0.70200    0.81216    1.000
    O5       O        0.12870    0.63490    0.97312    1.000
    O6       O        0.10320    0.79340    0.96989    1.000
    O7       O        0.64570    0.62290    0.84100    1.000
    O8       O        0.30730    0.77710    0.97008    1.000
    O9       O        0.32030    0.62350    0.99505    1.000
    O10      O        0.77870    0.51730    0.72786    1.000
    O11      O        0.77530    0.27930    0.56392    1.000
    O12      O        0.61940    0.26380    0.58685    1.000
    O13      O        0.74160    0.70020    0.21106    1.000
    O14      O        0.07320    0.64100    0.06455    1.000
    O15      O        0.08050    0.79890    0.06273    1.000
    O16      O        0.70200    0.87080    0.31216    1.000
    O17      O        0.63490    0.12870    0.47312    1.000
    O18      O        0.79340    0.10320    0.46989    1.000
    O19      O        0.62290    0.64570    0.34100    1.000
    O20      O        0.77710    0.30730    0.47008    1.000
    O21      O        0.62350    0.32030    0.49505    1.000
    O22      O        0.51730    0.77870    0.22786    1.000
    O23      O        0.27930    0.77530    0.06392    1.000
    O24      O        0.26380    0.61940    0.08685    1.000
    Zn5      Zn       0.80497    0.39813    0.96880    1.000
    Zn6      Zn       0.80429    0.18847    0.98542    1.000
    Zn7      Zn       0.39813    0.80497    0.46880    1.000
    Zn8      Zn       0.18847    0.80429    0.48542    1.000
    H65      H        0.31090    0.16810    0.78260    1.000
    H66      H        0.22620    0.19560    0.75290    1.000
    H67      H        0.17710    0.43130    0.82930    1.000
    H68      H        0.05950    0.42330    0.88490    1.000
    H69      H        0.05280    0.13840    0.88400    1.000
    H70      H        0.17280    0.14460    0.82760    1.000
    H71      H        0.42810    0.18410    0.67500    1.000
    H72      H        0.41680    0.11780    0.71950    1.000
    H73      H        0.44550    0.04870    0.64250    1.000
    H74      H        0.43670    0.96310    0.58230    1.000
    H75      H        0.15040    0.98760    0.59390    1.000
    H76      H        0.15760    0.07460    0.65430    1.000
    H77      H        0.24960    0.30440    0.68600    1.000
    H78      H        0.28960    0.38500    0.71210    1.000
    H79      H        0.21730    0.45550    0.65110    1.000
    H80      H        0.18720    0.57460    0.59710    1.000
    H81      H        0.45640    0.54120    0.54140    1.000
    H82      H        0.48230    0.41610    0.59410    1.000
    H83      H        0.42200    0.34940    0.76020    1.000
    H84      H        0.48830    0.31610    0.71980    1.000
    H85      H        0.55490    0.10790    0.82690    1.000
    H86      H        0.64760    0.13660    0.88310    1.000
    H87      H        0.63840    0.41820    0.84690    1.000
    H88      H        0.54520    0.39180    0.79000    1.000
    H89      H        0.87700    0.53960    0.02490    1.000
    H90      H        0.87290    0.70170    0.03210    1.000
    H91      H        0.73750    0.74050    0.92090    1.000
    H92      H        0.74540    0.57880    0.91690    1.000
    H93      H        0.67830    0.03830    0.95900    1.000
    H94      H        0.67890    0.87630    0.95360    1.000
    H95      H        0.92240    0.85320    0.01300    1.000
    H96      H        0.91320    0.01720    0.01870    1.000
    H97      H        0.16810    0.31090    0.28260    1.000
    H98      H        0.19560    0.22620    0.25290    1.000
    H99      H        0.43130    0.17710    0.32930    1.000
    H100     H        0.42330    0.05950    0.38490    1.000
    H101     H        0.13840    0.05280    0.38400    1.000
    H102     H        0.14460    0.17280    0.32760    1.000
    H103     H        0.18410    0.42810    0.17500    1.000
    H104     H        0.11780    0.41680    0.21950    1.000
    H105     H        0.04870    0.44550    0.14250    1.000
    H106     H        0.96310    0.43670    0.08230    1.000
    H107     H        0.98760    0.15040    0.09390    1.000
    H108     H        0.07460    0.15760    0.15430    1.000
    H109     H        0.30440    0.24960    0.18600    1.000
    H110     H        0.38500    0.28960    0.21210    1.000
    H111     H        0.45550    0.21730    0.15110    1.000
    H112     H        0.57460    0.18720    0.09710    1.000
    H113     H        0.54120    0.45640    0.04140    1.000
    H114     H        0.41610    0.48230    0.09410    1.000
    H115     H        0.34940    0.42200    0.26020    1.000
    H116     H        0.31610    0.48830    0.21980    1.000
    H117     H        0.10790    0.55490    0.32690    1.000
    H118     H        0.13660    0.64760    0.38310    1.000
    H119     H        0.41820    0.63840    0.34690    1.000
    H120     H        0.39180    0.54520    0.29000    1.000
    H121     H        0.53960    0.87700    0.52490    1.000
    H122     H        0.70170    0.87290    0.53210    1.000
    H123     H        0.74050    0.73750    0.42090    1.000
    H124     H        0.57880    0.74540    0.41690    1.000
    H125     H        0.03830    0.67830    0.45900    1.000
    H126     H        0.87630    0.67890    0.45360    1.000
    H127     H        0.85320    0.92240    0.51300    1.000
    H128     H        0.01720    0.91320    0.51870    1.000
    C87      C        0.35530    0.25290    0.72577    1.000
    C88      C        0.28300    0.21940    0.76408    1.000
    C89      C        0.18700    0.28820    0.82239    1.000
    C90      C        0.15190    0.37230    0.84010    1.000
    C91      C        0.08120    0.36700    0.87290    1.000
    C92      C        0.03920    0.28120    0.88963    1.000
    C93      C        0.07710    0.19750    0.87250    1.000
    C94      C        0.14930    0.20090    0.83900    1.000
    C95      C        0.95560    0.28060    0.92306    1.000
    C96      C        0.38500    0.16580    0.70070    1.000
    C97      C        0.30160    0.07380    0.65395    1.000
    C98      C        0.38610    0.03730    0.63250    1.000
    C99      C        0.38050    0.98510    0.59690    1.000
    C100     C        0.29340    0.96400    0.58225    1.000
    C101     C        0.20960    0.99960    0.60380    1.000
    C102     C        0.21390    0.05270    0.63970    1.000
    C103     C        0.28890    0.90690    0.54345    1.000
    C104     C        0.30700    0.32920    0.69620    1.000
    C105     C        0.35290    0.42490    0.62866    1.000
    C106     C        0.26500    0.47240    0.62890    1.000
    C107     C        0.24700    0.54420    0.59680    1.000
    C108     C        0.31970    0.57130    0.56333    1.000
    C109     C        0.40790    0.52350    0.56310    1.000
    C110     C        0.42400    0.44940    0.59510    1.000
    C111     C        0.30530    0.65470    0.53052    1.000
    C112     C        0.44170    0.29490    0.74382    1.000
    C113     C        0.53850    0.24650    0.80352    1.000
    C114     C        0.57060    0.17040    0.83110    1.000
    C115     C        0.62570    0.18770    0.86490    1.000
    C116     C        0.64860    0.28040    0.87185    1.000
    C117     C        0.62010    0.35630    0.84312    1.000
    C118     C        0.56470    0.34070    0.80896    1.000
    C119     C        0.70680    0.29740    0.90959    1.000
    C120     C        0.84870    0.58070    0.00390    1.000
    C121     C        0.84660    0.67820    0.00830    1.000
    C122     C        0.80580    0.74100    0.97751    1.000
    C123     C        0.76630    0.70130    0.94235    1.000
    C124     C        0.77120    0.60420    0.94037    1.000
    C125     C        0.72840    0.00060    0.96970    1.000
    C126     C        0.72900    0.90340    0.96620    1.000
    C127     C        0.80280    0.84520    0.98120    1.000
    C128     C        0.87230    0.88930    0.00140    1.000
    C129     C        0.86650    0.98870    0.00450    1.000
    C130     C        0.25290    0.35530    0.22577    1.000
    C131     C        0.21940    0.28300    0.26408    1.000
    C132     C        0.28820    0.18700    0.32239    1.000
    C133     C        0.37230    0.15190    0.34010    1.000
    C134     C        0.36700    0.08120    0.37290    1.000
    C135     C        0.28120    0.03920    0.38963    1.000
    C136     C        0.19750    0.07710    0.37250    1.000
    C137     C        0.20090    0.14930    0.33900    1.000
    C138     C        0.28060    0.95560    0.42306    1.000
    C139     C        0.16580    0.38500    0.20070    1.000
    C140     C        0.07380    0.30160    0.15395    1.000
    C141     C        0.03730    0.38610    0.13250    1.000
    C142     C        0.98510    0.38050    0.09690    1.000
    C143     C        0.96400    0.29340    0.08225    1.000
    C144     C        0.99960    0.20960    0.10380    1.000
    C145     C        0.05270    0.21390    0.13970    1.000
    C146     C        0.90690    0.28890    0.04345    1.000
    C147     C        0.32920    0.30700    0.19620    1.000
    C148     C        0.42490    0.35290    0.12866    1.000
    C149     C        0.47240    0.26500    0.12890    1.000
    C150     C        0.54420    0.24700    0.09680    1.000
    C151     C        0.57130    0.31970    0.06333    1.000
    C152     C        0.52350    0.40790    0.06310    1.000
    C153     C        0.44940    0.42400    0.09510    1.000
    C154     C        0.65470    0.30530    0.03052    1.000
    C155     C        0.29490    0.44170    0.24382    1.000
    C156     C        0.24650    0.53850    0.30352    1.000
    C157     C        0.17040    0.57060    0.33110    1.000
    C158     C        0.18770    0.62570    0.36490    1.000
    C159     C        0.28040    0.64860    0.37185    1.000
    C160     C        0.35630    0.62010    0.34312    1.000
    C161     C        0.34070    0.56470    0.30896    1.000
    C162     C        0.29740    0.70680    0.40959    1.000
    C163     C        0.58070    0.84870    0.50390    1.000
    C164     C        0.67820    0.84660    0.50830    1.000
    C165     C        0.74100    0.80580    0.47751    1.000
    C166     C        0.70130    0.76630    0.44235    1.000
    C167     C        0.60420    0.77120    0.44037    1.000
    C168     C        0.00060    0.72840    0.46970    1.000
    C169     C        0.90340    0.72900    0.46620    1.000
    C170     C        0.84520    0.80280    0.48120    1.000
    C171     C        0.88930    0.87230    0.50140    1.000
    C172     C        0.98870    0.86650    0.50450    1.000
    N5       N        0.81100    0.54340    0.97016    1.000
    N6       N        0.79870    0.04290    0.98821    1.000
    N7       N        0.54340    0.81100    0.47016    1.000
    N8       N        0.04290    0.79870    0.48821    1.000
    O25      O        0.25840    0.29980    0.78894    1.000
    O26      O        0.92680    0.35900    0.93545    1.000
    O27      O        0.91950    0.20110    0.93727    1.000
    O28      O        0.29800    0.12920    0.68784    1.000
    O29      O        0.36510    0.87130    0.52688    1.000
    O30      O        0.20660    0.89680    0.53011    1.000
    O31      O        0.37710    0.35430    0.65900    1.000
    O32      O        0.22290    0.69270    0.52992    1.000
    O33      O        0.37650    0.67970    0.50495    1.000
    O34      O        0.48270    0.22130    0.77214    1.000
    O35      O        0.72070    0.22470    0.93608    1.000
    O36      O        0.73620    0.38060    0.91315    1.000
    O37      O        0.29980    0.25840    0.28894    1.000
    O38      O        0.35900    0.92680    0.43545    1.000
    O39      O        0.20110    0.91950    0.43727    1.000
    O40      O        0.12920    0.29800    0.18784    1.000
    O41      O        0.87130    0.36510    0.02688    1.000
    O42      O        0.89680    0.20660    0.03011    1.000
    O43      O        0.35430    0.37710    0.15900    1.000
    O44      O        0.69270    0.22290    0.02992    1.000
    O45      O        0.67970    0.37650    0.00495    1.000
    O46      O        0.22130    0.48270    0.27214    1.000
    O47      O        0.22470    0.72070    0.43608    1.000
    O48      O        0.38060    0.73620    0.41315    1.000
