# CIF file generated by openbabel 3.1.0, see https://openbabel.org
data_I
_chemical_name_common 'image0'
_cell_length_a 8.738
_cell_length_b 8.738
_cell_length_c 18.709
_cell_angle_alpha 90
_cell_angle_beta 90
_cell_angle_gamma 120
_space_group_name_H-M_alt 'P 1'
_space_group_name_Hall 'P 1'
loop_
    _symmetry_equiv_pos_as_xyz
    x,y,z
loop_
    _atom_site_label
    _atom_site_type_symbol
    _atom_site_fract_x
    _atom_site_fract_y
    _atom_site_fract_z
    _atom_site_occupancy
    Co1      Co       0.00000    0.00000    0.50000    1.000
    Co2      Co       0.66667    0.33333    0.83333    1.000
    Co3      Co       0.33333    0.66667    0.16667    1.000
    C1       C        0.89615    0.79230    0.44270    1.000
    N1       N        0.83255    0.66510    0.41000    1.000
    C2       C        0.56282    0.12563    0.77603    1.000
    N2       N        0.49922    0.99843    0.74333    1.000
    C3       C        0.22948    0.45897    0.10937    1.000
    N3       N        0.16588    0.33177    0.07667    1.000
    C4       C        0.20770    0.10385    0.44270    1.000
    N4       N        0.33490    0.16745    0.41000    1.000
    C5       C        0.87437    0.43718    0.77603    1.000
    N5       N        0.00157    0.50078    0.74333    1.000
    C6       C        0.54103    0.77052    0.10937    1.000
    N6       N        0.66823    0.83412    0.07667    1.000
    C7       C        0.89615    0.10385    0.44270    1.000
    N7       N        0.83255    0.16745    0.41000    1.000
    C8       C        0.56282    0.43718    0.77603    1.000
    N8       N        0.49922    0.50078    0.74333    1.000
    C9       C        0.22948    0.77052    0.10937    1.000
    N9       N        0.16588    0.83412    0.07667    1.000
    C10      C        0.79230    0.89615    0.55730    1.000
    N10      N        0.66510    0.83255    0.59000    1.000
    C11      C        0.45897    0.22948    0.89063    1.000
    N11      N        0.33177    0.16588    0.92333    1.000
    C12      C        0.12563    0.56282    0.22397    1.000
    N12      N        0.99843    0.49922    0.25667    1.000
    C13      C        0.10385    0.20770    0.55730    1.000
    N13      N        0.16745    0.33490    0.59000    1.000
    C14      C        0.77052    0.54103    0.89063    1.000
    N14      N        0.83412    0.66823    0.92333    1.000
    C15      C        0.43718    0.87437    0.22397    1.000
    N15      N        0.50078    0.00157    0.25667    1.000
    C16      C        0.10385    0.89615    0.55730    1.000
    N16      N        0.16745    0.83255    0.59000    1.000
    C17      C        0.77052    0.22948    0.89063    1.000
    N17      N        0.83412    0.16588    0.92333    1.000
    C18      C        0.43718    0.56282    0.22397    1.000
    N18      N        0.50078    0.49922    0.25667    1.000
    K1       K        0.66667    0.33333    0.33333    1.000
    K2       K        0.33333    0.66667    0.66667    1.000
    K3       K        0.00000    0.00000    0.00000    1.000
