# CIF file generated by openbabel 3.1.0, see https://openbabel.org
data_I
_chemical_name_common 'image0'
_cell_length_a 8.8494
_cell_length_b 10.3728
_cell_length_c 16.9471
_cell_angle_alpha 90
_cell_angle_beta 92.869
_cell_angle_gamma 90
_space_group_name_H-M_alt 'P 1'
_space_group_name_Hall 'P 1'
loop_
    _symmetry_equiv_pos_as_xyz
    x,y,z
loop_
    _atom_site_label
    _atom_site_type_symbol
    _atom_site_fract_x
    _atom_site_fract_y
    _atom_site_fract_z
    _atom_site_occupancy
    O1       O        0.50480    0.18290    0.30780    1.000
    O2       O        0.96230    0.36550    0.16840    1.000
    O3       O        0.71490    0.34200    0.23550    1.000
    O4       O        0.96330    0.29740    0.50360    1.000
    O5       O        0.83080    0.50230    0.45590    1.000
    O6       O        0.72900    0.29320    0.08900    1.000
    O7       O        0.42610    0.19480    0.16090    1.000
    O8       O        0.76030    0.28610    0.39720    1.000
    O9       O        0.01320    0.39710    0.37070    1.000
    O10      O        0.32340    0.01700    0.24580    1.000
    O11      O        0.74670    0.52100    0.13700    1.000
    O12      O        0.24560    0.24840    0.26380    1.000
    Fe1      Fe       0.72850    0.18230    0.30150    1.000
    Fe2      Fe       0.07070    0.34920    0.26850    1.000
    Fe3      Fe       0.59080    0.15100    0.09610    1.000
    P1       P        0.37720    0.15840    0.24430    1.000
    P2       P        0.78740    0.38080    0.15860    1.000
    P3       P        0.89170    0.36880    0.43160    1.000
    F1       F        0.95130    0.18300    0.28440    1.000
    F2       F        0.70550    0.08940    0.19720    1.000
    O13      O        0.99520    0.68290    0.19220    1.000
    O14      O        0.53770    0.86550    0.33160    1.000
    O15      O        0.78510    0.84200    0.26450    1.000
    O16      O        0.53670    0.79740    0.99640    1.000
    O17      O        0.66920    0.00230    0.04410    1.000
    O18      O        0.77100    0.79320    0.41100    1.000
    O19      O        0.07390    0.69480    0.33910    1.000
    O20      O        0.73970    0.78610    0.10280    1.000
    O21      O        0.48680    0.89710    0.12930    1.000
    O22      O        0.17660    0.51700    0.25420    1.000
    O23      O        0.75330    0.02100    0.36300    1.000
    O24      O        0.25440    0.74840    0.23620    1.000
    Fe4      Fe       0.77150    0.68230    0.19850    1.000
    Fe5      Fe       0.42930    0.84920    0.23150    1.000
    Fe6      Fe       0.90920    0.65100    0.40390    1.000
    P4       P        0.12280    0.65840    0.25570    1.000
    P5       P        0.71260    0.88080    0.34140    1.000
    P6       P        0.60830    0.86880    0.06840    1.000
    F3       F        0.54870    0.68300    0.21560    1.000
    F4       F        0.79450    0.58940    0.30280    1.000
    O25      O        0.49520    0.81710    0.69220    1.000
    O26      O        0.03770    0.63450    0.83160    1.000
    O27      O        0.28510    0.65800    0.76450    1.000
    O28      O        0.03670    0.70260    0.49640    1.000
    O29      O        0.16920    0.49770    0.54410    1.000
    O30      O        0.27100    0.70680    0.91100    1.000
    O31      O        0.57390    0.80520    0.83910    1.000
    O32      O        0.23970    0.71390    0.60280    1.000
    O33      O        0.98680    0.60290    0.62930    1.000
    O34      O        0.67660    0.98300    0.75420    1.000
    O35      O        0.25330    0.47900    0.86300    1.000
    O36      O        0.75440    0.75160    0.73620    1.000
    Fe7      Fe       0.27150    0.81770    0.69850    1.000
    Fe8      Fe       0.92930    0.65080    0.73150    1.000
    Fe9      Fe       0.40920    0.84900    0.90390    1.000
    P7       P        0.62280    0.84160    0.75570    1.000
    P8       P        0.21260    0.61920    0.84140    1.000
    P9       P        0.10830    0.63120    0.56840    1.000
    F5       F        0.04870    0.81700    0.71560    1.000
    F6       F        0.29450    0.91060    0.80280    1.000
    O37      O        0.00480    0.31710    0.80780    1.000
    O38      O        0.46230    0.13450    0.66840    1.000
    O39      O        0.21490    0.15800    0.73550    1.000
    O40      O        0.46330    0.20260    0.00360    1.000
    O41      O        0.33080    0.99770    0.95590    1.000
    O42      O        0.22900    0.20680    0.58900    1.000
    O43      O        0.92610    0.30520    0.66090    1.000
    O44      O        0.26030    0.21390    0.89720    1.000
    O45      O        0.51320    0.10290    0.87070    1.000
    O46      O        0.82340    0.48300    0.74580    1.000
    O47      O        0.24670    0.97900    0.63700    1.000
    O48      O        0.74560    0.25160    0.76380    1.000
    Fe10     Fe       0.22850    0.31770    0.80150    1.000
    Fe11     Fe       0.57070    0.15080    0.76850    1.000
    Fe12     Fe       0.09080    0.34900    0.59610    1.000
    P10      P        0.87720    0.34160    0.74430    1.000
    P11      P        0.28740    0.11920    0.65860    1.000
    P12      P        0.39170    0.13120    0.93160    1.000
    F7       F        0.45130    0.31700    0.78440    1.000
    F8       F        0.20550    0.41060    0.69720    1.000
