# CIF file generated by openbabel 3.1.0, see https://openbabel.org
data_I
_chemical_name_common 'image0'
_cell_length_a 27.7056
_cell_length_b 23.395
_cell_length_c 21.0709
_cell_angle_alpha 90
_cell_angle_beta 113.911
_cell_angle_gamma 90
_space_group_name_H-M_alt 'P 1'
_space_group_name_Hall 'P 1'
loop_
    _symmetry_equiv_pos_as_xyz
    x,y,z
loop_
    _atom_site_label
    _atom_site_type_symbol
    _atom_site_fract_x
    _atom_site_fract_y
    _atom_site_fract_z
    _atom_site_occupancy
    C1       C        0.58963    0.27310    0.09724    1.000
    C2       C        0.54830    0.31047    0.84637    1.000
    C3       C        0.36007    0.28862    0.67741    1.000
    C4       C        0.26918    0.30038    0.58906    1.000
    H1       H        0.25340    0.27480    0.61600    1.000
    C5       C        0.82786    0.41941    0.97700    1.000
    C6       C        0.86200    0.28282    0.17485    1.000
    C7       C        0.75416    0.36707    0.99251    1.000
    H2       H        0.73080    0.38470    0.95220    1.000
    C8       C        0.64012    0.32227    0.93855    1.000
    H3       H        0.65110    0.33210    0.90370    1.000
    C9       C        0.58713    0.31003    0.92108    1.000
    C10      C        0.32181    0.31487    0.61151    1.000
    C11      C        0.31557    0.41708    0.47000    1.000
    C12      C        0.84313    0.35143    0.07556    1.000
    H4       H        0.87910    0.35920    0.09210    1.000
    C13      C        0.73443    0.33033    0.02821    1.000
    C14      C        0.65900    0.30682    0.05859    1.000
    H5       H        0.68230    0.30800    0.10510    1.000
    C15      C        0.60654    0.29188    0.04153    1.000
    C16      C        0.23051    0.32442    0.52878    1.000
    C17      C        0.17405    0.31036    0.50810    1.000
    C18      C        0.08877    0.25890    0.59750    1.000
    C19      C        0.06870    0.27804    0.47255    1.000
    H6       H        0.03410    0.26600    0.46060    1.000
    C20      C        0.13741    0.31108    0.43860    1.000
    H7       H        0.14830    0.32200    0.40400    1.000
    C21      C        0.67749    0.32009    0.00766    1.000
    C22      C        0.80842    0.37813    0.01581    1.000
    C23      C        0.10444    0.27863    0.54176    1.000
    C24      C        0.77197    0.30315    0.08717    1.000
    H8       H        0.76020    0.27710    0.11100    1.000
    C25      C        0.57068    0.29294    0.97266    1.000
    H9       H        0.53580    0.28230    0.96090    1.000
    C26      C        0.08537    0.29585    0.42081    1.000
    C27      C        0.15602    0.29570    0.55843    1.000
    H10      H        0.17930    0.29750    0.60490    1.000
    C28      C        0.33807    0.35304    0.57300    1.000
    H11      H        0.37350    0.36300    0.58800    1.000
    C29      C        0.30094    0.37583    0.51235    1.000
    C30      C        0.24755    0.36148    0.49027    1.000
    H12      H        0.22300    0.37690    0.44920    1.000
    C31      C        0.04661    0.29517    0.34540    1.000
    C32      C        0.90670    0.61350    0.84980    1.000
    H13      H        0.94310    0.61050    0.87470    1.000
    C33      C        0.88380    0.10690    0.33090    1.000
    H14      H        0.91800    0.10110    0.36380    1.000
    O1       O        0.50101    0.29831    0.83191    1.000
    O2       O        0.55112    0.23942    0.08306    1.000
    O3       O        0.84466    0.24418    0.20041    1.000
    O4       O        0.05404    0.22150    0.58593    1.000
    O5       O        0.34667    0.24696    0.70362    1.000
    O6       O        0.89412    0.65567    0.81052    1.000
    O7       O        0.91048    0.29750    0.20226    1.000
    O8       O        0.06272    0.30956    0.30015    1.000
    O9       O        0.56537    0.32327    0.80164    1.000
    O10      O        0.11211    0.28055    0.65775    1.000
    O11      O        0.61503    0.29024    0.15925    1.000
    O12      O        0.87597    0.43361    0.00276    1.000
    O13      O        0.79734    0.43941    0.92086    1.000
    O14      O        0.40709    0.30838    0.70617    1.000
    O15      O        0.00061    0.27966    0.33227    1.000
    O16      O        0.87769    0.14970    0.29465    1.000
    O17      O        0.36311    0.43222    0.48725    1.000
    O18      O        0.85210    0.07125    0.33014    1.000
    O19      O        0.88387    0.57701    0.86259    1.000
    C34      C        0.82474    0.31332    0.11081    1.000
    O20      O        0.28115    0.43805    0.41688    1.000
    Tm1      Tm       0.43408    0.23553    0.79378    1.000
    Tm2      Tm       0.93025    0.22295    0.28999    1.000
    C35      C        0.08963    0.77310    0.09724    1.000
    C36      C        0.04830    0.81047    0.84637    1.000
    C37      C        0.86007    0.78862    0.67741    1.000
    C38      C        0.76918    0.80038    0.58906    1.000
    H15      H        0.75340    0.77480    0.61600    1.000
    C39      C        0.32786    0.91941    0.97700    1.000
    C40      C        0.36200    0.78282    0.17485    1.000
    C41      C        0.25416    0.86707    0.99251    1.000
    H16      H        0.23080    0.88470    0.95220    1.000
    C42      C        0.14012    0.82227    0.93855    1.000
    H17      H        0.15110    0.83210    0.90370    1.000
    C43      C        0.08713    0.81003    0.92108    1.000
    C44      C        0.82181    0.81487    0.61151    1.000
    C45      C        0.81557    0.91708    0.47000    1.000
    C46      C        0.34313    0.85143    0.07556    1.000
    H18      H        0.37910    0.85920    0.09210    1.000
    C47      C        0.23443    0.83033    0.02821    1.000
    C48      C        0.15900    0.80682    0.05859    1.000
    H19      H        0.18230    0.80800    0.10510    1.000
    C49      C        0.10654    0.79188    0.04153    1.000
    C50      C        0.73051    0.82442    0.52878    1.000
    C51      C        0.67405    0.81036    0.50810    1.000
    C52      C        0.58877    0.75890    0.59750    1.000
    C53      C        0.56870    0.77804    0.47255    1.000
    H20      H        0.53410    0.76600    0.46060    1.000
    C54      C        0.63741    0.81108    0.43860    1.000
    H21      H        0.64830    0.82200    0.40400    1.000
    C55      C        0.17749    0.82009    0.00766    1.000
    C56      C        0.30842    0.87813    0.01581    1.000
    C57      C        0.60444    0.77863    0.54176    1.000
    C58      C        0.27197    0.80315    0.08717    1.000
    H22      H        0.26020    0.77710    0.11100    1.000
    C59      C        0.07068    0.79294    0.97266    1.000
    H23      H        0.03580    0.78230    0.96090    1.000
    C60      C        0.58537    0.79585    0.42081    1.000
    C61      C        0.65602    0.79570    0.55843    1.000
    H24      H        0.67930    0.79750    0.60490    1.000
    C62      C        0.83807    0.85304    0.57300    1.000
    H25      H        0.87350    0.86300    0.58800    1.000
    C63      C        0.80094    0.87583    0.51235    1.000
    C64      C        0.74755    0.86148    0.49027    1.000
    H26      H        0.72300    0.87690    0.44920    1.000
    C65      C        0.54661    0.79517    0.34540    1.000
    C66      C        0.40670    0.11350    0.84980    1.000
    H27      H        0.44310    0.11050    0.87470    1.000
    C67      C        0.38380    0.60690    0.33090    1.000
    H28      H        0.41800    0.60110    0.36380    1.000
    O21      O        0.00101    0.79831    0.83191    1.000
    O22      O        0.05112    0.73942    0.08306    1.000
    O23      O        0.34466    0.74418    0.20041    1.000
    O24      O        0.55404    0.72150    0.58593    1.000
    O25      O        0.84667    0.74696    0.70362    1.000
    O26      O        0.39412    0.15567    0.81052    1.000
    O27      O        0.41048    0.79750    0.20226    1.000
    O28      O        0.56272    0.80956    0.30015    1.000
    O29      O        0.06537    0.82327    0.80164    1.000
    O30      O        0.61211    0.78055    0.65775    1.000
    O31      O        0.11503    0.79024    0.15925    1.000
    O32      O        0.37597    0.93361    0.00276    1.000
    O33      O        0.29734    0.93941    0.92086    1.000
    O34      O        0.90709    0.80838    0.70617    1.000
    O35      O        0.50061    0.77966    0.33227    1.000
    O36      O        0.37769    0.64970    0.29465    1.000
    O37      O        0.86311    0.93222    0.48725    1.000
    O38      O        0.35210    0.57125    0.33014    1.000
    O39      O        0.38387    0.07701    0.86259    1.000
    C68      C        0.32474    0.81332    0.11081    1.000
    O40      O        0.78115    0.93805    0.41688    1.000
    Tm3      Tm       0.93408    0.73553    0.79378    1.000
    Tm4      Tm       0.43025    0.72295    0.28999    1.000
    C69      C        0.41037    0.27310    0.90276    1.000
    C70      C        0.45170    0.31047    0.15363    1.000
    C71      C        0.63993    0.28862    0.32259    1.000
    C72      C        0.73082    0.30038    0.41094    1.000
    H29      H        0.74660    0.27480    0.38400    1.000
    C73      C        0.17214    0.41941    0.02300    1.000
    C74      C        0.13800    0.28282    0.82515    1.000
    C75      C        0.24584    0.36707    0.00749    1.000
    H30      H        0.26920    0.38470    0.04780    1.000
    C76      C        0.35988    0.32227    0.06145    1.000
    H31      H        0.34890    0.33210    0.09630    1.000
    C77      C        0.41287    0.31003    0.07892    1.000
    C78      C        0.67819    0.31487    0.38849    1.000
    C79      C        0.68443    0.41708    0.53000    1.000
    C80      C        0.15687    0.35143    0.92444    1.000
    H32      H        0.12090    0.35920    0.90790    1.000
    C81      C        0.26557    0.33033    0.97179    1.000
    C82      C        0.34100    0.30682    0.94141    1.000
    H33      H        0.31770    0.30800    0.89490    1.000
    C83      C        0.39346    0.29188    0.95847    1.000
    C84      C        0.76949    0.32442    0.47122    1.000
    C85      C        0.82595    0.31036    0.49190    1.000
    C86      C        0.91123    0.25890    0.40250    1.000
    C87      C        0.93130    0.27804    0.52745    1.000
    H34      H        0.96590    0.26600    0.53940    1.000
    C88      C        0.86259    0.31108    0.56140    1.000
    H35      H        0.85170    0.32200    0.59600    1.000
    C89      C        0.32251    0.32009    0.99234    1.000
    C90      C        0.19158    0.37813    0.98419    1.000
    C91      C        0.89556    0.27863    0.45824    1.000
    C92      C        0.22803    0.30315    0.91283    1.000
    H36      H        0.23980    0.27710    0.88900    1.000
    C93      C        0.42932    0.29294    0.02734    1.000
    H37      H        0.46420    0.28230    0.03910    1.000
    C94      C        0.91463    0.29585    0.57919    1.000
    C95      C        0.84398    0.29570    0.44157    1.000
    H38      H        0.82070    0.29750    0.39510    1.000
    C96      C        0.66193    0.35304    0.42700    1.000
    H39      H        0.62650    0.36300    0.41200    1.000
    C97      C        0.69906    0.37583    0.48765    1.000
    C98      C        0.75245    0.36148    0.50973    1.000
    H40      H        0.77700    0.37690    0.55080    1.000
    C99      C        0.95339    0.29517    0.65460    1.000
    C100     C        0.09330    0.61350    0.15020    1.000
    H41      H        0.05690    0.61050    0.12530    1.000
    C101     C        0.11620    0.10690    0.66910    1.000
    H42      H        0.08200    0.10110    0.63620    1.000
    O41      O        0.49899    0.29831    0.16809    1.000
    O42      O        0.44888    0.23942    0.91694    1.000
    O43      O        0.15534    0.24418    0.79959    1.000
    O44      O        0.94596    0.22150    0.41407    1.000
    O45      O        0.65333    0.24696    0.29638    1.000
    O46      O        0.10588    0.65567    0.18948    1.000
    O47      O        0.08952    0.29750    0.79774    1.000
    O48      O        0.93728    0.30956    0.69985    1.000
    O49      O        0.43463    0.32327    0.19836    1.000
    O50      O        0.88789    0.28055    0.34225    1.000
    O51      O        0.38497    0.29024    0.84075    1.000
    O52      O        0.12403    0.43361    0.99724    1.000
    O53      O        0.20266    0.43941    0.07914    1.000
    O54      O        0.59291    0.30838    0.29383    1.000
    O55      O        0.99939    0.27966    0.66773    1.000
    O56      O        0.12231    0.14970    0.70535    1.000
    O57      O        0.63689    0.43222    0.51275    1.000
    O58      O        0.14790    0.07125    0.66986    1.000
    O59      O        0.11613    0.57701    0.13741    1.000
    C102     C        0.17526    0.31332    0.88919    1.000
    O60      O        0.71885    0.43805    0.58312    1.000
    Tm5      Tm       0.56592    0.23553    0.20622    1.000
    Tm6      Tm       0.06975    0.22295    0.71001    1.000
    C103     C        0.91037    0.77310    0.90276    1.000
    C104     C        0.95170    0.81047    0.15363    1.000
    C105     C        0.13993    0.78862    0.32259    1.000
    C106     C        0.23082    0.80038    0.41094    1.000
    H43      H        0.24660    0.77480    0.38400    1.000
    C107     C        0.67214    0.91941    0.02300    1.000
    C108     C        0.63800    0.78282    0.82515    1.000
    C109     C        0.74584    0.86707    0.00749    1.000
    H44      H        0.76920    0.88470    0.04780    1.000
    C110     C        0.85988    0.82227    0.06145    1.000
    H45      H        0.84890    0.83210    0.09630    1.000
    C111     C        0.91287    0.81003    0.07892    1.000
    C112     C        0.17819    0.81487    0.38849    1.000
    C113     C        0.18443    0.91708    0.53000    1.000
    C114     C        0.65687    0.85143    0.92444    1.000
    H46      H        0.62090    0.85920    0.90790    1.000
    C115     C        0.76557    0.83033    0.97179    1.000
    C116     C        0.84100    0.80682    0.94141    1.000
    H47      H        0.81770    0.80800    0.89490    1.000
    C117     C        0.89346    0.79188    0.95847    1.000
    C118     C        0.26949    0.82442    0.47122    1.000
    C119     C        0.32595    0.81036    0.49190    1.000
    C120     C        0.41123    0.75890    0.40250    1.000
    C121     C        0.43130    0.77804    0.52745    1.000
    H48      H        0.46590    0.76600    0.53940    1.000
    C122     C        0.36259    0.81108    0.56140    1.000
    H49      H        0.35170    0.82200    0.59600    1.000
    C123     C        0.82251    0.82009    0.99234    1.000
    C124     C        0.69158    0.87813    0.98419    1.000
    C125     C        0.39556    0.77863    0.45824    1.000
    C126     C        0.72803    0.80315    0.91283    1.000
    H50      H        0.73980    0.77710    0.88900    1.000
    C127     C        0.92932    0.79294    0.02734    1.000
    H51      H        0.96420    0.78230    0.03910    1.000
    C128     C        0.41463    0.79585    0.57919    1.000
    C129     C        0.34398    0.79570    0.44157    1.000
    H52      H        0.32070    0.79750    0.39510    1.000
    C130     C        0.16193    0.85304    0.42700    1.000
    H53      H        0.12650    0.86300    0.41200    1.000
    C131     C        0.19906    0.87583    0.48765    1.000
    C132     C        0.25245    0.86148    0.50973    1.000
    H54      H        0.27700    0.87690    0.55080    1.000
    C133     C        0.45339    0.79517    0.65460    1.000
    C134     C        0.59330    0.11350    0.15020    1.000
    H55      H        0.55690    0.11050    0.12530    1.000
    C135     C        0.61620    0.60690    0.66910    1.000
    H56      H        0.58200    0.60110    0.63620    1.000
    O61      O        0.99899    0.79831    0.16809    1.000
    O62      O        0.94888    0.73942    0.91694    1.000
    O63      O        0.65534    0.74418    0.79959    1.000
    O64      O        0.44596    0.72150    0.41407    1.000
    O65      O        0.15333    0.74696    0.29638    1.000
    O66      O        0.60588    0.15567    0.18948    1.000
    O67      O        0.58952    0.79750    0.79774    1.000
    O68      O        0.43728    0.80956    0.69985    1.000
    O69      O        0.93463    0.82327    0.19836    1.000
    O70      O        0.38789    0.78055    0.34225    1.000
    O71      O        0.88497    0.79024    0.84075    1.000
    O72      O        0.62403    0.93361    0.99724    1.000
    O73      O        0.70266    0.93941    0.07914    1.000
    O74      O        0.09291    0.80838    0.29383    1.000
    O75      O        0.49939    0.77966    0.66773    1.000
    O76      O        0.62231    0.64970    0.70535    1.000
    O77      O        0.13689    0.93222    0.51275    1.000
    O78      O        0.64790    0.57125    0.66986    1.000
    O79      O        0.61613    0.07701    0.13741    1.000
    C136     C        0.67526    0.81332    0.88919    1.000
    O80      O        0.21885    0.93805    0.58312    1.000
    Tm7      Tm       0.06592    0.73553    0.20622    1.000
    Tm8      Tm       0.56975    0.72295    0.71001    1.000
    C137     C        0.41037    0.72690    0.90276    1.000
    C138     C        0.45170    0.68953    0.15363    1.000
    C139     C        0.63993    0.71138    0.32259    1.000
    C140     C        0.73082    0.69962    0.41094    1.000
    H57      H        0.74660    0.72520    0.38400    1.000
    C141     C        0.17214    0.58059    0.02300    1.000
    C142     C        0.13800    0.71718    0.82515    1.000
    C143     C        0.24584    0.63293    0.00749    1.000
    H58      H        0.26920    0.61530    0.04780    1.000
    C144     C        0.35988    0.67773    0.06145    1.000
    H59      H        0.34890    0.66790    0.09630    1.000
    C145     C        0.41287    0.68997    0.07892    1.000
    C146     C        0.67819    0.68513    0.38849    1.000
    C147     C        0.68443    0.58292    0.53000    1.000
    C148     C        0.15687    0.64857    0.92444    1.000
    H60      H        0.12090    0.64080    0.90790    1.000
    C149     C        0.26557    0.66967    0.97179    1.000
    C150     C        0.34100    0.69318    0.94141    1.000
    H61      H        0.31770    0.69200    0.89490    1.000
    C151     C        0.39346    0.70812    0.95847    1.000
    C152     C        0.76949    0.67558    0.47122    1.000
    C153     C        0.82595    0.68964    0.49190    1.000
    C154     C        0.91123    0.74110    0.40250    1.000
    C155     C        0.93130    0.72196    0.52745    1.000
    H62      H        0.96590    0.73400    0.53940    1.000
    C156     C        0.86259    0.68892    0.56140    1.000
    H63      H        0.85170    0.67800    0.59600    1.000
    C157     C        0.32251    0.67991    0.99234    1.000
    C158     C        0.19158    0.62187    0.98419    1.000
    C159     C        0.89556    0.72137    0.45824    1.000
    C160     C        0.22803    0.69685    0.91283    1.000
    H64      H        0.23980    0.72290    0.88900    1.000
    C161     C        0.42932    0.70706    0.02734    1.000
    H65      H        0.46420    0.71770    0.03910    1.000
    C162     C        0.91463    0.70415    0.57919    1.000
    C163     C        0.84398    0.70430    0.44157    1.000
    H66      H        0.82070    0.70250    0.39510    1.000
    C164     C        0.66193    0.64696    0.42700    1.000
    H67      H        0.62650    0.63700    0.41200    1.000
    C165     C        0.69906    0.62417    0.48765    1.000
    C166     C        0.75245    0.63852    0.50973    1.000
    H68      H        0.77700    0.62310    0.55080    1.000
    C167     C        0.95339    0.70483    0.65460    1.000
    C168     C        0.09330    0.38650    0.15020    1.000
    H69      H        0.05690    0.38950    0.12530    1.000
    C169     C        0.11620    0.89310    0.66910    1.000
    H70      H        0.08200    0.89890    0.63620    1.000
    O81      O        0.49899    0.70169    0.16809    1.000
    O82      O        0.44888    0.76058    0.91694    1.000
    O83      O        0.15534    0.75582    0.79959    1.000
    O84      O        0.94596    0.77850    0.41407    1.000
    O85      O        0.65333    0.75304    0.29638    1.000
    O86      O        0.10588    0.34433    0.18948    1.000
    O87      O        0.08952    0.70250    0.79774    1.000
    O88      O        0.93728    0.69044    0.69985    1.000
    O89      O        0.43463    0.67673    0.19836    1.000
    O90      O        0.88789    0.71945    0.34225    1.000
    O91      O        0.38497    0.70976    0.84075    1.000
    O92      O        0.12403    0.56639    0.99724    1.000
    O93      O        0.20266    0.56059    0.07914    1.000
    O94      O        0.59291    0.69162    0.29383    1.000
    O95      O        0.99939    0.72034    0.66773    1.000
    O96      O        0.12231    0.85030    0.70535    1.000
    O97      O        0.63689    0.56778    0.51275    1.000
    O98      O        0.14790    0.92875    0.66986    1.000
    O99      O        0.11613    0.42299    0.13741    1.000
    C170     C        0.17526    0.68668    0.88919    1.000
    O100     O        0.71885    0.56195    0.58312    1.000
    Tm9      Tm       0.56592    0.76447    0.20622    1.000
    Tm10     Tm       0.06975    0.77705    0.71001    1.000
    C171     C        0.91037    0.22690    0.90276    1.000
    C172     C        0.95170    0.18953    0.15363    1.000
    C173     C        0.13993    0.21138    0.32259    1.000
    C174     C        0.23082    0.19962    0.41094    1.000
    H71      H        0.24660    0.22520    0.38400    1.000
    C175     C        0.67214    0.08059    0.02300    1.000
    C176     C        0.63800    0.21718    0.82515    1.000
    C177     C        0.74584    0.13293    0.00749    1.000
    H72      H        0.76920    0.11530    0.04780    1.000
    C178     C        0.85988    0.17773    0.06145    1.000
    H73      H        0.84890    0.16790    0.09630    1.000
    C179     C        0.91287    0.18997    0.07892    1.000
    C180     C        0.17819    0.18513    0.38849    1.000
    C181     C        0.18443    0.08292    0.53000    1.000
    C182     C        0.65687    0.14857    0.92444    1.000
    H74      H        0.62090    0.14080    0.90790    1.000
    C183     C        0.76557    0.16967    0.97179    1.000
    C184     C        0.84100    0.19318    0.94141    1.000
    H75      H        0.81770    0.19200    0.89490    1.000
    C185     C        0.89346    0.20812    0.95847    1.000
    C186     C        0.26949    0.17558    0.47122    1.000
    C187     C        0.32595    0.18964    0.49190    1.000
    C188     C        0.41123    0.24110    0.40250    1.000
    C189     C        0.43130    0.22196    0.52745    1.000
    H76      H        0.46590    0.23400    0.53940    1.000
    C190     C        0.36259    0.18892    0.56140    1.000
    H77      H        0.35170    0.17800    0.59600    1.000
    C191     C        0.82251    0.17991    0.99234    1.000
    C192     C        0.69158    0.12187    0.98419    1.000
    C193     C        0.39556    0.22137    0.45824    1.000
    C194     C        0.72803    0.19685    0.91283    1.000
    H78      H        0.73980    0.22290    0.88900    1.000
    C195     C        0.92932    0.20706    0.02734    1.000
    H79      H        0.96420    0.21770    0.03910    1.000
    C196     C        0.41463    0.20415    0.57919    1.000
    C197     C        0.34398    0.20430    0.44157    1.000
    H80      H        0.32070    0.20250    0.39510    1.000
    C198     C        0.16193    0.14696    0.42700    1.000
    H81      H        0.12650    0.13700    0.41200    1.000
    C199     C        0.19906    0.12417    0.48765    1.000
    C200     C        0.25245    0.13852    0.50973    1.000
    H82      H        0.27700    0.12310    0.55080    1.000
    C201     C        0.45339    0.20483    0.65460    1.000
    C202     C        0.59330    0.88650    0.15020    1.000
    H83      H        0.55690    0.88950    0.12530    1.000
    C203     C        0.61620    0.39310    0.66910    1.000
    H84      H        0.58200    0.39890    0.63620    1.000
    O101     O        0.99899    0.20169    0.16809    1.000
    O102     O        0.94888    0.26058    0.91694    1.000
    O103     O        0.65534    0.25582    0.79959    1.000
    O104     O        0.44596    0.27850    0.41407    1.000
    O105     O        0.15333    0.25304    0.29638    1.000
    O106     O        0.60588    0.84433    0.18948    1.000
    O107     O        0.58952    0.20250    0.79774    1.000
    O108     O        0.43728    0.19044    0.69985    1.000
    O109     O        0.93463    0.17673    0.19836    1.000
    O110     O        0.38789    0.21945    0.34225    1.000
    O111     O        0.88497    0.20976    0.84075    1.000
    O112     O        0.62403    0.06639    0.99724    1.000
    O113     O        0.70266    0.06059    0.07914    1.000
    O114     O        0.09291    0.19162    0.29383    1.000
    O115     O        0.49939    0.22034    0.66773    1.000
    O116     O        0.62231    0.35030    0.70535    1.000
    O117     O        0.13689    0.06778    0.51275    1.000
    O118     O        0.64790    0.42875    0.66986    1.000
    O119     O        0.61613    0.92299    0.13741    1.000
    C204     C        0.67526    0.18668    0.88919    1.000
    O120     O        0.21885    0.06195    0.58312    1.000
    Tm11     Tm       0.06592    0.26447    0.20622    1.000
    Tm12     Tm       0.56975    0.27705    0.71001    1.000
    C205     C        0.58963    0.72690    0.09724    1.000
    C206     C        0.54830    0.68953    0.84637    1.000
    C207     C        0.36007    0.71138    0.67741    1.000
    C208     C        0.26918    0.69962    0.58906    1.000
    H85      H        0.25340    0.72520    0.61600    1.000
    C209     C        0.82786    0.58059    0.97700    1.000
    C210     C        0.86200    0.71718    0.17485    1.000
    C211     C        0.75416    0.63293    0.99251    1.000
    H86      H        0.73080    0.61530    0.95220    1.000
    C212     C        0.64012    0.67773    0.93855    1.000
    H87      H        0.65110    0.66790    0.90370    1.000
    C213     C        0.58713    0.68997    0.92108    1.000
    C214     C        0.32181    0.68513    0.61151    1.000
    C215     C        0.31557    0.58292    0.47000    1.000
    C216     C        0.84313    0.64857    0.07556    1.000
    H88      H        0.87910    0.64080    0.09210    1.000
    C217     C        0.73443    0.66967    0.02821    1.000
    C218     C        0.65900    0.69318    0.05859    1.000
    H89      H        0.68230    0.69200    0.10510    1.000
    C219     C        0.60654    0.70812    0.04153    1.000
    C220     C        0.23051    0.67558    0.52878    1.000
    C221     C        0.17405    0.68964    0.50810    1.000
    C222     C        0.08877    0.74110    0.59750    1.000
    C223     C        0.06870    0.72196    0.47255    1.000
    H90      H        0.03410    0.73400    0.46060    1.000
    C224     C        0.13741    0.68892    0.43860    1.000
    H91      H        0.14830    0.67800    0.40400    1.000
    C225     C        0.67749    0.67991    0.00766    1.000
    C226     C        0.80842    0.62187    0.01581    1.000
    C227     C        0.10444    0.72137    0.54176    1.000
    C228     C        0.77197    0.69685    0.08717    1.000
    H92      H        0.76020    0.72290    0.11100    1.000
    C229     C        0.57068    0.70706    0.97266    1.000
    H93      H        0.53580    0.71770    0.96090    1.000
    C230     C        0.08537    0.70415    0.42081    1.000
    C231     C        0.15602    0.70430    0.55843    1.000
    H94      H        0.17930    0.70250    0.60490    1.000
    C232     C        0.33807    0.64696    0.57300    1.000
    H95      H        0.37350    0.63700    0.58800    1.000
    C233     C        0.30094    0.62417    0.51235    1.000
    C234     C        0.24755    0.63852    0.49027    1.000
    H96      H        0.22300    0.62310    0.44920    1.000
    C235     C        0.04661    0.70483    0.34540    1.000
    C236     C        0.90670    0.38650    0.84980    1.000
    H97      H        0.94310    0.38950    0.87470    1.000
    C237     C        0.88380    0.89310    0.33090    1.000
    H98      H        0.91800    0.89890    0.36380    1.000
    O121     O        0.50101    0.70169    0.83191    1.000
    O122     O        0.55112    0.76058    0.08306    1.000
    O123     O        0.84466    0.75582    0.20041    1.000
    O124     O        0.05404    0.77850    0.58593    1.000
    O125     O        0.34667    0.75304    0.70362    1.000
    O126     O        0.89412    0.34433    0.81052    1.000
    O127     O        0.91048    0.70250    0.20226    1.000
    O128     O        0.06272    0.69044    0.30015    1.000
    O129     O        0.56537    0.67673    0.80164    1.000
    O130     O        0.11211    0.71945    0.65775    1.000
    O131     O        0.61503    0.70976    0.15925    1.000
    O132     O        0.87597    0.56639    0.00276    1.000
    O133     O        0.79734    0.56059    0.92086    1.000
    O134     O        0.40709    0.69162    0.70617    1.000
    O135     O        0.00061    0.72034    0.33227    1.000
    O136     O        0.87769    0.85030    0.29465    1.000
    O137     O        0.36311    0.56778    0.48725    1.000
    O138     O        0.85210    0.92875    0.33014    1.000
    O139     O        0.88387    0.42299    0.86259    1.000
    C238     C        0.82474    0.68668    0.11081    1.000
    O140     O        0.28115    0.56195    0.41688    1.000
    Tm13     Tm       0.43408    0.76447    0.79378    1.000
    Tm14     Tm       0.93025    0.77705    0.28999    1.000
    C239     C        0.08963    0.22690    0.09724    1.000
    C240     C        0.04830    0.18953    0.84637    1.000
    C241     C        0.86007    0.21138    0.67741    1.000
    C242     C        0.76918    0.19962    0.58906    1.000
    H99      H        0.75340    0.22520    0.61600    1.000
    C243     C        0.32786    0.08059    0.97700    1.000
    C244     C        0.36200    0.21718    0.17485    1.000
    C245     C        0.25416    0.13293    0.99251    1.000
    H100     H        0.23080    0.11530    0.95220    1.000
    C246     C        0.14012    0.17773    0.93855    1.000
    H101     H        0.15110    0.16790    0.90370    1.000
    C247     C        0.08713    0.18997    0.92108    1.000
    C248     C        0.82181    0.18513    0.61151    1.000
    C249     C        0.81557    0.08292    0.47000    1.000
    C250     C        0.34313    0.14857    0.07556    1.000
    H102     H        0.37910    0.14080    0.09210    1.000
    C251     C        0.23443    0.16967    0.02821    1.000
    C252     C        0.15900    0.19318    0.05859    1.000
    H103     H        0.18230    0.19200    0.10510    1.000
    C253     C        0.10654    0.20812    0.04153    1.000
    C254     C        0.73051    0.17558    0.52878    1.000
    C255     C        0.67405    0.18964    0.50810    1.000
    C256     C        0.58877    0.24110    0.59750    1.000
    C257     C        0.56870    0.22196    0.47255    1.000
    H104     H        0.53410    0.23400    0.46060    1.000
    C258     C        0.63741    0.18892    0.43860    1.000
    H105     H        0.64830    0.17800    0.40400    1.000
    C259     C        0.17749    0.17991    0.00766    1.000
    C260     C        0.30842    0.12187    0.01581    1.000
    C261     C        0.60444    0.22137    0.54176    1.000
    C262     C        0.27197    0.19685    0.08717    1.000
    H106     H        0.26020    0.22290    0.11100    1.000
    C263     C        0.07068    0.20706    0.97266    1.000
    H107     H        0.03580    0.21770    0.96090    1.000
    C264     C        0.58537    0.20415    0.42081    1.000
    C265     C        0.65602    0.20430    0.55843    1.000
    H108     H        0.67930    0.20250    0.60490    1.000
    C266     C        0.83807    0.14696    0.57300    1.000
    H109     H        0.87350    0.13700    0.58800    1.000
    C267     C        0.80094    0.12417    0.51235    1.000
    C268     C        0.74755    0.13852    0.49027    1.000
    H110     H        0.72300    0.12310    0.44920    1.000
    C269     C        0.54661    0.20483    0.34540    1.000
    C270     C        0.40670    0.88650    0.84980    1.000
    H111     H        0.44310    0.88950    0.87470    1.000
    C271     C        0.38380    0.39310    0.33090    1.000
    H112     H        0.41800    0.39890    0.36380    1.000
    O141     O        0.00101    0.20169    0.83191    1.000
    O142     O        0.05112    0.26058    0.08306    1.000
    O143     O        0.34466    0.25582    0.20041    1.000
    O144     O        0.55404    0.27850    0.58593    1.000
    O145     O        0.84667    0.25304    0.70362    1.000
    O146     O        0.39412    0.84433    0.81052    1.000
    O147     O        0.41048    0.20250    0.20226    1.000
    O148     O        0.56272    0.19044    0.30015    1.000
    O149     O        0.06537    0.17673    0.80164    1.000
    O150     O        0.61211    0.21945    0.65775    1.000
    O151     O        0.11503    0.20976    0.15925    1.000
    O152     O        0.37597    0.06639    0.00276    1.000
    O153     O        0.29734    0.06059    0.92086    1.000
    O154     O        0.90709    0.19162    0.70617    1.000
    O155     O        0.50061    0.22034    0.33227    1.000
    O156     O        0.37769    0.35030    0.29465    1.000
    O157     O        0.86311    0.06778    0.48725    1.000
    O158     O        0.35210    0.42875    0.33014    1.000
    O159     O        0.38387    0.92299    0.86259    1.000
    C272     C        0.32474    0.18668    0.11081    1.000
    O160     O        0.78115    0.06195    0.41688    1.000
    Tm15     Tm       0.93408    0.26447    0.79378    1.000
    Tm16     Tm       0.43025    0.27705    0.28999    1.000
    C273     C        0.00000    0.50000    0.00000    1.000
    C274     C        0.50000    0.00000    0.00000    1.000
    C275     C        0.76060    0.50000    0.76460    1.000
    H113     H        0.73800    0.50000    0.78750    1.000
    O161     O        0.95677    0.50000    0.97090    1.000
    O162     O        0.80591    0.50000    0.80220    1.000
    O163     O        0.73833    0.50000    0.70280    1.000
    Tm17     Tm       0.86618    0.50000    0.91385    1.000
    Tm18     Tm       0.66118    0.50000    0.60708    1.000
    C276     C        0.26060    0.00000    0.76460    1.000
    H114     H        0.23800    0.00000    0.78750    1.000
    O164     O        0.45677    0.00000    0.97090    1.000
    O165     O        0.30591    0.00000    0.80220    1.000
    O166     O        0.23833    0.00000    0.70280    1.000
    Tm19     Tm       0.36618    0.00000    0.91385    1.000
    Tm20     Tm       0.16118    0.00000    0.60708    1.000
    C277     C        0.23940    0.50000    0.23540    1.000
    H115     H        0.26200    0.50000    0.21250    1.000
    O167     O        0.04323    0.50000    0.02910    1.000
    O168     O        0.19409    0.50000    0.19780    1.000
    O169     O        0.26167    0.50000    0.29720    1.000
    Tm21     Tm       0.13382    0.50000    0.08615    1.000
    Tm22     Tm       0.33882    0.50000    0.39292    1.000
    C278     C        0.73940    0.00000    0.23540    1.000
    H116     H        0.76200    0.00000    0.21250    1.000
    O170     O        0.54323    0.00000    0.02910    1.000
    O171     O        0.69409    0.00000    0.19780    1.000
    O172     O        0.76167    0.00000    0.29720    1.000
    Tm23     Tm       0.63382    0.00000    0.08615    1.000
    Tm24     Tm       0.83882    0.00000    0.39292    1.000
