data_functionalizedCrystal
_audit_creation_method	'EQeq! by Chris Wilmer'
_symmetry_space_group_name_H-M	'P1'
_symmetry_Int_Tables_number	1
_symmetry_cell_setting	triclinic
loop_
_symmetry_equiv_pos_as_xyz
  x,y,z
_cell_length_a	15.199
_cell_length_b	16.958
_cell_length_c	19.932
_cell_angle_alpha	90
_cell_angle_beta	90.927
_cell_angle_gamma	90
loop_
_atom_site_label
_atom_site_type_symbol
_atom_site_fract_x
_atom_site_fract_y
_atom_site_fract_z
_atom_site_charge
Mof_Na	Na	0.8038	0.988	0.4936	1.571
Mof_Na	Na	0.8126	0.8443	0.6266	1.846
Mof_Na	Na	0.0169	0.7931	0.7099	1.585
Mof_Na	Na	0.7965	0.1129	0.3538	2.634
Mof_Na	Na	0.5848	0.0436	0.4148	1.125
Mof_Na	Na	0.0047	0.9333	0.5718	-1.353
Mof_O 	O 	0.7355	0.141	0.2473	-0.85
Mof_O 	O 	0.9232	0.6245	0.3257	-0.608
Mof_O 	O 	0.8032	0.7017	0.3828	-0.582
Mof_O 	O 	0.7843	0.7991	0.2797	-0.512
Mof_O 	O 	0.9191	0.7216	0.2218	-0.553
Mof_O 	O 	0.9718	0.656	0.4446	-0.52
Mof_O 	O 	0.1256	0.7138	0.4027	-0.46
Mof_O 	O 	0.0698	0.6833	0.2766	-0.529
Mof_O 	O 	0.0739	0.7665	0.1539	-0.718
Mof_O 	O 	0.1182	0.8365	0.2772	-0.507
Mof_O 	O 	0.9658	0.8734	0.2211	-0.513
Mof_O 	O 	0.0767	0.9859	0.2614	-0.503
Mof_O 	O 	0.062	0.9302	0.6891	-0.8
Mof_O 	O 	0.8348	0.9478	0.2754	-0.564
Mof_O 	O 	0.7345	0.9833	0.382	-0.983
Mof_O 	O 	0.69	0.827	0.3842	-0.594
Mof_O 	O 	0.6672	0.7172	0.485	-0.7
Mof_O 	O 	0.7431	0.8608	0.5123	-0.899
Mof_O 	O 	0.9608	0.8008	0.5943	-0.715
Mof_O 	O 	0.0911	0.7231	0.5295	-0.486
Mof_O 	O 	0.147	0.8784	0.5339	-0.891
Mof_O 	O 	0.1697	0.864	0.4009	-0.564
Mof_O 	O 	0.8493	0.7354	0.5064	-0.634
Mof_O 	O 	0.9622	0.7753	0.3396	-0.388
Mof_O 	O 	0.9963	0.9186	0.3575	-0.42
Mof_O 	O 	0.0014	0.8231	0.4562	-0.429
Mof_O 	O 	0.8562	0.8608	0.4027	-0.499
Mof_O 	O 	0.1401	0.021	0.3875	-0.789
Mof_O 	O 	0.6558	0.1589	0.3967	-0.783
Mof_O 	O 	0.1548	0.748	0.6643	-0.698
Mof_O 	O 	0.881	0.849	0.7374	-0.747
Mof_O 	O 	0.6602	0.0397	0.5218	-0.731
Mof_P 	P 	0.95392	0.84506	0.39028	0.506
Mof_Ru	Ru	0.85692	0.59098	0.41301	1.139
Mof_W 	W 	0.83697	0.70462	0.29026	1.349
Mof_W 	W 	0.04215	0.65224	0.36464	0.92
Mof_W 	W 	0.03039	0.78377	0.23231	1.269
Mof_W 	W 	0.94902	0.98802	0.25817	0.967
Mof_W 	W 	0.74226	0.9039	0.3251	0.927
Mof_W 	W 	0.75142	0.77906	0.45896	1.272
Mof_W 	W 	0.96609	0.72218	0.53728	0.919
Mof_W 	W 	0.15448	0.79956	0.47761	0.96
Mof_W 	W 	0.14552	0.93935	0.33296	0.923
Mof_C 	C 	0.8932	0.4759	0.4527	-0.164
Mof_H 	H 	0.9484	0.4549	0.4624	0.018
Mof_C 	C 	0.846	0.5204	0.5027	-0.196
Mof_H 	H 	0.8703	0.5265	0.5455	0.003
Mof_C 	C 	0.7635	0.5524	0.4876	-0.156
Mof_H 	H 	0.7334	0.58	0.5204	-0.006
Mof_C 	C 	0.7282	0.543	0.4266	-0.169
Mof_H 	H 	0.6739	0.5661	0.4174	-0.013
Mof_C 	C 	0.7682	0.5014	0.374	-0.194
Mof_H 	H 	0.7425	0.495	0.3317	0.022
Mof_C 	C 	0.8565	0.4672	0.3899	-0.175
Mof_H 	H 	0.8865	0.4389	0.3575	-0.004
Mof_Na	Na	0.9994	0.0184	0.4783	1.34
Mof_Na	Na	0.0209	0.7921	0.0372	1.301
Mof_Na	Na	0.6962	0.488	0.0064	1.553
Mof_Na	Na	0.6874	0.3443	0.8734	1.845
Mof_Na	Na	0.4831	0.2931	0.7901	1.591
Mof_Na	Na	0.7035	0.6129	0.1462	2.64
Mof_Na	Na	0.9152	0.5436	0.0852	1.129
Mof_Na	Na	0.4953	0.4333	0.9282	-1.346
Mof_O 	O 	0.7645	0.641	0.2527	-0.851
Mof_O 	O 	0.5768	0.1245	0.1743	-0.609
Mof_O 	O 	0.6968	0.2017	0.1172	-0.582
Mof_O 	O 	0.7157	0.2991	0.2203	-0.511
Mof_O 	O 	0.5809	0.2216	0.2782	-0.554
Mof_O 	O 	0.5282	0.156	0.0554	-0.521
Mof_O 	O 	0.3744	0.2138	0.0973	-0.46
Mof_O 	O 	0.4302	0.1833	0.2234	-0.529
Mof_O 	O 	0.4261	0.2665	0.3461	-0.718
Mof_O 	O 	0.3818	0.3365	0.2228	-0.507
Mof_O 	O 	0.5342	0.3734	0.2789	-0.515
Mof_O 	O 	0.4233	0.4859	0.2386	-0.5
Mof_O 	O 	0.438	0.4302	0.8109	-0.798
Mof_O 	O 	0.6652	0.4478	0.2246	-0.563
Mof_O 	O 	0.7655	0.4833	0.118	-0.983
Mof_O 	O 	0.81	0.327	0.1158	-0.594
Mof_O 	O 	0.8328	0.2172	0.015	-0.7
Mof_O 	O 	0.7569	0.3608	0.9877	-0.896
Mof_O 	O 	0.5392	0.3008	0.9057	-0.718
Mof_O 	O 	0.4089	0.2231	0.9705	-0.485
Mof_O 	O 	0.353	0.3784	0.9661	-0.89
Mof_O 	O 	0.3303	0.364	0.0991	-0.563
Mof_O 	O 	0.6507	0.2354	0.9936	-0.633
Mof_O 	O 	0.5378	0.2753	0.1604	-0.389
Mof_O 	O 	0.5037	0.4186	0.1425	-0.423
Mof_O 	O 	0.4986	0.3231	0.0438	-0.427
Mof_O 	O 	0.6438	0.3608	0.0973	-0.499
Mof_O 	O 	0.3599	0.521	0.1125	-0.791
Mof_O 	O 	0.8442	0.6589	0.1033	-0.784
Mof_O 	O 	0.3452	0.248	0.8357	-0.698
Mof_O 	O 	0.619	0.349	0.7626	-0.749
Mof_O 	O 	0.8398	0.5397	0.9782	-0.728
Mof_P 	P 	0.54608	0.34506	0.10972	0.504
Mof_Ru	Ru	0.64308	0.09098	0.08699	1.137
Mof_W 	W 	0.66303	0.20462	0.20974	1.349
Mof_W 	W 	0.45785	0.15224	0.13536	0.921
Mof_W 	W 	0.46961	0.28377	0.26769	1.273
Mof_W 	W 	0.55098	0.48802	0.24183	0.959
Mof_W 	W 	0.75774	0.4039	0.1749	0.926
Mof_W 	W 	0.74858	0.27906	0.04104	1.271
Mof_W 	W 	0.53391	0.22218	0.96272	0.916
Mof_W 	W 	0.34552	0.29956	0.02239	0.96
Mof_W 	W 	0.35448	0.43935	0.16704	0.927
Mof_C 	C 	0.6068	0.9759	0.0473	-0.178
Mof_H 	H 	0.5516	0.9549	0.0376	0.023
Mof_C 	C 	0.654	0.0204	0.9973	-0.18
Mof_H 	H 	0.6297	0.0265	0.9545	-0.002
Mof_C 	C 	0.7365	0.0524	0.0124	-0.177
Mof_H 	H 	0.7666	0.08	0.9796	0.002
Mof_C 	C 	0.7718	0.043	0.0734	-0.148
Mof_H 	H 	0.8261	0.0661	0.0826	-0.021
Mof_C 	C 	0.7318	0.0014	0.126	-0.217
Mof_H 	H 	0.7575	0.995	0.1683	0.032
Mof_C 	C 	0.6435	0.9672	0.1101	-0.157
Mof_H 	H 	0.6135	0.9389	0.1425	-0.01
Mof_Na	Na	0.5006	0.5184	0.0217	1.346
Mof_Na	Na	0.4791	0.2921	0.4628	1.302
Mof_Na	Na	0.1962	0.012	0.5064	1.572
Mof_Na	Na	0.1874	0.1557	0.3734	1.847
Mof_Na	Na	0.9831	0.2069	0.2901	1.585
Mof_Na	Na	0.2035	0.8871	0.6462	2.634
Mof_Na	Na	0.4152	0.9564	0.5852	1.125
Mof_Na	Na	0.9953	0.0667	0.4282	-1.353
Mof_O 	O 	0.2645	0.859	0.7527	-0.85
Mof_O 	O 	0.0768	0.3755	0.6743	-0.608
Mof_O 	O 	0.1968	0.2983	0.6172	-0.582
Mof_O 	O 	0.2157	0.2009	0.7203	-0.512
Mof_O 	O 	0.0809	0.2784	0.7782	-0.553
Mof_O 	O 	0.0282	0.344	0.5554	-0.52
Mof_O 	O 	0.8744	0.2862	0.5973	-0.46
Mof_O 	O 	0.9302	0.3167	0.7234	-0.529
Mof_O 	O 	0.9261	0.2335	0.8461	-0.718
Mof_O 	O 	0.8818	0.1635	0.7228	-0.507
Mof_O 	O 	0.0342	0.1266	0.7789	-0.513
Mof_O 	O 	0.9233	0.0141	0.7386	-0.503
Mof_O 	O 	0.938	0.0698	0.3109	-0.8
Mof_O 	O 	0.1652	0.0522	0.7246	-0.564
Mof_O 	O 	0.2655	0.0167	0.618	-0.983
Mof_O 	O 	0.31	0.173	0.6158	-0.594
Mof_O 	O 	0.3328	0.2828	0.515	-0.7
Mof_O 	O 	0.2569	0.1392	0.4877	-0.899
Mof_O 	O 	0.0392	0.1992	0.4057	-0.715
Mof_O 	O 	0.9089	0.2769	0.4705	-0.486
Mof_O 	O 	0.853	0.1216	0.4661	-0.891
Mof_O 	O 	0.8303	0.136	0.5991	-0.564
Mof_O 	O 	0.1507	0.2646	0.4936	-0.634
Mof_O 	O 	0.0378	0.2247	0.6604	-0.388
Mof_O 	O 	0.0037	0.0814	0.6425	-0.42
Mof_O 	O 	0.9986	0.1769	0.5438	-0.429
Mof_O 	O 	0.1438	0.1392	0.5973	-0.499
Mof_O 	O 	0.8599	0.979	0.6125	-0.789
Mof_O 	O 	0.3442	0.8411	0.6033	-0.783
Mof_O 	O 	0.8452	0.252	0.3357	-0.698
Mof_O 	O 	0.119	0.151	0.2626	-0.747
Mof_O 	O 	0.3398	0.9603	0.4782	-0.731
Mof_P 	P 	0.04608	0.15494	0.60972	0.506
Mof_Ru	Ru	0.14308	0.40902	0.58699	1.139
Mof_W 	W 	0.16303	0.29538	0.70974	1.349
Mof_W 	W 	0.95785	0.34776	0.63536	0.92
Mof_W 	W 	0.96961	0.21623	0.76769	1.269
Mof_W 	W 	0.05098	0.01198	0.74183	0.967
Mof_W 	W 	0.25774	0.0961	0.6749	0.927
Mof_W 	W 	0.24858	0.22094	0.54104	1.272
Mof_W 	W 	0.03391	0.27782	0.46272	0.919
Mof_W 	W 	0.84552	0.20044	0.52239	0.96
Mof_W 	W 	0.85448	0.06065	0.66704	0.923
Mof_C 	C 	0.1068	0.5241	0.5473	-0.164
Mof_H 	H 	0.0516	0.5451	0.5376	0.018
Mof_C 	C 	0.154	0.4796	0.4973	-0.196
Mof_H 	H 	0.1297	0.4735	0.4545	0.003
Mof_C 	C 	0.2365	0.4476	0.5124	-0.156
Mof_H 	H 	0.2666	0.42	0.4796	-0.006
Mof_C 	C 	0.2718	0.457	0.5734	-0.169
Mof_H 	H 	0.3261	0.4339	0.5826	-0.013
Mof_C 	C 	0.2318	0.4986	0.626	-0.194
Mof_H 	H 	0.2575	0.505	0.6683	0.022
Mof_C 	C 	0.1435	0.5328	0.6101	-0.175
Mof_H 	H 	0.1135	0.5611	0.6425	-0.004
Mof_Na	Na	0.0006	0.9816	0.5217	1.34
Mof_Na	Na	0.9791	0.2079	0.9628	1.301
Mof_Na	Na	0.3038	0.512	0.9936	1.553
Mof_Na	Na	0.3126	0.6557	0.1266	1.845
Mof_Na	Na	0.5169	0.7069	0.2099	1.591
Mof_Na	Na	0.2965	0.3871	0.8538	2.64
Mof_Na	Na	0.0848	0.4564	0.9148	1.129
Mof_Na	Na	0.5047	0.5667	0.0718	-1.346
Mof_O 	O 	0.2355	0.359	0.7473	-0.851
Mof_O 	O 	0.4232	0.8755	0.8257	-0.609
Mof_O 	O 	0.3032	0.7983	0.8828	-0.582
Mof_O 	O 	0.2843	0.7009	0.7797	-0.511
Mof_O 	O 	0.4191	0.7784	0.7218	-0.554
Mof_O 	O 	0.4718	0.844	0.9446	-0.521
Mof_O 	O 	0.6256	0.7862	0.9027	-0.46
Mof_O 	O 	0.5698	0.8167	0.7766	-0.529
Mof_O 	O 	0.5739	0.7335	0.6539	-0.718
Mof_O 	O 	0.6182	0.6635	0.7772	-0.507
Mof_O 	O 	0.4658	0.6266	0.7211	-0.515
Mof_O 	O 	0.5767	0.5141	0.7614	-0.5
Mof_O 	O 	0.562	0.5698	0.1891	-0.798
Mof_O 	O 	0.3348	0.5522	0.7754	-0.563
Mof_O 	O 	0.2345	0.5167	0.882	-0.983
Mof_O 	O 	0.19	0.673	0.8842	-0.594
Mof_O 	O 	0.1672	0.7828	0.985	-0.7
Mof_O 	O 	0.2431	0.6392	0.0123	-0.896
Mof_O 	O 	0.4608	0.6992	0.0943	-0.718
Mof_O 	O 	0.5911	0.7769	0.0295	-0.485
Mof_O 	O 	0.647	0.6216	0.0339	-0.89
Mof_O 	O 	0.6697	0.636	0.9009	-0.563
Mof_O 	O 	0.3493	0.7646	0.0064	-0.633
Mof_O 	O 	0.4622	0.7247	0.8396	-0.389
Mof_O 	O 	0.4963	0.5814	0.8575	-0.423
Mof_O 	O 	0.5014	0.6769	0.9562	-0.427
Mof_O 	O 	0.3562	0.6392	0.9027	-0.499
Mof_O 	O 	0.6401	0.479	0.8875	-0.791
Mof_O 	O 	0.1558	0.3411	0.8967	-0.784
Mof_O 	O 	0.6548	0.752	0.1643	-0.698
Mof_O 	O 	0.381	0.651	0.2374	-0.749
Mof_O 	O 	0.1602	0.4603	0.0218	-0.728
Mof_P 	P 	0.45392	0.65494	0.89028	0.504
Mof_Ru	Ru	0.35692	0.90902	0.91301	1.137
Mof_W 	W 	0.33697	0.79538	0.79026	1.349
Mof_W 	W 	0.54215	0.84776	0.86464	0.921
Mof_W 	W 	0.53039	0.71623	0.73231	1.273
Mof_W 	W 	0.44902	0.51198	0.75817	0.959
Mof_W 	W 	0.24226	0.5961	0.8251	0.926
Mof_W 	W 	0.25142	0.72094	0.95896	1.271
Mof_W 	W 	0.46609	0.77782	0.03728	0.916
Mof_W 	W 	0.65448	0.70044	0.97761	0.96
Mof_W 	W 	0.64552	0.56065	0.83296	0.927
Mof_C 	C 	0.3932	0.0241	0.9527	-0.178
Mof_H 	H 	0.4484	0.0451	0.9624	0.023
Mof_C 	C 	0.346	0.9796	0.0027	-0.18
Mof_H 	H 	0.3703	0.9735	0.0455	-0.002
Mof_C 	C 	0.2635	0.9476	0.9876	-0.177
Mof_H 	H 	0.2334	0.92	0.0204	0.002
Mof_C 	C 	0.2282	0.957	0.9266	-0.148
Mof_H 	H 	0.1739	0.9339	0.9174	-0.021
Mof_C 	C 	0.2682	0.9986	0.874	-0.217
Mof_H 	H 	0.2425	0.005	0.8317	0.032
Mof_C 	C 	0.3565	0.0328	0.8899	-0.157
Mof_H 	H 	0.3865	0.0611	0.8575	-0.01
Mof_Na	Na	0.4994	0.4816	0.9783	1.346
Mof_Na	Na	0.5209	0.7079	0.5372	1.302
_end
