# CIF file generated by openbabel 3.1.0, see https://openbabel.org
data_I
_chemical_name_common 'image0'
_cell_length_a 7.5824
_cell_length_b 17.7713
_cell_length_c 6.4177
_cell_angle_alpha 90
_cell_angle_beta 91.1585
_cell_angle_gamma 90
_space_group_name_H-M_alt 'P 1'
_space_group_name_Hall 'P 1'
loop_
    _symmetry_equiv_pos_as_xyz
    x,y,z
loop_
    _atom_site_label
    _atom_site_type_symbol
    _atom_site_fract_x
    _atom_site_fract_y
    _atom_site_fract_z
    _atom_site_occupancy
    Cl1      Cl       0.48380    0.61608    0.26370    1.000
    Ca1      Ca       0.50026    0.44624    0.24070    1.000
    O1       O        0.69710    0.50460    0.03190    1.000
    C1       C        0.73825    0.27771    0.30626    1.000
    N1       N        0.72829    0.24018    0.48468    1.000
    O2       O        0.70416    0.34339    0.27229    1.000
    C2       C        0.80883    0.22629    0.12200    1.000
    N2       N        0.83593    0.26510    0.95213    1.000
    O3       O        0.82766    0.15904    0.15490    1.000
    Cl2      Cl       0.01620    0.11608    0.73630    1.000
    Ca2      Ca       0.99974    0.94624    0.75930    1.000
    O4       O        0.80290    0.00460    0.96810    1.000
    C3       C        0.76175    0.77771    0.69374    1.000
    N3       N        0.77171    0.74018    0.51532    1.000
    O5       O        0.79584    0.84339    0.72771    1.000
    C4       C        0.69117    0.72629    0.87800    1.000
    N4       N        0.66407    0.76510    0.04787    1.000
    O6       O        0.67234    0.65904    0.84510    1.000
    Cl3      Cl       0.51620    0.38392    0.73630    1.000
    Ca3      Ca       0.49974    0.55376    0.75930    1.000
    O7       O        0.30290    0.49540    0.96810    1.000
    C5       C        0.26175    0.72229    0.69374    1.000
    N5       N        0.27171    0.75982    0.51532    1.000
    O8       O        0.29584    0.65661    0.72771    1.000
    C6       C        0.19117    0.77371    0.87800    1.000
    N6       N        0.16407    0.73490    0.04787    1.000
    O9       O        0.17234    0.84096    0.84510    1.000
    Cl4      Cl       0.98380    0.88392    0.26370    1.000
    Ca4      Ca       0.00026    0.05376    0.24070    1.000
    O10      O        0.19710    0.99540    0.03190    1.000
    C7       C        0.23825    0.22229    0.30626    1.000
    N7       N        0.22829    0.25982    0.48468    1.000
    O11      O        0.20416    0.15661    0.27229    1.000
    C8       C        0.30883    0.27371    0.12200    1.000
    N8       N        0.33593    0.23490    0.95213    1.000
    O12      O        0.32766    0.34096    0.15490    1.000
