data_functionalizedCrystal
_audit_creation_method	'EQeq! by Chris Wilmer'
_symmetry_space_group_name_H-M	'P1'
_symmetry_Int_Tables_number	1
_symmetry_cell_setting	triclinic
loop_
_symmetry_equiv_pos_as_xyz
  x,y,z
_cell_length_a	11.3416
_cell_length_b	14.7404
_cell_length_c	15.1979
_cell_angle_alpha	90
_cell_angle_beta	90
_cell_angle_gamma	90
loop_
_atom_site_label
_atom_site_type_symbol
_atom_site_fract_x
_atom_site_fract_y
_atom_site_fract_z
_atom_site_charge
Mof_Mn	Mn	0.19392	0.69358	0.52249	0.661
Mof_Mn	Mn	0.69392	0.80642	0.52249	0.662
Mof_Mn	Mn	0.69392	0.80642	0.97751	0.661
Mof_Mn	Mn	0.30608	0.19358	0.02249	0.661
Mof_Mn	Mn	0.80608	0.30642	0.47751	0.661
Mof_Mn	Mn	0.19392	0.69358	0.97751	0.661
Mof_Mn	Mn	0.30608	0.19358	0.47751	0.662
Mof_Mn	Mn	0.80608	0.30642	0.02249	0.661
Mof_H 	H 	0.2486	0.0027	0.174	0.043
Mof_H 	H 	0.4809	0.7042	0.8256	0.037
Mof_H 	H 	0.9809	0.7958	0.8256	0.037
Mof_H 	H 	0.4809	0.7042	0.6744	0.037
Mof_H 	H 	0.2486	0.0027	0.326	0.043
Mof_H 	H 	0.7514	0.9973	0.826	0.043
Mof_H 	H 	0.7486	0.4973	0.326	0.043
Mof_H 	H 	0.5191	0.2958	0.3256	0.037
Mof_H 	H 	0.7486	0.4973	0.174	0.043
Mof_H 	H 	0.2514	0.5027	0.674	0.043
Mof_H 	H 	0.9809	0.7958	0.6744	0.037
Mof_H 	H 	0.0191	0.2042	0.3256	0.037
Mof_H 	H 	0.5191	0.2958	0.1744	0.037
Mof_H 	H 	0.7514	0.9973	0.674	0.043
Mof_H 	H 	0.0191	0.2042	0.1744	0.037
Mof_H 	H 	0.2514	0.5027	0.826	0.043
Mof_W 	W 	0.63272	0.047	0.25	0.514
Mof_W 	W 	0.36728	0.953	0.75	0.514
Mof_W 	W 	0.86728	0.547	0.75	0.517
Mof_W 	W 	0.13272	0.453	0.25	0.517
Mof_C 	C 	0.7147	0.14557	0.16404	-0.027
Mof_C 	C 	0.2853	0.85443	0.83596	-0.027
Mof_C 	C 	0.2147	0.35443	0.33596	-0.027
Mof_C 	C 	0.001	0.39594	0.1636	-0.03
Mof_C 	C 	0.3436	0.0408	0.86196	-0.03
Mof_C 	C 	0.2048	0.04571	0.2047	0
Mof_C 	C 	0.4313	0.66517	0.70502	0.001
Mof_C 	C 	0.7952	0.95429	0.7953	0
Mof_C 	C 	0.501	0.10406	0.3364	-0.031
Mof_C 	C 	0.9313	0.83483	0.70502	0.001
Mof_C 	C 	0.7853	0.64557	0.66404	-0.027
Mof_C 	C 	0.499	0.89594	0.8364	-0.031
Mof_C 	C 	0.1564	0.5408	0.13804	-0.032
Mof_C 	C 	0.6834	0.5059	0.75	-0.039
Mof_C 	C 	0.8436	0.4592	0.86196	-0.032
Mof_C 	C 	0.5687	0.33483	0.29498	0.001
Mof_C 	C 	0.5081	0.0522	0.75	-0.044
Mof_C 	C 	0.6564	0.9592	0.13804	-0.03
Mof_C 	C 	0.2952	0.54571	0.7047	0
Mof_C 	C 	0.7952	0.95429	0.7047	-0
Mof_C 	C 	0.7147	0.14557	0.33596	-0.027
Mof_C 	C 	0.0687	0.16517	0.29498	0.001
Mof_C 	C 	0.5687	0.33483	0.20502	0.001
Mof_C 	C 	0.8166	0.0059	0.25	-0.044
Mof_C 	C 	0.9919	0.5522	0.25	-0.045
Mof_C 	C 	0.9313	0.83483	0.79498	0.001
Mof_C 	C 	0.2853	0.85443	0.66404	-0.027
Mof_C 	C 	0.499	0.89594	0.6636	-0.031
Mof_C 	C 	0.501	0.10406	0.1636	-0.031
Mof_C 	C 	0.8436	0.4592	0.63804	-0.033
Mof_C 	C 	0.2147	0.35443	0.16404	-0.027
Mof_C 	C 	0.999	0.60406	0.6636	-0.03
Mof_C 	C 	0.1834	0.9941	0.75	-0.044
Mof_C 	C 	0.4313	0.66517	0.79498	0.001
Mof_C 	C 	0.7048	0.45429	0.2047	0
Mof_C 	C 	0.6564	0.9592	0.36196	-0.031
Mof_C 	C 	0.7853	0.64557	0.83596	-0.027
Mof_C 	C 	0.0687	0.16517	0.20502	0.001
Mof_C 	C 	0.2048	0.04571	0.2953	-0
Mof_C 	C 	0.7048	0.45429	0.2953	0
Mof_C 	C 	0.999	0.60406	0.8364	-0.03
Mof_C 	C 	0.001	0.39594	0.3364	-0.03
Mof_C 	C 	0.4919	0.9478	0.25	-0.044
Mof_C 	C 	0.2952	0.54571	0.7953	0
Mof_C 	C 	0.3436	0.0408	0.63804	-0.031
Mof_C 	C 	0.0081	0.4478	0.75	-0.045
Mof_C 	C 	0.3166	0.4941	0.25	-0.039
Mof_C 	C 	0.1564	0.5408	0.36196	-0.033
Mof_N 	N 	0.64116	0.39188	0.16052	-0.053
Mof_N 	N 	0.4307	0.13312	0.38331	-0.164
Mof_N 	N 	0.0865	0.0172	0.75	-0.087
Mof_N 	N 	0.14116	0.10812	0.33948	-0.053
Mof_N 	N 	0.7556	0.19966	0.11824	-0.165
Mof_N 	N 	0.9175	0.605	0.25	-0.108
Mof_N 	N 	0.0825	0.395	0.75	-0.108
Mof_N 	N 	0.4307	0.13312	0.11669	-0.164
Mof_N 	N 	0.5825	0.105	0.75	-0.109
Mof_N 	N 	0.2444	0.80034	0.61824	-0.165
Mof_N 	N 	0.35884	0.60812	0.83948	-0.053
Mof_N 	N 	0.6661	0.91182	0.42201	-0.17
Mof_N 	N 	0.2556	0.30034	0.38176	-0.165
Mof_N 	N 	0.85884	0.89188	0.83948	-0.053
Mof_N 	N 	0.5693	0.86688	0.61669	-0.164
Mof_N 	N 	0.7444	0.69966	0.88176	-0.165
Mof_N 	N 	0.9135	0.9828	0.25	-0.087
Mof_N 	N 	0.14116	0.10812	0.16052	-0.053
Mof_N 	N 	0.3339	0.08818	0.57799	-0.17
Mof_N 	N 	0.1661	0.58818	0.07799	-0.169
Mof_N 	N 	0.5865	0.4828	0.75	-0.09
Mof_N 	N 	0.4135	0.5172	0.25	-0.09
Mof_N 	N 	0.2556	0.30034	0.11824	-0.165
Mof_N 	N 	0.85884	0.89188	0.66052	-0.053
Mof_N 	N 	0.2444	0.80034	0.88176	-0.165
Mof_N 	N 	0.9307	0.36688	0.11669	-0.164
Mof_N 	N 	0.5693	0.86688	0.88331	-0.164
Mof_N 	N 	0.8339	0.41182	0.57799	-0.17
Mof_N 	N 	0.0693	0.63312	0.88331	-0.164
Mof_N 	N 	0.0693	0.63312	0.61669	-0.165
Mof_N 	N 	0.4175	0.895	0.25	-0.109
Mof_N 	N 	0.35884	0.60812	0.66052	-0.053
Mof_N 	N 	0.1661	0.58818	0.42201	-0.17
Mof_N 	N 	0.64116	0.39188	0.33948	-0.053
Mof_N 	N 	0.9307	0.36688	0.38331	-0.165
Mof_N 	N 	0.7444	0.69966	0.61824	-0.165
Mof_N 	N 	0.6661	0.91182	0.07799	-0.169
Mof_N 	N 	0.7556	0.19966	0.38176	-0.165
Mof_N 	N 	0.3339	0.08818	0.92201	-0.169
Mof_N 	N 	0.8339	0.41182	0.92201	-0.169
Mof_O 	O 	0.8488	0.88519	0.9251	-0.218
Mof_O 	O 	0.3488	0.61481	0.5749	-0.218
Mof_O 	O 	0.1512	0.11481	0.4251	-0.218
Mof_O 	O 	0.1512	0.11481	0.0749	-0.218
Mof_O 	O 	0.3488	0.61481	0.9251	-0.217
Mof_O 	O 	0.8488	0.88519	0.5749	-0.218
Mof_O 	O 	0.6512	0.38519	0.4251	-0.218
Mof_O 	O 	0.6512	0.38519	0.0749	-0.217
_end
