data_functionalizedCrystal
_audit_creation_method	'EQeq! by Chris Wilmer'
_symmetry_space_group_name_H-M	'P1'
_symmetry_Int_Tables_number	1
_symmetry_cell_setting	triclinic
loop_
_symmetry_equiv_pos_as_xyz
  x,y,z
_cell_length_a	6.6285
_cell_length_b	16.7121
_cell_length_c	12.853
_cell_angle_alpha	90
_cell_angle_beta	90
_cell_angle_gamma	90
loop_
_atom_site_label
_atom_site_type_symbol
_atom_site_fract_x
_atom_site_fract_y
_atom_site_fract_z
_atom_site_charge
Mof_O 	O 	0.16496	0.16866	0.84287	-1.507
Mof_C 	C 	0.8097	0.03598	0.9682	0.027
Mof_O 	O 	0.66496	0.66866	0.34287	-1.499
Mof_C 	C 	0.3097	0.53598	0.4682	0.075
Mof_O 	O 	0.83504	0.33134	0.84287	-1.53
Mof_C 	C 	0.1903	0.46402	0.9682	0.061
Mof_O 	O 	0.33504	0.83134	0.34287	-1.499
Mof_C 	C 	0.6903	0.96402	0.4682	0.053
Mof_O 	O 	0.83504	0.66866	0.15713	-1.53
Mof_C 	C 	0.1903	0.53598	0.0318	0.061
Mof_O 	O 	0.33504	0.16866	0.65713	-1.499
Mof_C 	C 	0.6903	0.03598	0.5318	0.053
Mof_O 	O 	0.16496	0.83134	0.15713	-1.507
Mof_C 	C 	0.8097	0.96402	0.0318	0.027
Mof_O 	O 	0.66496	0.33134	0.65713	-1.499
Mof_C 	C 	0.3097	0.46402	0.5318	0.075
Mof_O 	O 	0.83504	0.83134	0.15713	-1.53
Mof_C 	C 	0.1903	0.96402	0.0318	0.061
Mof_O 	O 	0.33504	0.33134	0.65713	-1.499
Mof_C 	C 	0.6903	0.46402	0.5318	0.053
Mof_O 	O 	0.16496	0.66866	0.15713	-1.507
Mof_C 	C 	0.8097	0.53598	0.0318	0.027
Mof_O 	O 	0.66496	0.16866	0.65713	-1.499
Mof_C 	C 	0.3097	0.03598	0.5318	0.075
Mof_O 	O 	0.16496	0.33134	0.84287	-1.507
Mof_C 	C 	0.8097	0.46402	0.9682	0.027
Mof_O 	O 	0.66496	0.83134	0.34287	-1.499
Mof_C 	C 	0.3097	0.96402	0.4682	0.075
Mof_O 	O 	0.83504	0.16866	0.84287	-1.53
Mof_C 	C 	0.1903	0.03598	0.9682	0.061
Mof_O 	O 	0.33504	0.66866	0.34287	-1.499
Mof_C 	C 	0.6903	0.53598	0.4682	0.053
Mof_Al	Al	0.25	0.25	0.75	6.371
Mof_Al	Al	0.75	0.25	0.75	6.28
Mof_Al	Al	0.75	0.75	0.25	6.28
Mof_Al	Al	0.25	0.75	0.25	6.371
Mof_O 	O 	-1.27466e-32	0.25	0.6854	-2.193
Mof_O 	O 	0.5	0.75	0.1854	-2.221
Mof_O 	O 	-1.101e-32	0.75	0.3146	-2.193
Mof_O 	O 	0.5	0.25	0.8146	-2.221
Mof_C 	C 	-1.0836e-32	0.0622	0.9482	-0.257
Mof_C 	C 	6.34114e-33	0.1358	0.8722	1.15
Mof_C 	C 	0.5	0.5622	0.4482	-0.298
Mof_C 	C 	0.5	0.6358	0.3722	1.105
Mof_C 	C 	-2.85656e-32	0.4378	0.9482	-0.256
Mof_C 	C 	2.40708e-32	0.3642	0.8722	1.15
Mof_C 	C 	0.5	0.9378	0.4482	-0.298
Mof_C 	C 	0.5	0.8642	0.3722	1.105
Mof_C 	C 	3.766e-34	0.5622	0.0518	-0.256
Mof_C 	C 	3.14534e-33	0.6358	0.1278	1.15
Mof_C 	C 	0.5	0.0622	0.5518	-0.298
Mof_C 	C 	0.5	0.1358	0.6278	1.105
Mof_C 	C 	-1.7353e-32	0.9378	0.0518	-0.257
Mof_C 	C 	3.14534e-33	0.8642	0.1278	1.15
Mof_C 	C 	0.5	0.4378	0.5518	-0.298
Mof_C 	C 	0.5	0.3642	0.6278	1.105
_end
