# CIF file generated by openbabel 3.1.0, see https://openbabel.org
data_I
_chemical_name_common 'image0'
_cell_length_a 15.074
_cell_length_b 24.9818
_cell_length_c 29.6125
_cell_angle_alpha 90
_cell_angle_beta 107.801
_cell_angle_gamma 90
_space_group_name_H-M_alt 'P 1'
_space_group_name_Hall 'P 1'
loop_
    _symmetry_equiv_pos_as_xyz
    x,y,z
loop_
    _atom_site_label
    _atom_site_type_symbol
    _atom_site_fract_x
    _atom_site_fract_y
    _atom_site_fract_z
    _atom_site_occupancy
    Tb1      Tb       0.96453    0.57990    0.51385    1.000
    Tb2      Tb       0.95628    0.90056    0.53456    1.000
    Tb3      Tb       0.03896    0.74163    0.49543    1.000
    I1       I        0.67522    0.56667    0.68517    1.000
    I2       I        0.47961    0.64433    0.76343    1.000
    I3       I        0.74229    0.71965    0.77156    1.000
    I4       I        0.51320    0.71173    0.62817    1.000
    I5       I        0.49934    0.81086    0.74238    1.000
    I6       I        0.30946    0.74811    0.82972    1.000
    I7       I        0.49103    0.89177    0.87495    1.000
    I8       I        0.25514    0.89740    0.73655    1.000
    I9       I        0.51297    0.97779    0.75104    1.000
    I10      I        0.69633    0.90915    0.66384    1.000
    I11      I        0.77551    0.05473    0.75311    1.000
    I12      I        0.52969    0.05180    0.61800    1.000
    Cu1      Cu       0.52060    0.62222    0.68214    1.000
    Cu2      Cu       0.67927    0.67053    0.68768    1.000
    Cu3      Cu       0.65305    0.62281    0.76005    1.000
    Cu4      Cu       0.56450    0.71851    0.72280    1.000
    Cu5      Cu       0.32690    0.79799    0.74889    1.000
    Cu6      Cu       0.46338    0.79443    0.82640    1.000
    Cu7      Cu       0.31731    0.85314    0.82327    1.000
    Cu8      Cu       0.43339    0.89446    0.78229    1.000
    Cu9      Cu       0.53976    0.95687    0.66594    1.000
    Cu10     Cu       0.68264    0.96015    0.74308    1.000
    Cu11     Cu       0.70513    0.01476    0.66538    1.000
    Cu12     Cu       0.40553    0.55484    0.78877    1.000
    O1       O        0.09610    0.52891    0.54122    1.000
    O2       O        0.17735    0.45668    0.53506    1.000
    O3       O        0.01801    0.93354    0.94883    1.000
    O4       O        0.07770    0.01394    0.93992    1.000
    O5       O        0.08760    0.65964    0.54186    1.000
    O6       O        0.03443    0.61546    0.59268    1.000
    O7       O        0.91931    0.84291    0.96337    1.000
    O8       O        0.97669    0.79469    0.91653    1.000
    O9       O        0.98121    0.74246    0.56038    1.000
    O10      O        0.91587    0.82173    0.56715    1.000
    O11      O        0.17382    0.78352    0.54606    1.000
    O12      O        0.09413    0.85112    0.56277    1.000
    O13      O        0.92649    0.18703    0.54749    1.000
    O14      O        0.98587    0.10967    0.53118    1.000
    O15      O        0.89816    0.71739    0.96711    1.000
    O16      O        0.82671    0.64219    0.97767    1.000
    O17      O        0.93617    0.46857    0.94384    1.000
    O18      O        0.88314    0.52881    0.98534    1.000
    N1       N        0.41330    0.57769    0.64366    1.000
    N2       N        0.23350    0.88818    0.85620    1.000
    N3       N        0.25760    0.74597    0.69831    1.000
    N4       N        0.75270    0.91322    0.79859    1.000
    N5       N        0.76680    0.70227    0.65628    1.000
    N6       N        0.42480    0.91317    0.63198    1.000
    N7       N        0.78530    0.05273    0.63057    1.000
    N8       N        0.57410    0.75322    0.86640    1.000
    N9       N        0.71850    0.57786    0.81651    1.000
    C1       C        0.32930    0.58426    0.64952    1.000
    H1       H        0.32430    0.60640    0.67470    1.000
    C2       C        0.24950    0.56020    0.62058    1.000
    H2       H        0.19100    0.56620    0.62560    1.000
    C3       C        0.25620    0.52723    0.58422    1.000
    C4       C        0.34330    0.51758    0.57938    1.000
    H3       H        0.35060    0.49360    0.55590    1.000
    C5       C        0.41970    0.54366    0.60952    1.000
    H4       H        0.47930    0.53730    0.60590    1.000
    C6       C        0.17030    0.50239    0.55111    1.000
    C7       C        0.17660    0.86040    0.87376    1.000
    H5       H        0.17330    0.82270    0.86930    1.000
    C8       C        0.12240    0.88355    0.89813    1.000
    H6       H        0.08380    0.86180    0.91070    1.000
    C9       C        0.12390    0.93835    0.90448    1.000
    C10      C        0.18040    0.96789    0.88480    1.000
    H7       H        0.18200    0.00580    0.88720    1.000
    C11      C        0.23430    0.94169    0.86150    1.000
    H8       H        0.27370    0.96240    0.84860    1.000
    C12      C        0.06800    0.96427    0.93313    1.000
    C13      C        0.28210    0.73742    0.65917    1.000
    H9       H        0.33770    0.75350    0.65700    1.000
    C14      C        0.23020    0.70604    0.62143    1.000
    H10      H        0.24990    0.70120    0.59410    1.000
    C15      C        0.14920    0.68194    0.62441    1.000
    C16      C        0.12610    0.68831    0.66605    1.000
    H11      H        0.07340    0.67040    0.67010    1.000
    C17      C        0.18020    0.72083    0.70140    1.000
    H12      H        0.16240    0.72580    0.72920    1.000
    C18      C        0.08590    0.65019    0.58401    1.000
    C19      C        0.73030    0.91300    0.83906    1.000
    H13      H        0.67590    0.93160    0.84000    1.000
    C20      C        0.78350    0.88670    0.87973    1.000
    H14      H        0.76530    0.88730    0.90770    1.000
    C21      C        0.86320    0.85957    0.87903    1.000
    C22      C        0.88430    0.85728    0.83650    1.000
    H15      H        0.93620    0.83720    0.83410    1.000
    C23      C        0.82820    0.88481    0.79783    1.000
    H16      H        0.84370    0.88360    0.76910    1.000
    C24      C        0.92450    0.83079    0.92230    1.000
    C25      C        0.82450    0.67276    0.63999    1.000
    H17      H        0.82680    0.63530    0.64560    1.000
    C26      C        0.88090    0.69378    0.61543    1.000
    H18      H        0.92100    0.67130    0.60460    1.000
    C27      C        0.87770    0.74822    0.60691    1.000
    C28      C        0.82240    0.78003    0.62576    1.000
    H19      H        0.82180    0.81780    0.62200    1.000
    C29      C        0.76810    0.75608    0.65009    1.000
    H20      H        0.73040    0.77800    0.66300    1.000
    C30      C        0.92980    0.77306    0.57592    1.000
    C31      C        0.42570    0.86584    0.61020    1.000
    H21      H        0.48400    0.85150    0.61020    1.000
    C32      C        0.34530    0.83706    0.58773    1.000
    H22      H        0.34900    0.80410    0.57240    1.000
    C33      C        0.25920    0.85741    0.58807    1.000
    C34      C        0.25840    0.90534    0.61141    1.000
    H23      H        0.20110    0.92000    0.61280    1.000
    C35      C        0.34120    0.93183    0.63274    1.000
    H24      H        0.33920    0.96460    0.64860    1.000
    C36      C        0.16910    0.82838    0.56392    1.000
    C37      C        0.78210    0.10685    0.62685    1.000
    H25      H        0.74530    0.12620    0.64220    1.000
    C38      C        0.83030    0.13507    0.60169    1.000
    H26      H        0.82610    0.17300    0.59980    1.000
    C39      C        0.88500    0.10752    0.57903    1.000
    C40      C        0.88970    0.05213    0.58356    1.000
    H27      H        0.92680    0.03190    0.56890    1.000
    C41      C        0.84000    0.02668    0.60956    1.000
    H28      H        0.84490    0.98890    0.61280    1.000
    C42      C        0.93730    0.13678    0.55023    1.000
    C43      C        0.65850    0.76950    0.86560    1.000
    H29      H        0.66180    0.79680    0.84380    1.000
    C44      C        0.74030    0.74863    0.89469    1.000
    H30      H        0.79840    0.76150    0.89280    1.000
    C45      C        0.73790    0.70889    0.92663    1.000
    C46      C        0.65130    0.68998    0.92656    1.000
    H31      H        0.64680    0.66160    0.94710    1.000
    C47      C        0.57140    0.71277    0.89625    1.000
    H32      H        0.51250    0.69950    0.89650    1.000
    C48      C        0.82780    0.68718    0.95986    1.000
    C49      C        0.78970    0.54504    0.81783    1.000
    H33      H        0.80260    0.53760    0.78900    1.000
    C50      C        0.84550    0.52138    0.85910    1.000
    H34      H        0.89510    0.49830    0.85840    1.000
    C51      C        0.82750    0.53208    0.90133    1.000
    C52      C        0.75180    0.56400    0.90010    1.000
    H35      H        0.73580    0.57050    0.92830    1.000
    C53      C        0.69930    0.58643    0.85734    1.000
    H36      H        0.64800    0.60870    0.85700    1.000
    C54      C        0.88800    0.50807    0.94751    1.000
    Tb4      Tb       0.03547    0.07990    0.98615    1.000
    Tb5      Tb       0.04372    0.40056    0.96544    1.000
    Tb6      Tb       0.96103    0.24163    0.00457    1.000
    I13      I        0.32478    0.06667    0.81483    1.000
    I14      I        0.52039    0.14433    0.73657    1.000
    I15      I        0.25771    0.21965    0.72844    1.000
    I16      I        0.48680    0.21173    0.87183    1.000
    I17      I        0.50066    0.31086    0.75762    1.000
    I18      I        0.69054    0.24811    0.67028    1.000
    I19      I        0.50897    0.39177    0.62505    1.000
    I20      I        0.74486    0.39740    0.76345    1.000
    I21      I        0.48703    0.47779    0.74896    1.000
    I22      I        0.30367    0.40915    0.83616    1.000
    I23      I        0.22449    0.55473    0.74689    1.000
    I24      I        0.47031    0.55180    0.88200    1.000
    Cu13     Cu       0.47940    0.12222    0.81786    1.000
    Cu14     Cu       0.32073    0.17053    0.81232    1.000
    Cu15     Cu       0.34695    0.12281    0.73995    1.000
    Cu16     Cu       0.43550    0.21851    0.77720    1.000
    Cu17     Cu       0.67310    0.29799    0.75111    1.000
    Cu18     Cu       0.53662    0.29443    0.67360    1.000
    Cu19     Cu       0.68269    0.35314    0.67673    1.000
    Cu20     Cu       0.56661    0.39446    0.71770    1.000
    Cu21     Cu       0.46024    0.45687    0.83406    1.000
    Cu22     Cu       0.31736    0.46015    0.75692    1.000
    Cu23     Cu       0.29487    0.51476    0.83461    1.000
    Cu24     Cu       0.59447    0.05484    0.71123    1.000
    O19      O        0.90390    0.02891    0.95878    1.000
    O20      O        0.82265    0.95668    0.96494    1.000
    O21      O        0.98199    0.43354    0.55117    1.000
    O22      O        0.92230    0.51394    0.56008    1.000
    O23      O        0.91240    0.15964    0.95814    1.000
    O24      O        0.96557    0.11546    0.90732    1.000
    O25      O        0.08069    0.34291    0.53663    1.000
    O26      O        0.02331    0.29469    0.58347    1.000
    O27      O        0.01879    0.24246    0.93962    1.000
    O28      O        0.08413    0.32173    0.93285    1.000
    O29      O        0.82618    0.28352    0.95394    1.000
    O30      O        0.90587    0.35112    0.93723    1.000
    O31      O        0.07351    0.68703    0.95251    1.000
    O32      O        0.01413    0.60967    0.96882    1.000
    O33      O        0.10184    0.21739    0.53289    1.000
    O34      O        0.17329    0.14219    0.52233    1.000
    O35      O        0.06383    0.96857    0.55616    1.000
    O36      O        0.11686    0.02881    0.51466    1.000
    N10      N        0.58670    0.07769    0.85634    1.000
    N11      N        0.76650    0.38818    0.64380    1.000
    N12      N        0.74240    0.24597    0.80169    1.000
    N13      N        0.24730    0.41322    0.70141    1.000
    N14      N        0.23320    0.20227    0.84372    1.000
    N15      N        0.57520    0.41317    0.86802    1.000
    N16      N        0.21470    0.55273    0.86943    1.000
    N17      N        0.42590    0.25322    0.63360    1.000
    N18      N        0.28150    0.07786    0.68349    1.000
    C55      C        0.67070    0.08426    0.85048    1.000
    H37      H        0.67570    0.10640    0.82530    1.000
    C56      C        0.75050    0.06020    0.87942    1.000
    H38      H        0.80900    0.06620    0.87440    1.000
    C57      C        0.74380    0.02723    0.91578    1.000
    C58      C        0.65670    0.01758    0.92062    1.000
    H39      H        0.64940    0.99360    0.94410    1.000
    C59      C        0.58030    0.04366    0.89048    1.000
    H40      H        0.52070    0.03730    0.89410    1.000
    C60      C        0.82970    0.00239    0.94889    1.000
    C61      C        0.82340    0.36040    0.62624    1.000
    H41      H        0.82670    0.32270    0.63070    1.000
    C62      C        0.87760    0.38355    0.60187    1.000
    H42      H        0.91620    0.36180    0.58930    1.000
    C63      C        0.87610    0.43835    0.59552    1.000
    C64      C        0.81960    0.46789    0.61520    1.000
    H43      H        0.81800    0.50580    0.61280    1.000
    C65      C        0.76570    0.44169    0.63850    1.000
    H44      H        0.72630    0.46240    0.65140    1.000
    C66      C        0.93200    0.46427    0.56687    1.000
    C67      C        0.71790    0.23742    0.84083    1.000
    H45      H        0.66230    0.25350    0.84300    1.000
    C68      C        0.76980    0.20604    0.87857    1.000
    H46      H        0.75010    0.20120    0.90590    1.000
    C69      C        0.85080    0.18194    0.87559    1.000
    C70      C        0.87390    0.18831    0.83395    1.000
    H47      H        0.92660    0.17040    0.82990    1.000
    C71      C        0.81980    0.22083    0.79860    1.000
    H48      H        0.83760    0.22580    0.77080    1.000
    C72      C        0.91410    0.15019    0.91599    1.000
    C73      C        0.26970    0.41300    0.66094    1.000
    H49      H        0.32410    0.43160    0.66000    1.000
    C74      C        0.21650    0.38670    0.62027    1.000
    H50      H        0.23470    0.38730    0.59230    1.000
    C75      C        0.13680    0.35957    0.62097    1.000
    C76      C        0.11570    0.35728    0.66350    1.000
    H51      H        0.06380    0.33720    0.66590    1.000
    C77      C        0.17180    0.38481    0.70217    1.000
    H52      H        0.15630    0.38360    0.73090    1.000
    C78      C        0.07550    0.33079    0.57770    1.000
    C79      C        0.17550    0.17276    0.86001    1.000
    H53      H        0.17320    0.13530    0.85440    1.000
    C80      C        0.11910    0.19378    0.88457    1.000
    H54      H        0.07900    0.17130    0.89540    1.000
    C81      C        0.12230    0.24822    0.89309    1.000
    C82      C        0.17760    0.28003    0.87424    1.000
    H55      H        0.17820    0.31780    0.87800    1.000
    C83      C        0.23190    0.25608    0.84991    1.000
    H56      H        0.26960    0.27800    0.83700    1.000
    C84      C        0.07020    0.27306    0.92408    1.000
    C85      C        0.57430    0.36584    0.88980    1.000
    H57      H        0.51600    0.35150    0.88980    1.000
    C86      C        0.65470    0.33706    0.91227    1.000
    H58      H        0.65100    0.30410    0.92760    1.000
    C87      C        0.74080    0.35741    0.91193    1.000
    C88      C        0.74160    0.40534    0.88859    1.000
    H59      H        0.79890    0.42000    0.88720    1.000
    C89      C        0.65880    0.43183    0.86726    1.000
    H60      H        0.66080    0.46460    0.85140    1.000
    C90      C        0.83090    0.32838    0.93608    1.000
    C91      C        0.21790    0.60685    0.87315    1.000
    H61      H        0.25470    0.62620    0.85780    1.000
    C92      C        0.16970    0.63507    0.89831    1.000
    H62      H        0.17390    0.67300    0.90020    1.000
    C93      C        0.11500    0.60752    0.92097    1.000
    C94      C        0.11030    0.55213    0.91644    1.000
    H63      H        0.07320    0.53190    0.93110    1.000
    C95      C        0.16000    0.52668    0.89044    1.000
    H64      H        0.15510    0.48890    0.88720    1.000
    C96      C        0.06270    0.63678    0.94977    1.000
    C97      C        0.34150    0.26950    0.63440    1.000
    H65      H        0.33820    0.29680    0.65620    1.000
    C98      C        0.25970    0.24863    0.60531    1.000
    H66      H        0.20160    0.26150    0.60720    1.000
    C99      C        0.26210    0.20889    0.57337    1.000
    C100     C        0.34870    0.18998    0.57344    1.000
    H67      H        0.35320    0.16160    0.55290    1.000
    C101     C        0.42860    0.21277    0.60375    1.000
    H68      H        0.48750    0.19950    0.60350    1.000
    C102     C        0.17220    0.18718    0.54014    1.000
    C103     C        0.21030    0.04504    0.68217    1.000
    H69      H        0.19740    0.03760    0.71100    1.000
    C104     C        0.15450    0.02138    0.64090    1.000
    H70      H        0.10490    0.99830    0.64160    1.000
    C105     C        0.17250    0.03208    0.59867    1.000
    C106     C        0.24820    0.06400    0.59990    1.000
    H71      H        0.26420    0.07050    0.57170    1.000
    C107     C        0.30070    0.08643    0.64266    1.000
    H72      H        0.35200    0.10870    0.64300    1.000
    C108     C        0.11200    0.00807    0.55249    1.000
    Tb7      Tb       0.03547    0.42010    0.48615    1.000
    Tb8      Tb       0.04372    0.09944    0.46544    1.000
    Tb9      Tb       0.96103    0.25837    0.50457    1.000
    I25      I        0.32478    0.43333    0.31483    1.000
    I26      I        0.52039    0.35567    0.23657    1.000
    I27      I        0.25771    0.28035    0.22844    1.000
    I28      I        0.48680    0.28827    0.37183    1.000
    I29      I        0.50066    0.18914    0.25762    1.000
    I30      I        0.69054    0.25189    0.17028    1.000
    I31      I        0.50897    0.10823    0.12505    1.000
    I32      I        0.74486    0.10260    0.26345    1.000
    I33      I        0.48703    0.02221    0.24896    1.000
    I34      I        0.30367    0.09085    0.33616    1.000
    I35      I        0.22449    0.94527    0.24689    1.000
    I36      I        0.47031    0.94820    0.38200    1.000
    Cu25     Cu       0.47940    0.37778    0.31786    1.000
    Cu26     Cu       0.32073    0.32947    0.31232    1.000
    Cu27     Cu       0.34695    0.37719    0.23995    1.000
    Cu28     Cu       0.43550    0.28149    0.27720    1.000
    Cu29     Cu       0.67310    0.20201    0.25111    1.000
    Cu30     Cu       0.53662    0.20557    0.17360    1.000
    Cu31     Cu       0.68269    0.14686    0.17673    1.000
    Cu32     Cu       0.56661    0.10554    0.21770    1.000
    Cu33     Cu       0.46024    0.04313    0.33406    1.000
    Cu34     Cu       0.31736    0.03985    0.25692    1.000
    Cu35     Cu       0.29487    0.98524    0.33461    1.000
    Cu36     Cu       0.59447    0.44516    0.21123    1.000
    O37      O        0.90390    0.47109    0.45878    1.000
    O38      O        0.82265    0.54332    0.46494    1.000
    O39      O        0.98199    0.06646    0.05117    1.000
    O40      O        0.92230    0.98606    0.06008    1.000
    O41      O        0.91240    0.34036    0.45814    1.000
    O42      O        0.96557    0.38454    0.40732    1.000
    O43      O        0.08069    0.15709    0.03663    1.000
    O44      O        0.02331    0.20531    0.08347    1.000
    O45      O        0.01879    0.25754    0.43962    1.000
    O46      O        0.08413    0.17827    0.43285    1.000
    O47      O        0.82618    0.21648    0.45394    1.000
    O48      O        0.90587    0.14888    0.43723    1.000
    O49      O        0.07351    0.81297    0.45251    1.000
    O50      O        0.01413    0.89033    0.46882    1.000
    O51      O        0.10184    0.28261    0.03289    1.000
    O52      O        0.17329    0.35781    0.02233    1.000
    O53      O        0.06383    0.53143    0.05616    1.000
    O54      O        0.11686    0.47119    0.01466    1.000
    N19      N        0.58670    0.42231    0.35634    1.000
    N20      N        0.76650    0.11182    0.14380    1.000
    N21      N        0.74240    0.25403    0.30169    1.000
    N22      N        0.24730    0.08678    0.20141    1.000
    N23      N        0.23320    0.29773    0.34372    1.000
    N24      N        0.57520    0.08683    0.36802    1.000
    N25      N        0.21470    0.94727    0.36943    1.000
    N26      N        0.42590    0.24678    0.13360    1.000
    N27      N        0.28150    0.42214    0.18349    1.000
    C109     C        0.67070    0.41574    0.35048    1.000
    H73      H        0.67570    0.39360    0.32530    1.000
    C110     C        0.75050    0.43980    0.37942    1.000
    H74      H        0.80900    0.43380    0.37440    1.000
    C111     C        0.74380    0.47277    0.41578    1.000
    C112     C        0.65670    0.48242    0.42062    1.000
    H75      H        0.64940    0.50640    0.44410    1.000
    C113     C        0.58030    0.45634    0.39048    1.000
    H76      H        0.52070    0.46270    0.39410    1.000
    C114     C        0.82970    0.49761    0.44889    1.000
    C115     C        0.82340    0.13960    0.12624    1.000
    H77      H        0.82670    0.17730    0.13070    1.000
    C116     C        0.87760    0.11645    0.10187    1.000
    H78      H        0.91620    0.13820    0.08930    1.000
    C117     C        0.87610    0.06165    0.09552    1.000
    C118     C        0.81960    0.03211    0.11520    1.000
    H79      H        0.81800    0.99420    0.11280    1.000
    C119     C        0.76570    0.05831    0.13850    1.000
    H80      H        0.72630    0.03760    0.15140    1.000
    C120     C        0.93200    0.03573    0.06687    1.000
    C121     C        0.71790    0.26258    0.34083    1.000
    H81      H        0.66230    0.24650    0.34300    1.000
    C122     C        0.76980    0.29396    0.37857    1.000
    H82      H        0.75010    0.29880    0.40590    1.000
    C123     C        0.85080    0.31806    0.37559    1.000
    C124     C        0.87390    0.31169    0.33395    1.000
    H83      H        0.92660    0.32960    0.32990    1.000
    C125     C        0.81980    0.27917    0.29860    1.000
    H84      H        0.83760    0.27420    0.27080    1.000
    C126     C        0.91410    0.34981    0.41599    1.000
    C127     C        0.26970    0.08700    0.16094    1.000
    H85      H        0.32410    0.06840    0.16000    1.000
    C128     C        0.21650    0.11330    0.12027    1.000
    H86      H        0.23470    0.11270    0.09230    1.000
    C129     C        0.13680    0.14043    0.12097    1.000
    C130     C        0.11570    0.14272    0.16350    1.000
    H87      H        0.06380    0.16280    0.16590    1.000
    C131     C        0.17180    0.11519    0.20217    1.000
    H88      H        0.15630    0.11640    0.23090    1.000
    C132     C        0.07550    0.16921    0.07770    1.000
    C133     C        0.17550    0.32724    0.36001    1.000
    H89      H        0.17320    0.36470    0.35440    1.000
    C134     C        0.11910    0.30622    0.38457    1.000
    H90      H        0.07900    0.32870    0.39540    1.000
    C135     C        0.12230    0.25178    0.39309    1.000
    C136     C        0.17760    0.21997    0.37424    1.000
    H91      H        0.17820    0.18220    0.37800    1.000
    C137     C        0.23190    0.24392    0.34991    1.000
    H92      H        0.26960    0.22200    0.33700    1.000
    C138     C        0.07020    0.22694    0.42408    1.000
    C139     C        0.57430    0.13416    0.38980    1.000
    H93      H        0.51600    0.14850    0.38980    1.000
    C140     C        0.65470    0.16294    0.41227    1.000
    H94      H        0.65100    0.19590    0.42760    1.000
    C141     C        0.74080    0.14259    0.41193    1.000
    C142     C        0.74160    0.09466    0.38859    1.000
    H95      H        0.79890    0.08000    0.38720    1.000
    C143     C        0.65880    0.06817    0.36726    1.000
    H96      H        0.66080    0.03540    0.35140    1.000
    C144     C        0.83090    0.17162    0.43608    1.000
    C145     C        0.21790    0.89315    0.37315    1.000
    H97      H        0.25470    0.87380    0.35780    1.000
    C146     C        0.16970    0.86493    0.39831    1.000
    H98      H        0.17390    0.82700    0.40020    1.000
    C147     C        0.11500    0.89248    0.42097    1.000
    C148     C        0.11030    0.94787    0.41644    1.000
    H99      H        0.07320    0.96810    0.43110    1.000
    C149     C        0.16000    0.97332    0.39044    1.000
    H100     H        0.15510    0.01110    0.38720    1.000
    C150     C        0.06270    0.86322    0.44977    1.000
    C151     C        0.34150    0.23050    0.13440    1.000
    H101     H        0.33820    0.20320    0.15620    1.000
    C152     C        0.25970    0.25137    0.10531    1.000
    H102     H        0.20160    0.23850    0.10720    1.000
    C153     C        0.26210    0.29111    0.07337    1.000
    C154     C        0.34870    0.31002    0.07344    1.000
    H103     H        0.35320    0.33840    0.05290    1.000
    C155     C        0.42860    0.28723    0.10375    1.000
    H104     H        0.48750    0.30050    0.10350    1.000
    C156     C        0.17220    0.31282    0.04014    1.000
    C157     C        0.21030    0.45496    0.18217    1.000
    H105     H        0.19740    0.46240    0.21100    1.000
    C158     C        0.15450    0.47862    0.14090    1.000
    H106     H        0.10490    0.50170    0.14160    1.000
    C159     C        0.17250    0.46792    0.09867    1.000
    C160     C        0.24820    0.43600    0.09990    1.000
    H107     H        0.26420    0.42950    0.07170    1.000
    C161     C        0.30070    0.41357    0.14266    1.000
    H108     H        0.35200    0.39130    0.14300    1.000
    C162     C        0.11200    0.49193    0.05249    1.000
    Tb10     Tb       0.96453    0.92010    0.01385    1.000
    Tb11     Tb       0.95628    0.59944    0.03456    1.000
    Tb12     Tb       0.03896    0.75837    0.99543    1.000
    I37      I        0.67522    0.93333    0.18517    1.000
    I38      I        0.47961    0.85567    0.26343    1.000
    I39      I        0.74229    0.78035    0.27156    1.000
    I40      I        0.51320    0.78827    0.12817    1.000
    I41      I        0.49934    0.68914    0.24238    1.000
    I42      I        0.30946    0.75189    0.32972    1.000
    I43      I        0.49103    0.60823    0.37495    1.000
    I44      I        0.25514    0.60260    0.23655    1.000
    I45      I        0.51297    0.52221    0.25104    1.000
    I46      I        0.69633    0.59085    0.16384    1.000
    I47      I        0.77551    0.44527    0.25311    1.000
    I48      I        0.52969    0.44820    0.11800    1.000
    Cu37     Cu       0.52060    0.87778    0.18214    1.000
    Cu38     Cu       0.67927    0.82947    0.18768    1.000
    Cu39     Cu       0.65305    0.87719    0.26005    1.000
    Cu40     Cu       0.56450    0.78149    0.22280    1.000
    Cu41     Cu       0.32690    0.70201    0.24889    1.000
    Cu42     Cu       0.46338    0.70557    0.32640    1.000
    Cu43     Cu       0.31731    0.64686    0.32327    1.000
    Cu44     Cu       0.43339    0.60554    0.28230    1.000
    Cu45     Cu       0.53976    0.54313    0.16594    1.000
    Cu46     Cu       0.68264    0.53985    0.24308    1.000
    Cu47     Cu       0.70513    0.48524    0.16539    1.000
    Cu48     Cu       0.40553    0.94516    0.28877    1.000
    O55      O        0.09610    0.97109    0.04122    1.000
    O56      O        0.17735    0.04332    0.03506    1.000
    O57      O        0.01801    0.56646    0.44883    1.000
    O58      O        0.07770    0.48606    0.43992    1.000
    O59      O        0.08760    0.84036    0.04186    1.000
    O60      O        0.03443    0.88454    0.09268    1.000
    O61      O        0.91931    0.65709    0.46337    1.000
    O62      O        0.97669    0.70531    0.41653    1.000
    O63      O        0.98121    0.75754    0.06038    1.000
    O64      O        0.91587    0.67827    0.06715    1.000
    O65      O        0.17382    0.71648    0.04606    1.000
    O66      O        0.09413    0.64888    0.06277    1.000
    O67      O        0.92649    0.31297    0.04749    1.000
    O68      O        0.98587    0.39033    0.03118    1.000
    O69      O        0.89816    0.78261    0.46711    1.000
    O70      O        0.82671    0.85781    0.47767    1.000
    O71      O        0.93617    0.03143    0.44384    1.000
    O72      O        0.88314    0.97119    0.48534    1.000
    N28      N        0.41330    0.92231    0.14366    1.000
    N29      N        0.23350    0.61182    0.35620    1.000
    N30      N        0.25760    0.75403    0.19831    1.000
    N31      N        0.75270    0.58678    0.29859    1.000
    N32      N        0.76680    0.79773    0.15628    1.000
    N33      N        0.42480    0.58683    0.13198    1.000
    N34      N        0.78530    0.44727    0.13057    1.000
    N35      N        0.57410    0.74678    0.36640    1.000
    N36      N        0.71850    0.92214    0.31651    1.000
    C163     C        0.32930    0.91574    0.14952    1.000
    H109     H        0.32430    0.89360    0.17470    1.000
    C164     C        0.24950    0.93980    0.12058    1.000
    H110     H        0.19100    0.93380    0.12560    1.000
    C165     C        0.25620    0.97277    0.08422    1.000
    C166     C        0.34330    0.98242    0.07938    1.000
    H111     H        0.35060    0.00640    0.05590    1.000
    C167     C        0.41970    0.95634    0.10952    1.000
    H112     H        0.47930    0.96270    0.10590    1.000
    C168     C        0.17030    0.99761    0.05111    1.000
    C169     C        0.17660    0.63960    0.37376    1.000
    H113     H        0.17330    0.67730    0.36930    1.000
    C170     C        0.12240    0.61645    0.39813    1.000
    H114     H        0.08380    0.63820    0.41070    1.000
    C171     C        0.12390    0.56165    0.40448    1.000
    C172     C        0.18040    0.53211    0.38480    1.000
    H115     H        0.18200    0.49420    0.38720    1.000
    C173     C        0.23430    0.55831    0.36150    1.000
    H116     H        0.27370    0.53760    0.34860    1.000
    C174     C        0.06800    0.53573    0.43313    1.000
    C175     C        0.28210    0.76258    0.15917    1.000
    H117     H        0.33770    0.74650    0.15700    1.000
    C176     C        0.23020    0.79396    0.12143    1.000
    H118     H        0.24990    0.79880    0.09410    1.000
    C177     C        0.14920    0.81806    0.12441    1.000
    C178     C        0.12610    0.81169    0.16605    1.000
    H119     H        0.07340    0.82960    0.17010    1.000
    C179     C        0.18020    0.77917    0.20140    1.000
    H120     H        0.16240    0.77420    0.22920    1.000
    C180     C        0.08590    0.84981    0.08401    1.000
    C181     C        0.73030    0.58700    0.33906    1.000
    H121     H        0.67590    0.56840    0.34000    1.000
    C182     C        0.78350    0.61330    0.37973    1.000
    H122     H        0.76530    0.61270    0.40770    1.000
    C183     C        0.86320    0.64043    0.37903    1.000
    C184     C        0.88430    0.64272    0.33650    1.000
    H123     H        0.93620    0.66280    0.33410    1.000
    C185     C        0.82820    0.61519    0.29783    1.000
    H124     H        0.84370    0.61640    0.26910    1.000
    C186     C        0.92450    0.66921    0.42230    1.000
    C187     C        0.82450    0.82724    0.13999    1.000
    H125     H        0.82680    0.86470    0.14560    1.000
    C188     C        0.88090    0.80622    0.11543    1.000
    H126     H        0.92100    0.82870    0.10460    1.000
    C189     C        0.87770    0.75178    0.10691    1.000
    C190     C        0.82240    0.71997    0.12576    1.000
    H127     H        0.82180    0.68220    0.12200    1.000
    C191     C        0.76810    0.74392    0.15009    1.000
    H128     H        0.73040    0.72200    0.16300    1.000
    C192     C        0.92980    0.72694    0.07592    1.000
    C193     C        0.42570    0.63416    0.11020    1.000
    H129     H        0.48400    0.64850    0.11020    1.000
    C194     C        0.34530    0.66294    0.08773    1.000
    H130     H        0.34900    0.69590    0.07240    1.000
    C195     C        0.25920    0.64259    0.08807    1.000
    C196     C        0.25840    0.59466    0.11141    1.000
    H131     H        0.20110    0.58000    0.11280    1.000
    C197     C        0.34120    0.56817    0.13274    1.000
    H132     H        0.33920    0.53540    0.14860    1.000
    C198     C        0.16910    0.67162    0.06392    1.000
    C199     C        0.78210    0.39315    0.12685    1.000
    H133     H        0.74530    0.37380    0.14220    1.000
    C200     C        0.83030    0.36493    0.10169    1.000
    H134     H        0.82610    0.32700    0.09980    1.000
    C201     C        0.88500    0.39248    0.07903    1.000
    C202     C        0.88970    0.44787    0.08356    1.000
    H135     H        0.92680    0.46810    0.06890    1.000
    C203     C        0.84000    0.47332    0.10956    1.000
    H136     H        0.84490    0.51110    0.11280    1.000
    C204     C        0.93730    0.36322    0.05023    1.000
    C205     C        0.65850    0.73050    0.36560    1.000
    H137     H        0.66180    0.70320    0.34380    1.000
    C206     C        0.74030    0.75137    0.39469    1.000
    H138     H        0.79840    0.73850    0.39280    1.000
    C207     C        0.73790    0.79111    0.42663    1.000
    C208     C        0.65130    0.81002    0.42656    1.000
    H139     H        0.64680    0.83840    0.44710    1.000
    C209     C        0.57140    0.78723    0.39625    1.000
    H140     H        0.51250    0.80050    0.39650    1.000
    C210     C        0.82780    0.81282    0.45986    1.000
    C211     C        0.78970    0.95496    0.31783    1.000
    H141     H        0.80260    0.96240    0.28900    1.000
    C212     C        0.84550    0.97862    0.35910    1.000
    H142     H        0.89510    0.00170    0.35840    1.000
    C213     C        0.82750    0.96792    0.40133    1.000
    C214     C        0.75180    0.93600    0.40010    1.000
    H143     H        0.73580    0.92950    0.42830    1.000
    C215     C        0.69930    0.91357    0.35734    1.000
    H144     H        0.64800    0.89130    0.35700    1.000
    C216     C        0.88800    0.99193    0.44751    1.000
