# CIF file generated by openbabel 3.1.0, see https://openbabel.org
data_I
_chemical_name_common 'HIYZEV01_clean'
_cell_length_a 9.716
_cell_length_b 12.193
_cell_length_c 12.4423
_cell_angle_alpha 103.863
_cell_angle_beta 112.124
_cell_angle_gamma 107.28
_space_group_name_H-M_alt 'P 1'
_space_group_name_Hall 'P 1'
loop_
    _symmetry_equiv_pos_as_xyz
    x,y,z
loop_
    _atom_site_label
    _atom_site_type_symbol
    _atom_site_fract_x
    _atom_site_fract_y
    _atom_site_fract_z
    _atom_site_occupancy
    Mn1      Mn       0.21525    0.32873    0.12322    1.000
    Mn2      Mn       0.78475    0.67127    0.87678    1.000
    Mn3      Mn       0.00000    0.00000    0.00000    1.000
    Mn4      Mn       0.00000    0.50000    0.00000    1.000
    H1       H        0.47570    0.35510    0.51210    1.000
    H2       H        0.56080    0.15130    0.71730    1.000
    H3       H        0.34860    0.97230    0.54600    1.000
    H4       H        0.21220    0.98290    0.35440    1.000
    H5       H        0.67900    0.01310    0.84720    1.000
    H6       H        0.39800    0.89810    0.75510    1.000
    H7       H        0.24670    0.97590    0.82820    1.000
    H8       H        0.65320    0.29760    0.06850    1.000
    H9       H        0.52430    0.64490    0.48790    1.000
    H10      H        0.43920    0.84870    0.28270    1.000
    H11      H        0.65140    0.02770    0.45400    1.000
    H12      H        0.78780    0.01710    0.64560    1.000
    H13      H        0.32100    0.98690    0.15280    1.000
    H14      H        0.60200    0.10190    0.24490    1.000
    H15      H        0.75330    0.02410    0.17180    1.000
    H16      H        0.34680    0.70240    0.93150    1.000
    C1       C        0.24310    0.17280    0.28600    1.000
    C2       C        0.33140    0.16940    0.41260    1.000
    C3       C        0.45290    0.27780    0.51810    1.000
    C4       C        0.53990    0.27110    0.63200    1.000
    C5       C        0.50200    0.15630    0.64140    1.000
    C6       C        0.37680    0.04890    0.53840    1.000
    C7       C        0.29400    0.05570    0.42420    1.000
    C8       C        0.87610    0.24100    0.02590    1.000
    C9       C        0.69450    0.16650    0.96760    1.000
    C10      C        0.61740    0.04660    0.87390    1.000
    C11      C        0.44960    0.97690    0.82010    1.000
    C12      C        0.35900    0.02390    0.86280    1.000
    C13      C        0.43510    0.14350    0.95790    1.000
    C14      C        0.60300    0.21620    0.00820    1.000
    C15      C        0.67350    0.38690    0.74650    1.000
    C16      C        0.33830    0.19070    0.00950    1.000
    C17      C        0.75690    0.82720    0.71400    1.000
    C18      C        0.66860    0.83060    0.58740    1.000
    C19      C        0.54710    0.72220    0.48190    1.000
    C20      C        0.46010    0.72890    0.36800    1.000
    C21      C        0.49800    0.84370    0.35860    1.000
    C22      C        0.62320    0.95110    0.46160    1.000
    C23      C        0.70600    0.94430    0.57580    1.000
    C24      C        0.12390    0.75900    0.97410    1.000
    C25      C        0.30550    0.83350    0.03240    1.000
    C26      C        0.38260    0.95340    0.12610    1.000
    C27      C        0.55040    0.02310    0.17990    1.000
    C28      C        0.64100    0.97610    0.13720    1.000
    C29      C        0.56490    0.85650    0.04210    1.000
    C30      C        0.39700    0.78380    0.99180    1.000
    C31      C        0.32650    0.61310    0.25350    1.000
    C32      C        0.66170    0.80930    0.99050    1.000
    O1       O        0.28230    0.27675    0.27810    1.000
    O2       O        0.13693    0.06965    0.19663    1.000
    O3       O        0.96387    0.18350    0.02027    1.000
    O4       O        0.93991    0.35861    0.08001    1.000
    O5       O        0.78651    0.37497    0.82711    1.000
    O6       O        0.66105    0.48738    0.75165    1.000
    O7       O        0.39670    0.30530    0.07540    1.000
    O8       O        0.20120    0.11390    0.98450    1.000
    O9       O        0.71770    0.72325    0.72190    1.000
    O10      O        0.86307    0.93035    0.80337    1.000
    O11      O        0.03613    0.81650    0.97973    1.000
    O12      O        0.06009    0.64139    0.91999    1.000
    O13      O        0.21349    0.62503    0.17289    1.000
    O14      O        0.33895    0.51262    0.24835    1.000
    O15      O        0.60330    0.69470    0.92460    1.000
    O16      O        0.79880    0.88610    0.01550    1.000
