data_functionalizedCrystal
_audit_creation_method	'EQeq! by Chris Wilmer'
_symmetry_space_group_name_H-M	'P1'
_symmetry_Int_Tables_number	1
_symmetry_cell_setting	triclinic
loop_
_symmetry_equiv_pos_as_xyz
  x,y,z
_cell_length_a	9.0655
_cell_length_b	16.7679
_cell_length_c	16.7679
_cell_angle_alpha	90
_cell_angle_beta	90
_cell_angle_gamma	90
loop_
_atom_site_label
_atom_site_type_symbol
_atom_site_fract_x
_atom_site_fract_y
_atom_site_fract_z
_atom_site_charge
Mof_Zn	Zn	0.83266	0.08325	0.2138	1.226
Mof_Zn	Zn	0.83266	0.91675	0.7862	1.256
Mof_Zn	Zn	0.83266	0.7862	0.08325	1.228
Mof_Zn	Zn	0.83266	0.2138	0.91675	1.255
Mof_Zn	Zn	0.33266	0.08325	0.7862	1.213
Mof_Zn	Zn	0.33266	0.91675	0.2138	1.24
Mof_Zn	Zn	0.33266	0.7862	0.91675	1.242
Mof_Zn	Zn	0.33266	0.2138	0.08325	1.211
Mof_Zn	Zn	0.10106	0	0.5	1.126
Mof_Zn	Zn	0.10106	0.5	-0	1.126
Mof_Zn	Zn	0.60106	0	0.5	1.204
Mof_Zn	Zn	0.60106	0.5	-0	1.204
Mof_P 	P 	0.8463	0.09681	0.40512	0.474
Mof_P 	P 	0.00374	0.92832	0.16038	-0.006
Mof_P 	P 	0.8463	0.90319	0.59488	0.477
Mof_P 	P 	0.00374	0.07168	0.83962	0.016
Mof_P 	P 	0.8463	0.59488	0.09681	0.474
Mof_P 	P 	0.00374	0.83962	0.92832	0.007
Mof_P 	P 	0.8463	0.40512	0.90319	0.477
Mof_P 	P 	0.00374	0.16038	0.07168	0.003
Mof_P 	P 	0.3463	0.09681	0.59488	0.478
Mof_P 	P 	0.50374	0.92832	0.83962	0.389
Mof_P 	P 	0.3463	0.90319	0.40512	0.482
Mof_P 	P 	0.50374	0.07168	0.16038	0.388
Mof_P 	P 	0.3463	0.59488	0.90319	0.482
Mof_P 	P 	0.50374	0.83962	0.07168	0.4
Mof_P 	P 	0.3463	0.40512	0.09681	0.478
Mof_P 	P 	0.50374	0.16038	0.92832	0.377
Mof_H 	H 	0.029	0.961	0.089	-0.086
Mof_H 	H 	0.8	0.163	0.436	-0.073
Mof_H 	H 	0.029	0.039	0.911	-0.097
Mof_H 	H 	0.8	0.837	0.564	-0.073
Mof_H 	H 	0.029	0.911	0.961	-0.044
Mof_H 	H 	0.8	0.564	0.163	-0.073
Mof_H 	H 	0.029	0.089	0.039	-0.139
Mof_H 	H 	0.8	0.436	0.837	-0.073
Mof_H 	H 	0.529	0.961	0.911	-0.023
Mof_H 	H 	0.3	0.163	0.564	-0.099
Mof_H 	H 	0.529	0.039	0.089	-0.119
Mof_H 	H 	0.3	0.837	0.436	-0.099
Mof_H 	H 	0.529	0.911	0.039	-0.077
Mof_H 	H 	0.3	0.564	0.837	-0.098
Mof_H 	H 	0.529	0.089	0.961	-0.065
Mof_H 	H 	0.3	0.436	0.163	-0.099
Mof_O 	O 	0.9735	0.9931	0.2153	-0.034
Mof_O 	O 	0.873	0.8667	0.156	-0.273
Mof_O 	O 	0.1302	0.9568	0.2124	-0.428
Mof_O 	O 	0.984	0.0828	0.4548	-0.347
Mof_O 	O 	0.8834	0.117	0.3202	-0.366
Mof_O 	O 	0.7315	0.0317	0.4126	-0.496
Mof_O 	O 	0.9735	0.0069	0.7847	-0.129
Mof_O 	O 	0.873	0.1333	0.844	-0.273
Mof_O 	O 	0.1302	0.0432	0.7876	-0.477
Mof_O 	O 	0.984	0.9172	0.5452	-0.297
Mof_O 	O 	0.8834	0.883	0.6798	-0.339
Mof_O 	O 	0.7315	0.9683	0.5874	-0.4
Mof_O 	O 	0.9735	0.7847	0.9931	-0.035
Mof_O 	O 	0.873	0.844	0.8667	-0.255
Mof_O 	O 	0.1302	0.7876	0.9568	-0.424
Mof_O 	O 	0.984	0.5452	0.0828	-0.348
Mof_O 	O 	0.8834	0.6798	0.117	-0.366
Mof_O 	O 	0.7315	0.5874	0.0317	-0.496
Mof_O 	O 	0.9735	0.2153	0.0069	-0.128
Mof_O 	O 	0.873	0.156	0.1333	-0.292
Mof_O 	O 	0.1302	0.2124	0.0432	-0.482
Mof_O 	O 	0.984	0.4548	0.9172	-0.297
Mof_O 	O 	0.8834	0.3202	0.883	-0.339
Mof_O 	O 	0.7315	0.4126	0.9683	-0.4
Mof_O 	O 	0.4735	0.9931	0.7847	-0.331
Mof_O 	O 	0.373	0.8667	0.844	-0.47
Mof_O 	O 	0.6302	0.9568	0.7876	-0.35
Mof_O 	O 	0.484	0.0828	0.5452	-0.497
Mof_O 	O 	0.3834	0.117	0.6798	-0.458
Mof_O 	O 	0.2315	0.0317	0.5874	-0.575
Mof_O 	O 	0.4735	0.0069	0.2153	-0.429
Mof_O 	O 	0.373	0.1333	0.156	-0.51
Mof_O 	O 	0.6302	0.0432	0.2124	-0.406
Mof_O 	O 	0.484	0.9172	0.4548	-0.444
Mof_O 	O 	0.3834	0.883	0.3202	-0.43
Mof_O 	O 	0.2315	0.9683	0.4126	-0.477
Mof_O 	O 	0.4735	0.7847	0.0069	-0.429
Mof_O 	O 	0.373	0.844	0.1333	-0.49
Mof_O 	O 	0.6302	0.7876	0.0432	-0.402
Mof_O 	O 	0.484	0.5452	0.9172	-0.444
Mof_O 	O 	0.3834	0.6798	0.883	-0.429
Mof_O 	O 	0.2315	0.5874	0.9683	-0.477
Mof_O 	O 	0.4735	0.2153	0.9931	-0.332
Mof_O 	O 	0.373	0.156	0.8667	-0.49
Mof_O 	O 	0.6302	0.2124	0.9568	-0.354
Mof_O 	O 	0.484	0.4548	0.0828	-0.496
Mof_O 	O 	0.3834	0.3202	0.117	-0.458
Mof_O 	O 	0.2315	0.4126	0.0317	-0.575
Mof_H 	H 	0.9777	0.3215	0.1761	-0.519
Mof_H 	H 	0.9303	0.3983	0.1305	-0.635
Mof_H 	H 	0.7286	0.3934	0.1615	0.448
Mof_H 	H 	0.6088	0.2894	0.1232	0.066
Mof_H 	H 	0.709	0.3311	0.07	0.048
Mof_H 	H 	0.7523	0.2553	0.1049	0.104
Mof_H 	H 	0.6694	0.2917	0.2741	-0.76
Mof_H 	H 	0.5806	0.3638	0.2398	-0.805
Mof_H 	H 	0.07	0.4002	0.2553	0.656
Mof_H 	H 	0.9734	0.4714	0.2259	0.903
Mof_H 	H 	0.8965	0.4676	0.3444	-0.949
Mof_H 	H 	0.9353	0.3775	0.3553	-0.879
Mof_H 	H 	0.7105	0.3709	0.3662	1.107
Mof_H 	H 	0.6824	0.4458	0.3134	1.066
Mof_C 	C 	0.9154	0.3684	0.1794	2.26
Mof_C 	C 	0.7655	0.3417	0.18	-1.701
Mof_C 	C 	0.6789	0.3454	0.2532	2.703
Mof_C 	C 	0.9694	0.4166	0.2442	-2.665
Mof_C 	C 	0.8877	0.4154	0.32	3.294
Mof_C 	C 	0.7364	0.3959	0.3159	-3.564
Mof_N 	N 	0.703	0.3005	0.1132	0.017
Mof_H 	H 	0.9777	0.6785	0.8239	-0.526
Mof_H 	H 	0.9303	0.6017	0.8695	-0.627
Mof_H 	H 	0.7286	0.6066	0.8385	0.46
Mof_H 	H 	0.6088	0.7106	0.8768	0.094
Mof_H 	H 	0.709	0.6689	0.93	0.11
Mof_H 	H 	0.7523	0.7447	0.8951	0.136
Mof_H 	H 	0.6694	0.7083	0.7259	-0.773
Mof_H 	H 	0.5806	0.6362	0.7602	-0.819
Mof_H 	H 	0.07	0.5998	0.7447	0.674
Mof_H 	H 	0.9734	0.5286	0.7741	0.92
Mof_H 	H 	0.8965	0.5324	0.6556	-0.97
Mof_H 	H 	0.9353	0.6225	0.6447	-0.901
Mof_H 	H 	0.7105	0.6291	0.6338	1.127
Mof_H 	H 	0.6824	0.5542	0.6866	1.086
Mof_C 	C 	0.9154	0.6316	0.8206	2.293
Mof_C 	C 	0.7655	0.6583	0.82	-1.72
Mof_C 	C 	0.6789	0.6546	0.7468	2.748
Mof_C 	C 	0.9694	0.5834	0.7558	-2.722
Mof_C 	C 	0.8877	0.5846	0.68	3.361
Mof_C 	C 	0.7364	0.6041	0.6841	-3.629
Mof_N 	N 	0.703	0.6995	0.8868	-0.012
Mof_H 	H 	0.9777	0.8239	0.3215	-0.526
Mof_H 	H 	0.9303	0.8695	0.3983	-0.628
Mof_H 	H 	0.7286	0.8385	0.3934	0.46
Mof_H 	H 	0.6088	0.8768	0.2894	0.094
Mof_H 	H 	0.709	0.93	0.3311	0.109
Mof_H 	H 	0.7523	0.8951	0.2553	0.136
Mof_H 	H 	0.6694	0.7259	0.2917	-0.774
Mof_H 	H 	0.5806	0.7602	0.3638	-0.82
Mof_H 	H 	0.07	0.7447	0.4002	0.675
Mof_H 	H 	0.9734	0.7741	0.4714	0.92
Mof_H 	H 	0.8965	0.6556	0.4676	-0.971
Mof_H 	H 	0.9353	0.6447	0.3775	-0.901
Mof_H 	H 	0.7105	0.6338	0.3709	1.128
Mof_H 	H 	0.6824	0.6866	0.4458	1.086
Mof_C 	C 	0.9154	0.8206	0.3684	2.295
Mof_C 	C 	0.7655	0.82	0.3417	-1.722
Mof_C 	C 	0.6789	0.7468	0.3454	2.751
Mof_C 	C 	0.9694	0.7558	0.4166	-2.724
Mof_C 	C 	0.8877	0.68	0.4154	3.364
Mof_C 	C 	0.7364	0.6841	0.3959	-3.632
Mof_N 	N 	0.703	0.8868	0.3005	-0.011
Mof_H 	H 	0.9777	0.1761	0.6785	-0.518
Mof_H 	H 	0.9303	0.1305	0.6017	-0.634
Mof_H 	H 	0.7286	0.1615	0.6066	0.448
Mof_H 	H 	0.6088	0.1232	0.7106	0.066
Mof_H 	H 	0.709	0.07	0.6689	0.048
Mof_H 	H 	0.7523	0.1049	0.7447	0.104
Mof_H 	H 	0.6694	0.2741	0.7083	-0.759
Mof_H 	H 	0.5806	0.2398	0.6362	-0.803
Mof_H 	H 	0.07	0.2553	0.5998	0.656
Mof_H 	H 	0.9734	0.2259	0.5286	0.902
Mof_H 	H 	0.8965	0.3444	0.5324	-0.948
Mof_H 	H 	0.9353	0.3553	0.6225	-0.879
Mof_H 	H 	0.7105	0.3662	0.6291	1.106
Mof_H 	H 	0.6824	0.3134	0.5542	1.066
Mof_C 	C 	0.9154	0.1794	0.6316	2.258
Mof_C 	C 	0.7655	0.18	0.6583	-1.699
Mof_C 	C 	0.6789	0.2532	0.6546	2.7
Mof_C 	C 	0.9694	0.2442	0.5834	-2.664
Mof_C 	C 	0.8877	0.32	0.5846	3.291
Mof_C 	C 	0.7364	0.3159	0.6041	-3.561
Mof_N 	N 	0.703	0.1132	0.6995	0.017
Mof_H 	H 	0.4777	0.3215	0.8239	-0.064
Mof_H 	H 	0.4303	0.3983	0.8695	-0.101
Mof_H 	H 	0.2286	0.3934	0.8385	0.065
Mof_H 	H 	0.1088	0.2894	0.8768	0.047
Mof_H 	H 	0.209	0.3311	0.93	0.123
Mof_H 	H 	0.2523	0.2553	0.8951	0.139
Mof_H 	H 	0.1694	0.2917	0.7259	-0.149
Mof_H 	H 	0.0806	0.3638	0.7602	-0.193
Mof_H 	H 	0.57	0.4002	0.7447	0.234
Mof_H 	H 	0.4734	0.4714	0.7741	0.237
Mof_H 	H 	0.3965	0.4676	0.6556	-0.231
Mof_H 	H 	0.4353	0.3775	0.6447	-0.205
Mof_H 	H 	0.2105	0.3709	0.6338	0.221
Mof_H 	H 	0.1824	0.4458	0.6866	0.204
Mof_C 	C 	0.4154	0.3684	0.8206	0.404
Mof_C 	C 	0.2655	0.3417	0.82	-0.281
Mof_C 	C 	0.1789	0.3454	0.7468	0.452
Mof_C 	C 	0.4694	0.4166	0.7558	-0.759
Mof_C 	C 	0.3877	0.4154	0.68	0.689
Mof_C 	C 	0.2364	0.3959	0.6841	-0.782
Mof_N 	N 	0.203	0.3005	0.8868	-0.272
Mof_H 	H 	0.4777	0.6785	0.1761	-0.055
Mof_H 	H 	0.4303	0.6017	0.1305	-0.106
Mof_H 	H 	0.2286	0.6066	0.1615	0.051
Mof_H 	H 	0.1088	0.7106	0.1232	0.019
Mof_H 	H 	0.209	0.6689	0.07	0.061
Mof_H 	H 	0.2523	0.7447	0.1049	0.107
Mof_H 	H 	0.1694	0.7083	0.2741	-0.132
Mof_H 	H 	0.0806	0.6362	0.2398	-0.174
Mof_H 	H 	0.57	0.5998	0.2553	0.214
Mof_H 	H 	0.4734	0.5286	0.2259	0.216
Mof_H 	H 	0.3965	0.5324	0.3444	-0.206
Mof_H 	H 	0.4353	0.6225	0.3553	-0.181
Mof_H 	H 	0.2105	0.6291	0.3662	0.196
Mof_H 	H 	0.1824	0.5542	0.3134	0.18
Mof_C 	C 	0.4154	0.6316	0.1794	0.362
Mof_C 	C 	0.2655	0.6583	0.18	-0.254
Mof_C 	C 	0.1789	0.6546	0.2532	0.393
Mof_C 	C 	0.4694	0.5834	0.2442	-0.693
Mof_C 	C 	0.3877	0.5846	0.32	0.607
Mof_C 	C 	0.2364	0.6041	0.3159	-0.701
Mof_N 	N 	0.203	0.6995	0.1132	-0.245
Mof_H 	H 	0.4777	0.8239	0.6785	-0.064
Mof_H 	H 	0.4303	0.8695	0.6017	-0.102
Mof_H 	H 	0.2286	0.8385	0.6066	0.065
Mof_H 	H 	0.1088	0.8768	0.7106	0.047
Mof_H 	H 	0.209	0.93	0.6689	0.123
Mof_H 	H 	0.2523	0.8951	0.7447	0.14
Mof_H 	H 	0.1694	0.7259	0.7083	-0.15
Mof_H 	H 	0.0806	0.7602	0.6362	-0.193
Mof_H 	H 	0.57	0.7447	0.5998	0.235
Mof_H 	H 	0.4734	0.7741	0.5286	0.238
Mof_H 	H 	0.3965	0.6556	0.5324	-0.232
Mof_H 	H 	0.4353	0.6447	0.6225	-0.207
Mof_H 	H 	0.2105	0.6338	0.6291	0.222
Mof_H 	H 	0.1824	0.6866	0.5542	0.205
Mof_C 	C 	0.4154	0.8206	0.6316	0.406
Mof_C 	C 	0.2655	0.82	0.6583	-0.282
Mof_C 	C 	0.1789	0.7468	0.6546	0.454
Mof_C 	C 	0.4694	0.7558	0.5834	-0.762
Mof_C 	C 	0.3877	0.68	0.5846	0.692
Mof_C 	C 	0.2364	0.6841	0.6041	-0.785
Mof_N 	N 	0.203	0.8868	0.6995	-0.272
Mof_H 	H 	0.4777	0.1761	0.3215	-0.055
Mof_H 	H 	0.4303	0.1305	0.3983	-0.106
Mof_H 	H 	0.2286	0.1615	0.3934	0.051
Mof_H 	H 	0.1088	0.1232	0.2894	0.018
Mof_H 	H 	0.209	0.07	0.3311	0.061
Mof_H 	H 	0.2523	0.1049	0.2553	0.107
Mof_H 	H 	0.1694	0.2741	0.2917	-0.131
Mof_H 	H 	0.0806	0.2398	0.3638	-0.174
Mof_H 	H 	0.57	0.2553	0.4002	0.213
Mof_H 	H 	0.4734	0.2259	0.4714	0.216
Mof_H 	H 	0.3965	0.3444	0.4676	-0.204
Mof_H 	H 	0.4353	0.3553	0.3775	-0.18
Mof_H 	H 	0.2105	0.3662	0.3709	0.195
Mof_H 	H 	0.1824	0.3134	0.4458	0.179
Mof_C 	C 	0.4154	0.1794	0.3684	0.359
Mof_C 	C 	0.2655	0.18	0.3417	-0.252
Mof_C 	C 	0.1789	0.2532	0.3454	0.391
Mof_C 	C 	0.4694	0.2442	0.4166	-0.69
Mof_C 	C 	0.3877	0.32	0.4154	0.603
Mof_C 	C 	0.2364	0.3159	0.3959	-0.698
Mof_N 	N 	0.203	0.1132	0.3005	-0.245
_end
