data_functionalizedCrystal
_audit_creation_method	'EQeq! by Chris Wilmer'
_symmetry_space_group_name_H-M	'P1'
_symmetry_Int_Tables_number	1
_symmetry_cell_setting	triclinic
loop_
_symmetry_equiv_pos_as_xyz
  x,y,z
_cell_length_a	23.3366
_cell_length_b	23.3363
_cell_length_c	23.3363
_cell_angle_alpha	109.471
_cell_angle_beta	109.471
_cell_angle_gamma	109.471
loop_
_atom_site_label
_atom_site_type_symbol
_atom_site_fract_x
_atom_site_fract_y
_atom_site_fract_z
_atom_site_charge
Mof_Cu	Cu	0.14219	0.64219	0.5	0.898
Mof_Cu	Cu	0.64219	0.5	0.14219	0.898
Mof_Cu	Cu	0.5	0.85781	0.35781	0.898
Mof_Cu	Cu	0.25985	0.5	0.75985	0.909
Mof_Cu	Cu	0.5	0.24015	0.74015	0.909
Mof_Cu	Cu	0.5	0.14219	0.64219	0.898
Mof_Cu	Cu	0.85781	0.35781	0.5	0.898
Mof_Cu	Cu	0.5	0.75985	0.25985	0.909
Mof_Cu	Cu	0.74015	0.5	0.24015	0.909
Mof_Cu	Cu	0.24015	0.74015	0.5	0.909
Mof_Cu	Cu	0.75985	0.25985	0.5	0.909
Mof_Cu	Cu	0.35781	0.5	0.85781	0.898
Mof_H 	H 	0.3518	0.7144	0.8254	0.032
Mof_H 	H 	0.6319	0.5894	0.5115	0.063
Mof_H 	H 	0.0219	0.5757	0.844	0.067
Mof_H 	H 	0.3681	0.4106	0.4885	0.063
Mof_H 	H 	0.2738	0.7814	0.2556	0.029
Mof_H 	H 	0.7262	0.9818	0.5076	0.029
Mof_H 	H 	0.4114	0.966	0.8326	0.072
Mof_H 	H 	0.4736	0.3626	0.6482	0.033
Mof_H 	H 	0.3518	0.5264	0.6374	0.033
Mof_H 	H 	0.1779	0.4462	0.0219	0.068
Mof_H 	H 	0.5894	0.9575	0.0779	0.064
Mof_H 	H 	0.1746	0.6482	0.2856	0.033
Mof_H 	H 	0.9221	0.4106	0.0425	0.064
Mof_H 	H 	0.5264	0.1746	0.889	0.033
Mof_H 	H 	0.034	0.4454	0.8666	0.072
Mof_H 	H 	0.5115	0.6319	0.5894	0.064
Mof_H 	H 	0.5258	0.0182	0.7444	0.029
Mof_H 	H 	0.966	0.5546	0.1334	0.072
Mof_H 	H 	0.1779	0.156	0.7317	0.068
Mof_H 	H 	0.4885	0.3681	0.4106	0.064
Mof_H 	H 	0.4885	0.0779	0.1204	0.064
Mof_H 	H 	0.1674	0.1334	0.5788	0.072
Mof_H 	H 	0.5788	0.1674	0.1334	0.072
Mof_H 	H 	0.034	0.1674	0.5886	0.072
Mof_H 	H 	0.7814	0.5076	0.5258	0.029
Mof_H 	H 	0.7262	0.2186	0.7444	0.029
Mof_H 	H 	0.3626	0.889	0.7144	0.033
Mof_H 	H 	0.4742	0.9818	0.2556	0.029
Mof_H 	H 	0.4924	0.4742	0.2186	0.029
Mof_H 	H 	0.156	0.7317	0.1779	0.068
Mof_H 	H 	0.9575	0.3681	0.8796	0.064
Mof_H 	H 	0.2683	0.8221	0.844	0.068
Mof_H 	H 	0.3681	0.8796	0.9575	0.064
Mof_H 	H 	0.4114	0.5788	0.4454	0.072
Mof_H 	H 	0.4243	0.4462	0.2683	0.068
Mof_H 	H 	0.6482	0.4736	0.3626	0.033
Mof_H 	H 	0.5258	0.7814	0.5076	0.029
Mof_H 	H 	0.4462	0.2683	0.4243	0.068
Mof_H 	H 	0.4106	0.0425	0.9221	0.064
Mof_H 	H 	0.0779	0.5894	0.9575	0.064
Mof_H 	H 	0.0425	0.9221	0.4106	0.064
Mof_H 	H 	0.5546	0.5886	0.4212	0.072
Mof_H 	H 	0.5538	0.7317	0.5757	0.068
Mof_H 	H 	0.4212	0.8326	0.8666	0.072
Mof_H 	H 	0.156	0.9781	0.4243	0.068
Mof_H 	H 	0.7144	0.8254	0.3518	0.033
Mof_H 	H 	0.6374	0.3518	0.5264	0.033
Mof_H 	H 	0.6482	0.2856	0.1746	0.033
Mof_H 	H 	0.1204	0.4885	0.0779	0.064
Mof_H 	H 	0.5757	0.844	0.0219	0.068
Mof_H 	H 	0.0182	0.7444	0.5258	0.029
Mof_H 	H 	0.7317	0.5757	0.5538	0.068
Mof_H 	H 	0.844	0.0219	0.5757	0.068
Mof_H 	H 	0.966	0.8326	0.4114	0.072
Mof_H 	H 	0.5076	0.5258	0.7814	0.029
Mof_H 	H 	0.5757	0.5538	0.7317	0.068
Mof_H 	H 	0.0182	0.4924	0.2738	0.029
Mof_H 	H 	0.2556	0.4742	0.9818	0.029
Mof_H 	H 	0.2186	0.7444	0.7262	0.029
Mof_H 	H 	0.9818	0.5076	0.7262	0.029
Mof_H 	H 	0.2856	0.1746	0.6482	0.033
Mof_H 	H 	0.8326	0.8666	0.4212	0.072
Mof_H 	H 	0.8326	0.4114	0.966	0.072
Mof_H 	H 	0.7444	0.5258	0.0182	0.029
Mof_H 	H 	0.4106	0.4885	0.3681	0.064
Mof_H 	H 	0.7444	0.7262	0.2186	0.029
Mof_H 	H 	0.8666	0.034	0.4454	0.072
Mof_H 	H 	0.2856	0.6374	0.111	0.033
Mof_H 	H 	0.3626	0.6482	0.4736	0.033
Mof_H 	H 	0.9575	0.0779	0.5894	0.064
Mof_H 	H 	0.4243	0.156	0.9781	0.068
Mof_H 	H 	0.7144	0.3626	0.889	0.033
Mof_H 	H 	0.2186	0.4924	0.4742	0.029
Mof_H 	H 	0.6374	0.111	0.2856	0.033
Mof_H 	H 	0.4462	0.0219	0.1779	0.068
Mof_H 	H 	0.2683	0.4243	0.4462	0.068
Mof_H 	H 	0.5076	0.7262	0.9818	0.029
Mof_H 	H 	0.5538	0.9781	0.8221	0.068
Mof_H 	H 	0.9781	0.4243	0.156	0.068
Mof_H 	H 	0.1204	0.0425	0.6319	0.064
Mof_H 	H 	0.8666	0.4212	0.8326	0.072
Mof_H 	H 	0.1746	0.889	0.5264	0.033
Mof_H 	H 	0.5788	0.4454	0.4114	0.072
Mof_H 	H 	0.111	0.4736	0.8254	0.033
Mof_H 	H 	0.4212	0.5546	0.5886	0.072
Mof_H 	H 	0.889	0.7144	0.3626	0.033
Mof_H 	H 	0.4736	0.8254	0.111	0.033
Mof_H 	H 	0.9818	0.2556	0.4742	0.029
Mof_H 	H 	0.5886	0.4212	0.5546	0.072
Mof_H 	H 	0.0219	0.1779	0.4462	0.068
Mof_H 	H 	0.1674	0.5886	0.034	0.072
Mof_H 	H 	0.889	0.5264	0.1746	0.033
Mof_H 	H 	0.1334	0.966	0.5546	0.072
Mof_H 	H 	0.844	0.2683	0.8221	0.068
Mof_H 	H 	0.1334	0.5788	0.1674	0.072
Mof_H 	H 	0.9221	0.8796	0.5115	0.064
Mof_H 	H 	0.5894	0.5115	0.6319	0.064
Mof_H 	H 	0.7814	0.2556	0.2738	0.029
Mof_H 	H 	0.0779	0.1204	0.4885	0.064
Mof_H 	H 	0.5886	0.034	0.1674	0.072
Mof_H 	H 	0.4742	0.2186	0.4924	0.029
Mof_H 	H 	0.4454	0.4114	0.5788	0.072
Mof_H 	H 	0.0425	0.6319	0.1204	0.064
Mof_H 	H 	0.2738	0.0182	0.4924	0.029
Mof_H 	H 	0.8221	0.5538	0.9781	0.068
Mof_H 	H 	0.5115	0.9221	0.8796	0.064
Mof_H 	H 	0.5264	0.6374	0.3518	0.033
Mof_H 	H 	0.5546	0.1334	0.966	0.072
Mof_H 	H 	0.8254	0.111	0.4736	0.033
Mof_H 	H 	0.8796	0.9575	0.3681	0.064
Mof_H 	H 	0.9781	0.8221	0.5538	0.068
Mof_H 	H 	0.4924	0.2738	0.0182	0.029
Mof_H 	H 	0.7317	0.1779	0.156	0.068
Mof_H 	H 	0.4454	0.8666	0.034	0.072
Mof_H 	H 	0.111	0.2856	0.6374	0.033
Mof_H 	H 	0.8221	0.844	0.2683	0.068
Mof_H 	H 	0.6319	0.1204	0.0425	0.064
Mof_H 	H 	0.8796	0.5115	0.9221	0.064
Mof_H 	H 	0.8254	0.3518	0.7144	0.033
Mof_H 	H 	0.2556	0.2738	0.7814	0.029
Mof_C 	C 	0.4122	0.4583	0.3875	-0.099
Mof_C 	C 	0.7897	0.5318	0.0419	0.046
Mof_C 	C 	0.8752	0.5322	0.1346	0.044
Mof_C 	C 	0.5494	0.6285	0.4393	-0.112
Mof_C 	C 	0.4228	0.7084	0.8994	-0.119
Mof_C 	C 	0.9042	0.8497	0.3451	0.045
Mof_C 	C 	0.3875	0.9292	0.9753	-0.099
Mof_C 	C 	0.0247	0.6125	0.0708	-0.099
Mof_C 	C 	0.3976	0.7406	0.8654	0.044
Mof_C 	C 	0.2549	0.623	0.4931	0.375
Mof_C 	C 	0.3451	0.4954	0.4409	0.045
Mof_C 	C 	0.7451	0.2382	0.3681	0.375
Mof_C 	C 	0.809	0.5234	0.1006	-0.119
Mof_C 	C 	0.1346	0.6024	0.2594	0.044
Mof_C 	C 	0.1828	0.0185	0.4697	-0.109
Mof_C 	C 	0.4228	0.5234	0.7144	-0.119
Mof_C 	C 	0.5417	0.6125	0.5878	-0.099
Mof_C 	C 	0.0462	0.4272	0.9744	0.038
Mof_C 	C 	0.5591	0.6549	0.5046	0.045
Mof_C 	C 	0.2594	0.657	0.1248	0.044
Mof_C 	C 	0.4899	0.5318	0.7421	0.046
Mof_C 	C 	0.8752	0.7406	0.343	0.044
Mof_C 	C 	0.7131	0.5303	0.5488	-0.109
Mof_C 	C 	0.0419	0.5101	0.2522	0.045
Mof_C 	C 	0.2916	0.1006	0.5772	-0.119
Mof_C 	C 	0.3451	0.9042	0.8497	0.045
Mof_C 	C 	0.4409	0.3451	0.4954	0.045
Mof_C 	C 	0.6024	0.2594	0.1346	0.044
Mof_C 	C 	0.5472	0.9282	0.9744	0.038
Mof_C 	C 	0.657	0.3976	0.5322	0.044
Mof_C 	C 	0.9455	0.0958	0.4409	0.045
Mof_C 	C 	0.1299	0.623	0.3681	0.375
Mof_C 	C 	0.381	0.9538	0.9282	0.038
Mof_C 	C 	0.5488	0.0185	0.8357	-0.11
Mof_C 	C 	0.0958	0.4409	0.9455	0.045
Mof_C 	C 	0.7144	0.191	0.2916	-0.119
Mof_C 	C 	0.2856	0.809	0.7084	-0.119
Mof_C 	C 	0.5046	0.5591	0.6549	0.045
Mof_C 	C 	0.0185	0.8357	0.5488	-0.11
Mof_C 	C 	0.6549	0.0958	0.1503	0.045
Mof_C 	C 	0.0256	0.9538	0.5728	0.038
Mof_C 	C 	0.4766	0.2856	0.5772	-0.119
Mof_C 	C 	0.2916	0.7144	0.191	-0.119
Mof_C 	C 	0.4393	0.5494	0.6285	-0.112
Mof_C 	C 	0.9581	0.2103	0.4682	0.046
Mof_C 	C 	0.7618	0.6319	0.2549	0.375
Mof_C 	C 	0.1101	0.9209	0.5494	-0.112
Mof_C 	C 	0.8108	0.3715	0.9209	-0.112
Mof_C 	C 	0.5069	0.7451	0.377	0.375
Mof_C 	C 	0.5303	0.5488	0.7131	-0.109
Mof_C 	C 	0.5728	0.0256	0.9538	0.038
Mof_C 	C 	0.0461	0.0708	0.4583	-0.099
Mof_C 	C 	0.2869	0.4697	0.4512	-0.109
Mof_C 	C 	0.7421	0.2103	0.2522	0.046
Mof_C 	C 	0.2103	0.2522	0.7421	0.046
Mof_C 	C 	0.3715	0.5607	0.4506	-0.112
Mof_C 	C 	0.5772	0.4766	0.2856	-0.119
Mof_C 	C 	0.4409	0.9455	0.0958	0.045
Mof_C 	C 	0.9815	0.1643	0.4512	-0.11
Mof_C 	C 	0.3681	0.7451	0.2382	0.375
Mof_C 	C 	0.343	0.8752	0.7406	0.044
Mof_C 	C 	0.7421	0.4899	0.5318	0.046
Mof_C 	C 	0.6549	0.5046	0.5591	0.045
Mof_C 	C 	0.8172	0.9815	0.5303	-0.109
Mof_C 	C 	0.5878	0.5417	0.6125	-0.099
Mof_C 	C 	0.7406	0.8654	0.3976	0.044
Mof_C 	C 	0.2579	0.5101	0.4682	0.046
Mof_C 	C 	0.0791	0.1892	0.6285	-0.112
Mof_C 	C 	0.623	0.3681	0.1299	0.375
Mof_C 	C 	0.9292	0.9753	0.3875	-0.099
Mof_C 	C 	0.7478	0.2579	0.7897	0.046
Mof_C 	C 	0.7084	0.8994	0.4228	-0.119
Mof_C 	C 	0.9209	0.8108	0.3715	-0.112
Mof_C 	C 	0.4272	0.381	0.4528	0.038
Mof_C 	C 	0.8899	0.4393	0.8108	-0.112
Mof_C 	C 	0.9209	0.5494	0.1101	-0.112
Mof_C 	C 	0.7406	0.343	0.8752	0.044
Mof_C 	C 	0.8172	0.2869	0.8357	-0.109
Mof_C 	C 	0.7618	0.5069	0.1299	0.375
Mof_C 	C 	0.6125	0.0708	0.0247	-0.099
Mof_C 	C 	0.1503	0.6549	0.0958	0.045
Mof_C 	C 	0.1503	0.0545	0.4954	0.045
Mof_C 	C 	0.4931	0.2549	0.623	0.375
Mof_C 	C 	0.2549	0.7618	0.6319	0.375
Mof_C 	C 	0.9539	0.9292	0.5417	-0.099
Mof_C 	C 	0.1892	0.1101	0.5607	-0.112
Mof_C 	C 	0.6319	0.8701	0.377	0.375
Mof_C 	C 	0.7478	0.9581	0.4899	0.045
Mof_C 	C 	0.4697	0.1828	0.0185	-0.109
Mof_C 	C 	0.9282	0.381	0.9538	0.038
Mof_C 	C 	0.623	0.4931	0.2549	0.375
Mof_C 	C 	0.5591	0.0545	0.9042	0.045
Mof_C 	C 	0.4506	0.8899	0.0791	-0.112
Mof_C 	C 	0.5878	0.9753	0.0461	-0.099
Mof_C 	C 	0.5772	0.2916	0.1006	-0.119
Mof_C 	C 	0.6285	0.4393	0.5494	-0.112
Mof_C 	C 	0.0718	0.619	0.0462	0.038
Mof_C 	C 	0.4528	0.4272	0.381	0.038
Mof_C 	C 	0.4678	0.8654	0.1248	0.044
Mof_C 	C 	0.4583	0.3875	0.4122	-0.099
Mof_C 	C 	0.5417	0.9539	0.9292	-0.099
Mof_C 	C 	0.8108	0.8899	0.4393	-0.112
Mof_C 	C 	0.3976	0.5322	0.657	0.044
Mof_C 	C 	0.8701	0.2382	0.4931	0.375
Mof_C 	C 	0.377	0.6319	0.8701	0.375
Mof_C 	C 	0.8357	0.5488	0.0185	-0.11
Mof_C 	C 	0.1346	0.8752	0.5322	0.044
Mof_C 	C 	0.9042	0.5591	0.0545	0.045
Mof_C 	C 	0.9744	0.5472	0.9282	0.038
Mof_C 	C 	0.5318	0.7421	0.4899	0.046
Mof_C 	C 	0.2594	0.1346	0.6024	0.044
Mof_C 	C 	0.9455	0.5046	0.8497	0.045
Mof_C 	C 	0.9744	0.0462	0.4272	0.038
Mof_C 	C 	0.8994	0.4228	0.7084	-0.119
Mof_C 	C 	0.1101	0.5607	0.1892	-0.112
Mof_C 	C 	0.4931	0.8701	0.2382	0.375
Mof_C 	C 	0.4506	0.3715	0.5607	-0.112
Mof_C 	C 	0.5472	0.5728	0.619	0.038
Mof_C 	C 	0.8497	0.9455	0.5046	0.045
Mof_C 	C 	0.1892	0.6285	0.0791	-0.112
Mof_C 	C 	0.0256	0.4528	0.0718	0.038
Mof_C 	C 	0.4954	0.4409	0.3451	0.045
Mof_C 	C 	0.0958	0.1503	0.6549	0.045
Mof_C 	C 	0.9753	0.0461	0.5878	-0.099
Mof_C 	C 	0.343	0.6024	0.4678	0.044
Mof_C 	C 	0.9292	0.5417	0.9539	-0.099
Mof_C 	C 	0.619	0.5472	0.5728	0.038
Mof_C 	C 	0.4682	0.9581	0.2103	0.046
Mof_C 	C 	0.0247	0.9539	0.4122	-0.099
Mof_C 	C 	0.0419	0.7897	0.5318	0.046
Mof_C 	C 	0.7144	0.4228	0.5234	-0.119
Mof_C 	C 	0.6285	0.0791	0.1892	-0.112
Mof_C 	C 	0.2103	0.4682	0.9581	0.046
Mof_C 	C 	0.619	0.0462	0.0718	0.038
Mof_C 	C 	0.2382	0.3681	0.7451	0.375
Mof_C 	C 	0.5046	0.8497	0.9455	0.045
Mof_C 	C 	0.4528	0.0718	0.0256	0.038
Mof_C 	C 	0.0791	0.4506	0.8899	-0.112
Mof_C 	C 	0.0708	0.4583	0.0461	-0.099
Mof_C 	C 	0.0708	0.0247	0.6125	-0.099
Mof_C 	C 	0.4583	0.0461	0.0708	-0.099
Mof_C 	C 	0.7084	0.2856	0.809	-0.119
Mof_C 	C 	0.8994	0.191	0.4766	-0.119
Mof_C 	C 	0.8701	0.377	0.6319	0.375
Mof_C 	C 	0.9581	0.4899	0.7478	0.045
Mof_C 	C 	0.9539	0.4122	0.0247	-0.099
Mof_C 	C 	0.5488	0.7131	0.5303	-0.11
Mof_C 	C 	0.0462	0.0718	0.619	0.038
Mof_C 	C 	0.3715	0.9209	0.8108	-0.112
Mof_C 	C 	0.5318	0.0419	0.7897	0.046
Mof_C 	C 	0.1299	0.7618	0.5069	0.375
Mof_C 	C 	0.8357	0.8172	0.2869	-0.109
Mof_C 	C 	0.1643	0.1828	0.7131	-0.109
Mof_C 	C 	0.4678	0.343	0.6024	0.044
Mof_C 	C 	0.5607	0.4506	0.3715	-0.112
Mof_C 	C 	0.3875	0.4122	0.4583	-0.099
Mof_C 	C 	0.0545	0.4954	0.1503	0.045
Mof_C 	C 	0.2579	0.7897	0.7478	0.046
Mof_C 	C 	0.657	0.1248	0.2594	0.044
Mof_C 	C 	0.5101	0.2522	0.0419	0.045
Mof_C 	C 	0.8497	0.3451	0.9042	0.045
Mof_C 	C 	0.5322	0.657	0.3976	0.044
Mof_C 	C 	0.6319	0.2549	0.7618	0.375
Mof_C 	C 	0.8654	0.1248	0.4678	0.044
Mof_C 	C 	0.5234	0.1006	0.809	-0.119
Mof_C 	C 	0.191	0.4766	0.8994	-0.119
Mof_C 	C 	0.4512	0.2869	0.4697	-0.11
Mof_C 	C 	0.4122	0.0247	0.9539	-0.099
Mof_C 	C 	0.1006	0.5772	0.2916	-0.119
Mof_C 	C 	0.7131	0.1643	0.1828	-0.109
Mof_C 	C 	0.9282	0.9744	0.5472	0.038
Mof_C 	C 	0.1643	0.4512	0.9815	-0.11
Mof_C 	C 	0.4954	0.1503	0.0545	0.045
Mof_C 	C 	0.4682	0.2579	0.5101	0.046
Mof_C 	C 	0.6125	0.5878	0.5417	-0.099
Mof_C 	C 	0.2382	0.4931	0.8701	0.375
Mof_C 	C 	0.5728	0.619	0.5472	0.038
Mof_C 	C 	0.5101	0.4682	0.2579	0.046
Mof_C 	C 	0.2522	0.7421	0.2103	0.046
Mof_C 	C 	0.809	0.7084	0.2856	-0.119
Mof_C 	C 	0.0185	0.4697	0.1828	-0.109
Mof_C 	C 	0.9753	0.3875	0.9292	-0.099
Mof_C 	C 	0.8899	0.0791	0.4506	-0.112
Mof_C 	C 	0.6024	0.4678	0.343	0.044
Mof_C 	C 	0.381	0.4528	0.4272	0.038
Mof_C 	C 	0.5234	0.7144	0.4228	-0.119
Mof_C 	C 	0.1248	0.4678	0.8654	0.044
Mof_C 	C 	0.9538	0.9282	0.381	0.038
Mof_C 	C 	0.2856	0.5772	0.4766	-0.119
Mof_C 	C 	0.1828	0.7131	0.1643	-0.109
Mof_C 	C 	0.4393	0.8108	0.8899	-0.112
Mof_C 	C 	0.4272	0.9744	0.0462	0.038
Mof_C 	C 	0.2522	0.0419	0.5101	0.045
Mof_C 	C 	0.2869	0.8357	0.8172	-0.109
Mof_C 	C 	0.4899	0.7478	0.9581	0.045
Mof_C 	C 	0.1248	0.2594	0.657	0.044
Mof_C 	C 	0.5322	0.1346	0.8752	0.044
Mof_C 	C 	0.0718	0.0256	0.4528	0.038
Mof_C 	C 	0.5607	0.1892	0.1101	-0.112
Mof_C 	C 	0.5069	0.1299	0.7618	0.375
Mof_C 	C 	0.4697	0.4512	0.2869	-0.109
Mof_C 	C 	0.5303	0.8172	0.9815	-0.109
Mof_C 	C 	0.5494	0.1101	0.9209	-0.112
Mof_C 	C 	0.9815	0.5303	0.8172	-0.109
Mof_C 	C 	0.9538	0.5728	0.0256	0.038
Mof_C 	C 	0.191	0.2916	0.7144	-0.119
Mof_C 	C 	0.8654	0.3976	0.7406	0.044
Mof_C 	C 	0.0545	0.9042	0.5591	0.045
Mof_C 	C 	0.4512	0.9815	0.1643	-0.11
Mof_C 	C 	0.1006	0.809	0.5234	-0.119
Mof_C 	C 	0.7451	0.377	0.5069	0.375
Mof_C 	C 	0.7897	0.7478	0.2579	0.046
Mof_C 	C 	0.4766	0.8994	0.191	-0.119
Mof_C 	C 	0.377	0.5069	0.7451	0.375
Mof_C 	C 	0.3681	0.1299	0.623	0.375
Mof_C 	C 	0.0461	0.5878	0.9753	-0.099
Mof_O 	O 	0.60318	0.90082	0.40234	-0.407
Mof_O 	O 	0.59766	0.39682	0.09918	-0.407
Mof_O 	O 	0.71727	0.21615	0.39868	-0.419
Mof_O 	O 	0.50112	0.71727	0.31859	-0.419
Mof_O 	O 	0.09918	0.59766	0.39682	-0.407
Mof_O 	O 	0.39682	0.79916	0.29764	-0.407
Mof_O 	O 	0.79916	0.29764	0.39682	-0.407
Mof_O 	O 	0.70236	0.50152	0.09918	-0.407
Mof_O 	O 	0.31859	0.60132	0.81747	-0.419
Mof_O 	O 	0.49888	0.81747	0.21615	-0.419
Mof_O 	O 	0.28273	0.78385	0.60132	-0.419
Mof_O 	O 	0.39868	0.18253	0.68141	-0.419
Mof_O 	O 	0.60318	0.20084	0.70236	-0.407
Mof_O 	O 	0.09918	0.70236	0.50152	-0.407
Mof_O 	O 	0.28273	0.68141	0.49888	-0.419
Mof_O 	O 	0.68141	0.39868	0.18253	-0.419
Mof_O 	O 	0.90082	0.40234	0.60318	-0.407
Mof_O 	O 	0.39868	0.71727	0.21615	-0.419
Mof_O 	O 	0.81747	0.31859	0.60132	-0.419
Mof_O 	O 	0.50152	0.79916	0.40234	-0.407
Mof_O 	O 	0.18253	0.68141	0.39868	-0.419
Mof_O 	O 	0.79916	0.40234	0.50152	-0.407
Mof_O 	O 	0.59766	0.49848	0.20084	-0.407
Mof_O 	O 	0.78385	0.60132	0.28273	-0.419
Mof_O 	O 	0.29764	0.39682	0.79916	-0.407
Mof_O 	O 	0.49848	0.90082	0.29764	-0.407
Mof_O 	O 	0.78385	0.50112	0.18253	-0.419
Mof_O 	O 	0.60132	0.81747	0.31859	-0.419
Mof_O 	O 	0.68141	0.49888	0.28273	-0.419
Mof_O 	O 	0.20084	0.70236	0.60318	-0.407
Mof_O 	O 	0.40234	0.50152	0.79916	-0.407
Mof_O 	O 	0.60132	0.28273	0.78385	-0.419
Mof_O 	O 	0.31859	0.50112	0.71727	-0.419
Mof_O 	O 	0.18253	0.78385	0.50112	-0.419
Mof_O 	O 	0.21615	0.49888	0.81747	-0.419
Mof_O 	O 	0.50152	0.09918	0.70236	-0.407
Mof_O 	O 	0.49848	0.20084	0.59766	-0.407
Mof_O 	O 	0.70236	0.60318	0.20084	-0.407
Mof_O 	O 	0.39682	0.09918	0.59766	-0.407
Mof_O 	O 	0.29764	0.49848	0.90082	-0.407
Mof_O 	O 	0.49888	0.28273	0.68141	-0.419
Mof_O 	O 	0.21615	0.39868	0.71727	-0.419
Mof_O 	O 	0.71727	0.31859	0.50112	-0.419
Mof_O 	O 	0.90082	0.29764	0.49848	-0.407
Mof_O 	O 	0.81747	0.21615	0.49888	-0.419
Mof_O 	O 	0.20084	0.59766	0.49848	-0.407
Mof_O 	O 	0.40234	0.60318	0.90082	-0.407
Mof_O 	O 	0.50112	0.18253	0.78385	-0.419
_end
