# CIF file generated by openbabel 3.1.0, see https://openbabel.org
data_I
_chemical_name_common 'OTOROF_clean'
_cell_length_a 8.531
_cell_length_b 13.376
_cell_length_c 13.631
_cell_angle_alpha 90
_cell_angle_beta 90
_cell_angle_gamma 90
_space_group_name_H-M_alt 'P 1'
_space_group_name_Hall 'P 1'
loop_
    _symmetry_equiv_pos_as_xyz
    x,y,z
loop_
    _atom_site_label
    _atom_site_type_symbol
    _atom_site_fract_x
    _atom_site_fract_y
    _atom_site_fract_z
    _atom_site_occupancy
    Mn1      Mn       0.81501    0.75000    0.77540    1.000
    Mn2      Mn       0.31501    0.25000    0.72460    1.000
    Mn3      Mn       0.18499    0.25000    0.22460    1.000
    Mn4      Mn       0.68499    0.75000    0.27540    1.000
    Fe1      Fe       0.50000    0.00000    0.00000    1.000
    Fe2      Fe       0.00000    0.00000    0.50000    1.000
    Fe3      Fe       0.50000    0.50000    0.00000    1.000
    Fe4      Fe       0.00000    0.50000    0.50000    1.000
    C1       C        0.62670    0.91553    0.91546    1.000
    C2       C        0.68640    0.07543    0.03067    1.000
    C3       C        0.55090    0.91459    0.11044    1.000
    C4       C        0.12670    0.08447    0.58454    1.000
    C5       C        0.18640    0.92457    0.46933    1.000
    C6       C        0.05090    0.08541    0.38956    1.000
    C7       C        0.37330    0.41553    0.08454    1.000
    C8       C        0.31360    0.57543    0.96933    1.000
    C9       C        0.44910    0.41459    0.88956    1.000
    C10      C        0.87330    0.58447    0.41546    1.000
    C11      C        0.81360    0.42457    0.53067    1.000
    C12      C        0.94910    0.58541    0.61044    1.000
    C13      C        0.37330    0.08447    0.08454    1.000
    C14      C        0.31360    0.92457    0.96933    1.000
    C15      C        0.44910    0.08541    0.88956    1.000
    C16      C        0.87330    0.91553    0.41546    1.000
    C17      C        0.81360    0.07543    0.53067    1.000
    C18      C        0.94910    0.91459    0.61044    1.000
    C19      C        0.62670    0.58447    0.91546    1.000
    C20      C        0.68640    0.42457    0.03067    1.000
    C21      C        0.55090    0.58541    0.11044    1.000
    C22      C        0.12670    0.41553    0.58454    1.000
    C23      C        0.18640    0.57543    0.46933    1.000
    C24      C        0.05090    0.41459    0.38956    1.000
    N1       N        0.70160    0.86591    0.86551    1.000
    N2       N        0.58540    0.86409    0.17437    1.000
    N3       N        0.79730    0.11793    0.04923    1.000
    N4       N        0.20160    0.13409    0.63449    1.000
    N5       N        0.08540    0.13591    0.32563    1.000
    N6       N        0.29730    0.88207    0.45077    1.000
    N7       N        0.29840    0.36591    0.13449    1.000
    N8       N        0.41460    0.36409    0.82563    1.000
    N9       N        0.20270    0.61793    0.95077    1.000
    N10      N        0.79840    0.63409    0.36551    1.000
    N11      N        0.91460    0.63591    0.67437    1.000
    N12      N        0.70270    0.38207    0.54923    1.000
    N13      N        0.29840    0.13409    0.13449    1.000
    N14      N        0.41460    0.13591    0.82563    1.000
    N15      N        0.20270    0.88207    0.95077    1.000
    N16      N        0.79840    0.86591    0.36551    1.000
    N17      N        0.91460    0.86409    0.67437    1.000
    N18      N        0.70270    0.11793    0.54923    1.000
    N19      N        0.70160    0.63409    0.86551    1.000
    N20      N        0.58540    0.63591    0.17437    1.000
    N21      N        0.79730    0.38207    0.04923    1.000
    N22      N        0.20160    0.36591    0.63449    1.000
    N23      N        0.08540    0.36409    0.32563    1.000
    N24      N        0.29730    0.61793    0.45077    1.000
