# CIF file generated by openbabel 3.1.0, see https://openbabel.org
data_I
_chemical_name_common 'ic501477u_si_002_clean'
_cell_length_a 18.0208
_cell_length_b 18.0208
_cell_length_c 18.3684
_cell_angle_alpha 69.5197
_cell_angle_beta 62.0287
_cell_angle_gamma 99.514
_space_group_name_H-M_alt 'P 1'
_space_group_name_Hall 'P 1'
loop_
    _symmetry_equiv_pos_as_xyz
    x,y,z
loop_
    _atom_site_label
    _atom_site_type_symbol
    _atom_site_fract_x
    _atom_site_fract_y
    _atom_site_fract_z
    _atom_site_occupancy
    Zn1      Zn       0.96189    0.81981    0.48808    1.000
    Zn2      Zn       0.19211    0.55003    0.98808    1.000
    H1       H        0.10420    0.66280    0.75880    1.000
    H2       H        0.38910    0.80490    0.15180    1.000
    H3       H        0.62990    0.53870    0.55860    1.000
    H4       H        0.53170    0.53270    0.58640    1.000
    H5       H        0.54330    0.45910    0.65180    1.000
    H6       H        0.03100    0.29140    0.05220    1.000
    H7       H        0.95710    0.66860    0.59710    1.000
    H8       H        0.28290    0.89630    0.21380    1.000
    H9       H        0.11320    0.32100    0.17180    1.000
    H10      H        0.25860    0.49970    0.83270    1.000
    H11      H        0.28900    0.84030    0.73190    1.000
    H12      H        0.23430    0.44580    0.09710    1.000
    H13      H        0.40270    0.81150    0.05860    1.000
    H14      H        0.72920    0.61800    0.54500    1.000
    H15      H        0.04830    0.52360    0.14930    1.000
    H16      H        0.31890    0.92450    0.57840    1.000
    H17      H        0.10250    0.66740    0.31130    1.000
    H18      H        0.82710    0.80240    0.64930    1.000
    H19      H        0.38990    0.50330    0.71380    1.000
    H20      H        0.16760    0.90870    0.33270    1.000
    H21      H        0.07840    0.13700    0.25880    1.000
    H22      H        0.33700    0.72580    0.04500    1.000
    H23      H        0.15640    0.91680    0.55220    1.000
    H24      H        0.38090    0.88190    0.08640    1.000
    H25      H        0.28420    0.73590    0.84830    1.000
    H26      H        0.38680    0.57100    0.93360    1.000
    H27      H        0.14420    0.45170    0.16630    1.000
    H28      H        0.99710    0.10270    0.07840    1.000
    H29      H        0.92780    0.97910    0.23190    1.000
    H30      H        0.24520    0.94270    0.65170    1.000
    H31      H        0.82640    0.86880    0.56680    1.000
    H32      H        0.70530    0.73020    0.65250    1.000
    H33      H        0.52130    0.58620    0.81130    1.000
    H34      H        0.98210    0.18900    0.05830    1.000
    H35      H        0.90560    0.10310    0.15170    1.000
    H36      H        0.00720    0.71500    0.67180    1.000
    H37      H        0.99540    0.67960    0.43360    1.000
    H38      H        0.09790    0.56070    0.88300    1.000
    H39      H        0.88200    0.68950    0.66630    1.000
    H40      H        0.11730    0.64220    0.15250    1.000
    H41      H        0.25270    0.95960    0.55830    1.000
    H42      H        0.05630    0.01910    0.38300    1.000
    H43      H        0.06440    0.60680    0.06680    1.000
    H44      H        0.91580    0.86750    0.34830    1.000
    C1       C        0.56790    0.52010    0.61040    1.000
    C2       C        0.99990    0.06960    0.23810    1.000
    C3       C        0.94780    0.92330    0.33170    1.000
    C4       C        0.23620    0.65810    0.05110    1.000
    C5       C        0.05480    0.83360    0.57260    1.000
    C6       C        0.13950    0.67940    0.77890    1.000
    C7       C        0.56600    0.56960    0.66720    1.000
    C8       C        0.19230    0.76200    0.73810    1.000
    C9       C        0.24500    0.72050    0.83170    1.000
    C10      C        0.22420    0.85270    0.25610    1.000
    C11      C        0.09380    0.37260    0.07260    1.000
    C12      C        0.02990    0.01020    0.35210    1.000
    C13      C        0.79080    0.71270    0.55110    1.000
    C14      C        0.15420    0.85890    0.32850    1.000
    C15      C        0.20200    0.77710    0.25010    1.000
    C16      C        0.95420    0.98910    0.26230    1.000
    C17      C        0.13770    0.61800    0.85210    1.000
    C18      C        0.97050    0.13550    0.10660    1.000
    C19      C        0.31260    0.51730    0.82850    1.000
    C20      C        0.04170    0.08160    0.27890    1.000
    C21      C        0.47280    0.54790    0.75010    1.000
    C22      C        0.01230    0.15380    0.15590    1.000
    C23      C        0.26320    0.76680    0.16720    1.000
    C24      C        0.05230    0.72530    0.38740    1.000
    C25      C        0.38730    0.56030    0.88740    1.000
    C26      C        0.11820    0.71730    0.31470    1.000
    C27      C        0.39120    0.51970    0.75610    1.000
    C28      C        0.25790    0.92290    0.60660    1.000
    C29      C        0.24860    0.78350    0.76230    1.000
    C30      C        0.46800    0.56710    0.81470    1.000
    C31      C        0.36950    0.82170    0.11040    1.000
    C32      C        0.19030    0.83180    0.65590    1.000
    N1       N        0.62840    0.62080    0.65320    1.000
    N2       N        0.04740    0.22430    0.15170    1.000
    N3       N        0.27820    0.70460    0.07620    1.000
    N4       N        0.14380    0.62940    0.10860    1.000
    N5       N        0.17490    0.44440    0.11110    1.000
    N6       N        0.00280    0.74690    0.62790    1.000
    N7       N        0.30970    0.53840    0.89190    1.000
    N8       N        0.94450    0.71400    0.61110    1.000
    N9       N        0.11990    0.86330    0.58420    1.000
    N10      N        0.18930    0.63760    0.87850    1.000
    N11      N        0.98390    0.93220    0.37850    1.000
    N12      N        0.06970    0.79840    0.39190    1.000
    N13      N        0.12520    0.36930    0.12790    1.000
    N14      N        0.71920    0.64560    0.57620    1.000
    N15      N        0.09460    0.57700    0.09120    1.000
    N16      N        0.05250    0.29590    0.08420    1.000
    N17      N        0.12400    0.80090    0.65170    1.000
    N18      N        0.76200    0.74760    0.60860    1.000
    N19      N        0.22600    0.71840    0.15320    1.000
    N20      N        0.83180    0.81420    0.59120    1.000
    O1       O        0.04370    0.88340    0.51470    1.000
    O2       O        0.27900    0.64330    0.98730    1.000
    O3       O        0.10190    0.44160    0.01470    1.000
    O4       O        0.86940    0.73370    0.48730    1.000
    Zn3      Zn       0.80789    0.44997    0.01192    1.000
    Zn4      Zn       0.03811    0.18019    0.51192    1.000
    H45      H        0.17290    0.19760    0.35070    1.000
    H46      H        0.94370    0.98090    0.61700    1.000
    H47      H        0.01790    0.81100    0.94170    1.000
    H48      H        0.96900    0.70860    0.94780    1.000
    H49      H        0.71710    0.10370    0.78620    1.000
    H50      H        0.83240    0.09130    0.66730    1.000
    H51      H        0.59730    0.18850    0.94140    1.000
    H52      H        0.00290    0.89730    0.92160    1.000
    H53      H        0.85580    0.54830    0.83370    1.000
    H54      H        0.89750    0.33260    0.68870    1.000
    H55      H        0.07220    0.02090    0.76810    1.000
    H56      H        0.00460    0.32040    0.56640    1.000
    H57      H        0.09440    0.89690    0.84830    1.000
    H58      H        0.46830    0.46730    0.41360    1.000
    H59      H        0.61320    0.42900    0.06640    1.000
    H60      H        0.74730    0.04040    0.44170    1.000
    H61      H        0.93560    0.39320    0.93320    1.000
    H62      H        0.95170    0.47640    0.85070    1.000
    H63      H        0.61090    0.19510    0.84820    1.000
    H64      H        0.04290    0.33140    0.40290    1.000
    H65      H        0.08420    0.13250    0.65170    1.000
    H66      H        0.84360    0.08320    0.44780    1.000
    H67      H        0.99280    0.28500    0.32820    1.000
    H68      H        0.88680    0.67900    0.82820    1.000
    H69      H        0.89580    0.33720    0.24120    1.000
    H70      H        0.74140    0.50030    0.16730    1.000
    H71      H        0.37010    0.46130    0.44140    1.000
    H72      H        0.11800    0.31050    0.33370    1.000
    H73      H        0.88270    0.35780    0.84750    1.000
    H74      H        0.27080    0.38200    0.45500    1.000
    H75      H        0.29470    0.26980    0.34750    1.000
    H76      H        0.71100    0.15970    0.26810    1.000
    H77      H        0.75480    0.05730    0.34830    1.000
    H78      H        0.45670    0.54090    0.34820    1.000
    H79      H        0.71580    0.26410    0.15170    1.000
    H80      H        0.68110    0.07550    0.42160    1.000
    H81      H        0.76570    0.55420    0.90290    1.000
    H82      H        0.17360    0.13120    0.43320    1.000
    H83      H        0.47870    0.41380    0.18870    1.000
    H84      H        0.92160    0.86300    0.74120    1.000
    H85      H        0.90210    0.43930    0.11700    1.000
    H86      H        0.66300    0.27420    0.95500    1.000
    H87      H        0.61010    0.49670    0.28620    1.000
    H88      H        0.61910    0.11810    0.91360    1.000
    C33      C        0.53200    0.43290    0.18530    1.000
    C34      C        0.60880    0.48030    0.24390    1.000
    C35      C        0.05220    0.07670    0.66830    1.000
    C36      C        0.80970    0.16820    0.34410    1.000
    C37      C        0.79800    0.22290    0.74990    1.000
    C38      C        0.63050    0.17830    0.88960    1.000
    C39      C        0.76380    0.34190    0.94890    1.000
    C40      C        0.77580    0.14730    0.74390    1.000
    C41      C        0.04580    0.01090    0.73770    1.000
    C42      C        0.90620    0.62740    0.92740    1.000
    C43      C        0.75140    0.21650    0.23770    1.000
    C44      C        0.95830    0.91840    0.72110    1.000
    C45      C        0.97010    0.98980    0.64790    1.000
    C46      C        0.02950    0.86450    0.89340    1.000
    C47      C        0.68740    0.48270    0.17150    1.000
    C48      C        0.98770    0.84620    0.84410    1.000
    C49      C        0.80770    0.23800    0.26190    1.000
    C50      C        0.84580    0.14110    0.67150    1.000
    C51      C        0.94520    0.16640    0.42740    1.000
    C52      C        0.88180    0.28270    0.68530    1.000
    C53      C        0.43400    0.43040    0.33280    1.000
    C54      C        0.52720    0.45210    0.24990    1.000
    C55      C        0.00010    0.93040    0.76190    1.000
    C56      C        0.86230    0.38200    0.14790    1.000
    C57      C        0.94770    0.27470    0.61260    1.000
    C58      C        0.75500    0.27950    0.16830    1.000
    C59      C        0.86050    0.32060    0.22110    1.000
    C60      C        0.61270    0.43970    0.11260    1.000
    C61      C        0.74210    0.07710    0.39340    1.000
    C62      C        0.20920    0.28730    0.44890    1.000
    C63      C        0.43210    0.47990    0.38960    1.000
    C64      C        0.73680    0.23320    0.83280    1.000
    N21      N        0.90540    0.42300    0.90880    1.000
    N22      N        0.69030    0.46160    0.10810    1.000
    N23      N        0.23800    0.25240    0.39140    1.000
    N24      N        0.87480    0.63070    0.87210    1.000
    N25      N        0.81070    0.36240    0.12150    1.000
    N26      N        0.72180    0.29540    0.92380    1.000
    N27      N        0.88010    0.13670    0.41580    1.000
    N28      N        0.16820    0.18580    0.40880    1.000
    N29      N        0.37160    0.37920    0.34680    1.000
    N30      N        0.93030    0.20160    0.60810    1.000
    N31      N        0.01610    0.06780    0.62150    1.000
    N32      N        0.87600    0.19910    0.34830    1.000
    N33      N        0.95260    0.77570    0.84830    1.000
    N34      N        0.28080    0.35440    0.42380    1.000
    N35      N        0.82510    0.55560    0.88890    1.000
    N36      N        0.77400    0.28160    0.84680    1.000
    N37      N        0.85620    0.37060    0.89140    1.000
    N38      N        0.94750    0.70410    0.91580    1.000
    N39      N        0.99720    0.25310    0.37210    1.000
    N40      N        0.05550    0.28600    0.38890    1.000
    O5       O        0.95630    0.11660    0.48530    1.000
    O6       O        0.72100    0.35670    0.01270    1.000
    O7       O        0.89810    0.55840    0.98530    1.000
    O8       O        0.13060    0.26630    0.51270    1.000
