# CIF file generated by openbabel 3.1.0, see https://openbabel.org
data_I
_chemical_name_common 'image0'
_cell_length_a 12.8097
_cell_length_b 8.1785
_cell_length_c 23.3387
_cell_angle_alpha 90
_cell_angle_beta 104.414
_cell_angle_gamma 90
_space_group_name_H-M_alt 'P 1'
_space_group_name_Hall 'P 1'
loop_
    _symmetry_equiv_pos_as_xyz
    x,y,z
loop_
    _atom_site_label
    _atom_site_type_symbol
    _atom_site_fract_x
    _atom_site_fract_y
    _atom_site_fract_z
    _atom_site_occupancy
    Cd1      Cd       0.31075    0.77039    0.40366    1.000
    O1       O        0.13060    0.75810    0.34101    1.000
    S1       S        0.03052    0.84396    0.34216    1.000
    C1       C        0.74270    0.24660    0.47200    1.000
    H1       H        0.70010    0.15320    0.46740    1.000
    C2       C        0.04210    0.88890    0.22884    1.000
    H2       H        0.10450    0.82670    0.24070    1.000
    N1       N        0.38490    0.84570    0.32852    1.000
    O2       O        0.17520    0.01060    0.13040    1.000
    N2       N        0.75690    0.32950    0.52199    1.000
    C3       C        0.78780    0.29100    0.42612    1.000
    C4       C        0.00890    0.94350    0.17051    1.000
    C5       C        0.63760    0.03330    0.30670    1.000
    C6       C        0.81470    0.05920    0.28981    1.000
    C7       C        0.71050    0.99930    0.27310    1.000
    H3       H        0.68910    0.93580    0.23910    1.000
    C8       C        0.98320    0.92660    0.26893    1.000
    C9       C        0.33840    0.79670    0.27330    1.000
    H4       H        0.27570    0.73480    0.26690    1.000
    N3       N        0.66450    0.12570    0.35615    1.000
    C10      C        0.52760    0.96140    0.29249    1.000
    C11      C        0.76420    0.18900    0.37122    1.000
    O3       O        0.94680    0.73740    0.35155    1.000
    C12      C        0.91660    0.03630    0.15274    1.000
    H5       H        0.89500    0.07490    0.11410    1.000
    C13      C        0.81760    0.46340    0.52820    1.000
    H6       H        0.82880    0.52200    0.56340    1.000
    C14      C        0.86470    0.51880    0.48490    1.000
    H7       H        0.90560    0.61420    0.49040    1.000
    C15      C        0.84170    0.15820    0.33997    1.000
    H8       H        0.91040    0.20300    0.35240    1.000
    C16      C        0.88860    0.01920    0.25174    1.000
    C17      C        0.85040    0.43130    0.43340    1.000
    H9       H        0.88230    0.46560    0.40370    1.000
    C18      C        0.85650    0.07160    0.19293    1.000
    H10      H        0.79310    0.13150    0.18050    1.000
    C19      C        0.37880    0.83350    0.22610    1.000
    H11      H        0.34170    0.80220    0.18820    1.000
    O4       O        0.05140    0.98350    0.38222    1.000
    C20      C        0.47450    0.91700    0.23480    1.000
    H12      H        0.50330    0.94320    0.20310    1.000
    C21      C        0.47770    0.92660    0.33700    1.000
    H13      H        0.51070    0.96160    0.37510    1.000
    S2       S        0.08651    0.89386    0.11979    1.000
    O5       O        0.12760    0.72950    0.13500    1.000
    O6       O        0.01600    0.90930    0.06219    1.000
    Cd2      Cd       0.18925    0.27039    0.09634    1.000
    O7       O        0.36940    0.25810    0.15899    1.000
    S3       S        0.46948    0.34396    0.15784    1.000
    C22      C        0.75730    0.74660    0.02800    1.000
    H14      H        0.79990    0.65320    0.03260    1.000
    C23      C        0.45790    0.38890    0.27116    1.000
    H15      H        0.39550    0.32670    0.25930    1.000
    N4       N        0.11510    0.34570    0.17148    1.000
    O8       O        0.32480    0.51060    0.36960    1.000
    N5       N        0.74310    0.82950    0.97801    1.000
    C24      C        0.71220    0.79100    0.07388    1.000
    C25      C        0.49110    0.44350    0.32949    1.000
    C26      C        0.86240    0.53330    0.19330    1.000
    C27      C        0.68530    0.55920    0.21019    1.000
    C28      C        0.78950    0.49930    0.22690    1.000
    H16      H        0.81090    0.43580    0.26090    1.000
    C29      C        0.51680    0.42660    0.23107    1.000
    C30      C        0.16160    0.29670    0.22670    1.000
    H17      H        0.22430    0.23480    0.23310    1.000
    N6       N        0.83550    0.62570    0.14385    1.000
    C31      C        0.97240    0.46140    0.20751    1.000
    C32      C        0.73580    0.68900    0.12878    1.000
    O9       O        0.55320    0.23740    0.14845    1.000
    C33      C        0.58340    0.53630    0.34726    1.000
    H18      H        0.60500    0.57490    0.38590    1.000
    C34      C        0.68240    0.96340    0.97180    1.000
    H19      H        0.67120    0.02200    0.93660    1.000
    C35      C        0.63530    0.01880    0.01510    1.000
    H20      H        0.59440    0.11420    0.00960    1.000
    C36      C        0.65830    0.65820    0.16003    1.000
    H21      H        0.58960    0.70300    0.14760    1.000
    C37      C        0.61140    0.51920    0.24826    1.000
    C38      C        0.64960    0.93130    0.06660    1.000
    H22      H        0.61770    0.96560    0.09630    1.000
    C39      C        0.64350    0.57160    0.30707    1.000
    H23      H        0.70690    0.63150    0.31950    1.000
    C40      C        0.12120    0.33350    0.27390    1.000
    H24      H        0.15830    0.30220    0.31180    1.000
    O10      O        0.44860    0.48350    0.11778    1.000
    C41      C        0.02550    0.41700    0.26520    1.000
    H25      H        0.99670    0.44320    0.29690    1.000
    C42      C        0.02230    0.42660    0.16300    1.000
    H26      H        0.98930    0.46160    0.12490    1.000
    S4       S        0.41349    0.39386    0.38021    1.000
    O11      O        0.37240    0.22950    0.36500    1.000
    O12      O        0.48400    0.40930    0.43781    1.000
    Cd3      Cd       0.68925    0.22961    0.59634    1.000
    O13      O        0.86940    0.24190    0.65899    1.000
    S5       S        0.96948    0.15604    0.65784    1.000
    C43      C        0.25730    0.75340    0.52800    1.000
    H27      H        0.29990    0.84680    0.53260    1.000
    C44      C        0.95790    0.11110    0.77116    1.000
    H28      H        0.89550    0.17330    0.75930    1.000
    N7       N        0.61510    0.15430    0.67148    1.000
    O14      O        0.82480    0.98940    0.86960    1.000
    N8       N        0.24310    0.67050    0.47801    1.000
    C45      C        0.21220    0.70900    0.57388    1.000
    C46      C        0.99110    0.05650    0.82949    1.000
    C47      C        0.36240    0.96670    0.69330    1.000
    C48      C        0.18530    0.94080    0.71019    1.000
    C49      C        0.28950    0.00070    0.72690    1.000
    H29      H        0.31090    0.06420    0.76090    1.000
    C50      C        0.01680    0.07340    0.73107    1.000
    C51      C        0.66160    0.20330    0.72670    1.000
    H30      H        0.72430    0.26520    0.73310    1.000
    N9       N        0.33550    0.87430    0.64385    1.000
    C52      C        0.47240    0.03860    0.70751    1.000
    C53      C        0.23580    0.81100    0.62878    1.000
    O15      O        0.05320    0.26260    0.64845    1.000
    C54      C        0.08340    0.96370    0.84726    1.000
    H31      H        0.10500    0.92510    0.88590    1.000
    C55      C        0.18240    0.53660    0.47180    1.000
    H32      H        0.17120    0.47800    0.43660    1.000
    C56      C        0.13530    0.48120    0.51510    1.000
    H33      H        0.09440    0.38580    0.50960    1.000
    C57      C        0.15830    0.84180    0.66003    1.000
    H34      H        0.08960    0.79700    0.64760    1.000
    C58      C        0.11140    0.98080    0.74826    1.000
    C59      C        0.14960    0.56870    0.56660    1.000
    H35      H        0.11770    0.53440    0.59630    1.000
    C60      C        0.14350    0.92840    0.80707    1.000
    H36      H        0.20690    0.86850    0.81950    1.000
    C61      C        0.62120    0.16650    0.77390    1.000
    H37      H        0.65830    0.19780    0.81180    1.000
    O16      O        0.94860    0.01650    0.61778    1.000
    C62      C        0.52550    0.08300    0.76520    1.000
    H38      H        0.49670    0.05680    0.79690    1.000
    C63      C        0.52230    0.07340    0.66300    1.000
    H39      H        0.48930    0.03840    0.62490    1.000
    S6       S        0.91349    0.10614    0.88021    1.000
    O17      O        0.87240    0.27050    0.86500    1.000
    O18      O        0.98400    0.09070    0.93781    1.000
    Cd4      Cd       0.81075    0.72961    0.90366    1.000
    O19      O        0.63060    0.74190    0.84101    1.000
    S7       S        0.53052    0.65604    0.84216    1.000
    C64      C        0.24270    0.25340    0.97200    1.000
    H40      H        0.20010    0.34680    0.96740    1.000
    C65      C        0.54210    0.61110    0.72884    1.000
    H41      H        0.60450    0.67330    0.74070    1.000
    N10      N        0.88490    0.65430    0.82852    1.000
    O20      O        0.67520    0.48940    0.63040    1.000
    N11      N        0.25690    0.17050    0.02199    1.000
    C66      C        0.28780    0.20900    0.92612    1.000
    C67      C        0.50890    0.55650    0.67051    1.000
    C68      C        0.13760    0.46670    0.80670    1.000
    C69      C        0.31470    0.44080    0.78981    1.000
    C70      C        0.21050    0.50070    0.77310    1.000
    H42      H        0.18910    0.56420    0.73910    1.000
    C71      C        0.48320    0.57340    0.76893    1.000
    C72      C        0.83840    0.70330    0.77330    1.000
    H43      H        0.77570    0.76520    0.76690    1.000
    N12      N        0.16450    0.37430    0.85615    1.000
    C73      C        0.02760    0.53860    0.79249    1.000
    C74      C        0.26420    0.31100    0.87122    1.000
    O21      O        0.44680    0.76260    0.85155    1.000
    C75      C        0.41660    0.46370    0.65274    1.000
    H44      H        0.39500    0.42510    0.61410    1.000
    C76      C        0.31760    0.03660    0.02820    1.000
    H45      H        0.32880    0.97800    0.06340    1.000
    C77      C        0.36470    0.98120    0.98490    1.000
    H46      H        0.40560    0.88580    0.99040    1.000
    C78      C        0.34170    0.34180    0.83997    1.000
    H47      H        0.41040    0.29700    0.85240    1.000
    C79      C        0.38860    0.48080    0.75174    1.000
    C80      C        0.35040    0.06870    0.93340    1.000
    H48      H        0.38230    0.03440    0.90370    1.000
    C81      C        0.35650    0.42840    0.69293    1.000
    H49      H        0.29310    0.36850    0.68050    1.000
    C82      C        0.87880    0.66650    0.72610    1.000
    H50      H        0.84170    0.69780    0.68820    1.000
    O22      O        0.55140    0.51650    0.88222    1.000
    C83      C        0.97450    0.58300    0.73480    1.000
    H51      H        0.00330    0.55680    0.70310    1.000
    C84      C        0.97770    0.57340    0.83700    1.000
    H52      H        0.01070    0.53840    0.87510    1.000
    S8       S        0.58651    0.60614    0.61979    1.000
    O23      O        0.62760    0.77050    0.63500    1.000
    O24      O        0.51600    0.59070    0.56219    1.000
