data_functionalizedCrystal
_audit_creation_method	'EQeq! by Chris Wilmer'
_symmetry_space_group_name_H-M	'P1'
_symmetry_Int_Tables_number	1
_symmetry_cell_setting	triclinic
loop_
_symmetry_equiv_pos_as_xyz
  x,y,z
_cell_length_a	15.873
_cell_length_b	16.9061
_cell_length_c	22.8297
_cell_angle_alpha	90
_cell_angle_beta	90
_cell_angle_gamma	90
loop_
_atom_site_label
_atom_site_type_symbol
_atom_site_fract_x
_atom_site_fract_y
_atom_site_fract_z
_atom_site_charge
Mof_Ag	Ag	0.31211	0.79303	0.80175	0.438
Mof_Ag	Ag	0.60041	0.80381	0.81186	0.458
Mof_Ag	Ag	0.88722	0.84802	0.82244	0.492
Mof_Cu	Cu	0.04281	0.8817	0.49996	0.902
Mof_Cu	Cu	0.37574	0.87844	0.48875	0.896
Mof_C 	C 	0.9847	0.7622	0.57148	0.316
Mof_C 	C 	0.0738	0.7752	0.59604	-0.125
Mof_H 	H 	0.106	0.7266	0.5892	0.088
Mof_C 	C 	0.0737	0.791	0.66174	-0.03
Mof_H 	H 	0.0372	0.753	0.681	0.031
Mof_H 	H 	0.0515	0.8435	0.6692	0.016
Mof_C 	C 	0.1625	0.7847	0.68726	-0.155
Mof_H 	H 	0.2018	0.8105	0.6609	0.068
Mof_H 	H 	0.1782	0.7293	0.6898	0.066
Mof_C 	C 	0.1746	0.9323	0.7404	-0.426
Mof_H 	H 	0.1795	0.9633	0.7755	0.158
Mof_H 	H 	0.1238	0.9465	0.7201	0.135
Mof_H 	H 	0.2222	0.9422	0.7156	0.131
Mof_C 	C 	0.3231	0.7556	0.55869	0.315
Mof_C 	C 	0.4069	0.7777	0.58855	-0.118
Mof_H 	H 	0.4434	0.731	0.5885	0.085
Mof_C 	C 	0.3908	0.8018	0.65241	-0.048
Mof_H 	H 	0.3688	0.8553	0.6535	0.017
Mof_H 	H 	0.3488	0.767	0.6693	0.027
Mof_C 	C 	0.471	0.7976	0.6885	-0.124
Mof_H 	H 	0.5147	0.8275	0.6686	0.053
Mof_H 	H 	0.4893	0.743	0.6905	0.049
Mof_C 	C 	0.456	0.9409	0.7506	-0.358
Mof_H 	H 	0.4501	0.9676	0.7875	0.131
Mof_H 	H 	0.4087	0.9533	0.7261	0.111
Mof_H 	H 	0.507	0.9579	0.7318	0.113
Mof_C 	C 	0.6493	0.7543	0.56152	0.319
Mof_C 	C 	0.7288	0.7736	0.59654	-0.116
Mof_H 	H 	0.7637	0.726	0.5997	0.087
Mof_C 	C 	0.7014	0.7996	0.65801	-0.057
Mof_H 	H 	0.6756	0.8516	0.6556	0.023
Mof_H 	H 	0.6593	0.763	0.6726	0.035
Mof_C 	C 	0.7741	0.8027	0.70048	-0.11
Mof_H 	H 	0.8198	0.8325	0.6829	0.044
Mof_H 	H 	0.7941	0.7493	0.7075	0.043
Mof_C 	C 	0.7323	0.949	0.7479	-0.34
Mof_H 	H 	0.7167	0.9801	0.7814	0.119
Mof_H 	H 	0.6886	0.952	0.7189	0.104
Mof_H 	H 	0.784	0.9689	0.7318	0.105
Mof_C 	C 	0.5133	0.0083	0.92067	0.296
Mof_C 	C 	0.4435	0.965	0.95364	-0.092
Mof_C 	C 	0.401	0.9012	0.91728	-0.054
Mof_H 	H 	0.4432	0.8642	0.9034	0.026
Mof_H 	H 	0.3747	0.9253	0.8833	0.044
Mof_C 	C 	0.3345	0.8564	0.95232	-0.137
Mof_H 	H 	0.2907	0.8932	0.964	0.061
Mof_H 	H 	0.3603	0.8359	0.9877	0.059
Mof_C 	C 	0.3587	0.6967	0.9304	-0.401
Mof_H 	H 	0.3404	0.6486	0.9119	0.112
Mof_H 	H 	0.3603	0.6893	0.9721	0.135
Mof_H 	H 	0.414	0.7102	0.9166	0.118
Mof_C 	C 	0.8363	0.0107	0.91704	0.311
Mof_C 	C 	0.7705	0.9672	0.95439	-0.108
Mof_H 	H 	0.8011	0.9418	0.9865	0.031
Mof_C 	C 	0.7249	0.9017	0.92125	-0.037
Mof_H 	H 	0.6954	0.9247	0.8882	0.037
Mof_H 	H 	0.7663	0.8648	0.906	0.007
Mof_C 	C 	0.662	0.8565	0.95889	-0.142
Mof_H 	H 	0.6198	0.8932	0.9731	0.063
Mof_H 	H 	0.6914	0.8352	0.9927	0.062
Mof_C 	C 	0.6904	0.7019	0.924	-0.393
Mof_H 	H 	0.6707	0.6546	0.9053	0.109
Mof_H 	H 	0.7042	0.6906	0.9641	0.134
Mof_H 	H 	0.7397	0.721	0.9041	0.112
Mof_C 	C 	0.3161	0.9867	0.4096	0.294
Mof_C 	C 	0.3899	0.0292	0.4395	-0.09
Mof_C 	C 	0.4322	0.0929	0.4033	-0.068
Mof_H 	H 	0.3895	0.1248	0.3841	0.042
Mof_H 	H 	0.4666	0.0685	0.3732	0.039
Mof_C 	C 	0.4869	0.1456	0.4416	-0.123
Mof_H 	H 	0.526	0.1121	0.4628	0.048
Mof_H 	H 	0.4509	0.171	0.4703	0.057
Mof_C 	C 	0.4662	0.2872	0.3768	-0.379
Mof_H 	H 	0.4919	0.3303	0.356	0.111
Mof_H 	H 	0.4339	0.3076	0.409	0.126
Mof_H 	H 	0.4298	0.2585	0.3508	0.118
Mof_N 	N 	0.1162	0.8399	0.56366	-0.309
Mof_H 	H 	0.1646	0.8217	0.5481	0.122
Mof_H 	H 	0.129	0.8793	0.5886	0.083
Mof_N 	N 	0.449	0.8411	0.55473	-0.311
Mof_H 	H 	0.498	0.8227	0.5402	0.123
Mof_H 	H 	0.4608	0.882	0.5786	0.083
Mof_N 	N 	0.7772	0.8364	0.56662	-0.311
Mof_H 	H 	0.8269	0.8167	0.5544	0.129
Mof_H 	H 	0.7879	0.8759	0.592	0.087
Mof_N 	N 	0.386	0.0249	0.97934	-0.336
Mof_N 	N 	0.71533	0.0272	0.98101	-0.32
Mof_H 	H 	0.6924	0.0085	0.0143	0.086
Mof_H 	H 	0.6735	0.0402	0.9562	0.134
Mof_N 	N 	0.448	0.9673	0.4617	-0.37
Mof_O 	O 	0.96079	0.80643	0.52979	-0.412
Mof_O 	O 	0.94058	0.7083	0.59144	-0.326
Mof_O 	O 	0.29707	0.79806	0.51657	-0.412
Mof_O 	O 	0.28373	0.69723	0.57678	-0.332
Mof_O 	O 	0.62838	0.80133	0.52035	-0.411
Mof_O 	O 	0.60698	0.69553	0.57534	-0.337
Mof_O 	O 	0.54801	0.9771	0.87851	-0.288
Mof_O 	O 	0.53477	0.07559	0.94149	-0.383
Mof_O 	O 	0.85756	0.07948	0.93515	-0.386
Mof_O 	O 	0.86696	0.98	0.87331	-0.323
Mof_O 	O 	0.2738	0.0214	0.37276	-0.285
Mof_O 	O 	0.29883	0.91758	0.42833	-0.382
Mof_S 	S 	0.17124	0.82909	0.75914	-0.059
Mof_S 	S 	0.46011	0.83552	0.76276	-0.148
Mof_S 	S 	0.74652	0.84769	0.76985	-0.158
Mof_S 	S 	0.28654	0.77514	0.91285	-0.055
Mof_S 	S 	0.60927	0.77619	0.92145	-0.064
Mof_S 	S 	0.54716	0.2218	0.40428	-0.091
Mof_H 	H 	0.346	0.041	0.9478	0.112
Mof_H 	H 	0.364	0.007	0.008	0.126
Mof_H 	H 	0.476	0.982	0.486	0.16
Mof_H 	H 	0.48	0.946	0.428	0.115
Mof_H 	H 	0.474	0.943	0.988	0.027
Mof_H 	H 	0.367	0.054	0.473	0.028
Mof_Ag	Ag	0.18789	0.20697	0.30175	0.439
Mof_Ag	Ag	0.89959	0.19619	0.31186	0.457
Mof_Ag	Ag	0.61278	0.15198	0.32244	0.492
Mof_Cu	Cu	0.45719	0.1183	0.99996	0.902
Mof_Cu	Cu	0.12426	0.12156	0.98875	0.895
Mof_C 	C 	0.5153	0.2378	0.07148	0.315
Mof_C 	C 	0.4262	0.2248	0.09604	-0.124
Mof_H 	H 	0.394	0.2734	0.0892	0.088
Mof_C 	C 	0.4263	0.209	0.16174	-0.031
Mof_H 	H 	0.4628	0.247	0.181	0.032
Mof_H 	H 	0.4485	0.1565	0.1692	0.017
Mof_C 	C 	0.3375	0.2153	0.18726	-0.155
Mof_H 	H 	0.2982	0.1895	0.1609	0.068
Mof_H 	H 	0.3218	0.2707	0.1898	0.066
Mof_C 	C 	0.3254	0.0677	0.2404	-0.428
Mof_H 	H 	0.3205	0.0367	0.2755	0.158
Mof_H 	H 	0.3762	0.0535	0.2201	0.136
Mof_H 	H 	0.2778	0.0578	0.2156	0.131
Mof_C 	C 	0.1769	0.2444	0.05869	0.315
Mof_C 	C 	0.0931	0.2223	0.08855	-0.117
Mof_H 	H 	0.0566	0.269	0.0885	0.085
Mof_C 	C 	0.1092	0.1982	0.15241	-0.049
Mof_H 	H 	0.1312	0.1447	0.1535	0.018
Mof_H 	H 	0.1512	0.233	0.1693	0.028
Mof_C 	C 	0.029	0.2024	0.1885	-0.122
Mof_H 	H 	0.9853	0.1725	0.1686	0.052
Mof_H 	H 	0.0107	0.257	0.1905	0.049
Mof_C 	C 	0.044	0.0591	0.2506	-0.355
Mof_H 	H 	0.0499	0.0324	0.2875	0.13
Mof_H 	H 	0.0913	0.0467	0.2261	0.11
Mof_H 	H 	0.993	0.0421	0.2318	0.112
Mof_C 	C 	0.8507	0.2457	0.06152	0.319
Mof_C 	C 	0.7712	0.2264	0.09654	-0.116
Mof_H 	H 	0.7363	0.274	0.0997	0.087
Mof_C 	C 	0.7986	0.2004	0.15801	-0.057
Mof_H 	H 	0.8244	0.1484	0.1556	0.023
Mof_H 	H 	0.8407	0.237	0.1726	0.035
Mof_C 	C 	0.7259	0.1973	0.20048	-0.11
Mof_H 	H 	0.6802	0.1675	0.1829	0.044
Mof_H 	H 	0.7059	0.2507	0.2075	0.043
Mof_C 	C 	0.7677	0.051	0.2479	-0.34
Mof_H 	H 	0.7833	0.0199	0.2814	0.119
Mof_H 	H 	0.8114	0.048	0.2189	0.104
Mof_H 	H 	0.716	0.0311	0.2318	0.105
Mof_C 	C 	0.9867	0.9917	0.42067	0.298
Mof_C 	C 	0.0565	0.035	0.45364	-0.093
Mof_C 	C 	0.099	0.0988	0.41728	-0.054
Mof_H 	H 	0.0568	0.1358	0.4034	0.026
Mof_H 	H 	0.1253	0.0747	0.3833	0.044
Mof_C 	C 	0.1655	0.1436	0.45232	-0.136
Mof_H 	H 	0.2093	0.1068	0.464	0.061
Mof_H 	H 	0.1397	0.1641	0.4877	0.058
Mof_C 	C 	0.1413	0.3033	0.4304	-0.4
Mof_H 	H 	0.1596	0.3514	0.4119	0.112
Mof_H 	H 	0.1397	0.3107	0.4721	0.135
Mof_H 	H 	0.086	0.2898	0.4166	0.118
Mof_C 	C 	0.6637	0.9893	0.41704	0.313
Mof_C 	C 	0.7295	0.0328	0.45439	-0.111
Mof_H 	H 	0.6989	0.0582	0.4865	0.031
Mof_C 	C 	0.7751	0.0983	0.42125	-0.036
Mof_H 	H 	0.8046	0.0753	0.3882	0.036
Mof_H 	H 	0.7337	0.1352	0.406	0.007
Mof_C 	C 	0.838	0.1435	0.45889	-0.141
Mof_H 	H 	0.8802	0.1068	0.4731	0.063
Mof_H 	H 	0.8086	0.1648	0.4927	0.061
Mof_C 	C 	0.8096	0.2981	0.424	-0.392
Mof_H 	H 	0.8293	0.3454	0.4053	0.108
Mof_H 	H 	0.7958	0.3094	0.4641	0.133
Mof_H 	H 	0.7603	0.279	0.4041	0.112
Mof_C 	C 	0.1839	0.0133	0.9096	0.296
Mof_C 	C 	0.1101	0.9708	0.9395	-0.092
Mof_C 	C 	0.0678	0.9071	0.9033	-0.064
Mof_H 	H 	0.1105	0.8752	0.8841	0.041
Mof_H 	H 	0.0334	0.9315	0.8732	0.037
Mof_C 	C 	0.0131	0.8544	0.9416	-0.129
Mof_H 	H 	0.974	0.8879	0.9628	0.051
Mof_H 	H 	0.0491	0.829	0.9703	0.059
Mof_C 	C 	0.0338	0.7128	0.8768	-0.383
Mof_H 	H 	0.0081	0.6697	0.856	0.112
Mof_H 	H 	0.0661	0.6924	0.909	0.127
Mof_H 	H 	0.0702	0.7415	0.8508	0.118
Mof_N 	N 	0.3838	0.1601	0.06366	-0.309
Mof_H 	H 	0.3354	0.1783	0.0481	0.122
Mof_H 	H 	0.371	0.1207	0.0886	0.083
Mof_N 	N 	0.051	0.1589	0.05473	-0.311
Mof_H 	H 	0.002	0.1773	0.0402	0.124
Mof_H 	H 	0.0392	0.118	0.0786	0.083
Mof_N 	N 	0.7228	0.1636	0.06662	-0.311
Mof_H 	H 	0.6731	0.1833	0.0544	0.129
Mof_H 	H 	0.7121	0.1241	0.092	0.087
Mof_N 	N 	0.114	0.9751	0.47934	-0.334
Mof_N 	N 	0.78467	0.9728	0.48101	-0.318
Mof_H 	H 	0.8076	0.9915	0.5143	0.084
Mof_H 	H 	0.8265	0.9598	0.4562	0.134
Mof_N 	N 	0.052	0.0327	0.9617	-0.369
Mof_O 	O 	0.53921	0.19357	0.02979	-0.411
Mof_O 	O 	0.55942	0.2917	0.09144	-0.326
Mof_O 	O 	0.20293	0.20194	0.01657	-0.41
Mof_O 	O 	0.21627	0.30277	0.07678	-0.331
Mof_O 	O 	0.87162	0.19867	0.02035	-0.41
Mof_O 	O 	0.89302	0.30447	0.07534	-0.337
Mof_O 	O 	0.95199	0.0229	0.37851	-0.289
Mof_O 	O 	0.96523	0.92441	0.44149	-0.383
Mof_O 	O 	0.64244	0.92052	0.43515	-0.387
Mof_O 	O 	0.63304	0.02	0.37331	-0.324
Mof_O 	O 	0.2262	0.9786	0.87276	-0.286
Mof_O 	O 	0.20117	0.08242	0.92833	-0.382
Mof_S 	S 	0.32876	0.17091	0.25914	-0.059
Mof_S 	S 	0.03989	0.16448	0.26276	-0.148
Mof_S 	S 	0.75348	0.15231	0.26985	-0.158
Mof_S 	S 	0.21346	0.22486	0.41285	-0.055
Mof_S 	S 	0.89073	0.22381	0.42145	-0.065
Mof_S 	S 	0.95284	0.7782	0.90428	-0.087
Mof_H 	H 	0.154	0.959	0.4478	0.111
Mof_H 	H 	0.136	0.993	0.508	0.123
Mof_H 	H 	0.024	0.018	0.986	0.159
Mof_H 	H 	0.02	0.054	0.928	0.115
Mof_H 	H 	0.026	0.057	0.488	0.027
Mof_H 	H 	0.133	0.946	0.973	0.029
Mof_Cu	Cu	0.78698	0.12133	0.99792	0.902
Mof_Cu	Cu	0.71302	0.87867	0.49792	0.902
Mof_Cu	Cu	0.21302	0.62133	0.50208	0.902
Mof_Cu	Cu	0.28698	0.37867	0.00208	0.902
Mof_Ag	Ag	0.68789	0.29303	0.69825	0.439
Mof_Ag	Ag	0.39959	0.30381	0.68814	0.458
Mof_Ag	Ag	0.11278	0.34802	0.67756	0.492
Mof_Cu	Cu	0.95719	0.3817	4e-05	0.902
Mof_Cu	Cu	0.62426	0.37844	0.01125	0.896
Mof_C 	C 	0.0153	0.2622	0.92852	0.315
Mof_C 	C 	0.9262	0.2752	0.90396	-0.123
Mof_H 	H 	0.894	0.2266	0.9108	0.088
Mof_C 	C 	0.9263	0.291	0.83826	-0.031
Mof_H 	H 	0.9628	0.253	0.819	0.032
Mof_H 	H 	0.9485	0.3435	0.8308	0.017
Mof_C 	C 	0.8375	0.2847	0.81274	-0.155
Mof_H 	H 	0.7982	0.3105	0.8391	0.068
Mof_H 	H 	0.8218	0.2293	0.8102	0.066
Mof_C 	C 	0.8254	0.4323	0.7596	-0.427
Mof_H 	H 	0.8205	0.4633	0.7245	0.158
Mof_H 	H 	0.8762	0.4465	0.7799	0.136
Mof_H 	H 	0.7778	0.4422	0.7844	0.131
Mof_C 	C 	0.6769	0.2556	0.94131	0.315
Mof_C 	C 	0.5931	0.2777	0.91145	-0.118
Mof_H 	H 	0.5566	0.231	0.9115	0.085
Mof_C 	C 	0.6092	0.3018	0.84759	-0.048
Mof_H 	H 	0.6312	0.3553	0.8465	0.017
Mof_H 	H 	0.6512	0.267	0.8307	0.027
Mof_C 	C 	0.529	0.2976	0.8115	-0.124
Mof_H 	H 	0.4853	0.3275	0.8314	0.053
Mof_H 	H 	0.5107	0.243	0.8095	0.049
Mof_C 	C 	0.544	0.4409	0.7494	-0.358
Mof_H 	H 	0.5499	0.4676	0.7125	0.131
Mof_H 	H 	0.5913	0.4533	0.7739	0.111
Mof_H 	H 	0.493	0.4579	0.7682	0.113
Mof_C 	C 	0.3507	0.2543	0.93848	0.319
Mof_C 	C 	0.2712	0.2736	0.90346	-0.116
Mof_H 	H 	0.2363	0.226	0.9003	0.087
Mof_C 	C 	0.2986	0.2996	0.84199	-0.057
Mof_H 	H 	0.3244	0.3516	0.8444	0.023
Mof_H 	H 	0.3407	0.263	0.8274	0.035
Mof_C 	C 	0.2259	0.3027	0.79952	-0.11
Mof_H 	H 	0.1802	0.3325	0.8171	0.044
Mof_H 	H 	0.2059	0.2493	0.7925	0.043
Mof_C 	C 	0.2677	0.449	0.7521	-0.34
Mof_H 	H 	0.2833	0.4801	0.7186	0.119
Mof_H 	H 	0.3114	0.452	0.7811	0.104
Mof_H 	H 	0.216	0.4689	0.7682	0.105
Mof_C 	C 	0.4867	0.5083	0.57933	0.299
Mof_C 	C 	0.5565	0.465	0.54636	-0.095
Mof_C 	C 	0.599	0.4012	0.58272	-0.053
Mof_H 	H 	0.5568	0.3642	0.5966	0.026
Mof_H 	H 	0.6253	0.4253	0.6167	0.043
Mof_C 	C 	0.6655	0.3564	0.54768	-0.137
Mof_H 	H 	0.7093	0.3932	0.536	0.061
Mof_H 	H 	0.6397	0.3359	0.5123	0.058
Mof_C 	C 	0.6413	0.1967	0.5696	-0.4
Mof_H 	H 	0.6596	0.1486	0.5881	0.111
Mof_H 	H 	0.6397	0.1893	0.5279	0.134
Mof_H 	H 	0.586	0.2102	0.5834	0.118
Mof_C 	C 	0.1637	0.5107	0.58296	0.315
Mof_C 	C 	0.2295	0.4672	0.54561	-0.112
Mof_H 	H 	0.1989	0.4418	0.5135	0.032
Mof_C 	C 	0.2751	0.4017	0.57875	-0.035
Mof_H 	H 	0.3046	0.4247	0.6118	0.036
Mof_H 	H 	0.2337	0.3648	0.594	0.007
Mof_C 	C 	0.338	0.3565	0.54111	-0.142
Mof_H 	H 	0.3802	0.3932	0.5269	0.063
Mof_H 	H 	0.3086	0.3352	0.5073	0.061
Mof_C 	C 	0.3096	0.2019	0.576	-0.392
Mof_H 	H 	0.3293	0.1546	0.5947	0.108
Mof_H 	H 	0.2958	0.1906	0.5359	0.133
Mof_H 	H 	0.2603	0.221	0.5959	0.112
Mof_C 	C 	0.6839	0.4867	0.0904	0.297
Mof_C 	C 	0.6101	0.5292	0.0605	-0.092
Mof_C 	C 	0.5678	0.5929	0.0967	-0.067
Mof_H 	H 	0.6105	0.6248	0.1159	0.042
Mof_H 	H 	0.5334	0.5685	0.1268	0.038
Mof_C 	C 	0.5131	0.6456	0.0584	-0.123
Mof_H 	H 	0.474	0.6121	0.0372	0.048
Mof_H 	H 	0.5491	0.671	0.0297	0.057
Mof_C 	C 	0.5338	0.7872	0.1232	-0.378
Mof_H 	H 	0.5081	0.8303	0.144	0.111
Mof_H 	H 	0.5661	0.8076	0.091	0.125
Mof_H 	H 	0.5702	0.7585	0.1492	0.117
Mof_N 	N 	0.8838	0.3399	0.93634	-0.309
Mof_H 	H 	0.8354	0.3217	0.9519	0.122
Mof_H 	H 	0.871	0.3793	0.9114	0.083
Mof_N 	N 	0.551	0.3411	0.94527	-0.311
Mof_H 	H 	0.502	0.3227	0.9598	0.123
Mof_H 	H 	0.5392	0.382	0.9214	0.083
Mof_N 	N 	0.2228	0.3364	0.93338	-0.311
Mof_H 	H 	0.1731	0.3167	0.9456	0.129
Mof_H 	H 	0.2121	0.3759	0.908	0.087
Mof_N 	N 	0.614	0.5249	0.52066	-0.333
Mof_N 	N 	0.28467	0.5272	0.51899	-0.318
Mof_H 	H 	0.3076	0.5085	0.4857	0.084
Mof_H 	H 	0.3265	0.5402	0.5438	0.134
Mof_N 	N 	0.552	0.4673	0.0383	-0.369
Mof_O 	O 	0.03921	0.30643	0.97021	-0.412
Mof_O 	O 	0.05942	0.2083	0.90856	-0.326
Mof_O 	O 	0.70293	0.29806	0.98343	-0.411
Mof_O 	O 	0.71627	0.19723	0.92322	-0.332
Mof_O 	O 	0.37162	0.30133	0.97965	-0.411
Mof_O 	O 	0.39302	0.19553	0.92466	-0.337
Mof_O 	O 	0.45199	0.4771	0.62149	-0.289
Mof_O 	O 	0.46523	0.57559	0.55851	-0.383
Mof_O 	O 	0.14244	0.57948	0.56485	-0.387
Mof_O 	O 	0.13304	0.48	0.62669	-0.325
Mof_O 	O 	0.7262	0.5214	0.12724	-0.287
Mof_O 	O 	0.70117	0.41758	0.07167	-0.382
Mof_S 	S 	0.82876	0.32909	0.74086	-0.059
Mof_S 	S 	0.53989	0.33552	0.73724	-0.148
Mof_S 	S 	0.25348	0.34769	0.73015	-0.159
Mof_S 	S 	0.71346	0.27514	0.58715	-0.055
Mof_S 	S 	0.39073	0.27619	0.57855	-0.065
Mof_S 	S 	0.45284	0.7218	0.09572	-0.092
Mof_H 	H 	0.654	0.541	0.5522	0.111
Mof_H 	H 	0.636	0.507	0.492	0.123
Mof_H 	H 	0.524	0.482	0.014	0.16
Mof_H 	H 	0.52	0.446	0.072	0.115
Mof_H 	H 	0.526	0.443	0.512	0.027
Mof_H 	H 	0.633	0.554	0.027	0.029
Mof_Ag	Ag	0.81211	0.70697	0.19825	0.439
Mof_Ag	Ag	0.10041	0.69619	0.18814	0.457
Mof_Ag	Ag	0.38722	0.65198	0.17756	0.492
Mof_Cu	Cu	0.54281	0.6183	0.50004	0.902
Mof_Cu	Cu	0.87574	0.62156	0.51125	0.896
Mof_C 	C 	0.4847	0.7378	0.42852	0.315
Mof_C 	C 	0.5738	0.7248	0.40396	-0.124
Mof_H 	H 	0.606	0.7734	0.4108	0.088
Mof_C 	C 	0.5737	0.709	0.33826	-0.031
Mof_H 	H 	0.5372	0.747	0.319	0.031
Mof_H 	H 	0.5515	0.6565	0.3308	0.016
Mof_C 	C 	0.6625	0.7153	0.31274	-0.155
Mof_H 	H 	0.7018	0.6895	0.3391	0.068
Mof_H 	H 	0.6782	0.7707	0.3102	0.066
Mof_C 	C 	0.6746	0.5677	0.2596	-0.427
Mof_H 	H 	0.6795	0.5367	0.2245	0.158
Mof_H 	H 	0.6238	0.5535	0.2799	0.136
Mof_H 	H 	0.7222	0.5578	0.2844	0.131
Mof_C 	C 	0.8231	0.7444	0.44131	0.315
Mof_C 	C 	0.9069	0.7223	0.41145	-0.118
Mof_H 	H 	0.9434	0.769	0.4115	0.085
Mof_C 	C 	0.8908	0.6982	0.34759	-0.048
Mof_H 	H 	0.8688	0.6447	0.3465	0.017
Mof_H 	H 	0.8488	0.733	0.3307	0.027
Mof_C 	C 	0.971	0.7024	0.3115	-0.123
Mof_H 	H 	0.0147	0.6725	0.3314	0.053
Mof_H 	H 	0.9893	0.757	0.3095	0.049
Mof_C 	C 	0.956	0.5591	0.2494	-0.358
Mof_H 	H 	0.9501	0.5324	0.2125	0.131
Mof_H 	H 	0.9087	0.5467	0.2739	0.111
Mof_H 	H 	0.007	0.5421	0.2682	0.113
Mof_C 	C 	0.1493	0.7457	0.43848	0.32
Mof_C 	C 	0.2288	0.7264	0.40346	-0.116
Mof_H 	H 	0.2637	0.774	0.4003	0.087
Mof_C 	C 	0.2014	0.7004	0.34199	-0.057
Mof_H 	H 	0.1756	0.6484	0.3444	0.023
Mof_H 	H 	0.1593	0.737	0.3274	0.034
Mof_C 	C 	0.2741	0.6973	0.29952	-0.11
Mof_H 	H 	0.3198	0.6675	0.3171	0.044
Mof_H 	H 	0.2941	0.7507	0.2925	0.042
Mof_C 	C 	0.2323	0.551	0.2521	-0.34
Mof_H 	H 	0.2167	0.5199	0.2186	0.119
Mof_H 	H 	0.1886	0.548	0.2811	0.104
Mof_H 	H 	0.284	0.5311	0.2682	0.105
Mof_C 	C 	0.0133	0.4917	0.07933	0.299
Mof_C 	C 	0.9435	0.535	0.04636	-0.095
Mof_C 	C 	0.901	0.5988	0.08272	-0.053
Mof_H 	H 	0.9432	0.6358	0.0966	0.026
Mof_H 	H 	0.8747	0.5747	0.1167	0.043
Mof_C 	C 	0.8345	0.6436	0.04768	-0.136
Mof_H 	H 	0.7907	0.6068	0.036	0.06
Mof_H 	H 	0.8603	0.6641	0.0123	0.058
Mof_C 	C 	0.8587	0.8033	0.0696	-0.398
Mof_H 	H 	0.8404	0.8514	0.0881	0.11
Mof_H 	H 	0.8603	0.8107	0.0279	0.133
Mof_H 	H 	0.914	0.7898	0.0834	0.117
Mof_C 	C 	0.3363	0.4893	0.08296	0.315
Mof_C 	C 	0.2705	0.5328	0.04561	-0.112
Mof_H 	H 	0.3011	0.5582	0.0135	0.032
Mof_C 	C 	0.2249	0.5983	0.07875	-0.035
Mof_H 	H 	0.1954	0.5753	0.1118	0.036
Mof_H 	H 	0.2663	0.6352	0.094	0.007
Mof_C 	C 	0.162	0.6435	0.04111	-0.142
Mof_H 	H 	0.1198	0.6068	0.0269	0.063
Mof_H 	H 	0.1914	0.6648	0.0073	0.061
Mof_C 	C 	0.1904	0.7981	0.076	-0.39
Mof_H 	H 	0.1707	0.8454	0.0947	0.107
Mof_H 	H 	0.2042	0.8094	0.0359	0.132
Mof_H 	H 	0.2397	0.779	0.0959	0.111
Mof_C 	C 	0.8161	0.5133	0.5904	0.297
Mof_C 	C 	0.8899	0.4708	0.5605	-0.092
Mof_C 	C 	0.9322	0.4071	0.5967	-0.067
Mof_H 	H 	0.8895	0.3752	0.6159	0.042
Mof_H 	H 	0.9666	0.4315	0.6268	0.038
Mof_C 	C 	0.9869	0.3544	0.5584	-0.124
Mof_H 	H 	0.026	0.3879	0.5372	0.048
Mof_H 	H 	0.9509	0.329	0.5297	0.057
Mof_C 	C 	0.9662	0.2128	0.6232	-0.38
Mof_H 	H 	0.9919	0.1697	0.644	0.111
Mof_H 	H 	0.9339	0.1924	0.591	0.126
Mof_H 	H 	0.9298	0.2415	0.6492	0.118
Mof_N 	N 	0.6162	0.6601	0.43634	-0.309
Mof_H 	H 	0.6646	0.6783	0.4519	0.122
Mof_H 	H 	0.629	0.6207	0.4114	0.083
Mof_N 	N 	0.949	0.6589	0.44527	-0.312
Mof_H 	H 	0.998	0.6773	0.4598	0.123
Mof_H 	H 	0.9608	0.618	0.4214	0.083
Mof_N 	N 	0.2772	0.6636	0.43338	-0.311
Mof_H 	H 	0.3269	0.6833	0.4456	0.129
Mof_H 	H 	0.2879	0.6241	0.408	0.087
Mof_N 	N 	0.886	0.4751	0.02066	-0.334
Mof_N 	N 	0.21533	0.4728	0.01899	-0.318
Mof_H 	H 	0.1924	0.4915	0.9857	0.084
Mof_H 	H 	0.1735	0.4598	0.0438	0.134
Mof_N 	N 	0.948	0.5327	0.5383	-0.369
Mof_O 	O 	0.46079	0.69357	0.47021	-0.412
Mof_O 	O 	0.44058	0.7917	0.40856	-0.326
Mof_O 	O 	0.79707	0.70194	0.48343	-0.412
Mof_O 	O 	0.78373	0.80277	0.42322	-0.332
Mof_O 	O 	0.12838	0.69867	0.47965	-0.411
Mof_O 	O 	0.10698	0.80447	0.42466	-0.337
Mof_O 	O 	0.04801	0.5229	0.12149	-0.289
Mof_O 	O 	0.03477	0.42441	0.05851	-0.383
Mof_O 	O 	0.35756	0.42052	0.06485	-0.387
Mof_O 	O 	0.36696	0.52	0.12669	-0.325
Mof_O 	O 	0.7738	0.4786	0.62724	-0.287
Mof_O 	O 	0.79883	0.58242	0.57167	-0.382
Mof_S 	S 	0.67124	0.67091	0.24086	-0.059
Mof_S 	S 	0.96011	0.66448	0.23724	-0.148
Mof_S 	S 	0.24652	0.65231	0.23015	-0.159
Mof_S 	S 	0.78654	0.72486	0.08715	-0.056
Mof_S 	S 	0.10927	0.72381	0.07855	-0.066
Mof_S 	S 	0.04716	0.2782	0.59572	-0.09
Mof_H 	H 	0.846	0.459	0.0522	0.112
Mof_H 	H 	0.864	0.493	0.992	0.124
Mof_H 	H 	0.976	0.518	0.514	0.16
Mof_H 	H 	0.98	0.554	0.572	0.115
Mof_H 	H 	0.974	0.557	0.012	0.027
Mof_H 	H 	0.867	0.446	0.527	0.029
_end
