# CIF file generated by openbabel 3.1.0, see https://openbabel.org
data_I
_chemical_name_common 'image0'
_cell_length_a 7.5739
_cell_length_b 8.5028
_cell_length_c 15.4945
_cell_angle_alpha 99.568
_cell_angle_beta 103.009
_cell_angle_gamma 90.671
_space_group_name_H-M_alt 'P 1'
_space_group_name_Hall 'P 1'
loop_
    _symmetry_equiv_pos_as_xyz
    x,y,z
loop_
    _atom_site_label
    _atom_site_type_symbol
    _atom_site_fract_x
    _atom_site_fract_y
    _atom_site_fract_z
    _atom_site_occupancy
    Ag1      Ag       0.34830    0.51598    0.21425    1.000
    Ag2      Ag       0.56246    0.63745    0.09316    1.000
    Ag3      Ag       0.07020    0.35245    0.28977    1.000
    N1       N        0.19620    0.20280    0.07170    1.000
    N2       N        0.22060    0.83580    0.02778    1.000
    N3       N        0.08050    0.02650    0.86675    1.000
    N4       N        0.17940    0.04090    0.70561    1.000
    N5       N        0.45140    0.93230    0.75990    1.000
    N6       N        0.44280    0.80270    0.38128    1.000
    N7       N        0.35930    0.16760    0.41271    1.000
    C1       C        0.23850    0.97820    0.85305    1.000
    H1       H        0.31830    0.93890    0.89850    1.000
    C2       C        0.28980    0.98430    0.77208    1.000
    C3       C        0.02170    0.09100    0.72083    1.000
    H2       H        0.94220    0.13180    0.67590    1.000
    C4       C        0.97100    0.08510    0.79987    1.000
    H3       H        0.85940    0.12220    0.80730    1.000
    C5       C        0.34280    0.76130    0.04567    1.000
    C6       C        0.76920    0.52410    0.16380    1.000
    C7       C        0.41250    0.70280    0.32088    1.000
    C8       C        0.25960    0.31610    0.11787    1.000
    C9       C        0.25830    0.23680    0.37017    1.000
    N8       N        0.87260    0.46270    0.20880    1.000
    H4       H        0.48000    0.93300    0.71000    1.000
    H5       H        0.52700    0.90400    0.80100    1.000
    Ag4      Ag       0.65170    0.48402    0.78575    1.000
    Ag5      Ag       0.43754    0.36255    0.90684    1.000
    Ag6      Ag       0.92980    0.64755    0.71023    1.000
    N9       N        0.80380    0.79720    0.92830    1.000
    N10      N        0.77940    0.16420    0.97222    1.000
    N11      N        0.91950    0.97350    0.13325    1.000
    N12      N        0.82060    0.95910    0.29439    1.000
    N13      N        0.54860    0.06770    0.24010    1.000
    N14      N        0.55720    0.19730    0.61872    1.000
    N15      N        0.64070    0.83240    0.58729    1.000
    C10      C        0.76150    0.02180    0.14695    1.000
    H6       H        0.68170    0.06110    0.10150    1.000
    C11      C        0.71020    0.01570    0.22792    1.000
    C12      C        0.97830    0.90900    0.27917    1.000
    H7       H        0.05780    0.86820    0.32410    1.000
    C13      C        0.02900    0.91490    0.20013    1.000
    H8       H        0.14060    0.87780    0.19270    1.000
    C14      C        0.65720    0.23870    0.95433    1.000
    C15      C        0.23080    0.47590    0.83620    1.000
    C16      C        0.58750    0.29720    0.67912    1.000
    C17      C        0.74040    0.68390    0.88213    1.000
    C18      C        0.74170    0.76320    0.62983    1.000
    N16      N        0.12740    0.53730    0.79120    1.000
    H9       H        0.52000    0.06700    0.29000    1.000
    H10      H        0.47300    0.09600    0.19900    1.000
    Mn1      Mn       0.00000    0.00000    0.00000    1.000
    Mn2      Mn       0.50000    0.00000    0.50000    1.000
