data_functionalizedCrystal
_audit_creation_method	'EQeq! by Chris Wilmer'
_symmetry_space_group_name_H-M	'P1'
_symmetry_Int_Tables_number	1
_symmetry_cell_setting	triclinic
loop_
_symmetry_equiv_pos_as_xyz
  x,y,z
_cell_length_a	12.0864
_cell_length_b	12.9662
_cell_length_c	21.578
_cell_angle_alpha	90
_cell_angle_beta	90
_cell_angle_gamma	115.309
loop_
_atom_site_label
_atom_site_type_symbol
_atom_site_fract_x
_atom_site_fract_y
_atom_site_fract_z
_atom_site_charge
Mof_Cu	Cu	0.01725	0.10985	0.09381	0.88
Mof_Cu	Cu	0.2717	0.69498	0.289	0.868
Mof_Cu	Cu	0.15328	0.5797	0.99527	0.907
Mof_Cu	Cu	0.48275	0.39015	0.59381	0.882
Mof_Cu	Cu	0.2283	0.80502	0.789	0.869
Mof_Cu	Cu	0.34672	0.9203	0.49527	0.907
Mof_Cu	Cu	0.98275	0.89015	0.90619	0.881
Mof_Cu	Cu	0.7283	0.30502	0.711	0.869
Mof_Cu	Cu	0.84672	0.4203	0.00473	0.907
Mof_Cu	Cu	0.51725	0.60985	0.40619	0.882
Mof_Cu	Cu	0.7717	0.19498	0.211	0.869
Mof_Cu	Cu	0.65328	0.0797	0.50473	0.907
Mof_H 	H 	0.633	0.9444	0.1434	0.106
Mof_H 	H 	0.6105	0.9473	0.0722	0.126
Mof_H 	H 	0.6132	0.7632	0.189	0.126
Mof_H 	H 	0.5244	0.6516	0.1551	0.127
Mof_H 	H 	0.6236	0.949	0.9224	0.134
Mof_H 	H 	0.6514	0.9416	0.8521	0.138
Mof_H 	H 	0.4988	0.6546	0.8368	0.137
Mof_H 	H 	0.5813	0.7679	0.8024	0.138
Mof_H 	H 	0.2157	0.3342	0.9456	0.151
Mof_H 	H 	0.3387	0.4214	0.9166	0.152
Mof_H 	H 	0.2976	0.4517	0.0872	0.143
Mof_H 	H 	0.261	0.3387	0.0494	0.158
Mof_H 	H 	0.2746	0.8914	0.0134	0.06
Mof_H 	H 	0.3488	0.8241	0.0362	0.051
Mof_H 	H 	0.2032	0.8028	0.112	0.08
Mof_H 	H 	0.0978	0.7608	0.0622	0.062
Mof_H 	H 	0.2927	0.7542	0.9423	0.13
Mof_H 	H 	0.1732	0.7568	0.9456	0.122
Mof_H 	H 	0.0951	0.6017	0.1018	0.123
Mof_H 	H 	0.2282	0.6441	0.1005	0.119
Mof_H 	H 	0.867	0.5556	0.6434	0.106
Mof_H 	H 	0.8895	0.5527	0.5722	0.126
Mof_H 	H 	0.8868	0.7368	0.689	0.126
Mof_H 	H 	0.9756	0.8484	0.6551	0.127
Mof_H 	H 	0.8764	0.551	0.4224	0.136
Mof_H 	H 	0.8486	0.5584	0.3521	0.14
Mof_H 	H 	0.0012	0.8454	0.3368	0.142
Mof_H 	H 	0.9187	0.7321	0.3024	0.141
Mof_H 	H 	0.2843	0.1658	0.4456	0.151
Mof_H 	H 	0.1613	0.0786	0.4166	0.151
Mof_H 	H 	0.2024	0.0483	0.5872	0.142
Mof_H 	H 	0.239	0.1613	0.5494	0.158
Mof_H 	H 	0.2254	0.6086	0.5134	0.059
Mof_H 	H 	0.1512	0.6759	0.5362	0.052
Mof_H 	H 	0.2968	0.6972	0.612	0.079
Mof_H 	H 	0.4022	0.7392	0.5622	0.061
Mof_H 	H 	0.2073	0.7458	0.4423	0.13
Mof_H 	H 	0.3268	0.7432	0.4456	0.122
Mof_H 	H 	0.4049	0.8983	0.6018	0.122
Mof_H 	H 	0.2718	0.8559	0.6005	0.119
Mof_H 	H 	0.367	0.0556	0.8566	0.106
Mof_H 	H 	0.3895	0.0527	0.9278	0.126
Mof_H 	H 	0.3868	0.2368	0.811	0.126
Mof_H 	H 	0.4756	0.3484	0.8449	0.127
Mof_H 	H 	0.3764	0.051	0.0776	0.134
Mof_H 	H 	0.3486	0.0584	0.1479	0.138
Mof_H 	H 	0.5012	0.3454	0.1632	0.137
Mof_H 	H 	0.4187	0.2321	0.1976	0.138
Mof_H 	H 	0.7843	0.6658	0.0544	0.151
Mof_H 	H 	0.6613	0.5786	0.0834	0.152
Mof_H 	H 	0.7024	0.5483	0.9128	0.143
Mof_H 	H 	0.739	0.6613	0.9506	0.158
Mof_H 	H 	0.7254	0.1086	0.9866	0.06
Mof_H 	H 	0.6512	0.1759	0.9638	0.051
Mof_H 	H 	0.7968	0.1972	0.888	0.08
Mof_H 	H 	0.9022	0.2392	0.9378	0.062
Mof_H 	H 	0.7073	0.2458	0.0577	0.13
Mof_H 	H 	0.8268	0.2432	0.0544	0.122
Mof_H 	H 	0.9049	0.3983	0.8982	0.123
Mof_H 	H 	0.7718	0.3559	0.8995	0.119
Mof_H 	H 	0.133	0.4444	0.3566	0.106
Mof_H 	H 	0.1105	0.4473	0.4278	0.126
Mof_H 	H 	0.1132	0.2632	0.311	0.126
Mof_H 	H 	0.0244	0.1516	0.3449	0.127
Mof_H 	H 	0.1236	0.449	0.5776	0.136
Mof_H 	H 	0.1514	0.4416	0.6479	0.14
Mof_H 	H 	0.9988	0.1546	0.6632	0.142
Mof_H 	H 	0.0813	0.2679	0.6976	0.141
Mof_H 	H 	0.7157	0.8342	0.5544	0.151
Mof_H 	H 	0.8387	0.9214	0.5834	0.151
Mof_H 	H 	0.7976	0.9517	0.4128	0.142
Mof_H 	H 	0.761	0.8387	0.4506	0.158
Mof_H 	H 	0.7746	0.3914	0.4866	0.059
Mof_H 	H 	0.8488	0.3241	0.4638	0.052
Mof_H 	H 	0.7032	0.3028	0.388	0.079
Mof_H 	H 	0.5978	0.2608	0.4378	0.061
Mof_H 	H 	0.7927	0.2542	0.5577	0.13
Mof_H 	H 	0.6732	0.2568	0.5544	0.122
Mof_H 	H 	0.5951	0.1017	0.3982	0.122
Mof_H 	H 	0.7282	0.1441	0.3995	0.119
Mof_C 	C 	0.5254	0.7362	0.0494	0.159
Mof_C 	C 	0.5222	0.7358	0.946	0.16
Mof_C 	C 	0.3971	0.5801	0.9979	0.118
Mof_C 	C 	0.6433	0.9146	0.1036	-0.268
Mof_C 	C 	0.778	0.9548	0.0919	0.368
Mof_C 	C 	0.5419	0.7309	0.1623	-0.279
Mof_C 	C 	0.4334	0.7365	0.1955	0.375
Mof_C 	C 	0.6507	0.9087	0.8925	-0.291
Mof_C 	C 	0.7793	0.928	0.9086	0.396
Mof_C 	C 	0.5171	0.7349	0.8331	-0.292
Mof_C 	C 	0.4038	0.745	0.8101	0.397
Mof_C 	C 	0.2647	0.4146	0.9374	-0.331
Mof_C 	C 	0.1936	0.4553	0.893	0.407
Mof_C 	C 	0.2506	0.4087	0.0519	-0.353
Mof_C 	C 	0.1155	0.3785	0.0633	0.405
Mof_C 	C 	0.2689	0.8162	0.0229	-0.064
Mof_C 	C 	0.1757	0.7613	0.0735	-0.074
Mof_C 	C 	0.9746	0.7638	0.5494	0.156
Mof_C 	C 	0.9778	0.7642	0.446	0.157
Mof_C 	C 	0.1029	0.9199	0.4979	0.121
Mof_C 	C 	0.8567	0.5854	0.6036	-0.269
Mof_C 	C 	0.722	0.5452	0.5919	0.369
Mof_C 	C 	0.9581	0.7691	0.6623	-0.282
Mof_C 	C 	0.0666	0.7635	0.6955	0.377
Mof_C 	C 	0.8493	0.5913	0.3925	-0.295
Mof_C 	C 	0.7207	0.572	0.4086	0.402
Mof_C 	C 	0.9829	0.7651	0.3331	-0.301
Mof_C 	C 	0.0962	0.755	0.3101	0.401
Mof_C 	C 	0.2353	0.0854	0.4374	-0.33
Mof_C 	C 	0.3064	0.0447	0.393	0.404
Mof_C 	C 	0.2494	0.0913	0.5519	-0.353
Mof_C 	C 	0.3845	0.1215	0.5633	0.405
Mof_C 	C 	0.2311	0.6838	0.5229	-0.066
Mof_C 	C 	0.3243	0.7387	0.5735	-0.073
Mof_C 	C 	0.4746	0.2638	0.9506	0.159
Mof_C 	C 	0.4778	0.2642	0.054	0.16
Mof_C 	C 	0.6029	0.4199	0.0021	0.118
Mof_C 	C 	0.3567	0.0854	0.8964	-0.268
Mof_C 	C 	0.222	0.0452	0.9081	0.368
Mof_C 	C 	0.4581	0.2691	0.8377	-0.279
Mof_C 	C 	0.5666	0.2635	0.8045	0.375
Mof_C 	C 	0.3493	0.0913	0.1075	-0.291
Mof_C 	C 	0.2207	0.072	0.0914	0.396
Mof_C 	C 	0.4829	0.2651	0.1669	-0.292
Mof_C 	C 	0.5962	0.255	0.1899	0.397
Mof_C 	C 	0.7353	0.5854	0.0626	-0.331
Mof_C 	C 	0.8064	0.5447	0.107	0.407
Mof_C 	C 	0.7494	0.5913	0.9481	-0.353
Mof_C 	C 	0.8845	0.6215	0.9367	0.405
Mof_C 	C 	0.7311	0.1838	0.9771	-0.064
Mof_C 	C 	0.8243	0.2387	0.9265	-0.074
Mof_C 	C 	0.0254	0.2362	0.4506	0.156
Mof_C 	C 	0.0222	0.2358	0.554	0.157
Mof_C 	C 	0.8971	0.0801	0.5021	0.121
Mof_C 	C 	0.1433	0.4146	0.3964	-0.269
Mof_C 	C 	0.278	0.4548	0.4081	0.369
Mof_C 	C 	0.0419	0.2309	0.3377	-0.282
Mof_C 	C 	0.9334	0.2365	0.3045	0.377
Mof_C 	C 	0.1507	0.4087	0.6075	-0.295
Mof_C 	C 	0.2793	0.428	0.5914	0.402
Mof_C 	C 	0.0171	0.2349	0.6669	-0.301
Mof_C 	C 	0.9038	0.245	0.6899	0.401
Mof_C 	C 	0.7647	0.9146	0.5626	-0.33
Mof_C 	C 	0.6936	0.9553	0.607	0.404
Mof_C 	C 	0.7506	0.9087	0.4481	-0.353
Mof_C 	C 	0.6155	0.8785	0.4367	0.405
Mof_C 	C 	0.7689	0.3162	0.4771	-0.066
Mof_C 	C 	0.6757	0.2613	0.4265	-0.073
Mof_N 	N 	0.568	0.7948	0.9976	-0.157
Mof_N 	N 	0.4361	0.6269	0.9428	-0.158
Mof_N 	N 	0.4382	0.6272	0.0535	-0.165
Mof_N 	N 	0.5705	0.7906	0.1038	-0.053
Mof_N 	N 	0.5626	0.7893	0.8916	-0.044
Mof_N 	N 	0.2993	0.4741	0.9965	-0.064
Mof_N 	N 	0.2283	0.7415	0.9671	-0.324
Mof_N 	N 	0.1632	0.6441	0.0801	-0.319
Mof_N 	N 	0.932	0.7052	0.4976	-0.156
Mof_N 	N 	0.0639	0.8731	0.4428	-0.156
Mof_N 	N 	0.0618	0.8728	0.5535	-0.163
Mof_N 	N 	0.9295	0.7094	0.6038	-0.052
Mof_N 	N 	0.9374	0.7107	0.3916	-0.042
Mof_N 	N 	0.2007	0.0259	0.4965	-0.066
Mof_N 	N 	0.2717	0.7585	0.4671	-0.323
Mof_N 	N 	0.3368	0.8559	0.5801	-0.32
Mof_N 	N 	0.432	0.2052	0.0024	-0.157
Mof_N 	N 	0.5639	0.3731	0.0572	-0.158
Mof_N 	N 	0.5618	0.3728	0.9465	-0.165
Mof_N 	N 	0.4295	0.2094	0.8962	-0.053
Mof_N 	N 	0.4374	0.2107	0.1084	-0.044
Mof_N 	N 	0.7007	0.5259	0.0035	-0.064
Mof_N 	N 	0.7717	0.2585	0.0329	-0.324
Mof_N 	N 	0.8368	0.3559	0.9199	-0.319
Mof_N 	N 	0.068	0.2948	0.5024	-0.156
Mof_N 	N 	0.9361	0.1269	0.5572	-0.156
Mof_N 	N 	0.9382	0.1272	0.4465	-0.163
Mof_N 	N 	0.0705	0.2906	0.3962	-0.052
Mof_N 	N 	0.0626	0.2893	0.6084	-0.042
Mof_N 	N 	0.7993	0.9741	0.5035	-0.066
Mof_N 	N 	0.7283	0.2415	0.5329	-0.323
Mof_N 	N 	0.6632	0.1441	0.4199	-0.32
Mof_O 	O 	0.8399	0.0633	0.0944	-0.443
Mof_O 	O 	0.8225	0.8866	0.0814	-0.316
Mof_O 	O 	0.4078	0.6833	0.24806	-0.441
Mof_O 	O 	0.3769	0.7862	0.1745	-0.331
Mof_O 	O 	0.8515	0.0258	0.9243	-0.331
Mof_O 	O 	0.8085	0.8466	0.9027	-0.425
Mof_O 	O 	0.3629	0.8023	0.8403	-0.431
Mof_O 	O 	0.3562	0.6954	0.7612	-0.333
Mof_O 	O 	0.1496	0.5225	0.91099	-0.414
Mof_O 	O 	0.1803	0.4182	0.8398	-0.28
Mof_O 	O 	0.0621	0.4247	0.0304	-0.459
Mof_O 	O 	0.0635	0.3076	0.1048	-0.383
Mof_O 	O 	0.6601	0.4367	0.5944	-0.444
Mof_O 	O 	0.6775	0.6134	0.5814	-0.316
Mof_O 	O 	0.0922	0.8167	0.74806	-0.441
Mof_O 	O 	0.1231	0.7138	0.6745	-0.332
Mof_O 	O 	0.6485	0.4742	0.4243	-0.336
Mof_O 	O 	0.6915	0.6534	0.4027	-0.426
Mof_O 	O 	0.1371	0.6977	0.3403	-0.432
Mof_O 	O 	0.1438	0.8046	0.2612	-0.334
Mof_O 	O 	0.3504	0.9775	0.41099	-0.412
Mof_O 	O 	0.3197	0.0818	0.3398	-0.279
Mof_O 	O 	0.4379	0.0753	0.5304	-0.459
Mof_O 	O 	0.4365	0.1924	0.6048	-0.383
Mof_O 	O 	0.1601	0.9367	0.9056	-0.443
Mof_O 	O 	0.1775	0.1134	0.9186	-0.316
Mof_O 	O 	0.5922	0.3167	0.75194	-0.441
Mof_O 	O 	0.6231	0.2138	0.8255	-0.331
Mof_O 	O 	0.1485	0.9742	0.0757	-0.331
Mof_O 	O 	0.1915	0.1534	0.0973	-0.425
Mof_O 	O 	0.6371	0.1977	0.1597	-0.431
Mof_O 	O 	0.6438	0.3046	0.2388	-0.333
Mof_O 	O 	0.8504	0.4775	0.08901	-0.414
Mof_O 	O 	0.8197	0.5818	0.1602	-0.28
Mof_O 	O 	0.9379	0.5753	0.9696	-0.459
Mof_O 	O 	0.9365	0.6924	0.8952	-0.383
Mof_O 	O 	0.3399	0.5633	0.4056	-0.444
Mof_O 	O 	0.3225	0.3866	0.4186	-0.316
Mof_O 	O 	0.9078	0.1833	0.25194	-0.441
Mof_O 	O 	0.8769	0.2862	0.3255	-0.332
Mof_O 	O 	0.3515	0.5258	0.5757	-0.336
Mof_O 	O 	0.3085	0.3466	0.5973	-0.426
Mof_O 	O 	0.8629	0.3023	0.6597	-0.432
Mof_O 	O 	0.8562	0.1954	0.7388	-0.334
Mof_O 	O 	0.6496	0.0225	0.58901	-0.412
Mof_O 	O 	0.6803	0.9182	0.6602	-0.279
Mof_O 	O 	0.5621	0.9247	0.4696	-0.459
Mof_O 	O 	0.5635	0.8076	0.3952	-0.383
_end
