# CIF file generated by openbabel 3.1.0, see https://openbabel.org
data_I
_chemical_name_common 'image0'
_cell_length_a 19.953
_cell_length_b 9.495
_cell_length_c 25.805
_cell_angle_alpha 90
_cell_angle_beta 91.915
_cell_angle_gamma 90
_space_group_name_H-M_alt 'P 1'
_space_group_name_Hall 'P 1'
loop_
    _symmetry_equiv_pos_as_xyz
    x,y,z
loop_
    _atom_site_label
    _atom_site_type_symbol
    _atom_site_fract_x
    _atom_site_fract_y
    _atom_site_fract_z
    _atom_site_occupancy
    Zn1      Zn       0.08473    0.45196    0.47275    1.000
    O1       O        0.98763    0.42740    0.44848    1.000
    O2       O        0.38160    0.95600    0.09849    1.000
    O3       O        0.92117    0.70240    0.47769    1.000
    O4       O        0.90482    0.35740    0.49685    1.000
    O5       O        0.84362    0.85310    0.49971    1.000
    O6       O        0.29270    0.91170    0.04968    1.000
    C1       C        0.92090    0.07760    0.46773    1.000
    H1       H        0.88740    0.09760    0.49080    1.000
    C2       C        0.93380    0.93970    0.45401    1.000
    C3       C        0.98130    0.90950    0.41852    1.000
    H2       H        0.98950    0.81620    0.40970    1.000
    C4       C        0.01810    0.01820    0.39525    1.000
    C5       C        0.00410    0.15730    0.41155    1.000
    H3       H        0.02750    0.23180    0.39730    1.000
    C6       C        0.95780    0.18500    0.44719    1.000
    C7       C        0.06830    0.99040    0.35600    1.000
    C8       C        0.06040    0.88170    0.32030    1.000
    H4       H        0.02520    0.81860    0.32360    1.000
    C9       C        0.10350    0.86470    0.28000    1.000
    H5       H        0.09640    0.79110    0.25670    1.000
    C10      C        0.15710    0.95500    0.27370    1.000
    C11      C        0.16600    0.06330    0.31060    1.000
    H6       H        0.20190    0.12500    0.30780    1.000
    C12      C        0.12310    0.07970    0.35040    1.000
    H7       H        0.13070    0.15180    0.37430    1.000
    C13      C        0.19970    0.94660    0.22860    1.000
    C14      C        0.17330    0.89860    0.18150    1.000
    H8       H        0.12910    0.86790    0.17880    1.000
    C15      C        0.21290    0.89660    0.13860    1.000
    H9       H        0.19380    0.86850    0.10690    1.000
    C16      C        0.27960    0.93460    0.14090    1.000
    C17      C        0.30530    0.98240    0.18750    1.000
    H10      H        0.34990    0.01120    0.19020    1.000
    C18      C        0.26620    0.98850    0.23050    1.000
    H11      H        0.28500    0.02180    0.26160    1.000
    C19      C        0.89450    0.82180    0.47917    1.000
    C20      C        0.94900    0.33400    0.46505    1.000
    C21      C        0.31970    0.93270    0.09390    1.000
    Zn2      Zn       0.58473    0.95196    0.47275    1.000
    O7       O        0.48763    0.92740    0.44848    1.000
    O8       O        0.88160    0.45600    0.09849    1.000
    O9       O        0.42117    0.20240    0.47769    1.000
    O10      O        0.40482    0.85740    0.49685    1.000
    O11      O        0.34362    0.35310    0.49971    1.000
    O12      O        0.79270    0.41170    0.04968    1.000
    C22      C        0.42090    0.57760    0.46773    1.000
    H12      H        0.38740    0.59760    0.49080    1.000
    C23      C        0.43380    0.43970    0.45401    1.000
    C24      C        0.48130    0.40950    0.41852    1.000
    H13      H        0.48950    0.31620    0.40970    1.000
    C25      C        0.51810    0.51820    0.39525    1.000
    C26      C        0.50410    0.65730    0.41155    1.000
    H14      H        0.52750    0.73180    0.39730    1.000
    C27      C        0.45780    0.68500    0.44719    1.000
    C28      C        0.56830    0.49040    0.35600    1.000
    C29      C        0.56040    0.38170    0.32030    1.000
    H15      H        0.52520    0.31860    0.32360    1.000
    C30      C        0.60350    0.36470    0.28000    1.000
    H16      H        0.59640    0.29110    0.25670    1.000
    C31      C        0.65710    0.45500    0.27370    1.000
    C32      C        0.66600    0.56330    0.31060    1.000
    H17      H        0.70190    0.62500    0.30780    1.000
    C33      C        0.62310    0.57970    0.35040    1.000
    H18      H        0.63070    0.65180    0.37430    1.000
    C34      C        0.69970    0.44660    0.22860    1.000
    C35      C        0.67330    0.39860    0.18150    1.000
    H19      H        0.62910    0.36790    0.17880    1.000
    C36      C        0.71290    0.39660    0.13860    1.000
    H20      H        0.69380    0.36850    0.10690    1.000
    C37      C        0.77960    0.43460    0.14090    1.000
    C38      C        0.80530    0.48240    0.18750    1.000
    H21      H        0.84990    0.51120    0.19020    1.000
    C39      C        0.76620    0.48850    0.23050    1.000
    H22      H        0.78500    0.52180    0.26160    1.000
    C40      C        0.39450    0.32180    0.47917    1.000
    C41      C        0.44900    0.83400    0.46505    1.000
    C42      C        0.81970    0.43270    0.09390    1.000
    Zn3      Zn       0.91527    0.45196    0.02725    1.000
    O13      O        0.01237    0.42740    0.05152    1.000
    O14      O        0.61840    0.95600    0.40151    1.000
    O15      O        0.07883    0.70240    0.02231    1.000
    O16      O        0.09518    0.35740    0.00315    1.000
    O17      O        0.15638    0.85310    0.00029    1.000
    O18      O        0.70730    0.91170    0.45032    1.000
    C43      C        0.07910    0.07760    0.03227    1.000
    H23      H        0.11260    0.09760    0.00920    1.000
    C44      C        0.06620    0.93970    0.04599    1.000
    C45      C        0.01870    0.90950    0.08148    1.000
    H24      H        0.01050    0.81620    0.09030    1.000
    C46      C        0.98190    0.01820    0.10475    1.000
    C47      C        0.99590    0.15730    0.08845    1.000
    H25      H        0.97250    0.23180    0.10270    1.000
    C48      C        0.04220    0.18500    0.05281    1.000
    C49      C        0.93170    0.99040    0.14400    1.000
    C50      C        0.93960    0.88170    0.17970    1.000
    H26      H        0.97480    0.81860    0.17640    1.000
    C51      C        0.89650    0.86470    0.22000    1.000
    H27      H        0.90360    0.79110    0.24330    1.000
    C52      C        0.84290    0.95500    0.22630    1.000
    C53      C        0.83400    0.06330    0.18940    1.000
    H28      H        0.79810    0.12500    0.19220    1.000
    C54      C        0.87690    0.07970    0.14960    1.000
    H29      H        0.86930    0.15180    0.12570    1.000
    C55      C        0.80030    0.94660    0.27140    1.000
    C56      C        0.82670    0.89860    0.31850    1.000
    H30      H        0.87090    0.86790    0.32120    1.000
    C57      C        0.78710    0.89660    0.36140    1.000
    H31      H        0.80620    0.86850    0.39310    1.000
    C58      C        0.72040    0.93460    0.35910    1.000
    C59      C        0.69470    0.98240    0.31250    1.000
    H32      H        0.65010    0.01120    0.30980    1.000
    C60      C        0.73380    0.98850    0.26950    1.000
    H33      H        0.71500    0.02180    0.23840    1.000
    C61      C        0.10550    0.82180    0.02083    1.000
    C62      C        0.05100    0.33400    0.03495    1.000
    C63      C        0.68030    0.93270    0.40610    1.000
    Zn4      Zn       0.41527    0.95196    0.02725    1.000
    O19      O        0.51237    0.92740    0.05152    1.000
    O20      O        0.11840    0.45600    0.40151    1.000
    O21      O        0.57883    0.20240    0.02231    1.000
    O22      O        0.59518    0.85740    0.00315    1.000
    O23      O        0.65638    0.35310    0.00029    1.000
    O24      O        0.20730    0.41170    0.45032    1.000
    C64      C        0.57910    0.57760    0.03227    1.000
    H34      H        0.61260    0.59760    0.00920    1.000
    C65      C        0.56620    0.43970    0.04599    1.000
    C66      C        0.51870    0.40950    0.08148    1.000
    H35      H        0.51050    0.31620    0.09030    1.000
    C67      C        0.48190    0.51820    0.10475    1.000
    C68      C        0.49590    0.65730    0.08845    1.000
    H36      H        0.47250    0.73180    0.10270    1.000
    C69      C        0.54220    0.68500    0.05281    1.000
    C70      C        0.43170    0.49040    0.14400    1.000
    C71      C        0.43960    0.38170    0.17970    1.000
    H37      H        0.47480    0.31860    0.17640    1.000
    C72      C        0.39650    0.36470    0.22000    1.000
    H38      H        0.40360    0.29110    0.24330    1.000
    C73      C        0.34290    0.45500    0.22630    1.000
    C74      C        0.33400    0.56330    0.18940    1.000
    H39      H        0.29810    0.62500    0.19220    1.000
    C75      C        0.37690    0.57970    0.14960    1.000
    H40      H        0.36930    0.65180    0.12570    1.000
    C76      C        0.30030    0.44660    0.27140    1.000
    C77      C        0.32670    0.39860    0.31850    1.000
    H41      H        0.37090    0.36790    0.32120    1.000
    C78      C        0.28710    0.39660    0.36140    1.000
    H42      H        0.30620    0.36850    0.39310    1.000
    C79      C        0.22040    0.43460    0.35910    1.000
    C80      C        0.19470    0.48240    0.31250    1.000
    H43      H        0.15010    0.51120    0.30980    1.000
    C81      C        0.23380    0.48850    0.26950    1.000
    H44      H        0.21500    0.52180    0.23840    1.000
    C82      C        0.60550    0.32180    0.02083    1.000
    C83      C        0.55100    0.83400    0.03495    1.000
    C84      C        0.18030    0.43270    0.40610    1.000
    Zn5      Zn       0.91527    0.54804    0.52725    1.000
    O25      O        0.01237    0.57260    0.55152    1.000
    O26      O        0.61840    0.04400    0.90151    1.000
    O27      O        0.07883    0.29760    0.52231    1.000
    O28      O        0.09518    0.64260    0.50315    1.000
    O29      O        0.15638    0.14690    0.50029    1.000
    O30      O        0.70730    0.08830    0.95032    1.000
    C85      C        0.07910    0.92240    0.53227    1.000
    H45      H        0.11260    0.90240    0.50920    1.000
    C86      C        0.06620    0.06030    0.54599    1.000
    C87      C        0.01870    0.09050    0.58148    1.000
    H46      H        0.01050    0.18380    0.59030    1.000
    C88      C        0.98190    0.98180    0.60475    1.000
    C89      C        0.99590    0.84270    0.58845    1.000
    H47      H        0.97250    0.76820    0.60270    1.000
    C90      C        0.04220    0.81500    0.55281    1.000
    C91      C        0.93170    0.00960    0.64400    1.000
    C92      C        0.93960    0.11830    0.67970    1.000
    H48      H        0.97480    0.18140    0.67640    1.000
    C93      C        0.89650    0.13530    0.72000    1.000
    H49      H        0.90360    0.20890    0.74330    1.000
    C94      C        0.84290    0.04500    0.72630    1.000
    C95      C        0.83400    0.93670    0.68940    1.000
    H50      H        0.79810    0.87500    0.69220    1.000
    C96      C        0.87690    0.92030    0.64960    1.000
    H51      H        0.86930    0.84820    0.62570    1.000
    C97      C        0.80030    0.05340    0.77140    1.000
    C98      C        0.82670    0.10140    0.81850    1.000
    H52      H        0.87090    0.13210    0.82120    1.000
    C99      C        0.78710    0.10340    0.86140    1.000
    H53      H        0.80620    0.13150    0.89310    1.000
    C100     C        0.72040    0.06540    0.85910    1.000
    C101     C        0.69470    0.01760    0.81250    1.000
    H54      H        0.65010    0.98880    0.80980    1.000
    C102     C        0.73380    0.01150    0.76950    1.000
    H55      H        0.71500    0.97820    0.73840    1.000
    C103     C        0.10550    0.17820    0.52083    1.000
    C104     C        0.05100    0.66600    0.53495    1.000
    C105     C        0.68030    0.06730    0.90610    1.000
    Zn6      Zn       0.41527    0.04804    0.52725    1.000
    O31      O        0.51237    0.07260    0.55152    1.000
    O32      O        0.11840    0.54400    0.90151    1.000
    O33      O        0.57883    0.79760    0.52231    1.000
    O34      O        0.59518    0.14260    0.50315    1.000
    O35      O        0.65638    0.64690    0.50029    1.000
    O36      O        0.20730    0.58830    0.95032    1.000
    C106     C        0.57910    0.42240    0.53227    1.000
    H56      H        0.61260    0.40240    0.50920    1.000
    C107     C        0.56620    0.56030    0.54599    1.000
    C108     C        0.51870    0.59050    0.58148    1.000
    H57      H        0.51050    0.68380    0.59030    1.000
    C109     C        0.48190    0.48180    0.60475    1.000
    C110     C        0.49590    0.34270    0.58845    1.000
    H58      H        0.47250    0.26820    0.60270    1.000
    C111     C        0.54220    0.31500    0.55281    1.000
    C112     C        0.43170    0.50960    0.64400    1.000
    C113     C        0.43960    0.61830    0.67970    1.000
    H59      H        0.47480    0.68140    0.67640    1.000
    C114     C        0.39650    0.63530    0.72000    1.000
    H60      H        0.40360    0.70890    0.74330    1.000
    C115     C        0.34290    0.54500    0.72630    1.000
    C116     C        0.33400    0.43670    0.68940    1.000
    H61      H        0.29810    0.37500    0.69220    1.000
    C117     C        0.37690    0.42030    0.64960    1.000
    H62      H        0.36930    0.34820    0.62570    1.000
    C118     C        0.30030    0.55340    0.77140    1.000
    C119     C        0.32670    0.60140    0.81850    1.000
    H63      H        0.37090    0.63210    0.82120    1.000
    C120     C        0.28710    0.60340    0.86140    1.000
    H64      H        0.30620    0.63150    0.89310    1.000
    C121     C        0.22040    0.56540    0.85910    1.000
    C122     C        0.19470    0.51760    0.81250    1.000
    H65      H        0.15010    0.48880    0.80980    1.000
    C123     C        0.23380    0.51150    0.76950    1.000
    H66      H        0.21500    0.47820    0.73840    1.000
    C124     C        0.60550    0.67820    0.52083    1.000
    C125     C        0.55100    0.16600    0.53495    1.000
    C126     C        0.18030    0.56730    0.90610    1.000
    Zn7      Zn       0.08473    0.54804    0.97275    1.000
    O37      O        0.98763    0.57260    0.94848    1.000
    O38      O        0.38160    0.04400    0.59849    1.000
    O39      O        0.92117    0.29760    0.97769    1.000
    O40      O        0.90482    0.64260    0.99685    1.000
    O41      O        0.84362    0.14690    0.99971    1.000
    O42      O        0.29270    0.08830    0.54968    1.000
    C127     C        0.92090    0.92240    0.96773    1.000
    H67      H        0.88740    0.90240    0.99080    1.000
    C128     C        0.93380    0.06030    0.95401    1.000
    C129     C        0.98130    0.09050    0.91852    1.000
    H68      H        0.98950    0.18380    0.90970    1.000
    C130     C        0.01810    0.98180    0.89525    1.000
    C131     C        0.00410    0.84270    0.91155    1.000
    H69      H        0.02750    0.76820    0.89730    1.000
    C132     C        0.95780    0.81500    0.94719    1.000
    C133     C        0.06830    0.00960    0.85600    1.000
    C134     C        0.06040    0.11830    0.82030    1.000
    H70      H        0.02520    0.18140    0.82360    1.000
    C135     C        0.10350    0.13530    0.78000    1.000
    H71      H        0.09640    0.20890    0.75670    1.000
    C136     C        0.15710    0.04500    0.77370    1.000
    C137     C        0.16600    0.93670    0.81060    1.000
    H72      H        0.20190    0.87500    0.80780    1.000
    C138     C        0.12310    0.92030    0.85040    1.000
    H73      H        0.13070    0.84820    0.87430    1.000
    C139     C        0.19970    0.05340    0.72860    1.000
    C140     C        0.17330    0.10140    0.68150    1.000
    H74      H        0.12910    0.13210    0.67880    1.000
    C141     C        0.21290    0.10340    0.63860    1.000
    H75      H        0.19380    0.13150    0.60690    1.000
    C142     C        0.27960    0.06540    0.64090    1.000
    C143     C        0.30530    0.01760    0.68750    1.000
    H76      H        0.34990    0.98880    0.69020    1.000
    C144     C        0.26620    0.01150    0.73050    1.000
    H77      H        0.28500    0.97820    0.76160    1.000
    C145     C        0.89450    0.17820    0.97917    1.000
    C146     C        0.94900    0.66600    0.96505    1.000
    C147     C        0.31970    0.06730    0.59390    1.000
    Zn8      Zn       0.58473    0.04804    0.97275    1.000
    O43      O        0.48763    0.07260    0.94848    1.000
    O44      O        0.88160    0.54400    0.59849    1.000
    O45      O        0.42117    0.79760    0.97769    1.000
    O46      O        0.40482    0.14260    0.99685    1.000
    O47      O        0.34362    0.64690    0.99971    1.000
    O48      O        0.79270    0.58830    0.54968    1.000
    C148     C        0.42090    0.42240    0.96773    1.000
    H78      H        0.38740    0.40240    0.99080    1.000
    C149     C        0.43380    0.56030    0.95401    1.000
    C150     C        0.48130    0.59050    0.91852    1.000
    H79      H        0.48950    0.68380    0.90970    1.000
    C151     C        0.51810    0.48180    0.89525    1.000
    C152     C        0.50410    0.34270    0.91155    1.000
    H80      H        0.52750    0.26820    0.89730    1.000
    C153     C        0.45780    0.31500    0.94719    1.000
    C154     C        0.56830    0.50960    0.85600    1.000
    C155     C        0.56040    0.61830    0.82030    1.000
    H81      H        0.52520    0.68140    0.82360    1.000
    C156     C        0.60350    0.63530    0.78000    1.000
    H82      H        0.59640    0.70890    0.75670    1.000
    C157     C        0.65710    0.54500    0.77370    1.000
    C158     C        0.66600    0.43670    0.81060    1.000
    H83      H        0.70190    0.37500    0.80780    1.000
    C159     C        0.62310    0.42030    0.85040    1.000
    H84      H        0.63070    0.34820    0.87430    1.000
    C160     C        0.69970    0.55340    0.72860    1.000
    C161     C        0.67330    0.60140    0.68150    1.000
    H85      H        0.62910    0.63210    0.67880    1.000
    C162     C        0.71290    0.60340    0.63860    1.000
    H86      H        0.69380    0.63150    0.60690    1.000
    C163     C        0.77960    0.56540    0.64090    1.000
    C164     C        0.80530    0.51760    0.68750    1.000
    H87      H        0.84990    0.48880    0.69020    1.000
    C165     C        0.76620    0.51150    0.73050    1.000
    H88      H        0.78500    0.47820    0.76160    1.000
    C166     C        0.39450    0.67820    0.97917    1.000
    C167     C        0.44900    0.16600    0.96505    1.000
    C168     C        0.81970    0.56730    0.59390    1.000
    Zn9      Zn       0.75000    0.75000    0.50000    1.000
    Zn10     Zn       0.25000    0.75000    0.00000    1.000
    Zn11     Zn       0.25000    0.25000    0.50000    1.000
    Zn12     Zn       0.75000    0.25000    0.00000    1.000
