data_functionalizedCrystal
_audit_creation_method	'EQeq! by Chris Wilmer'
_symmetry_space_group_name_H-M	'P1'
_symmetry_Int_Tables_number	1
_symmetry_cell_setting	triclinic
loop_
_symmetry_equiv_pos_as_xyz
  x,y,z
_cell_length_a	12.3582
_cell_length_b	33.9509
_cell_length_c	12.9507
_cell_angle_alpha	90
_cell_angle_beta	99.89
_cell_angle_gamma	90
loop_
_atom_site_label
_atom_site_type_symbol
_atom_site_fract_x
_atom_site_fract_y
_atom_site_fract_z
_atom_site_charge
Mof_Mn	Mn	0.20143	0.06808	0.10695	0.864
Mof_C 	C 	0.3017	0.1444	0.2476	0.04
Mof_H 	H 	0.3283	0.1686	0.2866	-0.01
Mof_H 	H 	0.239	0.1518	0.1928	0.021
Mof_N 	N 	0.3882	0.12882	0.1982	-0.137
Mof_N 	N 	0.3624	0.0986	0.1306	-0.193
Mof_C 	C 	0.4573	0.0876	0.1033	0.298
Mof_C 	C 	0.5427	0.112	0.153	-0.277
Mof_C 	C 	0.4974	0.1373	0.2145	0.253
Mof_C 	C 	0.4565	0.0538	0.0277	-0.767
Mof_H 	H 	0.4517	0.0289	0.0648	0.242
Mof_H 	H 	0.5242	0.0542	0.9979	0.258
Mof_H 	H 	0.393	0.0563	0.9712	0.253
Mof_C 	C 	0.5505	0.1684	0.2892	-0.573
Mof_H 	H 	0.6295	0.1692	0.288	0.181
Mof_H 	H 	0.5384	0.1623	0.3603	0.162
Mof_H 	H 	0.518	0.1941	0.268	0.17
Mof_C 	C 	0.6603	0.1075	0.1421	0.202
Mof_C 	C 	0.71	0.0703	0.1498	-0.235
Mof_H 	H 	0.6689	0.048	0.1649	0.1
Mof_C 	C 	0.8152	0.0655	0.1362	0.134
Mof_H 	H 	0.8464	0.0398	0.1418	-0.001
Mof_C 	C 	0.8783	0.0968	0.1145	-0.203
Mof_C 	C 	0.8285	0.1348	0.1063	0.134
Mof_H 	H 	0.8688	0.1571	0.0901	-0.021
Mof_C 	C 	0.7244	0.139	0.1215	-0.241
Mof_H 	H 	0.6934	0.1647	0.1179	0.099
Mof_C 	C 	0.993	0.0905	0.1012	0.402
Mof_O 	O 	0.0272	0.05505	0.0964	-0.465
Mof_O 	O 	0.058	0.11958	0.0999	-0.359
Mof_N 	N 	0.2641	0.11713	0.3185	-0.17
Mof_N 	N 	0.2116	0.08395	0.2805	-0.187
Mof_C 	C 	0.1829	0.0652	0.3613	0.312
Mof_C 	C 	0.2135	0.0872	0.4532	-0.345
Mof_C 	C 	0.2696	0.1201	0.4236	0.432
Mof_C 	C 	0.1244	0.027	0.3474	-0.668
Mof_H 	H 	0.1025	0.0215	0.2725	0.22
Mof_H 	H 	0.0589	0.0282	0.3806	0.21
Mof_H 	H 	0.1731	0.006	0.38	0.209
Mof_C 	C 	0.327	0.1537	0.4862	-1.291
Mof_H 	H 	0.3214	0.1504	0.5602	0.227
Mof_H 	H 	0.2925	0.1786	0.4603	0.218
Mof_H 	H 	0.4046	0.154	0.4786	0.215
Mof_C 	C 	0.1975	0.077	0.5614	0.226
Mof_C 	C 	0.2005	0.0395	0.5979	-0.244
Mof_H 	H 	0.2145	0.0184	0.5539	0.098
Mof_C 	C 	0.1827	0.0314	0.7025	0.12
Mof_H 	H 	0.1838	0.005	0.7271	-0.017
Mof_C 	C 	0.1641	0.0618	0.7669	-0.215
Mof_C 	C 	0.1632	0.0994	0.7303	0.13
Mof_H 	H 	0.1537	0.1205	0.7761	-0.026
Mof_C 	C 	0.1757	0.1078	0.6283	-0.245
Mof_H 	H 	0.1697	0.1342	0.6035	0.082
Mof_C 	C 	0.1508	0.0536	0.8763	0.399
Mof_O 	O 	0.1054	0.02191	0.8952	-0.39
Mof_O 	O 	0.1862	0.07925	0.9437	-0.401
Mof_N 	N 	0.5605	0.78447	0.3051	-0.135
Mof_N 	N 	0.6229	0.79258	0.2306	-0.227
Mof_C 	C 	0.5833	0.8276	0.1851	0.265
Mof_C 	C 	0.4983	0.841	0.2356	-0.259
Mof_C 	C 	0.4848	0.8132	0.3092	0.222
Mof_C 	C 	0.6248	0.8462	0.093	-0.619
Mof_H 	H 	0.6832	0.8651	0.1188	0.209
Mof_H 	H 	0.5643	0.8598	0.0484	0.205
Mof_H 	H 	0.654	0.8256	0.0523	0.205
Mof_C 	C 	0.4079	0.8109	0.3875	-0.559
Mof_H 	H 	0.3533	0.7902	0.3664	0.17
Mof_H 	H 	0.3706	0.8362	0.3902	0.169
Mof_H 	H 	0.4499	0.8047	0.4569	0.15
Mof_C 	C 	0.4322	0.8766	0.2103	0.194
Mof_C 	C 	0.3207	0.8744	0.178	-0.235
Mof_H 	H 	0.2866	0.8493	0.1765	0.096
Mof_C 	C 	0.2566	0.9063	0.148	0.13
Mof_H 	H 	0.1819	0.9029	0.1166	-0.015
Mof_C 	C 	0.3008	0.9436	0.1635	-0.201
Mof_C 	C 	0.4154	0.9471	0.2008	0.11
Mof_H 	H 	0.4481	0.9725	0.2098	-0.01
Mof_C 	C 	0.4797	0.9141	0.2243	-0.227
Mof_H 	H 	0.5561	0.9168	0.2499	0.098
Mof_C 	C 	0.2329	0.9783	0.1323	0.387
Mof_O 	O 	0.2754	0.01333	0.1398	-0.409
Mof_O 	O 	0.1303	0.97305	0.1008	-0.395
Mof_C 	C 	0.83	0.79	0.1567	-0.494
Mof_C 	C 	0.9056	0.8067	0.1525	0.342
Mof_C 	C 	0.9954	0.8324	0.1153	-0.548
Mof_H 	H 	0.9633	0.8575	0.0884	0.202
Mof_H 	H 	0.0247	0.8185	0.0597	0.157
Mof_H 	H 	0.0548	0.8373	0.1744	0.153
Mof_O 	O 	0.8451	0.7832	0.3811	0.029
Mof_C 	C 	0.8451	0.71	0.3966	-0.328
Mof_H 	H 	0.7693	0.7018	0.3979	0.073
Mof_H 	H 	0.8795	0.7186	0.4668	0.114
Mof_H 	H 	0.8863	0.6878	0.3746	0.099
Mof_H 	H 	0.3576	0.1717	0.4392	0.215
Mof_H 	H 	0.3865	0.1434	0.5391	0.225
Mof_H 	H 	0.2744	0.168	0.5208	0.216
Mof_H 	H 	0.7715	0.7249	0.9602	0.047
Mof_H 	H 	0.785	0.7717	0.9713	0.039
Mof_H 	H 	0.6859	0.7534	0.8894	0.025
Mof_N 	N 	0.83	0.71	0.1567	-0.317
Mof_Mn	Mn	0.79857	0.56808	0.89305	0.887
Mof_C 	C 	0.6983	0.6444	0.7524	0.036
Mof_H 	H 	0.6717	0.6686	0.7134	-0.009
Mof_H 	H 	0.761	0.6518	0.8072	0.025
Mof_N 	N 	0.6118	0.62882	0.8018	-0.134
Mof_N 	N 	0.6376	0.5986	0.8694	-0.178
Mof_C 	C 	0.5427	0.5876	0.8967	0.23
Mof_C 	C 	0.4573	0.612	0.847	-0.23
Mof_C 	C 	0.5026	0.6373	0.7855	0.232
Mof_C 	C 	0.5435	0.5538	0.9723	-0.501
Mof_H 	H 	0.5483	0.5289	0.9352	0.173
Mof_H 	H 	0.4758	0.5542	0.0021	0.157
Mof_H 	H 	0.607	0.5563	0.0288	0.156
Mof_C 	C 	0.4495	0.6684	0.7108	-0.55
Mof_H 	H 	0.3705	0.6692	0.712	0.173
Mof_H 	H 	0.4616	0.6623	0.6397	0.155
Mof_H 	H 	0.482	0.6941	0.732	0.162
Mof_C 	C 	0.3397	0.6075	0.8579	0.169
Mof_C 	C 	0.29	0.5703	0.8502	-0.194
Mof_H 	H 	0.3311	0.548	0.8351	0.091
Mof_C 	C 	0.1848	0.5655	0.8638	0.093
Mof_H 	H 	0.1536	0.5398	0.8582	0.012
Mof_C 	C 	0.1217	0.5968	0.8855	-0.152
Mof_C 	C 	0.1715	0.6348	0.8937	0.094
Mof_H 	H 	0.1312	0.6571	0.9099	-0.004
Mof_C 	C 	0.2756	0.639	0.8785	-0.201
Mof_H 	H 	0.3066	0.6647	0.8821	0.09
Mof_C 	C 	0.007	0.5905	0.8988	0.301
Mof_O 	O 	0.9728	0.55505	0.9036	-0.404
Mof_O 	O 	0.942	0.61958	0.9001	-0.295
Mof_N 	N 	0.7359	0.61713	0.6815	-0.17
Mof_N 	N 	0.7884	0.58395	0.7195	-0.189
Mof_C 	C 	0.8171	0.5652	0.6387	0.326
Mof_C 	C 	0.7865	0.5872	0.5468	-0.349
Mof_C 	C 	0.7304	0.6201	0.5764	0.44
Mof_C 	C 	0.8756	0.527	0.6526	-0.697
Mof_H 	H 	0.8975	0.5215	0.7275	0.235
Mof_H 	H 	0.9411	0.5282	0.6194	0.231
Mof_H 	H 	0.8269	0.506	0.62	0.222
Mof_C 	C 	0.673	0.6537	0.5138	-1.312
Mof_H 	H 	0.6786	0.6504	0.4398	0.231
Mof_H 	H 	0.7075	0.6786	0.5397	0.223
Mof_H 	H 	0.5954	0.654	0.5214	0.219
Mof_C 	C 	0.8025	0.577	0.4386	0.231
Mof_C 	C 	0.7995	0.5395	0.4021	-0.242
Mof_H 	H 	0.7855	0.5184	0.4461	0.102
Mof_C 	C 	0.8173	0.5314	0.2975	0.124
Mof_H 	H 	0.8162	0.505	0.2729	-0.011
Mof_C 	C 	0.8359	0.5618	0.2331	-0.21
Mof_C 	C 	0.8368	0.5994	0.2697	0.134
Mof_H 	H 	0.8463	0.6205	0.2239	-0.022
Mof_C 	C 	0.8243	0.6078	0.3717	-0.243
Mof_H 	H 	0.8303	0.6342	0.3965	0.086
Mof_C 	C 	0.8492	0.5536	0.1237	0.404
Mof_O 	O 	0.8946	0.52191	0.1048	-0.386
Mof_O 	O 	0.8138	0.57925	0.0563	-0.413
Mof_N 	N 	0.4395	0.28447	0.6949	-0.135
Mof_N 	N 	0.3771	0.29258	0.7694	-0.231
Mof_C 	C 	0.4167	0.3276	0.8149	0.274
Mof_C 	C 	0.5017	0.341	0.7644	-0.26
Mof_C 	C 	0.5152	0.3132	0.6908	0.224
Mof_C 	C 	0.3752	0.3462	0.907	-0.646
Mof_H 	H 	0.3168	0.3651	0.8812	0.219
Mof_H 	H 	0.4357	0.3598	0.9516	0.223
Mof_H 	H 	0.346	0.3256	0.9477	0.224
Mof_C 	C 	0.5921	0.3109	0.6125	-0.561
Mof_H 	H 	0.6467	0.2902	0.6336	0.172
Mof_H 	H 	0.6294	0.3362	0.6098	0.171
Mof_H 	H 	0.5501	0.3047	0.5431	0.151
Mof_C 	C 	0.5678	0.3766	0.7897	0.194
Mof_C 	C 	0.6793	0.3744	0.822	-0.227
Mof_H 	H 	0.7134	0.3493	0.8235	0.096
Mof_C 	C 	0.7434	0.4063	0.852	0.125
Mof_H 	H 	0.8181	0.4029	0.8834	-0.005
Mof_C 	C 	0.6992	0.4436	0.8365	-0.191
Mof_C 	C 	0.5846	0.4471	0.7992	0.103
Mof_H 	H 	0.5519	0.4725	0.7902	-0.008
Mof_C 	C 	0.5203	0.4141	0.7757	-0.224
Mof_H 	H 	0.4439	0.4168	0.7501	0.097
Mof_C 	C 	0.7671	0.4783	0.8677	0.376
Mof_O 	O 	0.7246	0.51333	0.8602	-0.397
Mof_O 	O 	0.8697	0.47305	0.8992	-0.378
Mof_C 	C 	0.17	0.29	0.8433	-0.56
Mof_C 	C 	0.0944	0.3067	0.8475	0.435
Mof_C 	C 	0.0046	0.3324	0.8847	-0.876
Mof_H 	H 	0.0367	0.3575	0.9116	0.294
Mof_H 	H 	0.9753	0.3185	0.9403	0.287
Mof_H 	H 	0.9452	0.3373	0.8256	0.271
Mof_O 	O 	0.1549	0.2832	0.6189	-0.004
Mof_C 	C 	0.1549	0.21	0.6034	-0.396
Mof_H 	H 	0.2307	0.2018	0.6021	0.107
Mof_H 	H 	0.1205	0.2186	0.5332	0.044
Mof_H 	H 	0.1137	0.1878	0.6254	0.113
Mof_H 	H 	0.6424	0.6717	0.5608	0.219
Mof_H 	H 	0.6135	0.6434	0.4609	0.229
Mof_H 	H 	0.7256	0.668	0.4792	0.221
Mof_H 	H 	0.2285	0.2249	0.0398	0.03
Mof_H 	H 	0.215	0.2717	0.0287	0.035
Mof_H 	H 	0.3141	0.2534	0.1106	0.033
Mof_N 	N 	0.17	0.21	0.8433	-0.343
Mof_Mn	Mn	0.79857	0.93192	0.89305	0.888
Mof_C 	C 	0.6983	0.8556	0.7524	0.036
Mof_H 	H 	0.6717	0.8314	0.7134	-0.009
Mof_H 	H 	0.761	0.8482	0.8072	0.025
Mof_N 	N 	0.6118	0.87118	0.8018	-0.134
Mof_N 	N 	0.6376	0.9014	0.8694	-0.179
Mof_C 	C 	0.5427	0.9124	0.8967	0.231
Mof_C 	C 	0.4573	0.888	0.847	-0.231
Mof_C 	C 	0.5026	0.8627	0.7855	0.233
Mof_C 	C 	0.5435	0.9462	0.9723	-0.506
Mof_H 	H 	0.5483	0.9711	0.9352	0.176
Mof_H 	H 	0.4758	0.9458	0.0021	0.159
Mof_H 	H 	0.607	0.9437	0.0288	0.159
Mof_C 	C 	0.4495	0.8316	0.7108	-0.55
Mof_H 	H 	0.3705	0.8308	0.712	0.173
Mof_H 	H 	0.4616	0.8377	0.6397	0.155
Mof_H 	H 	0.482	0.8059	0.732	0.162
Mof_C 	C 	0.3397	0.8925	0.8579	0.17
Mof_C 	C 	0.29	0.9297	0.8502	-0.194
Mof_H 	H 	0.3311	0.952	0.8351	0.093
Mof_C 	C 	0.1848	0.9345	0.8638	0.092
Mof_H 	H 	0.1536	0.9602	0.8582	0.015
Mof_C 	C 	0.1217	0.9032	0.8855	-0.151
Mof_C 	C 	0.1715	0.8652	0.8937	0.094
Mof_H 	H 	0.1312	0.8429	0.9099	-0.005
Mof_C 	C 	0.2756	0.861	0.8785	-0.201
Mof_H 	H 	0.3066	0.8353	0.8821	0.09
Mof_C 	C 	0.007	0.9095	0.8988	0.299
Mof_O 	O 	0.9728	0.94495	0.9036	-0.4
Mof_O 	O 	0.942	0.88042	0.9001	-0.295
Mof_N 	N 	0.7359	0.88287	0.6815	-0.171
Mof_N 	N 	0.7884	0.91605	0.7195	-0.189
Mof_C 	C 	0.8171	0.9348	0.6387	0.329
Mof_C 	C 	0.7865	0.9128	0.5468	-0.351
Mof_C 	C 	0.7304	0.8799	0.5764	0.442
Mof_C 	C 	0.8756	0.973	0.6526	-0.705
Mof_H 	H 	0.8975	0.9785	0.7275	0.239
Mof_H 	H 	0.9411	0.9718	0.6194	0.235
Mof_H 	H 	0.8269	0.994	0.62	0.227
Mof_C 	C 	0.673	0.8463	0.5138	-1.314
Mof_H 	H 	0.6786	0.8496	0.4398	0.232
Mof_H 	H 	0.7075	0.8214	0.5397	0.224
Mof_H 	H 	0.5954	0.846	0.5214	0.22
Mof_C 	C 	0.8025	0.923	0.4386	0.231
Mof_C 	C 	0.7995	0.9605	0.4021	-0.241
Mof_H 	H 	0.7855	0.9816	0.4461	0.103
Mof_C 	C 	0.8173	0.9686	0.2975	0.124
Mof_H 	H 	0.8162	0.995	0.2729	-0.008
Mof_C 	C 	0.8359	0.9382	0.2331	-0.208
Mof_C 	C 	0.8368	0.9006	0.2697	0.133
Mof_H 	H 	0.8463	0.8795	0.2239	-0.022
Mof_C 	C 	0.8243	0.8922	0.3717	-0.242
Mof_H 	H 	0.8303	0.8658	0.3965	0.086
Mof_C 	C 	0.8492	0.9464	0.1237	0.402
Mof_O 	O 	0.8946	0.97809	0.1048	-0.38
Mof_O 	O 	0.8138	0.92075	0.0563	-0.413
Mof_N 	N 	0.4395	0.21553	0.6949	-0.135
Mof_N 	N 	0.3771	0.20742	0.7694	-0.235
Mof_C 	C 	0.4167	0.1724	0.8149	0.266
Mof_C 	C 	0.5017	0.159	0.7644	-0.257
Mof_C 	C 	0.5152	0.1868	0.6908	0.223
Mof_C 	C 	0.3752	0.1538	0.907	-0.631
Mof_H 	H 	0.3168	0.1349	0.8812	0.211
Mof_H 	H 	0.4357	0.1402	0.9516	0.219
Mof_H 	H 	0.346	0.1744	0.9477	0.212
Mof_C 	C 	0.5921	0.1891	0.6125	-0.56
Mof_H 	H 	0.6467	0.2098	0.6336	0.172
Mof_H 	H 	0.6294	0.1638	0.6098	0.171
Mof_H 	H 	0.5501	0.1953	0.5431	0.151
Mof_C 	C 	0.5678	0.1234	0.7897	0.191
Mof_C 	C 	0.6793	0.1256	0.822	-0.225
Mof_H 	H 	0.7134	0.1507	0.8235	0.096
Mof_C 	C 	0.7434	0.0937	0.852	0.122
Mof_H 	H 	0.8181	0.0971	0.8834	-0.002
Mof_C 	C 	0.6992	0.0564	0.8365	-0.187
Mof_C 	C 	0.5846	0.0529	0.7992	0.1
Mof_H 	H 	0.5519	0.0275	0.7902	-0.01
Mof_C 	C 	0.5203	0.0859	0.7757	-0.222
Mof_H 	H 	0.4439	0.0832	0.7501	0.096
Mof_C 	C 	0.7671	0.0217	0.8677	0.365
Mof_O 	O 	0.7246	0.98667	0.8602	-0.388
Mof_O 	O 	0.8697	0.02695	0.8992	-0.376
Mof_C 	C 	0.0944	0.1933	0.8475	0.269
Mof_C 	C 	0.0046	0.1676	0.8847	-0.723
Mof_H 	H 	0.0367	0.1425	0.9116	0.249
Mof_H 	H 	0.9753	0.1815	0.9403	0.243
Mof_H 	H 	0.9452	0.1627	0.8256	0.229
Mof_O 	O 	0.1549	0.2168	0.6189	-0.003
Mof_C 	C 	0.1549	0.29	0.6034	-0.392
Mof_H 	H 	0.2307	0.2982	0.6021	0.108
Mof_H 	H 	0.1205	0.2814	0.5332	0.044
Mof_H 	H 	0.1137	0.3122	0.6254	0.114
Mof_H 	H 	0.6424	0.8283	0.5608	0.219
Mof_H 	H 	0.6135	0.8566	0.4609	0.229
Mof_H 	H 	0.7256	0.832	0.4792	0.222
Mof_H 	H 	0.2285	0.2751	0.0398	0.033
Mof_H 	H 	0.215	0.2283	0.0287	0.034
Mof_H 	H 	0.3141	0.2466	0.1106	0.034
Mof_Mn	Mn	0.20143	0.43192	0.10695	0.863
Mof_C 	C 	0.3017	0.3556	0.2476	0.039
Mof_H 	H 	0.3283	0.3314	0.2866	-0.011
Mof_H 	H 	0.239	0.3482	0.1928	0.02
Mof_N 	N 	0.3882	0.37118	0.1982	-0.138
Mof_N 	N 	0.3624	0.4014	0.1306	-0.195
Mof_C 	C 	0.4573	0.4124	0.1033	0.298
Mof_C 	C 	0.5427	0.388	0.153	-0.279
Mof_C 	C 	0.4974	0.3627	0.2145	0.252
Mof_C 	C 	0.4565	0.4462	0.0277	-0.772
Mof_H 	H 	0.4517	0.4711	0.0648	0.245
Mof_H 	H 	0.5242	0.4458	0.9979	0.259
Mof_H 	H 	0.393	0.4437	0.9712	0.255
Mof_C 	C 	0.5505	0.3316	0.2892	-0.573
Mof_H 	H 	0.6295	0.3308	0.288	0.181
Mof_H 	H 	0.5384	0.3377	0.3603	0.163
Mof_H 	H 	0.518	0.3059	0.268	0.17
Mof_C 	C 	0.6603	0.3925	0.1421	0.203
Mof_C 	C 	0.71	0.4297	0.1498	-0.236
Mof_H 	H 	0.6689	0.452	0.1649	0.102
Mof_C 	C 	0.8152	0.4345	0.1362	0.135
Mof_H 	H 	0.8464	0.4602	0.1418	0.001
Mof_C 	C 	0.8783	0.4032	0.1145	-0.204
Mof_C 	C 	0.8285	0.3652	0.1063	0.135
Mof_H 	H 	0.8688	0.3429	0.0901	-0.023
Mof_C 	C 	0.7244	0.361	0.1215	-0.242
Mof_H 	H 	0.6934	0.3353	0.1179	0.099
Mof_C 	C 	0.993	0.4095	0.1012	0.403
Mof_O 	O 	0.0272	0.44495	0.0964	-0.465
Mof_O 	O 	0.058	0.38042	0.0999	-0.361
Mof_N 	N 	0.2641	0.38287	0.3185	-0.17
Mof_N 	N 	0.2116	0.41605	0.2805	-0.187
Mof_C 	C 	0.1829	0.4348	0.3613	0.314
Mof_C 	C 	0.2135	0.4128	0.4532	-0.346
Mof_C 	C 	0.2696	0.3799	0.4236	0.433
Mof_C 	C 	0.1244	0.473	0.3474	-0.675
Mof_H 	H 	0.1025	0.4785	0.2725	0.223
Mof_H 	H 	0.0589	0.4718	0.3806	0.214
Mof_H 	H 	0.1731	0.494	0.38	0.213
Mof_C 	C 	0.327	0.3463	0.4862	-1.294
Mof_H 	H 	0.3214	0.3496	0.5602	0.228
Mof_H 	H 	0.2925	0.3214	0.4603	0.218
Mof_H 	H 	0.4046	0.346	0.4786	0.216
Mof_C 	C 	0.1975	0.423	0.5614	0.226
Mof_C 	C 	0.2005	0.4605	0.5979	-0.243
Mof_H 	H 	0.2145	0.4816	0.5539	0.099
Mof_C 	C 	0.1827	0.4686	0.7025	0.12
Mof_H 	H 	0.1838	0.495	0.7271	-0.014
Mof_C 	C 	0.1641	0.4382	0.7669	-0.214
Mof_C 	C 	0.1632	0.4006	0.7303	0.129
Mof_H 	H 	0.1537	0.3795	0.7761	-0.026
Mof_C 	C 	0.1757	0.3922	0.6283	-0.244
Mof_H 	H 	0.1697	0.3658	0.6035	0.083
Mof_C 	C 	0.1508	0.4464	0.8763	0.398
Mof_O 	O 	0.1054	0.47809	0.8952	-0.388
Mof_O 	O 	0.1862	0.42075	0.9437	-0.402
Mof_N 	N 	0.5605	0.71553	0.3051	-0.135
Mof_N 	N 	0.6229	0.70742	0.2306	-0.231
Mof_C 	C 	0.5833	0.6724	0.1851	0.258
Mof_C 	C 	0.4983	0.659	0.2356	-0.256
Mof_C 	C 	0.4848	0.6868	0.3092	0.221
Mof_C 	C 	0.6248	0.6538	0.093	-0.606
Mof_H 	H 	0.6832	0.6349	0.1188	0.203
Mof_H 	H 	0.5643	0.6402	0.0484	0.201
Mof_H 	H 	0.654	0.6744	0.0523	0.196
Mof_C 	C 	0.4079	0.6891	0.3875	-0.558
Mof_H 	H 	0.3533	0.7098	0.3664	0.17
Mof_H 	H 	0.3706	0.6638	0.3902	0.169
Mof_H 	H 	0.4499	0.6953	0.4569	0.15
Mof_C 	C 	0.4322	0.6234	0.2103	0.192
Mof_C 	C 	0.3207	0.6256	0.178	-0.233
Mof_H 	H 	0.2866	0.6507	0.1765	0.096
Mof_C 	C 	0.2566	0.5937	0.148	0.128
Mof_H 	H 	0.1819	0.5971	0.1166	-0.013
Mof_C 	C 	0.3008	0.5564	0.1635	-0.199
Mof_C 	C 	0.4154	0.5529	0.2008	0.107
Mof_H 	H 	0.4481	0.5275	0.2098	-0.012
Mof_C 	C 	0.4797	0.5859	0.2243	-0.225
Mof_H 	H 	0.5561	0.5832	0.2499	0.097
Mof_C 	C 	0.2329	0.5217	0.1323	0.378
Mof_O 	O 	0.2754	0.48667	0.1398	-0.401
Mof_O 	O 	0.1303	0.52695	0.1008	-0.398
Mof_C 	C 	0.9056	0.6933	0.1525	0.208
Mof_C 	C 	0.9954	0.6676	0.1153	-0.425
Mof_H 	H 	0.9633	0.6425	0.0884	0.167
Mof_H 	H 	0.0247	0.6815	0.0597	0.122
Mof_H 	H 	0.0548	0.6627	0.1744	0.119
Mof_O 	O 	0.8451	0.7168	0.3811	0.03
Mof_C 	C 	0.8451	0.79	0.3966	-0.325
Mof_H 	H 	0.7693	0.7982	0.3979	0.074
Mof_H 	H 	0.8795	0.7814	0.4668	0.114
Mof_H 	H 	0.8863	0.8122	0.3746	0.1
Mof_H 	H 	0.3576	0.3283	0.4392	0.215
Mof_H 	H 	0.3865	0.3566	0.5391	0.226
Mof_H 	H 	0.2744	0.332	0.5208	0.217
Mof_H 	H 	0.7715	0.7751	0.9602	0.049
Mof_H 	H 	0.785	0.7283	0.9713	0.038
Mof_H 	H 	0.6859	0.7466	0.8894	0.025
Mof_Mn	Mn	-0	0	-0	0.929
Mof_Mn	Mn	-0	0.5	-0	0.941
Mof_Rh	Rh	0.72855	0.75	0.19066	1.192
Mof_I 	I 	0.87112	0.75	0.40123	-0.075
Mof_C 	C 	0.5823	0.75	0.3652	0.02
Mof_H 	H 	0.6603	0.75	0.3994	-0.004
Mof_H 	H 	0.5368	0.75	0.4211	-0.003
Mof_C 	C 	0.658	0.75	0.045	-0.263
Mof_C 	C 	0.732	0.75	0.9584	-0.236
Mof_O 	O 	0.5572	0.75	0.0521	-0.235
Mof_I 	I 	0.6028	0.75	0.9701	0.234
Mof_C 	C 	0.8058	0.75	0.3444	-0.098
Mof_Rh	Rh	0.27145	0.25	0.80934	1.25
Mof_I 	I 	0.12888	0.25	0.59877	0.398
Mof_C 	C 	0.4177	0.25	0.6348	0.02
Mof_H 	H 	0.3397	0.25	0.6006	0.002
Mof_H 	H 	0.4632	0.25	0.5789	-0.004
Mof_C 	C 	0.342	0.25	0.955	-0.151
Mof_C 	C 	0.268	0.25	0.0416	-0.22
Mof_O 	O 	0.4428	0.25	0.9479	-0.184
Mof_I 	I 	0.3972	0.25	0.0299	0.026
Mof_C 	C 	0.1942	0.25	0.6556	-0.352
_end
