# CIF file generated by openbabel 3.1.0, see https://openbabel.org
data_I
_chemical_name_common 'VAGTUU_clean'
_cell_length_a 17.2237
_cell_length_b 17.2344
_cell_length_c 17.2923
_cell_angle_alpha 90.548
_cell_angle_beta 90
_cell_angle_gamma 90
_space_group_name_H-M_alt 'P 1'
_space_group_name_Hall 'P 1'
loop_
    _symmetry_equiv_pos_as_xyz
    x,y,z
loop_
    _atom_site_label
    _atom_site_type_symbol
    _atom_site_fract_x
    _atom_site_fract_y
    _atom_site_fract_z
    _atom_site_occupancy
    Zn1      Zn       0.43191    0.11010    0.07550    1.000
    Zn2      Zn       0.58555    0.17295    0.98380    1.000
    Zn3      Zn       0.42421    0.26246    0.97898    1.000
    Zn4      Zn       0.51799    0.26047    0.13403    1.000
    Zn5      Zn       0.43660    0.60113    0.41320    1.000
    Zn6      Zn       0.34817    0.75707    0.34434    1.000
    Zn7      Zn       0.78913    0.32845    0.50658    1.000
    Zn8      Zn       0.44460    0.76699    0.49806    1.000
    Zn9      Zn       0.93191    0.88990    0.92450    1.000
    Zn10     Zn       0.08555    0.82705    0.01620    1.000
    Zn11     Zn       0.92421    0.73754    0.02102    1.000
    Zn12     Zn       0.01799    0.73953    0.86597    1.000
    Zn13     Zn       0.93660    0.39887    0.58680    1.000
    Zn14     Zn       0.84817    0.24293    0.65566    1.000
    Zn15     Zn       0.28913    0.67155    0.49342    1.000
    Zn16     Zn       0.94460    0.23301    0.50194    1.000
    H1       H        0.69340    0.97290    0.97670    1.000
    H2       H        0.74340    0.75060    0.12660    1.000
    H3       H        0.67930    0.68940    0.22070    1.000
    H4       H        0.55910    0.71480    0.26370    1.000
    H5       H        0.48290    0.80770    0.23460    1.000
    H6       H        0.49720    0.90280    0.15360    1.000
    H7       H        0.63190    0.20740    0.76320    1.000
    H8       H        0.56180    0.32830    0.52850    1.000
    H9       H        0.45410    0.38140    0.48680    1.000
    H10      H        0.34470    0.39790    0.54610    1.000
    H11      H        0.30650    0.35590    0.65600    1.000
    H12      H        0.37360    0.29660    0.74490    1.000
    H13      H        0.71200    0.26660    0.27810    1.000
    H14      H        0.93580    0.11410    0.31350    1.000
    H15      H        0.99340    0.02440    0.24360    1.000
    H16      H        0.96610    0.98240    0.12860    1.000
    H17      H        0.87660    0.01790    0.05100    1.000
    H18      H        0.77800    0.09910    0.07340    1.000
    H19      H        0.39930    0.99830    0.27060    1.000
    H20      H        0.55460    0.95050    0.48700    1.000
    H21      H        0.64950    0.01040    0.54590    1.000
    H22      H        0.69510    0.12920    0.52240    1.000
    H23      H        0.66040    0.20820    0.42880    1.000
    H24      H        0.56940    0.19630    0.34480    1.000
    H25      H        0.45350    0.49120    0.21510    1.000
    H26      H        0.37590    0.47740    0.95460    1.000
    H27      H        0.33230    0.56200    0.86980    1.000
    H28      H        0.28700    0.68190    0.89260    1.000
    H29      H        0.30280    0.75030    0.99550    1.000
    H30      H        0.34110    0.71950    0.11010    1.000
    H31      H        0.65870    0.54560    0.47520    1.000
    H32      H        0.83880    0.57280    0.67810    1.000
    H33      H        0.86240    0.66390    0.76480    1.000
    H34      H        0.80540    0.77750    0.77990    1.000
    H35      H        0.70830    0.82710    0.71470    1.000
    H36      H        0.64450    0.77660    0.61900    1.000
    H37      H        0.19340    0.02710    0.02330    1.000
    H38      H        0.24340    0.24940    0.87340    1.000
    H39      H        0.17930    0.31060    0.77930    1.000
    H40      H        0.05910    0.28520    0.73630    1.000
    H41      H        0.98290    0.19230    0.76540    1.000
    H42      H        0.99720    0.09720    0.84640    1.000
    H43      H        0.13190    0.79260    0.23680    1.000
    H44      H        0.06180    0.67170    0.47150    1.000
    H45      H        0.95410    0.61860    0.51320    1.000
    H46      H        0.84470    0.60210    0.45390    1.000
    H47      H        0.80650    0.64410    0.34400    1.000
    H48      H        0.87360    0.70340    0.25510    1.000
    H49      H        0.21200    0.73340    0.72190    1.000
    H50      H        0.43580    0.88590    0.68650    1.000
    H51      H        0.49340    0.97560    0.75640    1.000
    H52      H        0.46610    0.01760    0.87140    1.000
    H53      H        0.37660    0.98210    0.94900    1.000
    H54      H        0.27800    0.90090    0.92660    1.000
    H55      H        0.89930    0.00170    0.72940    1.000
    H56      H        0.05460    0.04950    0.51300    1.000
    H57      H        0.14950    0.98960    0.45410    1.000
    H58      H        0.19510    0.87080    0.47760    1.000
    H59      H        0.16040    0.79180    0.57120    1.000
    H60      H        0.06940    0.80370    0.65520    1.000
    H61      H        0.95350    0.50880    0.78490    1.000
    H62      H        0.87590    0.52260    0.04540    1.000
    H63      H        0.83230    0.43800    0.13020    1.000
    H64      H        0.78700    0.31810    0.10740    1.000
    H65      H        0.80280    0.24970    0.00450    1.000
    H66      H        0.84110    0.28050    0.88990    1.000
    H67      H        0.15870    0.45440    0.52480    1.000
    H68      H        0.33880    0.42720    0.32190    1.000
    H69      H        0.36240    0.33610    0.23520    1.000
    H70      H        0.30540    0.22250    0.22010    1.000
    H71      H        0.20830    0.17290    0.28530    1.000
    H72      H        0.14450    0.22340    0.38100    1.000
    C1       C        0.54950    0.00560    0.03720    1.000
    C2       C        0.60440    0.94350    0.05140    1.000
    C3       C        0.67540    0.93810    0.01340    1.000
    C4       C        0.71610    0.87160    0.03870    1.000
    C5       C        0.67050    0.83540    0.09560    1.000
    C6       C        0.59820    0.88060    0.10430    1.000
    C7       C        0.69450    0.77030    0.13870    1.000
    C8       C        0.65390    0.73100    0.19800    1.000
    C9       C        0.57800    0.74870    0.22660    1.000
    C10      C        0.52970    0.80730    0.20770    1.000
    C11      C        0.53780    0.86720    0.15490    1.000
    C12      C        0.79330    0.84860    0.00840    1.000
    C13      C        0.49390    0.23000    0.83890    1.000
    C14      C        0.51880    0.24680    0.75840    1.000
    C15      C        0.59430    0.23230    0.73400    1.000
    C16      C        0.60610    0.26050    0.65920    1.000
    C17      C        0.53540    0.29550    0.63390    1.000
    C18      C        0.48000    0.28500    0.69980    1.000
    C19      C        0.52050    0.32850    0.56320    1.000
    C20      C        0.45210    0.36200    0.53670    1.000
    C21      C        0.38190    0.37070    0.57380    1.000
    C22      C        0.35820    0.34620    0.64390    1.000
    C23      C        0.40090    0.30840    0.70020    1.000
    C24      C        0.68120    0.25910    0.62070    1.000
    C25      C        0.67040    0.20790    0.13480    1.000
    C26      C        0.73850    0.19290    0.18580    1.000
    C27      C        0.74610    0.22960    0.25810    1.000
    C28      C        0.81210    0.20280    0.29560    1.000
    C29      C        0.84790    0.14730    0.24710    1.000
    C30      C        0.80040    0.14130    0.17660    1.000
    C31      C        0.91370    0.10400    0.26530    1.000
    C32      C        0.95050    0.04750    0.22060    1.000
    C33      C        0.93310    0.02080    0.14760    1.000
    C34      C        0.87590    0.04150    0.09950    1.000
    C35      C        0.81410    0.09500    0.11320    1.000
    C36      C        0.83240    0.23010    0.37370    1.000
    C37      C        0.45690    0.14210    0.23550    1.000
    C38      C        0.47200    0.08720    0.30010    1.000
    C39      C        0.43750    0.01580    0.30460    1.000
    C40      C        0.46580    0.97300    0.36490    1.000
    C41      C        0.52100    0.01820    0.40390    1.000
    C42      C        0.52770    0.09160    0.35970    1.000
    C43      C        0.56640    0.99880    0.46650    1.000
    C44      C        0.62640    0.03700    0.50540    1.000
    C45      C        0.65590    0.11140    0.48990    1.000
    C46      C        0.63290    0.16190    0.43090    1.000
    C47      C        0.57640    0.15330    0.37630    1.000
    C48      C        0.43910    0.89530    0.38440    1.000
    C49      C        0.43600    0.39900    0.08390    1.000
    C50      C        0.41770    0.48130    0.10110    1.000
    C51      C        0.43070    0.51610    0.17340    1.000
    C52      C        0.40540    0.59230    0.17450    1.000
    C53      C        0.40590    0.64200    0.24350    1.000
    C54      C        0.38610    0.53720    0.05140    1.000
    C55      C        0.36710    0.52700    0.97420    1.000
    C56      C        0.33650    0.58010    0.92050    1.000
    C57      C        0.31120    0.65730    0.93370    1.000
    C58      C        0.31860    0.69890    0.99990    1.000
    C59      C        0.34470    0.68050    0.07270    1.000
    C60      C        0.37630    0.60940    0.09700    1.000
    C61      C        0.57740    0.68240    0.50010    1.000
    C62      C        0.64950    0.64570    0.53640    1.000
    C63      C        0.67780    0.57580    0.51580    1.000
    C64      C        0.74000    0.55420    0.56340    1.000
    C65      C        0.75030    0.61240    0.61800    1.000
    C66      C        0.69220    0.67360    0.60060    1.000
    C67      C        0.80660    0.61590    0.67550    1.000
    C68      C        0.82230    0.67440    0.73040    1.000
    C69      C        0.78570    0.74640    0.74020    1.000
    C70      C        0.72420    0.77790    0.69910    1.000
    C71      C        0.68400    0.74550    0.63840    1.000
    C72      C        0.78190    0.48100    0.55660    1.000
    C73      C        0.04950    0.99440    0.96280    1.000
    C74      C        0.10440    0.05650    0.94860    1.000
    C75      C        0.17540    0.06190    0.98660    1.000
    C76      C        0.21610    0.12840    0.96130    1.000
    C77      C        0.17050    0.16460    0.90440    1.000
    C78      C        0.09820    0.11940    0.89570    1.000
    C79      C        0.19450    0.22970    0.86130    1.000
    C80      C        0.15390    0.26900    0.80200    1.000
    C81      C        0.07800    0.25130    0.77340    1.000
    C82      C        0.02970    0.19270    0.79230    1.000
    C83      C        0.03780    0.13280    0.84510    1.000
    C84      C        0.29330    0.15140    0.99160    1.000
    C85      C        0.99390    0.77000    0.16110    1.000
    C86      C        0.01880    0.75320    0.24160    1.000
    C87      C        0.09430    0.76770    0.26600    1.000
    C88      C        0.10610    0.73950    0.34080    1.000
    C89      C        0.03540    0.70450    0.36610    1.000
    C90      C        0.98000    0.71500    0.30020    1.000
    C91      C        0.02050    0.67150    0.43680    1.000
    C92      C        0.95210    0.63800    0.46330    1.000
    C93      C        0.88190    0.62930    0.42620    1.000
    C94      C        0.85820    0.65380    0.35610    1.000
    C95      C        0.90090    0.69160    0.29980    1.000
    C96      C        0.18120    0.74090    0.37930    1.000
    C97      C        0.17040    0.79210    0.86520    1.000
    C98      C        0.23850    0.80710    0.81420    1.000
    C99      C        0.24610    0.77040    0.74190    1.000
    C100     C        0.31210    0.79720    0.70440    1.000
    C101     C        0.34790    0.85270    0.75290    1.000
    C102     C        0.30040    0.85870    0.82340    1.000
    C103     C        0.41370    0.89600    0.73470    1.000
    C104     C        0.45050    0.95250    0.77940    1.000
    C105     C        0.43310    0.97920    0.85240    1.000
    C106     C        0.37590    0.95850    0.90050    1.000
    C107     C        0.31410    0.90500    0.88680    1.000
    C108     C        0.33240    0.76990    0.62630    1.000
    C109     C        0.95690    0.85790    0.76450    1.000
    C110     C        0.97200    0.91280    0.69990    1.000
    C111     C        0.93750    0.98420    0.69540    1.000
    C112     C        0.96580    0.02700    0.63510    1.000
    C113     C        0.02100    0.98180    0.59610    1.000
    C114     C        0.02770    0.90840    0.64030    1.000
    C115     C        0.06640    0.00120    0.53350    1.000
    C116     C        0.12640    0.96300    0.49460    1.000
    C117     C        0.15590    0.88860    0.51010    1.000
    C118     C        0.13290    0.83810    0.56910    1.000
    C119     C        0.07640    0.84670    0.62370    1.000
    C120     C        0.93910    0.10470    0.61560    1.000
    C121     C        0.93600    0.60100    0.91610    1.000
    C122     C        0.91770    0.51870    0.89890    1.000
    C123     C        0.93070    0.48390    0.82660    1.000
    C124     C        0.90540    0.40770    0.82550    1.000
    C125     C        0.90590    0.35800    0.75650    1.000
    C126     C        0.88610    0.46280    0.94860    1.000
    C127     C        0.86710    0.47300    0.02580    1.000
    C128     C        0.83650    0.41990    0.07950    1.000
    C129     C        0.81120    0.34270    0.06630    1.000
    C130     C        0.81860    0.30110    0.00010    1.000
    C131     C        0.84470    0.31950    0.92730    1.000
    C132     C        0.87630    0.39060    0.90300    1.000
    C133     C        0.07740    0.31760    0.49990    1.000
    C134     C        0.14950    0.35430    0.46360    1.000
    C135     C        0.17780    0.42420    0.48420    1.000
    C136     C        0.24000    0.44580    0.43660    1.000
    C137     C        0.25030    0.38760    0.38200    1.000
    C138     C        0.19220    0.32640    0.39940    1.000
    C139     C        0.30660    0.38410    0.32450    1.000
    C140     C        0.32230    0.32560    0.26960    1.000
    C141     C        0.28570    0.25360    0.25980    1.000
    C142     C        0.22420    0.22210    0.30090    1.000
    C143     C        0.18400    0.25450    0.36160    1.000
    C144     C        0.28190    0.51900    0.44340    1.000
    O1       O        0.48860    0.19980    0.04500    1.000
    O2       O        0.48920    0.01260    0.08080    1.000
    O3       O        0.56530    0.05310    0.98430    1.000
    O4       O        0.82960    0.90120    0.97230    1.000
    O5       O        0.81820    0.78140    0.01930    1.000
    O6       O        0.52460    0.17650    0.87450    1.000
    O7       O        0.44140    0.27660    0.86830    1.000
    O8       O        0.73640    0.22460    0.65870    1.000
    O9       O        0.69120    0.29280    0.55820    1.000
    O10      O        0.65740    0.16300    0.07930    1.000
    O11      O        0.62930    0.26740    0.15400    1.000
    O12      O        0.89110    0.20080    0.40640    1.000
    O13      O        0.78930    0.28230    0.40320    1.000
    O14      O        0.49540    0.20450    0.23070    1.000
    O15      O        0.40720    0.12090    0.18690    1.000
    O16      O        0.46410    0.86530    0.44680    1.000
    O17      O        0.39180    0.86220    0.33830    1.000
    O18      O        0.47310    0.36400    0.13630    1.000
    O19      O        0.41390    0.36920    0.02080    1.000
    O20      O        0.45020    0.62280    0.29630    1.000
    O21      O        0.36200    0.70240    0.24420    1.000
    O22      O        0.37970    0.70160    0.43500    1.000
    O23      O        0.54400    0.73710    0.53840    1.000
    O24      O        0.55220    0.65200    0.43850    1.000
    O25      O        0.83450    0.46320    0.60410    1.000
    O26      O        0.75900    0.43700    0.50170    1.000
    O27      O        0.98860    0.80020    0.95500    1.000
    O28      O        0.98920    0.98740    0.91920    1.000
    O29      O        0.06530    0.94690    0.01570    1.000
    O30      O        0.32960    0.09880    0.02770    1.000
    O31      O        0.31820    0.21860    0.98070    1.000
    O32      O        0.02460    0.82350    0.12550    1.000
    O33      O        0.94140    0.72340    0.13170    1.000
    O34      O        0.23640    0.77540    0.34130    1.000
    O35      O        0.19120    0.70720    0.44180    1.000
    O36      O        0.15740    0.83700    0.92070    1.000
    O37      O        0.12930    0.73260    0.84600    1.000
    O38      O        0.39110    0.79920    0.59360    1.000
    O39      O        0.28930    0.71770    0.59680    1.000
    O40      O        0.99540    0.79550    0.76930    1.000
    O41      O        0.90720    0.87910    0.81310    1.000
    O42      O        0.96410    0.13470    0.55320    1.000
    O43      O        0.89180    0.13780    0.66170    1.000
    O44      O        0.97310    0.63600    0.86370    1.000
    O45      O        0.91390    0.63080    0.97920    1.000
    O46      O        0.95020    0.37720    0.70370    1.000
    O47      O        0.86200    0.29760    0.75580    1.000
    O48      O        0.87970    0.29840    0.56500    1.000
    O49      O        0.04400    0.26290    0.46160    1.000
    O50      O        0.05220    0.34800    0.56150    1.000
    O51      O        0.33450    0.53680    0.39590    1.000
    O52      O        0.25900    0.56300    0.49830    1.000
