data_functionalizedCrystal
_audit_creation_method	'EQeq! by Chris Wilmer'
_symmetry_space_group_name_H-M	'P1'
_symmetry_Int_Tables_number	1
_symmetry_cell_setting	triclinic
loop_
_symmetry_equiv_pos_as_xyz
  x,y,z
_cell_length_a	14.7147
_cell_length_b	19.5849
_cell_length_c	19.6532
_cell_angle_alpha	90
_cell_angle_beta	90
_cell_angle_gamma	90
loop_
_atom_site_label
_atom_site_type_symbol
_atom_site_fract_x
_atom_site_fract_y
_atom_site_fract_z
_atom_site_charge
Mof_Cd	Cd	0.12157	0.44811	0.26401	0.437
Mof_Ba	Ba	0.36614	0.38731	0.28626	1.642
Mof_C 	C 	0.1153	0.3108	0.2513	0.433
Mof_C 	C 	0.1079	0.2356	0.2526	-0.164
Mof_C 	C 	0.1756	0.1863	0.2595	0.032
Mof_H 	H 	0.2369	0.1965	0.2649	-0.008
Mof_C 	C 	0.1429	0.1233	0.2575	-0.049
Mof_H 	H 	0.1804	0.0854	0.2625	0.05
Mof_C 	C 	0.0538	0.1171	0.2481	-0.081
Mof_C 	C 	0.9942	0.0544	0.2431	0.337
Mof_C 	C 	0.2196	0.4752	0.1487	0.348
Mof_C 	C 	0.2725	0.499	0.0895	-0.113
Mof_C 	C 	0.3628	0.5154	0.0861	-0.013
Mof_H 	H 	0.4018	0.514	0.1233	0.034
Mof_C 	C 	0.3902	0.5347	0.0205	-0.016
Mof_H 	H 	0.4497	0.5461	0.0094	0.04
Mof_C 	C 	0.3208	0.5351	0.9751	-0.107
Mof_C 	C 	0.3278	0.548	0.9001	0.346
Mof_O 	O 	0.0426	0.3428	0.2429	-0.475
Mof_O 	O 	0.19	0.3362	0.2657	-0.47
Mof_O 	O 	0.9111	0.0653	0.2311	-0.294
Mof_O 	O 	0.0292	0.9963	0.2518	-0.427
Mof_O 	O 	0.2601	0.4697	0.2048	-0.417
Mof_O 	O 	0.1357	0.4653	0.1427	-0.321
Mof_O 	O 	0.4052	0.5623	0.8776	-0.317
Mof_O 	O 	0.2576	0.5413	0.8644	-0.424
Mof_S 	S 	0.006	0.19427	0.2405	-0.008
Mof_S 	S 	0.2201	0.51059	0.01204	0.012
Mof_Cd	Cd	0.37843	0.55189	0.76401	0.436
Mof_Ba	Ba	0.13386	0.61269	0.78626	1.639
Mof_C 	C 	0.3847	0.6892	0.7513	0.431
Mof_C 	C 	0.3921	0.7644	0.7526	-0.165
Mof_C 	C 	0.3244	0.8137	0.7595	0.03
Mof_H 	H 	0.2631	0.8035	0.7649	-0.008
Mof_C 	C 	0.3571	0.8767	0.7575	-0.047
Mof_H 	H 	0.3196	0.9146	0.7625	0.048
Mof_C 	C 	0.4462	0.8829	0.7481	-0.084
Mof_C 	C 	0.5058	0.9456	0.7431	0.34
Mof_C 	C 	0.2804	0.5248	0.6487	0.348
Mof_C 	C 	0.2275	0.501	0.5895	-0.113
Mof_C 	C 	0.1372	0.4846	0.5861	-0.013
Mof_H 	H 	0.0982	0.486	0.6233	0.034
Mof_C 	C 	0.1098	0.4653	0.5205	-0.017
Mof_H 	H 	0.0503	0.4539	0.5094	0.04
Mof_C 	C 	0.1792	0.4649	0.4751	-0.107
Mof_C 	C 	0.1722	0.452	0.4001	0.346
Mof_O 	O 	0.4574	0.6572	0.7429	-0.475
Mof_O 	O 	0.31	0.6638	0.7657	-0.47
Mof_O 	O 	0.5889	0.9347	0.7311	-0.293
Mof_O 	O 	0.4708	0.0037	0.7518	-0.427
Mof_O 	O 	0.2399	0.5303	0.7048	-0.417
Mof_O 	O 	0.3643	0.5347	0.6427	-0.321
Mof_O 	O 	0.0948	0.4377	0.3776	-0.317
Mof_O 	O 	0.2424	0.4587	0.3644	-0.424
Mof_S 	S 	0.494	0.80573	0.7405	-0.009
Mof_S 	S 	0.2799	0.48941	0.51204	0.012
Mof_Cd	Cd	0.87843	0.94811	0.23599	0.437
Mof_Ba	Ba	0.63386	0.88731	0.21374	1.641
Mof_C 	C 	0.8847	0.8108	0.2487	0.431
Mof_C 	C 	0.8921	0.7356	0.2474	-0.165
Mof_C 	C 	0.8244	0.6863	0.2405	0.03
Mof_H 	H 	0.7631	0.6965	0.2351	-0.008
Mof_C 	C 	0.8571	0.6233	0.2425	-0.047
Mof_H 	H 	0.8196	0.5854	0.2375	0.049
Mof_C 	C 	0.9462	0.6171	0.2519	-0.084
Mof_C 	C 	0.0058	0.5544	0.2569	0.34
Mof_C 	C 	0.7804	0.9752	0.3513	0.347
Mof_C 	C 	0.7275	0.999	0.4105	-0.11
Mof_C 	C 	0.6372	0.0154	0.4139	-0.016
Mof_H 	H 	0.5982	0.014	0.3767	0.035
Mof_C 	C 	0.6098	0.0347	0.4795	-0.015
Mof_H 	H 	0.5503	0.0461	0.4906	0.039
Mof_C 	C 	0.6792	0.0351	0.5249	-0.107
Mof_C 	C 	0.6722	0.048	0.5999	0.346
Mof_O 	O 	0.9574	0.8428	0.2571	-0.474
Mof_O 	O 	0.81	0.8362	0.2343	-0.47
Mof_O 	O 	0.0889	0.5653	0.2689	-0.293
Mof_O 	O 	0.9708	0.4963	0.2482	-0.427
Mof_O 	O 	0.7399	0.9697	0.2952	-0.417
Mof_O 	O 	0.8643	0.9653	0.3573	-0.32
Mof_O 	O 	0.5948	0.0623	0.6224	-0.317
Mof_O 	O 	0.7424	0.0413	0.6356	-0.425
Mof_S 	S 	0.994	0.69427	0.2595	-0.008
Mof_S 	S 	0.7799	0.01059	0.48796	0.009
Mof_Cd	Cd	0.62157	0.05189	0.73599	0.436
Mof_Ba	Ba	0.86614	0.11269	0.71374	1.638
Mof_C 	C 	0.6153	0.1892	0.7487	0.431
Mof_C 	C 	0.6079	0.2644	0.7474	-0.165
Mof_C 	C 	0.6756	0.3137	0.7405	0.03
Mof_H 	H 	0.7369	0.3035	0.7351	-0.008
Mof_C 	C 	0.6429	0.3767	0.7425	-0.047
Mof_H 	H 	0.6804	0.4146	0.7375	0.049
Mof_C 	C 	0.5538	0.3829	0.7519	-0.084
Mof_C 	C 	0.4942	0.4456	0.7569	0.341
Mof_C 	C 	0.7196	0.0248	0.8513	0.349
Mof_C 	C 	0.7725	0.001	0.9105	-0.115
Mof_C 	C 	0.8628	0.9846	0.9139	-0.011
Mof_H 	H 	0.9018	0.986	0.8767	0.033
Mof_C 	C 	0.8902	0.9653	0.9795	-0.019
Mof_H 	H 	0.9497	0.9539	0.9906	0.041
Mof_C 	C 	0.8208	0.9649	0.0249	-0.105
Mof_C 	C 	0.8278	0.952	0.0999	0.346
Mof_O 	O 	0.5426	0.1572	0.7571	-0.475
Mof_O 	O 	0.69	0.1638	0.7343	-0.47
Mof_O 	O 	0.4111	0.4347	0.7689	-0.293
Mof_O 	O 	0.5292	0.5037	0.7482	-0.427
Mof_O 	O 	0.7601	0.0303	0.7952	-0.418
Mof_O 	O 	0.6357	0.0347	0.8573	-0.321
Mof_O 	O 	0.9052	0.9377	0.1224	-0.317
Mof_O 	O 	0.7576	0.9587	0.1356	-0.424
Mof_S 	S 	0.506	0.30573	0.7595	-0.009
Mof_S 	S 	0.7201	0.98941	0.98796	0.011
Mof_Cd	Cd	0.87843	0.55189	0.73599	0.436
Mof_Ba	Ba	0.63386	0.61269	0.71374	1.641
Mof_C 	C 	0.8847	0.6892	0.7487	0.432
Mof_C 	C 	0.8921	0.7644	0.7474	-0.165
Mof_C 	C 	0.8244	0.8137	0.7405	0.032
Mof_H 	H 	0.7631	0.8035	0.7351	-0.008
Mof_C 	C 	0.8571	0.8767	0.7425	-0.049
Mof_H 	H 	0.8196	0.9146	0.7375	0.05
Mof_C 	C 	0.9462	0.8829	0.7519	-0.081
Mof_C 	C 	0.0058	0.9456	0.7569	0.337
Mof_C 	C 	0.7804	0.5248	0.8513	0.348
Mof_C 	C 	0.7275	0.501	0.9105	-0.113
Mof_C 	C 	0.6372	0.4846	0.9139	-0.013
Mof_H 	H 	0.5982	0.486	0.8767	0.034
Mof_C 	C 	0.6098	0.4653	0.9795	-0.016
Mof_H 	H 	0.5503	0.4539	0.9906	0.04
Mof_C 	C 	0.6792	0.4649	0.0249	-0.107
Mof_C 	C 	0.6722	0.452	0.0999	0.346
Mof_O 	O 	0.9574	0.6572	0.7571	-0.475
Mof_O 	O 	0.81	0.6638	0.7343	-0.47
Mof_O 	O 	0.0889	0.9347	0.7689	-0.294
Mof_O 	O 	0.9708	0.0037	0.7482	-0.427
Mof_O 	O 	0.7399	0.5303	0.7952	-0.417
Mof_O 	O 	0.8643	0.5347	0.8573	-0.321
Mof_O 	O 	0.5948	0.4377	0.1224	-0.317
Mof_O 	O 	0.7424	0.4587	0.1356	-0.424
Mof_S 	S 	0.994	0.80573	0.7595	-0.008
Mof_S 	S 	0.7799	0.48941	0.98796	0.012
Mof_Cd	Cd	0.62157	0.44811	0.23599	0.436
Mof_Ba	Ba	0.86614	0.38731	0.21374	1.639
Mof_C 	C 	0.6153	0.3108	0.2487	0.431
Mof_C 	C 	0.6079	0.2356	0.2474	-0.165
Mof_C 	C 	0.6756	0.1863	0.2405	0.03
Mof_H 	H 	0.7369	0.1965	0.2351	-0.008
Mof_C 	C 	0.6429	0.1233	0.2425	-0.047
Mof_H 	H 	0.6804	0.0854	0.2375	0.048
Mof_C 	C 	0.5538	0.1171	0.2519	-0.084
Mof_C 	C 	0.4942	0.0544	0.2569	0.34
Mof_C 	C 	0.7196	0.4752	0.3513	0.348
Mof_C 	C 	0.7725	0.499	0.4105	-0.113
Mof_C 	C 	0.8628	0.5154	0.4139	-0.013
Mof_H 	H 	0.9018	0.514	0.3767	0.034
Mof_C 	C 	0.8902	0.5347	0.4795	-0.017
Mof_H 	H 	0.9497	0.5461	0.4906	0.04
Mof_C 	C 	0.8208	0.5351	0.5249	-0.107
Mof_C 	C 	0.8278	0.548	0.5999	0.346
Mof_O 	O 	0.5426	0.3428	0.2571	-0.475
Mof_O 	O 	0.69	0.3362	0.2343	-0.47
Mof_O 	O 	0.4111	0.0653	0.2689	-0.293
Mof_O 	O 	0.5292	0.9963	0.2482	-0.427
Mof_O 	O 	0.7601	0.4697	0.2952	-0.417
Mof_O 	O 	0.6357	0.4653	0.3573	-0.321
Mof_O 	O 	0.9052	0.5623	0.6224	-0.317
Mof_O 	O 	0.7576	0.5413	0.6356	-0.424
Mof_S 	S 	0.506	0.19427	0.2595	-0.009
Mof_S 	S 	0.7201	0.51059	0.48796	0.012
Mof_Cd	Cd	0.12157	0.05189	0.76401	0.437
Mof_Ba	Ba	0.36614	0.11269	0.78626	1.641
Mof_C 	C 	0.1153	0.1892	0.7513	0.431
Mof_C 	C 	0.1079	0.2644	0.7526	-0.165
Mof_C 	C 	0.1756	0.3137	0.7595	0.03
Mof_H 	H 	0.2369	0.3035	0.7649	-0.008
Mof_C 	C 	0.1429	0.3767	0.7575	-0.047
Mof_H 	H 	0.1804	0.4146	0.7625	0.049
Mof_C 	C 	0.0538	0.3829	0.7481	-0.084
Mof_C 	C 	0.9942	0.4456	0.7431	0.34
Mof_C 	C 	0.2196	0.0248	0.6487	0.347
Mof_C 	C 	0.2725	0.001	0.5895	-0.11
Mof_C 	C 	0.3628	0.9846	0.5861	-0.016
Mof_H 	H 	0.4018	0.986	0.6233	0.035
Mof_C 	C 	0.3902	0.9653	0.5205	-0.015
Mof_H 	H 	0.4497	0.9539	0.5094	0.039
Mof_C 	C 	0.3208	0.9649	0.4751	-0.107
Mof_C 	C 	0.3278	0.952	0.4001	0.346
Mof_O 	O 	0.0426	0.1572	0.7429	-0.474
Mof_O 	O 	0.19	0.1638	0.7657	-0.47
Mof_O 	O 	0.9111	0.4347	0.7311	-0.293
Mof_O 	O 	0.0292	0.5037	0.7518	-0.427
Mof_O 	O 	0.2601	0.0303	0.7048	-0.417
Mof_O 	O 	0.1357	0.0347	0.6427	-0.32
Mof_O 	O 	0.4052	0.9377	0.3776	-0.317
Mof_O 	O 	0.2576	0.9587	0.3644	-0.425
Mof_S 	S 	0.006	0.30573	0.7405	-0.008
Mof_S 	S 	0.2201	0.98941	0.51204	0.009
Mof_Cd	Cd	0.37843	0.94811	0.26401	0.436
Mof_Ba	Ba	0.13386	0.88731	0.28626	1.638
Mof_C 	C 	0.3847	0.8108	0.2513	0.431
Mof_C 	C 	0.3921	0.7356	0.2526	-0.165
Mof_C 	C 	0.3244	0.6863	0.2595	0.03
Mof_H 	H 	0.2631	0.6965	0.2649	-0.008
Mof_C 	C 	0.3571	0.6233	0.2575	-0.047
Mof_H 	H 	0.3196	0.5854	0.2625	0.049
Mof_C 	C 	0.4462	0.6171	0.2481	-0.084
Mof_C 	C 	0.5058	0.5544	0.2431	0.341
Mof_C 	C 	0.2804	0.9752	0.1487	0.349
Mof_C 	C 	0.2275	0.999	0.0895	-0.115
Mof_C 	C 	0.1372	0.0154	0.0861	-0.011
Mof_H 	H 	0.0982	0.014	0.1233	0.033
Mof_C 	C 	0.1098	0.0347	0.0205	-0.019
Mof_H 	H 	0.0503	0.0461	0.0094	0.041
Mof_C 	C 	0.1792	0.0351	0.9751	-0.105
Mof_C 	C 	0.1722	0.048	0.9001	0.346
Mof_O 	O 	0.4574	0.8428	0.2429	-0.475
Mof_O 	O 	0.31	0.8362	0.2657	-0.47
Mof_O 	O 	0.5889	0.5653	0.2311	-0.293
Mof_O 	O 	0.4708	0.4963	0.2518	-0.427
Mof_O 	O 	0.2399	0.9697	0.2048	-0.418
Mof_O 	O 	0.3643	0.9653	0.1427	-0.321
Mof_O 	O 	0.0948	0.0623	0.8776	-0.317
Mof_O 	O 	0.2424	0.0413	0.8644	-0.424
Mof_S 	S 	0.494	0.69427	0.2405	-0.009
Mof_S 	S 	0.2799	0.01059	0.01204	0.011
_end
