data_functionalizedCrystal
_audit_creation_method	'EQeq! by Chris Wilmer'
_symmetry_space_group_name_H-M	'P1'
_symmetry_Int_Tables_number	1
_symmetry_cell_setting	triclinic
loop_
_symmetry_equiv_pos_as_xyz
  x,y,z
_cell_length_a	10.3718
_cell_length_b	28.505
_cell_length_c	28.505
_cell_angle_alpha	90
_cell_angle_beta	90
_cell_angle_gamma	90
loop_
_atom_site_label
_atom_site_type_symbol
_atom_site_fract_x
_atom_site_fract_y
_atom_site_fract_z
_atom_site_charge
Mof_Mn	Mn	0.76724	0.49062	0.40171	0.972
Mof_Mn	Mn	0.76724	0.00938	0.09829	0.956
Mof_Mn	Mn	0.76724	0.09829	0.49062	0.972
Mof_Mn	Mn	0.76724	0.40171	0.00938	0.956
Mof_Mn	Mn	0.23276	0.50938	0.59829	0.964
Mof_Mn	Mn	0.23276	0.99062	0.90171	0.982
Mof_Mn	Mn	0.23276	0.90171	0.50938	0.965
Mof_Mn	Mn	0.23276	0.59829	0.99062	0.981
Mof_Mn	Mn	5.15227e-33	0.5	0.5	0.947
Mof_Mn	Mn	-0	0	-0	0.897
Mof_Mn	Mn	5.15227e-33	5.99079e-33	0.5	0.922
Mof_Mn	Mn	-0	0.5	-0	0.922
Mof_H 	H 	0.9293	0.4912	0.7013	0.06
Mof_H 	H 	0.9597	0.5048	0.8551	0.048
Mof_H 	H 	0.6185	0.4291	0.7803	0.079
Mof_H 	H 	0.5454	0.4791	0.7213	0.047
Mof_H 	H 	0.687	0.5008	0.5905	0.051
Mof_H 	H 	0.6598	0.4138	0.8586	0.029
Mof_H 	H 	0.9175	0.5197	0.7764	0.086
Mof_H 	H 	0.797	0.4157	0.3061	0.082
Mof_H 	H 	0.7148	0.3725	0.3258	0.08
Mof_H 	H 	0.6473	0.4224	0.318	0.072
Mof_H 	H 	0.9293	0.0088	0.7987	0.055
Mof_H 	H 	0.9597	0.9952	0.6449	0.065
Mof_H 	H 	0.6185	0.0709	0.7197	0.079
Mof_H 	H 	0.5454	0.0209	0.7787	0.047
Mof_H 	H 	0.687	0.9992	0.9095	0.076
Mof_H 	H 	0.6598	0.0862	0.6414	0.029
Mof_H 	H 	0.9175	0.9803	0.7236	0.103
Mof_H 	H 	0.797	0.0843	0.1939	0.079
Mof_H 	H 	0.7148	0.1275	0.1742	0.079
Mof_H 	H 	0.6473	0.0776	0.182	0.068
Mof_H 	H 	0.9293	0.7987	0.4912	0.06
Mof_H 	H 	0.9597	0.6449	0.5048	0.048
Mof_H 	H 	0.6185	0.7197	0.4291	0.08
Mof_H 	H 	0.5454	0.7787	0.4791	0.047
Mof_H 	H 	0.687	0.9095	0.5008	0.054
Mof_H 	H 	0.6598	0.6414	0.4138	0.028
Mof_H 	H 	0.9175	0.7236	0.5197	0.086
Mof_H 	H 	0.797	0.1939	0.4157	0.082
Mof_H 	H 	0.7148	0.1742	0.3725	0.08
Mof_H 	H 	0.6473	0.182	0.4224	0.072
Mof_H 	H 	0.9293	0.7013	0.0088	0.055
Mof_H 	H 	0.9597	0.8551	0.9952	0.065
Mof_H 	H 	0.6185	0.7803	0.0709	0.079
Mof_H 	H 	0.5454	0.7213	0.0209	0.047
Mof_H 	H 	0.687	0.5905	0.9992	0.074
Mof_H 	H 	0.6598	0.8586	0.0862	0.029
Mof_H 	H 	0.9175	0.7764	0.9803	0.103
Mof_H 	H 	0.797	0.3061	0.0843	0.079
Mof_H 	H 	0.7148	0.3258	0.1275	0.079
Mof_H 	H 	0.6473	0.318	0.0776	0.068
Mof_H 	H 	0.0707	0.5088	0.2987	0.039
Mof_H 	H 	0.0403	0.4952	0.1449	0.023
Mof_H 	H 	0.3815	0.5709	0.2197	0.08
Mof_H 	H 	0.4546	0.5209	0.2787	0.055
Mof_H 	H 	0.313	0.4992	0.4095	0.059
Mof_H 	H 	0.3402	0.5862	0.1414	0.026
Mof_H 	H 	0.0825	0.4803	0.2236	0.068
Mof_H 	H 	0.203	0.5843	0.6939	0.046
Mof_H 	H 	0.2852	0.6275	0.6742	0.054
Mof_H 	H 	0.3527	0.5776	0.682	0.055
Mof_H 	H 	0.0707	0.9912	0.2013	0.045
Mof_H 	H 	0.0403	0.0048	0.3551	0.004
Mof_H 	H 	0.3815	0.9291	0.2803	0.08
Mof_H 	H 	0.4546	0.9791	0.2213	0.055
Mof_H 	H 	0.313	0.0008	0.0905	0.033
Mof_H 	H 	0.3402	0.9138	0.3586	0.027
Mof_H 	H 	0.0825	0.0197	0.2764	0.048
Mof_H 	H 	0.203	0.9157	0.8061	0.05
Mof_H 	H 	0.2852	0.8725	0.8258	0.056
Mof_H 	H 	0.3527	0.9224	0.818	0.059
Mof_H 	H 	0.0707	0.2013	0.5088	0.039
Mof_H 	H 	0.0403	0.3551	0.4952	0.023
Mof_H 	H 	0.3815	0.2803	0.5709	0.08
Mof_H 	H 	0.4546	0.2213	0.5209	0.054
Mof_H 	H 	0.313	0.0905	0.4992	0.057
Mof_H 	H 	0.3402	0.3586	0.5862	0.026
Mof_H 	H 	0.0825	0.2764	0.4803	0.068
Mof_H 	H 	0.203	0.8061	0.5843	0.047
Mof_H 	H 	0.2852	0.8258	0.6275	0.054
Mof_H 	H 	0.3527	0.818	0.5776	0.055
Mof_H 	H 	0.0707	0.2987	0.9912	0.046
Mof_H 	H 	0.0403	0.1449	0.0048	0.004
Mof_H 	H 	0.3815	0.2197	0.9291	0.081
Mof_H 	H 	0.4546	0.2787	0.9791	0.055
Mof_H 	H 	0.313	0.4095	0.0008	0.036
Mof_H 	H 	0.3402	0.1414	0.9138	0.026
Mof_H 	H 	0.0825	0.2236	0.0197	0.048
Mof_H 	H 	0.203	0.6939	0.9157	0.05
Mof_H 	H 	0.2852	0.6742	0.8725	0.055
Mof_H 	H 	0.3527	0.682	0.9224	0.059
Mof_C 	C 	0.9399	0.50655	0.60976	0.46
Mof_C 	C 	0.8253	0.49828	0.64132	-0.112
Mof_C 	C 	0.8441	0.49112	0.68906	0.014
Mof_C 	C 	0.7405	0.48386	0.71945	-0.031
Mof_C 	C 	0.7645	0.47553	0.77002	0.081
Mof_C 	C 	0.8904	0.4892	0.83988	0.058
Mof_C 	C 	0.6885	0.44436	0.79541	-0.122
Mof_C 	C 	0.617	0.48408	0.70119	-0.01
Mof_C 	C 	0.5968	0.49158	0.65323	-0.078
Mof_C 	C 	0.7007	0.49743	0.62325	0.037
Mof_C 	C 	0.4619	0.49549	0.63344	0.306
Mof_C 	C 	0.8388	0.44972	0.91619	0.391
Mof_C 	C 	0.8151	0.45775	0.86476	-0.12
Mof_C 	C 	0.7126	0.43527	0.84195	0.057
Mof_C 	C 	0.8652	0.498	0.79306	-0.119
Mof_C 	C 	0.727	0.4066	0.3273	-0.102
Mof_C 	C 	0.9399	0.99345	0.89024	0.465
Mof_C 	C 	0.8253	0.00172	0.85868	-0.112
Mof_C 	C 	0.8441	0.00888	0.81094	0.01
Mof_C 	C 	0.7405	0.01614	0.78055	-0.032
Mof_C 	C 	0.7645	0.02447	0.72998	0.084
Mof_C 	C 	0.8904	0.0108	0.66012	0.038
Mof_C 	C 	0.6885	0.05564	0.70459	-0.124
Mof_C 	C 	0.617	0.01592	0.79881	-0.02
Mof_C 	C 	0.5968	0.00842	0.84677	-0.062
Mof_C 	C 	0.7007	0.00257	0.87675	0
Mof_C 	C 	0.4619	0.00451	0.86656	0.279
Mof_C 	C 	0.8388	0.05028	0.58381	0.39
Mof_C 	C 	0.8151	0.04225	0.63524	-0.116
Mof_C 	C 	0.7126	0.06473	0.65805	0.055
Mof_C 	C 	0.8652	0.002	0.70694	-0.139
Mof_C 	C 	0.727	0.0934	0.1727	-0.098
Mof_C 	C 	0.9399	0.89024	0.50655	0.457
Mof_C 	C 	0.8253	0.85868	0.49828	-0.109
Mof_C 	C 	0.8441	0.81094	0.49112	0.012
Mof_C 	C 	0.7405	0.78055	0.48386	-0.03
Mof_C 	C 	0.7645	0.72998	0.47553	0.081
Mof_C 	C 	0.8904	0.66012	0.4892	0.059
Mof_C 	C 	0.6885	0.70459	0.44436	-0.122
Mof_C 	C 	0.617	0.79881	0.48408	-0.011
Mof_C 	C 	0.5968	0.84677	0.49158	-0.077
Mof_C 	C 	0.7007	0.87675	0.49743	0.035
Mof_C 	C 	0.4619	0.86656	0.49549	0.305
Mof_C 	C 	0.8388	0.58381	0.44972	0.395
Mof_C 	C 	0.8151	0.63524	0.45775	-0.122
Mof_C 	C 	0.7126	0.65805	0.43527	0.058
Mof_C 	C 	0.8652	0.70694	0.498	-0.12
Mof_C 	C 	0.727	0.1727	0.4066	-0.102
Mof_C 	C 	0.9399	0.60976	0.99345	0.468
Mof_C 	C 	0.8253	0.64132	0.00172	-0.115
Mof_C 	C 	0.8441	0.68906	0.00888	0.012
Mof_C 	C 	0.7405	0.71945	0.01614	-0.033
Mof_C 	C 	0.7645	0.77002	0.02447	0.084
Mof_C 	C 	0.8904	0.83988	0.0108	0.037
Mof_C 	C 	0.6885	0.79541	0.05564	-0.123
Mof_C 	C 	0.617	0.70119	0.01592	-0.019
Mof_C 	C 	0.5968	0.65323	0.00842	-0.063
Mof_C 	C 	0.7007	0.62325	0.00257	0.001
Mof_C 	C 	0.4619	0.63344	0.00451	0.279
Mof_C 	C 	0.8388	0.91619	0.05028	0.387
Mof_C 	C 	0.8151	0.86476	0.04225	-0.115
Mof_C 	C 	0.7126	0.84195	0.06473	0.054
Mof_C 	C 	0.8652	0.79306	0.002	-0.139
Mof_C 	C 	0.727	0.3273	0.0934	-0.099
Mof_C 	C 	0.0601	0.49345	0.39024	0.31
Mof_C 	C 	0.1747	0.50172	0.35868	-0.078
Mof_C 	C 	0.1559	0.50888	0.31094	-0.018
Mof_C 	C 	0.2595	0.51614	0.28055	-0.023
Mof_C 	C 	0.2355	0.52447	0.22998	0.073
Mof_C 	C 	0.1096	0.5108	0.16012	0.057
Mof_C 	C 	0.3115	0.55564	0.20459	-0.127
Mof_C 	C 	0.383	0.51592	0.29881	-0.024
Mof_C 	C 	0.4032	0.50842	0.34677	-0.065
Mof_C 	C 	0.2993	0.50257	0.37675	0.008
Mof_C 	C 	0.5381	0.50451	0.36656	0.298
Mof_C 	C 	0.1612	0.55028	0.08381	0.398
Mof_C 	C 	0.1849	0.54225	0.13524	-0.137
Mof_C 	C 	0.2874	0.56473	0.15805	0.059
Mof_C 	C 	0.1348	0.502	0.20694	-0.127
Mof_C 	C 	0.273	0.5934	0.6727	-0.057
Mof_C 	C 	0.0601	0.00655	0.10976	0.294
Mof_C 	C 	0.1747	0.99828	0.14132	-0.071
Mof_C 	C 	0.1559	0.99112	0.18906	-0.018
Mof_C 	C 	0.2595	0.98386	0.21945	-0.019
Mof_C 	C 	0.2355	0.97553	0.27002	0.068
Mof_C 	C 	0.1096	0.9892	0.33988	0.079
Mof_C 	C 	0.3115	0.94436	0.29541	-0.123
Mof_C 	C 	0.383	0.98408	0.20119	-0.016
Mof_C 	C 	0.4032	0.99158	0.15323	-0.08
Mof_C 	C 	0.2993	0.99743	0.12325	0.044
Mof_C 	C 	0.5381	0.99549	0.13344	0.326
Mof_C 	C 	0.1612	0.94972	0.41619	0.399
Mof_C 	C 	0.1849	0.95775	0.36476	-0.14
Mof_C 	C 	0.2874	0.93527	0.34195	0.061
Mof_C 	C 	0.1348	0.998	0.29306	-0.103
Mof_C 	C 	0.273	0.9066	0.8273	-0.061
Mof_C 	C 	0.0601	0.10976	0.49345	0.31
Mof_C 	C 	0.1747	0.14132	0.50172	-0.079
Mof_C 	C 	0.1559	0.18906	0.50888	-0.017
Mof_C 	C 	0.2595	0.21945	0.51614	-0.023
Mof_C 	C 	0.2355	0.27002	0.52447	0.073
Mof_C 	C 	0.1096	0.33988	0.5108	0.057
Mof_C 	C 	0.3115	0.29541	0.55564	-0.126
Mof_C 	C 	0.383	0.20119	0.51592	-0.024
Mof_C 	C 	0.4032	0.15323	0.50842	-0.066
Mof_C 	C 	0.2993	0.12325	0.50257	0.008
Mof_C 	C 	0.5381	0.13344	0.50451	0.299
Mof_C 	C 	0.1612	0.41619	0.55028	0.398
Mof_C 	C 	0.1849	0.36476	0.54225	-0.136
Mof_C 	C 	0.2874	0.34195	0.56473	0.059
Mof_C 	C 	0.1348	0.29306	0.502	-0.127
Mof_C 	C 	0.273	0.8273	0.5934	-0.057
Mof_C 	C 	0.0601	0.39024	0.00655	0.294
Mof_C 	C 	0.1747	0.35868	0.99828	-0.07
Mof_C 	C 	0.1559	0.31094	0.99112	-0.018
Mof_C 	C 	0.2595	0.28055	0.98386	-0.019
Mof_C 	C 	0.2355	0.22998	0.97553	0.068
Mof_C 	C 	0.1096	0.16012	0.9892	0.08
Mof_C 	C 	0.3115	0.20459	0.94436	-0.123
Mof_C 	C 	0.383	0.29881	0.98408	-0.016
Mof_C 	C 	0.4032	0.34677	0.99158	-0.079
Mof_C 	C 	0.2993	0.37675	0.99743	0.042
Mof_C 	C 	0.5381	0.36656	0.99549	0.325
Mof_C 	C 	0.1612	0.08381	0.94972	0.4
Mof_C 	C 	0.1849	0.13524	0.95775	-0.141
Mof_C 	C 	0.2874	0.15805	0.93527	0.061
Mof_C 	C 	0.1348	0.20694	0.998	-0.103
Mof_C 	C 	0.273	0.6727	0.9066	-0.061
Mof_Cl	Cl	0.79107	0.4563	0.48056	-0.479
Mof_Cl	Cl	0.79107	0.0437	0.01944	-0.488
Mof_Cl	Cl	0.79107	0.01944	0.4563	-0.486
Mof_Cl	Cl	0.79107	0.48056	0.0437	-0.482
Mof_Cl	Cl	0.20893	0.5437	0.51944	-0.521
Mof_Cl	Cl	0.20893	0.9563	0.98056	-0.497
Mof_Cl	Cl	0.20893	0.98056	0.5437	-0.507
Mof_Cl	Cl	0.20893	0.51944	0.9563	-0.511
Mof_O 	O 	0.9167	0.51568	0.56749	-0.363
Mof_O 	O 	0.9223	0.47514	0.93531	-0.339
Mof_O 	O 	0.7753	0.41855	0.9359	-0.365
Mof_O 	O 	0.3668	0.48793	0.66003	-0.313
Mof_O 	O 	0.4482	0.50811	0.59205	-0.328
Mof_O 	O 	0.0482	0.5038	0.62825	-0.444
Mof_O 	O 	0.7582	0.41914	0.3721	-0.214
Mof_O 	O 	0.9167	0.98432	0.93251	-0.348
Mof_O 	O 	0.9223	0.02486	0.56469	-0.351
Mof_O 	O 	0.7753	0.08145	0.5641	-0.373
Mof_O 	O 	0.3668	0.01207	0.83997	-0.316
Mof_O 	O 	0.4482	0.99189	0.90795	-0.308
Mof_O 	O 	0.0482	0.9962	0.87175	-0.437
Mof_O 	O 	0.7582	0.08086	0.1279	-0.215
Mof_O 	O 	0.9167	0.93251	0.51568	-0.355
Mof_O 	O 	0.9223	0.56469	0.47514	-0.348
Mof_O 	O 	0.7753	0.5641	0.41855	-0.374
Mof_O 	O 	0.3668	0.83997	0.48793	-0.313
Mof_O 	O 	0.4482	0.90795	0.50811	-0.326
Mof_O 	O 	0.0482	0.87175	0.5038	-0.442
Mof_O 	O 	0.7582	0.1279	0.41914	-0.214
Mof_O 	O 	0.9167	0.56749	0.98432	-0.356
Mof_O 	O 	0.9223	0.93531	0.02486	-0.341
Mof_O 	O 	0.7753	0.9359	0.08145	-0.364
Mof_O 	O 	0.3668	0.66003	0.01207	-0.316
Mof_O 	O 	0.4482	0.59205	0.99189	-0.31
Mof_O 	O 	0.0482	0.62825	0.9962	-0.439
Mof_O 	O 	0.7582	0.3721	0.08086	-0.214
Mof_O 	O 	0.0833	0.48432	0.43251	-0.362
Mof_O 	O 	0.0777	0.52486	0.06469	-0.389
Mof_O 	O 	0.2247	0.58145	0.0641	-0.392
Mof_O 	O 	0.6332	0.51207	0.33997	-0.305
Mof_O 	O 	0.5518	0.49189	0.40795	-0.328
Mof_O 	O 	0.9518	0.4962	0.37175	-0.32
Mof_O 	O 	0.2418	0.58086	0.6279	-0.24
Mof_O 	O 	0.0833	0.01568	0.06749	-0.361
Mof_O 	O 	0.0777	0.97514	0.43531	-0.375
Mof_O 	O 	0.2247	0.91855	0.4359	-0.384
Mof_O 	O 	0.6332	0.98793	0.16003	-0.303
Mof_O 	O 	0.5518	0.00811	0.09205	-0.349
Mof_O 	O 	0.9518	0.0038	0.12825	-0.321
Mof_O 	O 	0.2418	0.91914	0.8721	-0.239
Mof_O 	O 	0.0833	0.06749	0.48432	-0.363
Mof_O 	O 	0.0777	0.43531	0.52486	-0.388
Mof_O 	O 	0.2247	0.4359	0.58145	-0.384
Mof_O 	O 	0.6332	0.16003	0.51207	-0.305
Mof_O 	O 	0.5518	0.09205	0.49189	-0.33
Mof_O 	O 	0.9518	0.12825	0.4962	-0.32
Mof_O 	O 	0.2418	0.8721	0.58086	-0.24
Mof_O 	O 	0.0833	0.43251	0.01568	-0.36
Mof_O 	O 	0.0777	0.06469	0.97514	-0.376
Mof_O 	O 	0.2247	0.0641	0.91855	-0.391
Mof_O 	O 	0.6332	0.33997	0.98793	-0.302
Mof_O 	O 	0.5518	0.40795	0.00811	-0.346
Mof_O 	O 	0.9518	0.37175	0.0038	-0.321
Mof_O 	O 	0.2418	0.6279	0.91914	-0.239
Mof_Mn	Mn	0.63637	0.75	0.75	0.895
Mof_H 	H 	0.6273	0.5712	0.7648	0.065
Mof_H 	H 	0.6268	0.5853	0.6795	0.07
Mof_H 	H 	0.4253	0.5969	0.8313	0.086
Mof_H 	H 	0.3945	0.534	0.8815	0.036
Mof_H 	H 	0.7564	0.5445	0.9266	0.033
Mof_H 	H 	0.7918	0.6086	0.8794	0.1
Mof_H 	H 	0.6166	0.4952	0.9649	0.15
Mof_H 	H 	0.4653	0.4984	0.9545	0.164
Mof_H 	H 	0.5555	0.4662	0.9224	0.146
Mof_H 	H 	0.6273	0.9288	0.7352	0.069
Mof_H 	H 	0.6268	0.9147	0.8205	0.073
Mof_H 	H 	0.4253	0.9031	0.6687	0.086
Mof_H 	H 	0.3945	0.966	0.6185	0.04
Mof_H 	H 	0.7564	0.9555	0.5734	0.037
Mof_H 	H 	0.7918	0.8914	0.6206	0.099
Mof_H 	H 	0.6166	0.0048	0.5351	0.143
Mof_H 	H 	0.4653	0.0016	0.5455	0.155
Mof_H 	H 	0.5555	0.0338	0.5776	0.143
Mof_H 	H 	0.6273	0.7352	0.5712	0.065
Mof_H 	H 	0.6268	0.8205	0.5853	0.07
Mof_H 	H 	0.4253	0.6687	0.5969	0.086
Mof_H 	H 	0.3945	0.6185	0.534	0.036
Mof_H 	H 	0.7564	0.5734	0.5445	0.032
Mof_H 	H 	0.7918	0.6206	0.6086	0.099
Mof_H 	H 	0.6166	0.5351	0.4952	0.143
Mof_H 	H 	0.4653	0.5455	0.4984	0.157
Mof_H 	H 	0.5555	0.5776	0.4662	0.141
Mof_H 	H 	0.6273	0.7648	0.9288	0.069
Mof_H 	H 	0.6268	0.6795	0.9147	0.073
Mof_H 	H 	0.4253	0.8313	0.9031	0.086
Mof_H 	H 	0.3945	0.8815	0.966	0.04
Mof_H 	H 	0.7564	0.9266	0.9555	0.038
Mof_H 	H 	0.7918	0.8794	0.8914	0.1
Mof_H 	H 	0.6166	0.9649	0.0048	0.15
Mof_H 	H 	0.4653	0.9545	0.0016	0.161
Mof_H 	H 	0.5555	0.9224	0.0338	0.148
Mof_C 	C 	0.6302	0.64564	0.77187	0.126
Mof_C 	C 	0.6297	0.65257	0.82009	-0.138
Mof_C 	C 	0.6329	0.65799	0.6961	0.127
Mof_C 	C 	0.6285	0.60092	0.7497	-0.083
Mof_C 	C 	0.6288	0.60865	0.70334	-0.086
Mof_C 	C 	0.6124	0.61039	0.85058	0.123
Mof_C 	C 	0.4932	0.5869	0.8513	-0.146
Mof_C 	C 	0.4752	0.5497	0.8806	0.069
Mof_C 	C 	0.6884	0.55609	0.9075	0.078
Mof_C 	C 	0.7099	0.59367	0.8794	-0.155
Mof_C 	C 	0.5509	0.49549	0.94024	-0.328
Mof_C 	C 	0.6302	0.85436	0.72813	0.126
Mof_C 	C 	0.6297	0.84743	0.67991	-0.138
Mof_C 	C 	0.6329	0.84201	0.8039	0.127
Mof_C 	C 	0.6285	0.89908	0.7503	-0.082
Mof_C 	C 	0.6288	0.89135	0.79666	-0.085
Mof_C 	C 	0.6124	0.88961	0.64942	0.123
Mof_C 	C 	0.4932	0.9131	0.6487	-0.145
Mof_C 	C 	0.4752	0.9503	0.6194	0.071
Mof_C 	C 	0.6884	0.94391	0.5925	0.078
Mof_C 	C 	0.7099	0.90633	0.6206	-0.154
Mof_C 	C 	0.5509	0.00451	0.55976	-0.336
Mof_C 	C 	0.6302	0.72813	0.64564	0.126
Mof_C 	C 	0.6297	0.67991	0.65257	-0.139
Mof_C 	C 	0.6329	0.8039	0.65799	0.127
Mof_C 	C 	0.6285	0.7503	0.60092	-0.083
Mof_C 	C 	0.6288	0.79666	0.60865	-0.085
Mof_C 	C 	0.6124	0.64942	0.61039	0.123
Mof_C 	C 	0.4932	0.6487	0.5869	-0.147
Mof_C 	C 	0.4752	0.6194	0.5497	0.07
Mof_C 	C 	0.6884	0.5925	0.55609	0.078
Mof_C 	C 	0.7099	0.6206	0.59367	-0.157
Mof_C 	C 	0.5509	0.55976	0.49549	-0.319
Mof_C 	C 	0.6302	0.77187	0.85436	0.126
Mof_C 	C 	0.6297	0.82009	0.84743	-0.138
Mof_C 	C 	0.6329	0.6961	0.84201	0.127
Mof_C 	C 	0.6285	0.7497	0.89908	-0.082
Mof_C 	C 	0.6288	0.70334	0.89135	-0.085
Mof_C 	C 	0.6124	0.85058	0.88961	0.123
Mof_C 	C 	0.4932	0.8513	0.9131	-0.145
Mof_C 	C 	0.4752	0.8806	0.9503	0.07
Mof_C 	C 	0.6884	0.9075	0.94391	0.077
Mof_C 	C 	0.7099	0.8794	0.90633	-0.153
Mof_C 	C 	0.5509	0.94024	0.00451	-0.344
Mof_N 	N 	0.6344	0.68024	0.7387	-0.226
Mof_N 	N 	0.5736	0.53527	0.90877	-0.086
Mof_N 	N 	0.6344	0.81976	0.7613	-0.226
Mof_N 	N 	0.5736	0.96473	0.59123	-0.079
Mof_N 	N 	0.6344	0.7613	0.68024	-0.226
Mof_N 	N 	0.5736	0.59123	0.53527	-0.087
Mof_N 	N 	0.6344	0.7387	0.81976	-0.226
Mof_N 	N 	0.5736	0.90877	0.96473	-0.078
Mof_O 	O 	0.8509	0.75	0.75	-0.213
Mof_O 	O 	0.4219	0.75	0.75	-0.241
Mof_Mn	Mn	0.36363	0.25	0.25	0.891
Mof_H 	H 	0.3727	0.4288	0.2352	0.066
Mof_H 	H 	0.3732	0.4147	0.3205	0.069
Mof_H 	H 	0.5747	0.4031	0.1687	0.093
Mof_H 	H 	0.6055	0.466	0.1185	0.044
Mof_H 	H 	0.2436	0.4555	0.0734	0.028
Mof_H 	H 	0.2082	0.3914	0.1206	0.085
Mof_H 	H 	0.3834	0.5048	0.0351	0.136
Mof_H 	H 	0.5347	0.5016	0.0455	0.153
Mof_H 	H 	0.4445	0.5338	0.0776	0.14
Mof_H 	H 	0.3727	0.0712	0.2648	0.061
Mof_H 	H 	0.3732	0.0853	0.1795	0.065
Mof_H 	H 	0.5747	0.0969	0.3313	0.092
Mof_H 	H 	0.6055	0.034	0.3815	0.04
Mof_H 	H 	0.2436	0.0445	0.4266	0.024
Mof_H 	H 	0.2082	0.1086	0.3794	0.086
Mof_H 	H 	0.3834	0.9952	0.4649	0.144
Mof_H 	H 	0.5347	0.9984	0.4545	0.161
Mof_H 	H 	0.4445	0.9662	0.4224	0.142
Mof_H 	H 	0.3727	0.2648	0.4288	0.066
Mof_H 	H 	0.3732	0.1795	0.4147	0.069
Mof_H 	H 	0.5747	0.3313	0.4031	0.093
Mof_H 	H 	0.6055	0.3815	0.466	0.044
Mof_H 	H 	0.2436	0.4266	0.4555	0.029
Mof_H 	H 	0.2082	0.3794	0.3914	0.086
Mof_H 	H 	0.3834	0.4649	0.5048	0.144
Mof_H 	H 	0.5347	0.4545	0.5016	0.159
Mof_H 	H 	0.4445	0.4224	0.5338	0.144
Mof_H 	H 	0.3727	0.2352	0.0712	0.062
Mof_H 	H 	0.3732	0.3205	0.0853	0.065
Mof_H 	H 	0.5747	0.1687	0.0969	0.092
Mof_H 	H 	0.6055	0.1185	0.034	0.04
Mof_H 	H 	0.2436	0.0734	0.0445	0.024
Mof_H 	H 	0.2082	0.1206	0.1086	0.085
Mof_H 	H 	0.3834	0.0351	0.9952	0.137
Mof_H 	H 	0.5347	0.0455	0.9984	0.156
Mof_H 	H 	0.4445	0.0776	0.9662	0.138
Mof_C 	C 	0.3698	0.35436	0.22813	0.124
Mof_C 	C 	0.3703	0.34743	0.17991	-0.14
Mof_C 	C 	0.3671	0.34201	0.3039	0.123
Mof_C 	C 	0.3715	0.39908	0.2503	-0.085
Mof_C 	C 	0.3712	0.39135	0.29666	-0.087
Mof_C 	C 	0.3876	0.38961	0.14942	0.12
Mof_C 	C 	0.5068	0.4131	0.1487	-0.145
Mof_C 	C 	0.5248	0.4503	0.1194	0.069
Mof_C 	C 	0.3116	0.44391	0.0925	0.075
Mof_C 	C 	0.2901	0.40633	0.1206	-0.154
Mof_C 	C 	0.4491	0.50451	0.05976	-0.312
Mof_C 	C 	0.3698	0.14564	0.27187	0.123
Mof_C 	C 	0.3703	0.15257	0.32009	-0.14
Mof_C 	C 	0.3671	0.15799	0.1961	0.123
Mof_C 	C 	0.3715	0.10092	0.2497	-0.085
Mof_C 	C 	0.3712	0.10865	0.20334	-0.088
Mof_C 	C 	0.3876	0.11039	0.35058	0.12
Mof_C 	C 	0.5068	0.0869	0.3513	-0.146
Mof_C 	C 	0.5248	0.0497	0.3806	0.068
Mof_C 	C 	0.3116	0.05609	0.4075	0.075
Mof_C 	C 	0.2901	0.09367	0.3794	-0.155
Mof_C 	C 	0.4491	0.99549	0.44024	-0.303
Mof_C 	C 	0.3698	0.27187	0.35436	0.123
Mof_C 	C 	0.3703	0.32009	0.34743	-0.14
Mof_C 	C 	0.3671	0.1961	0.34201	0.123
Mof_C 	C 	0.3715	0.2497	0.39908	-0.085
Mof_C 	C 	0.3712	0.20334	0.39135	-0.087
Mof_C 	C 	0.3876	0.35058	0.38961	0.12
Mof_C 	C 	0.5068	0.3513	0.4131	-0.144
Mof_C 	C 	0.5248	0.3806	0.4503	0.069
Mof_C 	C 	0.3116	0.4075	0.44391	0.075
Mof_C 	C 	0.2901	0.3794	0.40633	-0.153
Mof_C 	C 	0.4491	0.44024	0.50451	-0.321
Mof_C 	C 	0.3698	0.22813	0.14564	0.123
Mof_C 	C 	0.3703	0.17991	0.15257	-0.14
Mof_C 	C 	0.3671	0.3039	0.15799	0.123
Mof_C 	C 	0.3715	0.2503	0.10092	-0.085
Mof_C 	C 	0.3712	0.29666	0.10865	-0.088
Mof_C 	C 	0.3876	0.14942	0.11039	0.12
Mof_C 	C 	0.5068	0.1487	0.0869	-0.146
Mof_C 	C 	0.5248	0.1194	0.0497	0.068
Mof_C 	C 	0.3116	0.0925	0.05609	0.075
Mof_C 	C 	0.2901	0.1206	0.09367	-0.156
Mof_C 	C 	0.4491	0.05976	0.99549	-0.295
Mof_N 	N 	0.3656	0.31976	0.2613	-0.226
Mof_N 	N 	0.4264	0.46473	0.09123	-0.087
Mof_N 	N 	0.3656	0.18024	0.2387	-0.226
Mof_N 	N 	0.4264	0.03527	0.40877	-0.095
Mof_N 	N 	0.3656	0.2387	0.31976	-0.226
Mof_N 	N 	0.4264	0.40877	0.46473	-0.086
Mof_N 	N 	0.3656	0.2613	0.18024	-0.226
Mof_N 	N 	0.4264	0.09123	0.03527	-0.096
Mof_O 	O 	0.1491	0.25	0.25	-0.245
Mof_O 	O 	0.5781	0.25	0.25	-0.226
_end
