data_functionalizedCrystal
_audit_creation_method	'EQeq! by Chris Wilmer'
_symmetry_space_group_name_H-M	'P1'
_symmetry_Int_Tables_number	1
_symmetry_cell_setting	triclinic
loop_
_symmetry_equiv_pos_as_xyz
  x,y,z
_cell_length_a	5.2504
_cell_length_b	8.2896
_cell_length_c	16.4629
_cell_angle_alpha	90
_cell_angle_beta	93.912
_cell_angle_gamma	90
loop_
_atom_site_label
_atom_site_type_symbol
_atom_site_fract_x
_atom_site_fract_y
_atom_site_fract_z
_atom_site_charge
Mof_Pu	Pu	0.85179	0.15709	0.63277	0.043
Mof_Pu	Pu	0.64821	0.65709	0.86723	0.042
Mof_Pu	Pu	0.14821	0.84291	0.36723	0.043
Mof_Pu	Pu	0.35179	0.34291	0.13277	0.042
Mof_P 	P 	0.12352	0.82105	0.74333	0.441
Mof_P 	P 	0.34315	0.88924	0.57891	0.443
Mof_P 	P 	0.37648	0.32105	0.75667	0.443
Mof_P 	P 	0.15685	0.38924	0.92109	0.441
Mof_P 	P 	0.87648	0.17895	0.25667	0.441
Mof_P 	P 	0.65685	0.11076	0.42109	0.443
Mof_P 	P 	0.62352	0.67895	0.24333	0.443
Mof_P 	P 	0.84315	0.61076	0.07891	0.441
Mof_H 	H 	0.0392	0.7089	0.6162	0.183
Mof_H 	H 	0.315	0.6554	0.653	0.184
Mof_H 	H 	0.4608	0.2089	0.8838	0.183
Mof_H 	H 	0.185	0.1554	0.847	0.183
Mof_H 	H 	0.9608	0.2911	0.3838	0.183
Mof_H 	H 	0.685	0.3446	0.347	0.184
Mof_H 	H 	0.5392	0.7911	0.1162	0.183
Mof_H 	H 	0.815	0.8446	0.153	0.183
Mof_C 	C 	0.1989	0.7489	0.6448	-0.353
Mof_C 	C 	0.3011	0.2489	0.8552	-0.353
Mof_C 	C 	0.8011	0.2511	0.3552	-0.353
Mof_C 	C 	0.6989	0.7511	0.1448	-0.353
Mof_O 	O 	0.3637	0.8237	0.80051	-0.161
Mof_O 	O 	0.1742	0.0406	0.57524	-0.144
Mof_O 	O 	0.6148	0.9268	0.61183	-0.159
Mof_O 	O 	0.0122	0.9906	0.73256	-0.164
Mof_O 	O 	0.9257	0.7044	0.77423	-0.15
Mof_O 	O 	0.3407	0.8079	0.49565	-0.162
Mof_O 	O 	0.1363	0.3237	0.69949	-0.162
Mof_O 	O 	0.3258	0.5406	0.92476	-0.145
Mof_O 	O 	0.8852	0.4268	0.88817	-0.158
Mof_O 	O 	0.4878	0.4906	0.76744	-0.162
Mof_O 	O 	0.5743	0.2044	0.72577	-0.152
Mof_O 	O 	0.1593	0.3079	0.00435	-0.161
Mof_O 	O 	0.6363	0.1763	0.19949	-0.161
Mof_O 	O 	0.8258	0.9594	0.42476	-0.144
Mof_O 	O 	0.3852	0.0732	0.38817	-0.159
Mof_O 	O 	0.9878	0.0094	0.26744	-0.164
Mof_O 	O 	0.0743	0.2956	0.22577	-0.15
Mof_O 	O 	0.6593	0.1921	0.50435	-0.162
Mof_O 	O 	0.8637	0.6763	0.30051	-0.162
Mof_O 	O 	0.6742	0.4594	0.07524	-0.145
Mof_O 	O 	0.1148	0.5732	0.11183	-0.158
Mof_O 	O 	0.5122	0.5094	0.23256	-0.162
Mof_O 	O 	0.4257	0.7956	0.27423	-0.152
Mof_O 	O 	0.8407	0.6921	0.99565	-0.161
_end
