data_functionalizedCrystal
_audit_creation_method	'EQeq! by Chris Wilmer'
_symmetry_space_group_name_H-M	'P1'
_symmetry_Int_Tables_number	1
_symmetry_cell_setting	triclinic
loop_
_symmetry_equiv_pos_as_xyz
  x,y,z
_cell_length_a	14.4962
_cell_length_b	14.4962
_cell_length_c	16.114
_cell_angle_alpha	91.0698
_cell_angle_beta	91.0698
_cell_angle_gamma	94.7637
loop_
_atom_site_label
_atom_site_type_symbol
_atom_site_fract_x
_atom_site_fract_y
_atom_site_fract_z
_atom_site_charge
Mof_Ni	Ni	0.47969	0.18683	0.38572	1.077
Mof_Ni	Ni	0.81317	0.52031	0.11428	1.077
Mof_Ni	Ni	0.52031	0.81317	0.61428	1.077
Mof_Ni	Ni	0.18683	0.47969	0.88572	1.077
Mof_Ni	Ni	0.8834	0.1166	0.25	1.095
Mof_Ni	Ni	0.1166	0.8834	0.75	1.095
Mof_H 	H 	0.3694	0.0392	0.2847	-0.001
Mof_H 	H 	0.7198	0.9956	0.1437	0
Mof_H 	H 	0.0722	0.262	0.0679	0.049
Mof_H 	H 	0.7612	0.2646	0.1685	0.003
Mof_H 	H 	0.2148	0.1696	0.2595	0.048
Mof_H 	H 	0.3453	0.3303	0.0908	0.046
Mof_H 	H 	0.3017	0.6119	0.0056	-0.016
Mof_H 	H 	0.0325	0.5939	0.9925	0.032
Mof_H 	H 	0.0807	0.7171	0.0942	0.043
Mof_H 	H 	0.6358	0.0386	0.3234	0.021
Mof_H 	H 	0.6432	0.9414	0.0053	0.066
Mof_H 	H 	0.586	0.8966	0.2444	0.038
Mof_H 	H 	0.4761	0.1345	0.0721	0.074
Mof_H 	H 	0.6253	0.2331	0.0768	0.038
Mof_H 	H 	0.2956	0.9606	0.1833	0.066
Mof_H 	H 	0.3717	0.6665	0.1382	0.069
Mof_H 	H 	0.4706	0.7702	0.214	0.066
Mof_H 	H 	0.1956	0.8552	0.11	0.072
Mof_H 	H 	0.9608	0.6306	0.2153	-0
Mof_H 	H 	0.0044	0.2802	0.3563	0
Mof_H 	H 	0.738	0.9278	0.4321	0.05
Mof_H 	H 	0.7354	0.2388	0.3315	0.004
Mof_H 	H 	0.8304	0.7852	0.2405	0.049
Mof_H 	H 	0.6697	0.6547	0.4092	0.047
Mof_H 	H 	0.3881	0.6983	0.4944	-0.015
Mof_H 	H 	0.4061	0.9675	0.5075	0.032
Mof_H 	H 	0.2829	0.9193	0.4058	0.043
Mof_H 	H 	0.9614	0.3642	0.1766	0.02
Mof_H 	H 	0.0586	0.3568	0.4947	0.066
Mof_H 	H 	0.1034	0.414	0.2556	0.038
Mof_H 	H 	0.8655	0.5239	0.4279	0.074
Mof_H 	H 	0.7669	0.3747	0.4232	0.038
Mof_H 	H 	0.0394	0.7044	0.3167	0.066
Mof_H 	H 	0.3335	0.6283	0.3618	0.069
Mof_H 	H 	0.2298	0.5294	0.286	0.066
Mof_H 	H 	0.1448	0.8044	0.39	0.072
Mof_H 	H 	0.6306	0.9608	0.7153	-0
Mof_H 	H 	0.2802	0.0044	0.8563	0.001
Mof_H 	H 	0.9278	0.738	0.9321	0.05
Mof_H 	H 	0.2388	0.7354	0.8315	0.004
Mof_H 	H 	0.7852	0.8304	0.7405	0.049
Mof_H 	H 	0.6547	0.6697	0.9092	0.047
Mof_H 	H 	0.6983	0.3881	0.9944	-0.015
Mof_H 	H 	0.9675	0.4061	0.0075	0.033
Mof_H 	H 	0.9193	0.2829	0.9058	0.043
Mof_H 	H 	0.3642	0.9614	0.6766	0.021
Mof_H 	H 	0.3568	0.0586	0.9947	0.066
Mof_H 	H 	0.414	0.1034	0.7556	0.038
Mof_H 	H 	0.5239	0.8655	0.9279	0.074
Mof_H 	H 	0.3747	0.7669	0.9232	0.038
Mof_H 	H 	0.7044	0.0394	0.8167	0.066
Mof_H 	H 	0.6283	0.3335	0.8618	0.069
Mof_H 	H 	0.5294	0.2298	0.786	0.066
Mof_H 	H 	0.8044	0.1448	0.89	0.072
Mof_H 	H 	0.0392	0.3694	0.7847	-0
Mof_H 	H 	0.9956	0.7198	0.6437	0
Mof_H 	H 	0.262	0.0722	0.5679	0.05
Mof_H 	H 	0.2646	0.7612	0.6685	0.004
Mof_H 	H 	0.1696	0.2148	0.7595	0.049
Mof_H 	H 	0.3303	0.3453	0.5908	0.047
Mof_H 	H 	0.6119	0.3017	0.5056	-0.015
Mof_H 	H 	0.5939	0.0325	0.4925	0.032
Mof_H 	H 	0.7171	0.0807	0.5942	0.043
Mof_H 	H 	0.0386	0.6358	0.8234	0.02
Mof_H 	H 	0.9414	0.6432	0.5053	0.066
Mof_H 	H 	0.8966	0.586	0.7444	0.038
Mof_H 	H 	0.1345	0.4761	0.5721	0.074
Mof_H 	H 	0.2331	0.6253	0.5768	0.038
Mof_H 	H 	0.9606	0.2956	0.6833	0.066
Mof_H 	H 	0.6665	0.3717	0.6382	0.069
Mof_H 	H 	0.7702	0.4706	0.714	0.066
Mof_H 	H 	0.8552	0.1956	0.61	0.072
Mof_C 	C 	0.4297	0.0217	0.2845	0.099
Mof_C 	C 	0.041	0.165	0.2013	0.302
Mof_C 	C 	0.2027	0.3677	0.9954	0.312
Mof_C 	C 	0.7129	0.0587	0.1395	0.103
Mof_C 	C 	0.393	0.876	0.2042	0.096
Mof_C 	C 	0.1277	0.2595	0.0973	0.031
Mof_C 	C 	0.1296	0.2086	0.1686	-0.095
Mof_C 	C 	0.735	0.2062	0.1524	0.007
Mof_C 	C 	0.2748	0.7512	0.1164	0.103
Mof_C 	C 	0.2077	0.3071	0.0686	-0.094
Mof_C 	C 	0.213	0.2036	0.2112	0.034
Mof_C 	C 	0.2931	0.2487	0.1826	-0.101
Mof_C 	C 	0.2911	0.3005	0.1106	0.033
Mof_C 	C 	0.2403	0.6227	0.0148	0.1
Mof_C 	C 	0.0933	0.6131	0.0077	0.013
Mof_C 	C 	0.1193	0.6813	0.0643	0.006
Mof_C 	C 	0.5714	0.0458	0.0468	0.094
Mof_C 	C 	0.3827	0.2467	0.2317	0.341
Mof_C 	C 	0.5755	0.0209	0.3054	0.013
Mof_C 	C 	0.5855	0.9651	0.0033	-0.071
Mof_C 	C 	0.5487	0.9421	0.2619	0.003
Mof_C 	C 	0.4859	0.0803	0.0431	-0.079
Mof_C 	C 	0.6599	0.1893	0.1014	0
Mof_C 	C 	0.3118	0.9006	0.1743	-0.074
Mof_C 	C 	0.3556	0.7266	0.1473	-0.083
Mof_C 	C 	0.4153	0.7887	0.1922	-0.073
Mof_C 	C 	0.2518	0.8374	0.1301	-0.083
Mof_C 	C 	0.9783	0.5703	0.2155	0.1
Mof_C 	C 	0.835	0.959	0.2987	0.303
Mof_C 	C 	0.6323	0.7973	0.5046	0.311
Mof_C 	C 	0.9413	0.2871	0.3605	0.104
Mof_C 	C 	0.124	0.607	0.2958	0.095
Mof_C 	C 	0.7405	0.8723	0.4027	0.031
Mof_C 	C 	0.7914	0.8704	0.3314	-0.095
Mof_C 	C 	0.7938	0.265	0.3476	0.007
Mof_C 	C 	0.2488	0.7252	0.3836	0.103
Mof_C 	C 	0.6929	0.7923	0.4314	-0.094
Mof_C 	C 	0.7964	0.787	0.2888	0.034
Mof_C 	C 	0.7513	0.7069	0.3174	-0.101
Mof_C 	C 	0.6995	0.7089	0.3894	0.033
Mof_C 	C 	0.3773	0.7597	0.4852	0.1
Mof_C 	C 	0.3869	0.9067	0.4923	0.014
Mof_C 	C 	0.3187	0.8807	0.4357	0.005
Mof_C 	C 	0.9542	0.4286	0.4532	0.095
Mof_C 	C 	0.7533	0.6173	0.2683	0.341
Mof_C 	C 	0.9791	0.4245	0.1946	0.014
Mof_C 	C 	0.0349	0.4145	0.4967	-0.073
Mof_C 	C 	0.0579	0.4513	0.2381	0.002
Mof_C 	C 	0.9197	0.5141	0.4569	-0.078
Mof_C 	C 	0.8107	0.3401	0.3986	0
Mof_C 	C 	0.0994	0.6882	0.3257	-0.074
Mof_C 	C 	0.2734	0.6444	0.3527	-0.083
Mof_C 	C 	0.2113	0.5847	0.3078	-0.073
Mof_C 	C 	0.1626	0.7482	0.3699	-0.083
Mof_C 	C 	0.5703	0.9783	0.7155	0.099
Mof_C 	C 	0.959	0.835	0.7987	0.302
Mof_C 	C 	0.7973	0.6323	0.0046	0.312
Mof_C 	C 	0.2871	0.9413	0.8605	0.103
Mof_C 	C 	0.607	0.124	0.7958	0.096
Mof_C 	C 	0.8723	0.7405	0.9027	0.031
Mof_C 	C 	0.8704	0.7914	0.8314	-0.095
Mof_C 	C 	0.265	0.7938	0.8476	0.007
Mof_C 	C 	0.7252	0.2488	0.8836	0.103
Mof_C 	C 	0.7923	0.6929	0.9314	-0.094
Mof_C 	C 	0.787	0.7964	0.7888	0.034
Mof_C 	C 	0.7069	0.7513	0.8174	-0.101
Mof_C 	C 	0.7089	0.6995	0.8894	0.033
Mof_C 	C 	0.7597	0.3773	0.9852	0.1
Mof_C 	C 	0.9067	0.3869	0.9923	0.013
Mof_C 	C 	0.8807	0.3187	0.9357	0.006
Mof_C 	C 	0.4286	0.9542	0.9532	0.094
Mof_C 	C 	0.6173	0.7533	0.7683	0.341
Mof_C 	C 	0.4245	0.9791	0.6946	0.013
Mof_C 	C 	0.4145	0.0349	0.9967	-0.071
Mof_C 	C 	0.4513	0.0579	0.7381	0.003
Mof_C 	C 	0.5141	0.9197	0.9569	-0.079
Mof_C 	C 	0.3401	0.8107	0.8986	0
Mof_C 	C 	0.6882	0.0994	0.8257	-0.074
Mof_C 	C 	0.6444	0.2734	0.8527	-0.083
Mof_C 	C 	0.5847	0.2113	0.8078	-0.073
Mof_C 	C 	0.7482	0.1626	0.8699	-0.083
Mof_C 	C 	0.0217	0.4297	0.7845	0.1
Mof_C 	C 	0.165	0.041	0.7013	0.303
Mof_C 	C 	0.3677	0.2027	0.4954	0.311
Mof_C 	C 	0.0587	0.7129	0.6395	0.104
Mof_C 	C 	0.876	0.393	0.7042	0.095
Mof_C 	C 	0.2595	0.1277	0.5973	0.031
Mof_C 	C 	0.2086	0.1296	0.6686	-0.095
Mof_C 	C 	0.2062	0.735	0.6524	0.007
Mof_C 	C 	0.7512	0.2748	0.6164	0.103
Mof_C 	C 	0.3071	0.2077	0.5686	-0.094
Mof_C 	C 	0.2036	0.213	0.7112	0.034
Mof_C 	C 	0.2487	0.2931	0.6826	-0.101
Mof_C 	C 	0.3005	0.2911	0.6106	0.033
Mof_C 	C 	0.6227	0.2403	0.5148	0.1
Mof_C 	C 	0.6131	0.0933	0.5077	0.014
Mof_C 	C 	0.6813	0.1193	0.5643	0.005
Mof_C 	C 	0.0458	0.5714	0.5468	0.095
Mof_C 	C 	0.2467	0.3827	0.7317	0.341
Mof_C 	C 	0.0209	0.5755	0.8054	0.014
Mof_C 	C 	0.9651	0.5855	0.5033	-0.073
Mof_C 	C 	0.9421	0.5487	0.7619	0.002
Mof_C 	C 	0.0803	0.4859	0.5431	-0.078
Mof_C 	C 	0.1893	0.6599	0.6014	0
Mof_C 	C 	0.9006	0.3118	0.6743	-0.074
Mof_C 	C 	0.7266	0.3556	0.6473	-0.083
Mof_C 	C 	0.7887	0.4153	0.6922	-0.073
Mof_C 	C 	0.8374	0.2518	0.6301	-0.083
Mof_N 	N 	0.7669	0.1237	0.1769	-0.231
Mof_N 	N 	0.6453	0.0947	0.0934	-0.135
Mof_N 	N 	0.1697	0.5773	0.9765	-0.24
Mof_N 	N 	0.2142	0.6866	0.0686	-0.138
Mof_N 	N 	0.5015	0.0703	0.3187	-0.237
Mof_N 	N 	0.455	0.943	0.2491	-0.134
Mof_N 	N 	0.8763	0.2331	0.3231	-0.231
Mof_N 	N 	0.9053	0.3547	0.4066	-0.135
Mof_N 	N 	0.4227	0.8303	0.5235	-0.24
Mof_N 	N 	0.3134	0.7858	0.4314	-0.138
Mof_N 	N 	0.9297	0.4985	0.1813	-0.237
Mof_N 	N 	0.057	0.545	0.2509	-0.135
Mof_N 	N 	0.2331	0.8763	0.8231	-0.231
Mof_N 	N 	0.3547	0.9053	0.9066	-0.135
Mof_N 	N 	0.8303	0.4227	0.0235	-0.24
Mof_N 	N 	0.7858	0.3134	0.9314	-0.138
Mof_N 	N 	0.4985	0.9297	0.6813	-0.237
Mof_N 	N 	0.545	0.057	0.7509	-0.134
Mof_N 	N 	0.1237	0.7669	0.6769	-0.231
Mof_N 	N 	0.0947	0.6453	0.5934	-0.135
Mof_N 	N 	0.5773	0.1697	0.4765	-0.24
Mof_N 	N 	0.6866	0.2142	0.5686	-0.138
Mof_N 	N 	0.0703	0.5015	0.8187	-0.237
Mof_N 	N 	0.943	0.455	0.7491	-0.135
Mof_O 	O 	0.96673	0.17203	0.1602	-0.391
Mof_O 	O 	0.03804	0.1259	0.2704	-0.345
Mof_O 	O 	0.12664	0.37432	0.9594	-0.374
Mof_O 	O 	0.27476	0.41578	0.9722	-0.364
Mof_O 	O 	0.4571	0.2761	0.1987	-0.289
Mof_O 	O 	0.37731	0.21399	0.3023	-0.402
Mof_O 	O 	0.82797	0.03327	0.3398	-0.391
Mof_O 	O 	0.8741	0.96196	0.2296	-0.345
Mof_O 	O 	0.62568	0.87336	0.5406	-0.374
Mof_O 	O 	0.58422	0.72524	0.5278	-0.364
Mof_O 	O 	0.7239	0.5429	0.3013	-0.289
Mof_O 	O 	0.78601	0.62269	0.1977	-0.402
Mof_O 	O 	0.03327	0.82797	0.8398	-0.391
Mof_O 	O 	0.96196	0.8741	0.7296	-0.345
Mof_O 	O 	0.87336	0.62568	0.0406	-0.374
Mof_O 	O 	0.72524	0.58422	0.0278	-0.364
Mof_O 	O 	0.5429	0.7239	0.8013	-0.289
Mof_O 	O 	0.62269	0.78601	0.6977	-0.402
Mof_O 	O 	0.17203	0.96673	0.6602	-0.391
Mof_O 	O 	0.1259	0.03804	0.7704	-0.345
Mof_O 	O 	0.37432	0.12664	0.4594	-0.374
Mof_O 	O 	0.41578	0.27476	0.4722	-0.364
Mof_O 	O 	0.2761	0.4571	0.6987	-0.289
Mof_O 	O 	0.21399	0.37731	0.8023	-0.402
_end
