data_functionalizedCrystal
_audit_creation_method	'EQeq! by Chris Wilmer'
_symmetry_space_group_name_H-M	'P1'
_symmetry_Int_Tables_number	1
_symmetry_cell_setting	triclinic
loop_
_symmetry_equiv_pos_as_xyz
  x,y,z
_cell_length_a	28.6782
_cell_length_b	28.6782
_cell_length_c	6.527
_cell_angle_alpha	90
_cell_angle_beta	90
_cell_angle_gamma	90
loop_
_atom_site_label
_atom_site_type_symbol
_atom_site_fract_x
_atom_site_fract_y
_atom_site_fract_z
_atom_site_charge
Mof_Cu	Cu	0.0528	0.31845	0.36733	0.651
Mof_N 	N 	0.0094	0.36733	0.3411	-0.326
Mof_N 	N 	0.96095	0.36111	0.3484	-0.335
Mof_N 	N 	0.97534	0.43602	0.2979	-0.331
Mof_C 	C 	0.0147	0.4117	0.3113	0.092
Mof_H 	H 	0.0446	0.4258	0.2998	-0.126
Mof_C 	C 	0.9425	0.4019	0.3215	0.056
Mof_H 	H 	0.9099	0.4075	0.3185	-0.112
Mof_Cu	Cu	0.5528	0.81845	0.86733	0.667
Mof_N 	N 	0.5094	0.86733	0.8411	-0.314
Mof_N 	N 	0.46095	0.86111	0.8484	-0.323
Mof_N 	N 	0.47534	0.93602	0.7979	-0.31
Mof_C 	C 	0.5147	0.9117	0.8113	0.109
Mof_H 	H 	0.5446	0.9258	0.7998	-0.103
Mof_C 	C 	0.4425	0.9019	0.8215	0.072
Mof_H 	H 	0.4099	0.9075	0.8185	-0.094
Mof_Cu	Cu	0.4472	0.68155	0.86733	0.667
Mof_N 	N 	0.4906	0.63267	0.8411	-0.315
Mof_N 	N 	0.53905	0.63889	0.8484	-0.324
Mof_N 	N 	0.52466	0.56398	0.7979	-0.321
Mof_C 	C 	0.4853	0.5883	0.8113	0.108
Mof_H 	H 	0.4554	0.5742	0.7998	-0.111
Mof_C 	C 	0.5575	0.5981	0.8215	0.07
Mof_H 	H 	0.5901	0.5925	0.8185	-0.1
Mof_Cu	Cu	0.9472	0.18155	0.36733	0.651
Mof_N 	N 	0.9906	0.13267	0.3411	-0.326
Mof_N 	N 	0.03905	0.13889	0.3484	-0.334
Mof_N 	N 	0.02466	0.06398	0.2979	-0.334
Mof_C 	C 	0.9853	0.0883	0.3113	0.093
Mof_H 	H 	0.9554	0.0742	0.2998	-0.129
Mof_C 	C 	0.0575	0.0981	0.3215	0.056
Mof_H 	H 	0.0901	0.0925	0.3185	-0.115
Mof_Cu	Cu	0.4472	0.31845	0.63267	0.667
Mof_N 	N 	0.4906	0.36733	0.6589	-0.315
Mof_N 	N 	0.53905	0.36111	0.6516	-0.324
Mof_N 	N 	0.52466	0.43602	0.7021	-0.322
Mof_C 	C 	0.4853	0.4117	0.6887	0.108
Mof_H 	H 	0.4554	0.4258	0.7002	-0.111
Mof_C 	C 	0.5575	0.4019	0.6785	0.07
Mof_H 	H 	0.5901	0.4075	0.6815	-0.1
Mof_Cu	Cu	0.9472	0.81845	0.13267	0.652
Mof_N 	N 	0.9906	0.86733	0.1589	-0.325
Mof_N 	N 	0.03905	0.86111	0.1516	-0.334
Mof_N 	N 	0.02466	0.93602	0.2021	-0.319
Mof_C 	C 	0.9853	0.9117	0.1887	0.094
Mof_H 	H 	0.9554	0.9258	0.2002	-0.116
Mof_C 	C 	0.0575	0.9019	0.1785	0.058
Mof_H 	H 	0.0901	0.9075	0.1815	-0.105
Mof_Cu	Cu	0.0528	0.68155	0.13267	0.652
Mof_N 	N 	0.0094	0.63267	0.1589	-0.326
Mof_N 	N 	0.96095	0.63889	0.1516	-0.334
Mof_N 	N 	0.97534	0.56398	0.2021	-0.33
Mof_C 	C 	0.0147	0.5883	0.1887	0.093
Mof_H 	H 	0.0446	0.5742	0.2002	-0.124
Mof_C 	C 	0.9425	0.5981	0.1785	0.057
Mof_H 	H 	0.9099	0.5925	0.1815	-0.111
Mof_Cu	Cu	0.5528	0.18155	0.63267	0.666
Mof_N 	N 	0.5094	0.13267	0.6589	-0.315
Mof_N 	N 	0.46095	0.13889	0.6516	-0.324
Mof_N 	N 	0.47534	0.06398	0.7021	-0.325
Mof_C 	C 	0.5147	0.0883	0.6887	0.108
Mof_H 	H 	0.5446	0.0742	0.7002	-0.116
Mof_C 	C 	0.4425	0.0981	0.6785	0.069
Mof_H 	H 	0.4099	0.0925	0.6815	-0.105
Mof_Cu	Cu	0.06845	0.1972	0.38267	0.652
Mof_N 	N 	0.11733	0.2406	0.4089	-0.325
Mof_N 	N 	0.11111	0.28905	0.4016	-0.334
Mof_N 	N 	0.18602	0.27466	0.4521	-0.327
Mof_C 	C 	0.1617	0.2353	0.4387	0.094
Mof_H 	H 	0.1758	0.2054	0.4502	-0.121
Mof_C 	C 	0.1519	0.3075	0.4285	0.057
Mof_H 	H 	0.1575	0.3401	0.4315	-0.108
Mof_Cu	Cu	0.56845	0.6972	0.88267	0.667
Mof_N 	N 	0.61733	0.7406	0.9089	-0.314
Mof_N 	N 	0.61111	0.78905	0.9016	-0.323
Mof_N 	N 	0.68602	0.77466	0.9521	-0.31
Mof_C 	C 	0.6617	0.7353	0.9387	0.108
Mof_H 	H 	0.6758	0.7054	0.9502	-0.106
Mof_C 	C 	0.6519	0.8075	0.9285	0.071
Mof_H 	H 	0.6575	0.8401	0.9315	-0.092
Mof_Cu	Cu	0.43155	0.8028	0.88267	0.668
Mof_N 	N 	0.38267	0.7594	0.9089	-0.314
Mof_N 	N 	0.38889	0.71095	0.9016	-0.324
Mof_N 	N 	0.31398	0.72534	0.9521	-0.311
Mof_C 	C 	0.3383	0.7647	0.9387	0.108
Mof_H 	H 	0.3242	0.7946	0.9502	-0.104
Mof_C 	C 	0.3481	0.6925	0.9285	0.071
Mof_H 	H 	0.3425	0.6599	0.9315	-0.095
Mof_Cu	Cu	0.93155	0.3028	0.38267	0.652
Mof_N 	N 	0.88267	0.2594	0.4089	-0.325
Mof_N 	N 	0.88889	0.21095	0.4016	-0.334
Mof_N 	N 	0.81398	0.22534	0.4521	-0.327
Mof_C 	C 	0.8383	0.2647	0.4387	0.094
Mof_H 	H 	0.8242	0.2946	0.4502	-0.12
Mof_C 	C 	0.8481	0.1925	0.4285	0.057
Mof_H 	H 	0.8425	0.1599	0.4315	-0.111
Mof_Cu	Cu	0.43155	0.1972	0.61733	0.666
Mof_N 	N 	0.38267	0.2406	0.5911	-0.315
Mof_N 	N 	0.38889	0.28905	0.5984	-0.324
Mof_N 	N 	0.31398	0.27466	0.5479	-0.324
Mof_C 	C 	0.3383	0.2353	0.5613	0.108
Mof_H 	H 	0.3242	0.2054	0.5498	-0.116
Mof_C 	C 	0.3481	0.3075	0.5715	0.07
Mof_H 	H 	0.3425	0.3401	0.5685	-0.103
Mof_Cu	Cu	0.93155	0.6972	0.11733	0.651
Mof_N 	N 	0.88267	0.7406	0.0911	-0.326
Mof_N 	N 	0.88889	0.78905	0.0984	-0.334
Mof_N 	N 	0.81398	0.77466	0.0479	-0.332
Mof_C 	C 	0.8383	0.7353	0.0613	0.093
Mof_H 	H 	0.8242	0.7054	0.0498	-0.128
Mof_C 	C 	0.8481	0.8075	0.0715	0.056
Mof_H 	H 	0.8425	0.8401	0.0685	-0.111
Mof_Cu	Cu	0.06845	0.8028	0.11733	0.652
Mof_N 	N 	0.11733	0.7594	0.0911	-0.325
Mof_N 	N 	0.11111	0.71095	0.0984	-0.334
Mof_N 	N 	0.18602	0.72534	0.0479	-0.332
Mof_C 	C 	0.1617	0.7647	0.0613	0.093
Mof_H 	H 	0.1758	0.7946	0.0498	-0.126
Mof_C 	C 	0.1519	0.6925	0.0715	0.056
Mof_H 	H 	0.1575	0.6599	0.0685	-0.114
Mof_Cu	Cu	0.56845	0.3028	0.61733	0.667
Mof_N 	N 	0.61733	0.2594	0.5911	-0.315
Mof_N 	N 	0.61111	0.21095	0.5984	-0.324
Mof_N 	N 	0.68602	0.22534	0.5479	-0.324
Mof_C 	C 	0.6617	0.2647	0.5613	0.108
Mof_H 	H 	0.6758	0.2946	0.5498	-0.115
Mof_C 	C 	0.6519	0.1925	0.5715	0.07
Mof_H 	H 	0.6575	0.1599	0.5685	-0.106
Mof_Cu	Cu	0.96884	0.5	0.25	0.743
Mof_Cu	Cu	0.46884	0	0.75	0.742
Mof_Cu	Cu	0.53116	0.5	0.75	0.758
Mof_Cu	Cu	0.03116	0	0.25	0.728
Mof_Cu	Cu	0.25	0.28116	0.5	0.751
Mof_Cu	Cu	0.75	0.78116	-0	0.731
Mof_Cu	Cu	0.25	0.71884	-0	0.73
Mof_Cu	Cu	0.75	0.21884	0.5	0.751
Mof_Cu	Cu	0.93155	0.8028	0.61733	0.667
Mof_N 	N 	0.88267	0.7594	0.5911	-0.315
Mof_N 	N 	0.88889	0.71095	0.5984	-0.324
Mof_N 	N 	0.81398	0.72534	0.5479	-0.323
Mof_C 	C 	0.8383	0.7647	0.5613	0.108
Mof_H 	H 	0.8242	0.7946	0.5498	-0.113
Mof_C 	C 	0.8481	0.6925	0.5715	0.07
Mof_H 	H 	0.8425	0.6599	0.5685	-0.103
Mof_Cu	Cu	0.43155	0.3028	0.11733	0.651
Mof_N 	N 	0.38267	0.2594	0.0911	-0.326
Mof_N 	N 	0.38889	0.21095	0.0984	-0.334
Mof_N 	N 	0.31398	0.22534	0.0479	-0.333
Mof_C 	C 	0.3383	0.2647	0.0613	0.093
Mof_H 	H 	0.3242	0.2946	0.0498	-0.128
Mof_C 	C 	0.3481	0.1925	0.0715	0.056
Mof_H 	H 	0.3425	0.1599	0.0685	-0.117
Mof_Cu	Cu	0.56845	0.1972	0.11733	0.651
Mof_N 	N 	0.61733	0.2406	0.0911	-0.326
Mof_N 	N 	0.61111	0.28905	0.0984	-0.334
Mof_N 	N 	0.68602	0.27466	0.0479	-0.333
Mof_C 	C 	0.6617	0.2353	0.0613	0.093
Mof_H 	H 	0.6758	0.2054	0.0498	-0.129
Mof_C 	C 	0.6519	0.3075	0.0715	0.056
Mof_H 	H 	0.6575	0.3401	0.0685	-0.114
Mof_Cu	Cu	0.06845	0.6972	0.61733	0.667
Mof_N 	N 	0.11733	0.7406	0.5911	-0.315
Mof_N 	N 	0.11111	0.78905	0.5984	-0.323
Mof_N 	N 	0.18602	0.77466	0.5479	-0.323
Mof_C 	C 	0.1617	0.7353	0.5613	0.108
Mof_H 	H 	0.1758	0.7054	0.5498	-0.114
Mof_C 	C 	0.1519	0.8075	0.5715	0.07
Mof_H 	H 	0.1575	0.8401	0.5685	-0.1
Mof_Cu	Cu	0.56845	0.8028	0.38267	0.653
Mof_N 	N 	0.61733	0.7594	0.4089	-0.325
Mof_N 	N 	0.61111	0.71095	0.4016	-0.334
Mof_N 	N 	0.68602	0.72534	0.4521	-0.326
Mof_C 	C 	0.6617	0.7647	0.4387	0.094
Mof_H 	H 	0.6758	0.7946	0.4502	-0.118
Mof_C 	C 	0.6519	0.6925	0.4285	0.057
Mof_H 	H 	0.6575	0.6599	0.4315	-0.108
Mof_Cu	Cu	0.06845	0.3028	0.88267	0.668
Mof_N 	N 	0.11733	0.2594	0.9089	-0.314
Mof_N 	N 	0.11111	0.21095	0.9016	-0.324
Mof_N 	N 	0.18602	0.22534	0.9521	-0.312
Mof_C 	C 	0.1617	0.2647	0.9387	0.108
Mof_H 	H 	0.1758	0.2946	0.9502	-0.106
Mof_C 	C 	0.1519	0.1925	0.9285	0.071
Mof_H 	H 	0.1575	0.1599	0.9315	-0.098
Mof_Cu	Cu	0.93155	0.1972	0.88267	0.667
Mof_N 	N 	0.88267	0.2406	0.9089	-0.314
Mof_N 	N 	0.88889	0.28905	0.9016	-0.323
Mof_N 	N 	0.81398	0.27466	0.9521	-0.311
Mof_C 	C 	0.8383	0.2353	0.9387	0.108
Mof_H 	H 	0.8242	0.2054	0.9502	-0.108
Mof_C 	C 	0.8481	0.3075	0.9285	0.071
Mof_H 	H 	0.8425	0.3401	0.9315	-0.095
Mof_Cu	Cu	0.43155	0.6972	0.38267	0.652
Mof_N 	N 	0.38267	0.7406	0.4089	-0.325
Mof_N 	N 	0.38889	0.78905	0.4016	-0.333
Mof_N 	N 	0.31398	0.77466	0.4521	-0.326
Mof_C 	C 	0.3383	0.7353	0.4387	0.094
Mof_H 	H 	0.3242	0.7054	0.4502	-0.12
Mof_C 	C 	0.3481	0.8075	0.4285	0.058
Mof_H 	H 	0.3425	0.8401	0.4315	-0.105
Mof_Cu	Cu	0.9472	0.68155	0.63267	0.667
Mof_N 	N 	0.9906	0.63267	0.6589	-0.315
Mof_N 	N 	0.03905	0.63889	0.6516	-0.324
Mof_N 	N 	0.02466	0.56398	0.7021	-0.322
Mof_C 	C 	0.9853	0.5883	0.6887	0.108
Mof_H 	H 	0.9554	0.5742	0.7002	-0.111
Mof_C 	C 	0.0575	0.5981	0.6785	0.07
Mof_H 	H 	0.0901	0.5925	0.6815	-0.1
Mof_Cu	Cu	0.4472	0.18155	0.13267	0.651
Mof_N 	N 	0.4906	0.13267	0.1589	-0.326
Mof_N 	N 	0.53905	0.13889	0.1516	-0.334
Mof_N 	N 	0.52466	0.06398	0.2021	-0.334
Mof_C 	C 	0.4853	0.0883	0.1887	0.093
Mof_H 	H 	0.4554	0.0742	0.2002	-0.129
Mof_C 	C 	0.5575	0.0981	0.1785	0.056
Mof_H 	H 	0.5901	0.0925	0.1815	-0.115
Mof_Cu	Cu	0.5528	0.31845	0.13267	0.652
Mof_N 	N 	0.5094	0.36733	0.1589	-0.326
Mof_N 	N 	0.46095	0.36111	0.1516	-0.334
Mof_N 	N 	0.47534	0.43602	0.2021	-0.33
Mof_C 	C 	0.5147	0.4117	0.1887	0.093
Mof_H 	H 	0.5446	0.4258	0.2002	-0.124
Mof_C 	C 	0.4425	0.4019	0.1785	0.057
Mof_H 	H 	0.4099	0.4075	0.1815	-0.111
Mof_Cu	Cu	0.0528	0.81845	0.63267	0.667
Mof_N 	N 	0.0094	0.86733	0.6589	-0.314
Mof_N 	N 	0.96095	0.86111	0.6516	-0.324
Mof_N 	N 	0.97534	0.93602	0.7021	-0.31
Mof_C 	C 	0.0147	0.9117	0.6887	0.109
Mof_H 	H 	0.0446	0.9258	0.7002	-0.103
Mof_C 	C 	0.9425	0.9019	0.6785	0.072
Mof_H 	H 	0.9099	0.9075	0.6815	-0.094
Mof_Cu	Cu	0.5528	0.68155	0.36733	0.652
Mof_N 	N 	0.5094	0.63267	0.3411	-0.325
Mof_N 	N 	0.46095	0.63889	0.3484	-0.334
Mof_N 	N 	0.47534	0.56398	0.2979	-0.33
Mof_C 	C 	0.5147	0.5883	0.3113	0.093
Mof_H 	H 	0.5446	0.5742	0.2998	-0.125
Mof_C 	C 	0.4425	0.5981	0.3215	0.057
Mof_H 	H 	0.4099	0.5925	0.3185	-0.111
Mof_Cu	Cu	0.0528	0.18155	0.86733	0.667
Mof_N 	N 	0.0094	0.13267	0.8411	-0.315
Mof_N 	N 	0.96095	0.13889	0.8484	-0.324
Mof_N 	N 	0.97534	0.06398	0.7979	-0.325
Mof_C 	C 	0.0147	0.0883	0.8113	0.108
Mof_H 	H 	0.0446	0.0742	0.7998	-0.116
Mof_C 	C 	0.9425	0.0981	0.8215	0.069
Mof_H 	H 	0.9099	0.0925	0.8185	-0.104
Mof_Cu	Cu	0.9472	0.31845	0.86733	0.667
Mof_N 	N 	0.9906	0.36733	0.8411	-0.314
Mof_N 	N 	0.03905	0.36111	0.8484	-0.323
Mof_N 	N 	0.02466	0.43602	0.7979	-0.321
Mof_C 	C 	0.9853	0.4117	0.8113	0.108
Mof_H 	H 	0.9554	0.4258	0.7998	-0.111
Mof_C 	C 	0.0575	0.4019	0.8215	0.07
Mof_H 	H 	0.0901	0.4075	0.8185	-0.1
Mof_Cu	Cu	0.4472	0.81845	0.36733	0.652
Mof_N 	N 	0.4906	0.86733	0.3411	-0.325
Mof_N 	N 	0.53905	0.86111	0.3484	-0.333
Mof_N 	N 	0.52466	0.93602	0.2979	-0.318
Mof_C 	C 	0.4853	0.9117	0.3113	0.094
Mof_H 	H 	0.4554	0.9258	0.2998	-0.117
Mof_C 	C 	0.5575	0.9019	0.3215	0.058
Mof_H 	H 	0.5901	0.9075	0.3185	-0.105
Mof_Cu	Cu	0.75	0.71884	0.5	0.752
Mof_Cu	Cu	0.25	0.21884	-0	0.729
Mof_Cu	Cu	0.75	0.28116	-0	0.73
Mof_Cu	Cu	0.25	0.78116	0.5	0.753
Mof_Cu	Cu	0.03116	0.5	0.75	0.758
Mof_Cu	Cu	0.53116	0	0.25	0.728
Mof_Cu	Cu	0.46884	0.5	0.25	0.743
Mof_Cu	Cu	0.96884	0	0.75	0.742
_end
