data_functionalizedCrystal
_audit_creation_method	'EQeq! by Chris Wilmer'
_symmetry_space_group_name_H-M	'P1'
_symmetry_Int_Tables_number	1
_symmetry_cell_setting	triclinic
loop_
_symmetry_equiv_pos_as_xyz
  x,y,z
_cell_length_a	14.7953
_cell_length_b	27.3634
_cell_length_c	8.3446
_cell_angle_alpha	90
_cell_angle_beta	90
_cell_angle_gamma	90
loop_
_atom_site_label
_atom_site_type_symbol
_atom_site_fract_x
_atom_site_fract_y
_atom_site_fract_z
_atom_site_charge
Mof_P 	P 	0.0977	0.78324	0.667	3.675
Mof_P 	P 	0.9059	0.66998	0.6631	3.431
Mof_P 	P 	0.7799	0.86111	0.6563	3.634
Mof_P 	P 	0.1022	0.94771	0.6563	3.688
Mof_Al	Al	0.9067	0.77968	0.7878	13.308
Mof_Al	Al	0.1001	0.67376	0.7838	12.322
Mof_Al	Al	0.9069	0.94522	0.7777	12.996
Mof_Al	Al	0.2292	0.86639	0.7838	14.044
Mof_O 	O 	0.1147	0.73362	0.74	-4.079
Mof_O 	O 	0.0088	0.80303	0.7293	-4.226
Mof_O 	O 	0.1757	0.81536	0.7184	-4.23
Mof_O 	O 	0.1002	0.7807	0.4891	-4.288
Mof_O 	O 	0.8931	0.72135	0.7218	-4.342
Mof_O 	O 	0.8401	0.6349	0.7432	-4.141
Mof_O 	O 	0.8973	0.66701	0.4854	-3.844
Mof_O 	O 	0.0004	0.6523	0.7078	-3.699
Mof_O 	O 	0.6815	0.86265	0.7024	-3.775
Mof_O 	O 	0.8225	0.81291	0.7001	-4.256
Mof_O 	O 	0.7877	0.8718	0.4824	-4.233
Mof_O 	O 	0.8267	0.9028	0.7398	-4.035
Mof_O 	O 	0.0141	0.92835	0.7226	-4.174
Mof_O 	O 	0.1219	0.99909	0.7077	-4.119
Mof_O 	O 	0.183	0.91617	0.6929	-4.165
Mof_O 	O 	0.0909	0.95125	0.4799	-3.963
Mof_P 	P 	0.5977	0.28324	0.167	3.09
Mof_P 	P 	0.4059	0.16998	0.1631	2.859
Mof_P 	P 	0.2799	0.36111	0.1563	3.057
Mof_P 	P 	0.6022	0.44771	0.1563	3.114
Mof_Al	Al	0.4067	0.27968	0.2878	12.664
Mof_Al	Al	0.6001	0.17376	0.2838	11.681
Mof_Al	Al	0.4069	0.44522	0.2777	12.232
Mof_Al	Al	0.7292	0.36639	0.2838	13.3
Mof_O 	O 	0.6147	0.23362	0.24	-4.017
Mof_O 	O 	0.5088	0.30303	0.2293	-4.178
Mof_O 	O 	0.6757	0.31536	0.2184	-4.179
Mof_O 	O 	0.6002	0.2807	0.9891	-3.891
Mof_O 	O 	0.3931	0.22135	0.2218	-4.287
Mof_O 	O 	0.3401	0.1349	0.2432	-4.104
Mof_O 	O 	0.3973	0.16701	0.9854	-3.441
Mof_O 	O 	0.5004	0.1523	0.2078	-3.704
Mof_O 	O 	0.1815	0.36265	0.2024	-3.778
Mof_O 	O 	0.3225	0.31291	0.2001	-4.224
Mof_O 	O 	0.2877	0.3718	0.9824	-3.854
Mof_O 	O 	0.3267	0.4028	0.2398	-3.979
Mof_O 	O 	0.5141	0.42835	0.2226	-4.101
Mof_O 	O 	0.6219	0.49909	0.2077	-4.068
Mof_O 	O 	0.683	0.41617	0.1929	-4.142
Mof_O 	O 	0.5909	0.45125	0.9799	-3.592
Mof_P 	P 	0.9023	0.21676	0.667	3.674
Mof_P 	P 	0.0941	0.33002	0.6631	3.43
Mof_P 	P 	0.2201	0.13889	0.6563	3.634
Mof_P 	P 	0.8978	0.05229	0.6563	3.688
Mof_Al	Al	0.0933	0.22032	0.7878	13.308
Mof_Al	Al	0.8999	0.32624	0.7838	12.322
Mof_Al	Al	0.0931	0.05478	0.7777	12.996
Mof_Al	Al	0.7708	0.13361	0.7838	14.044
Mof_O 	O 	0.8853	0.26638	0.74	-4.079
Mof_O 	O 	0.9912	0.19697	0.7293	-4.226
Mof_O 	O 	0.8243	0.18464	0.7184	-4.23
Mof_O 	O 	0.8998	0.2193	0.4891	-4.288
Mof_O 	O 	0.1069	0.27865	0.7218	-4.342
Mof_O 	O 	0.1599	0.3651	0.7432	-4.141
Mof_O 	O 	0.1027	0.33299	0.4854	-3.844
Mof_O 	O 	0.9996	0.3477	0.7078	-3.699
Mof_O 	O 	0.3185	0.13735	0.7024	-3.775
Mof_O 	O 	0.1775	0.18709	0.7001	-4.256
Mof_O 	O 	0.2123	0.1282	0.4824	-4.233
Mof_O 	O 	0.1733	0.0972	0.7398	-4.035
Mof_O 	O 	0.9859	0.07165	0.7226	-4.174
Mof_O 	O 	0.8781	0.00091	0.7077	-4.119
Mof_O 	O 	0.817	0.08383	0.6929	-4.165
Mof_O 	O 	0.9091	0.04875	0.4799	-3.963
Mof_P 	P 	0.4023	0.71676	0.167	3.09
Mof_P 	P 	0.5941	0.83002	0.1631	2.859
Mof_P 	P 	0.7201	0.63889	0.1563	3.057
Mof_P 	P 	0.3978	0.55229	0.1563	3.114
Mof_Al	Al	0.5933	0.72032	0.2878	12.664
Mof_Al	Al	0.3999	0.82624	0.2838	11.681
Mof_Al	Al	0.5931	0.55478	0.2777	12.232
Mof_Al	Al	0.2708	0.63361	0.2838	13.3
Mof_O 	O 	0.3853	0.76638	0.24	-4.017
Mof_O 	O 	0.4912	0.69697	0.2293	-4.178
Mof_O 	O 	0.3243	0.68464	0.2184	-4.179
Mof_O 	O 	0.3998	0.7193	0.9891	-3.891
Mof_O 	O 	0.6069	0.77865	0.2218	-4.287
Mof_O 	O 	0.6599	0.8651	0.2432	-4.104
Mof_O 	O 	0.6027	0.83299	0.9854	-3.441
Mof_O 	O 	0.4996	0.8477	0.2078	-3.704
Mof_O 	O 	0.8185	0.63735	0.2024	-3.778
Mof_O 	O 	0.6775	0.68709	0.2001	-4.224
Mof_O 	O 	0.7123	0.6282	0.9824	-3.854
Mof_O 	O 	0.6733	0.5972	0.2398	-3.979
Mof_O 	O 	0.4859	0.57165	0.2226	-4.101
Mof_O 	O 	0.3781	0.50091	0.2077	-4.068
Mof_O 	O 	0.317	0.58383	0.1929	-4.142
Mof_O 	O 	0.4091	0.54875	0.9799	-3.592
Mof_P 	P 	0.5977	0.71676	0.667	3.674
Mof_P 	P 	0.4059	0.83002	0.6631	3.43
Mof_P 	P 	0.2799	0.63889	0.6563	3.635
Mof_P 	P 	0.6022	0.55229	0.6563	3.688
Mof_Al	Al	0.4067	0.72032	0.7878	13.314
Mof_Al	Al	0.6001	0.82624	0.7838	12.323
Mof_Al	Al	0.4069	0.55478	0.7777	13.005
Mof_Al	Al	0.7292	0.63361	0.7838	14.043
Mof_O 	O 	0.6147	0.76638	0.74	-4.079
Mof_O 	O 	0.5088	0.69697	0.7293	-4.225
Mof_O 	O 	0.6757	0.68464	0.7184	-4.229
Mof_O 	O 	0.6002	0.7193	0.4891	-4.287
Mof_O 	O 	0.3931	0.77865	0.7218	-4.342
Mof_O 	O 	0.3401	0.8651	0.7432	-4.141
Mof_O 	O 	0.3973	0.83299	0.4854	-3.843
Mof_O 	O 	0.5004	0.8477	0.7078	-3.697
Mof_O 	O 	0.1815	0.63735	0.7024	-3.775
Mof_O 	O 	0.3225	0.68709	0.7001	-4.257
Mof_O 	O 	0.2877	0.6282	0.4824	-4.232
Mof_O 	O 	0.3267	0.5972	0.7398	-4.037
Mof_O 	O 	0.5141	0.57165	0.7226	-4.173
Mof_O 	O 	0.6219	0.50091	0.7077	-4.119
Mof_O 	O 	0.683	0.58383	0.6929	-4.164
Mof_O 	O 	0.5909	0.54875	0.4799	-3.961
Mof_P 	P 	0.0977	0.21676	0.167	3.094
Mof_P 	P 	0.9059	0.33002	0.1631	2.862
Mof_P 	P 	0.7799	0.13889	0.1563	3.06
Mof_P 	P 	0.1022	0.05229	0.1563	3.121
Mof_Al	Al	0.9067	0.22032	0.2878	12.67
Mof_Al	Al	0.1001	0.32624	0.2838	11.683
Mof_Al	Al	0.9069	0.05478	0.2777	12.242
Mof_Al	Al	0.2292	0.13361	0.2838	13.301
Mof_O 	O 	0.1147	0.26638	0.24	-4.018
Mof_O 	O 	0.0088	0.19697	0.2293	-4.179
Mof_O 	O 	0.1757	0.18464	0.2184	-4.179
Mof_O 	O 	0.1002	0.2193	0.9891	-3.895
Mof_O 	O 	0.8931	0.27865	0.2218	-4.288
Mof_O 	O 	0.8401	0.3651	0.2432	-4.104
Mof_O 	O 	0.8973	0.33299	0.9854	-3.445
Mof_O 	O 	0.0004	0.3477	0.2078	-3.704
Mof_O 	O 	0.6815	0.13735	0.2024	-3.779
Mof_O 	O 	0.8225	0.18709	0.2001	-4.225
Mof_O 	O 	0.7877	0.1282	0.9824	-3.857
Mof_O 	O 	0.8267	0.0972	0.2398	-3.981
Mof_O 	O 	0.0141	0.07165	0.2226	-4.103
Mof_O 	O 	0.1219	0.00091	0.2077	-4.072
Mof_O 	O 	0.183	0.08383	0.1929	-4.143
Mof_O 	O 	0.0909	0.04875	0.9799	-3.598
Mof_P 	P 	0.4023	0.28324	0.667	3.674
Mof_P 	P 	0.5941	0.16998	0.6631	3.43
Mof_P 	P 	0.7201	0.36111	0.6563	3.635
Mof_P 	P 	0.3978	0.44771	0.6563	3.688
Mof_Al	Al	0.5933	0.27968	0.7878	13.314
Mof_Al	Al	0.3999	0.17376	0.7838	12.323
Mof_Al	Al	0.5931	0.44522	0.7777	13.005
Mof_Al	Al	0.2708	0.36639	0.7838	14.043
Mof_O 	O 	0.3853	0.23362	0.74	-4.079
Mof_O 	O 	0.4912	0.30303	0.7293	-4.225
Mof_O 	O 	0.3243	0.31536	0.7184	-4.229
Mof_O 	O 	0.3998	0.2807	0.4891	-4.287
Mof_O 	O 	0.6069	0.22135	0.7218	-4.342
Mof_O 	O 	0.6599	0.1349	0.7432	-4.141
Mof_O 	O 	0.6027	0.16701	0.4854	-3.843
Mof_O 	O 	0.4996	0.1523	0.7078	-3.697
Mof_O 	O 	0.8185	0.36265	0.7024	-3.775
Mof_O 	O 	0.6775	0.31291	0.7001	-4.257
Mof_O 	O 	0.7123	0.3718	0.4824	-4.232
Mof_O 	O 	0.6733	0.4028	0.7398	-4.037
Mof_O 	O 	0.4859	0.42835	0.7226	-4.173
Mof_O 	O 	0.3781	0.49909	0.7077	-4.119
Mof_O 	O 	0.317	0.41617	0.6929	-4.164
Mof_O 	O 	0.4091	0.45125	0.4799	-3.961
Mof_P 	P 	0.9023	0.78324	0.167	3.094
Mof_P 	P 	0.0941	0.66998	0.1631	2.862
Mof_P 	P 	0.2201	0.86111	0.1563	3.06
Mof_P 	P 	0.8978	0.94771	0.1563	3.121
Mof_Al	Al	0.0933	0.77968	0.2878	12.67
Mof_Al	Al	0.8999	0.67376	0.2838	11.683
Mof_Al	Al	0.0931	0.94522	0.2777	12.242
Mof_Al	Al	0.7708	0.86639	0.2838	13.301
Mof_O 	O 	0.8853	0.73362	0.24	-4.018
Mof_O 	O 	0.9912	0.80303	0.2293	-4.179
Mof_O 	O 	0.8243	0.81536	0.2184	-4.179
Mof_O 	O 	0.8998	0.7807	0.9891	-3.895
Mof_O 	O 	0.1069	0.72135	0.2218	-4.288
Mof_O 	O 	0.1599	0.6349	0.2432	-4.104
Mof_O 	O 	0.1027	0.66701	0.9854	-3.445
Mof_O 	O 	0.9996	0.6523	0.2078	-3.704
Mof_O 	O 	0.3185	0.86265	0.2024	-3.779
Mof_O 	O 	0.1775	0.81291	0.2001	-4.225
Mof_O 	O 	0.2123	0.8718	0.9824	-3.857
Mof_O 	O 	0.1733	0.9028	0.2398	-3.981
Mof_O 	O 	0.9859	0.92835	0.2226	-4.103
Mof_O 	O 	0.8781	0.99909	0.2077	-4.072
Mof_O 	O 	0.817	0.91617	0.1929	-4.143
Mof_O 	O 	0.9091	0.95125	0.9799	-3.598
_end
