# CIF file generated by openbabel 3.1.0, see https://openbabel.org
data_I
_chemical_name_common 'image0'
_cell_length_a 20.9098
_cell_length_b 17.8855
_cell_length_c 14.7913
_cell_angle_alpha 90
_cell_angle_beta 134.842
_cell_angle_gamma 90
_space_group_name_H-M_alt 'P 1'
_space_group_name_Hall 'P 1'
loop_
    _symmetry_equiv_pos_as_xyz
    x,y,z
loop_
    _atom_site_label
    _atom_site_type_symbol
    _atom_site_fract_x
    _atom_site_fract_y
    _atom_site_fract_z
    _atom_site_occupancy
    Mg1      Mg       0.63370    0.57910    0.86970    1.000
    Mg2      Mg       0.86610    0.41720    0.12020    1.000
    Mg3      Mg       0.48660    0.66860    0.10620    1.000
    Mg4      Mg       0.50110    0.82990    0.88460    1.000
    P1       P        0.51200    0.64500    0.91410    1.000
    P2       P        0.85030    0.60020    0.11410    1.000
    P3       P        0.64960    0.39550    0.89640    1.000
    P4       P        0.00440    0.34960    0.40390    1.000
    O1       O        0.57870    0.59650    0.92990    1.000
    O2       O        0.53690    0.72650    0.92530    1.000
    O3       O        0.41490    0.62790    0.78570    1.000
    O4       O        0.51970    0.62320    0.02290    1.000
    O5       O        0.91120    0.61260    0.09340    1.000
    O6       O        0.87920    0.65100    0.22220    1.000
    O7       O        0.85160    0.51920    0.14780    1.000
    O8       O        0.75280    0.62330    0.98980    1.000
    O9       O        0.63870    0.47450    0.84980    1.000
    O10      O        0.59180    0.34030    0.78500    1.000
    O11      O        0.74910    0.37070    0.98480    1.000
    O12      O        0.62270    0.38940    0.97090    1.000
    O13      O        0.91480    0.35260    0.26290    1.000
    O14      O        0.04630    0.27170    0.44460    1.000
    O15      O        0.07030    0.40790    0.42900    1.000
    O16      O        0.98600    0.37460    0.48390    1.000
    Mg5      Mg       0.13370    0.07910    0.86970    1.000
    Mg6      Mg       0.36610    0.91720    0.12020    1.000
    Mg7      Mg       0.98660    0.16860    0.10620    1.000
    Mg8      Mg       0.00110    0.32990    0.88460    1.000
    P5       P        0.01200    0.14500    0.91410    1.000
    P6       P        0.35030    0.10020    0.11410    1.000
    P7       P        0.14960    0.89550    0.89640    1.000
    P8       P        0.50440    0.84960    0.40390    1.000
    O17      O        0.07870    0.09650    0.92990    1.000
    O18      O        0.03690    0.22650    0.92530    1.000
    O19      O        0.91490    0.12790    0.78570    1.000
    O20      O        0.01970    0.12320    0.02290    1.000
    O21      O        0.41120    0.11260    0.09340    1.000
    O22      O        0.37920    0.15100    0.22220    1.000
    O23      O        0.35160    0.01920    0.14780    1.000
    O24      O        0.25280    0.12330    0.98980    1.000
    O25      O        0.13870    0.97450    0.84980    1.000
    O26      O        0.09180    0.84030    0.78500    1.000
    O27      O        0.24910    0.87070    0.98480    1.000
    O28      O        0.12270    0.88940    0.97090    1.000
    O29      O        0.41480    0.85260    0.26290    1.000
    O30      O        0.54630    0.77170    0.44460    1.000
    O31      O        0.57030    0.90790    0.42900    1.000
    O32      O        0.48600    0.87460    0.48390    1.000
    Mg9      Mg       0.36630    0.57910    0.63030    1.000
    Mg10     Mg       0.13390    0.41720    0.37980    1.000
    Mg11     Mg       0.51340    0.66860    0.39380    1.000
    Mg12     Mg       0.49890    0.82990    0.61540    1.000
    P9       P        0.48800    0.64500    0.58590    1.000
    P10      P        0.14970    0.60020    0.38590    1.000
    P11      P        0.35040    0.39550    0.60360    1.000
    P12      P        0.99560    0.34960    0.09610    1.000
    O33      O        0.42130    0.59650    0.57010    1.000
    O34      O        0.46310    0.72650    0.57470    1.000
    O35      O        0.58510    0.62790    0.71430    1.000
    O36      O        0.48030    0.62320    0.47710    1.000
    O37      O        0.08880    0.61260    0.40660    1.000
    O38      O        0.12080    0.65100    0.27780    1.000
    O39      O        0.14840    0.51920    0.35220    1.000
    O40      O        0.24720    0.62330    0.51020    1.000
    O41      O        0.36130    0.47450    0.65020    1.000
    O42      O        0.40820    0.34030    0.71500    1.000
    O43      O        0.25090    0.37070    0.51520    1.000
    O44      O        0.37730    0.38940    0.52910    1.000
    O45      O        0.08520    0.35260    0.23710    1.000
    O46      O        0.95370    0.27170    0.05540    1.000
    O47      O        0.92970    0.40790    0.07100    1.000
    O48      O        0.01400    0.37460    0.01610    1.000
    Mg13     Mg       0.86630    0.07910    0.63030    1.000
    Mg14     Mg       0.63390    0.91720    0.37980    1.000
    Mg15     Mg       0.01340    0.16860    0.39380    1.000
    Mg16     Mg       0.99890    0.32990    0.61540    1.000
    P13      P        0.98800    0.14500    0.58590    1.000
    P14      P        0.64970    0.10020    0.38590    1.000
    P15      P        0.85040    0.89550    0.60360    1.000
    P16      P        0.49560    0.84960    0.09610    1.000
    O49      O        0.92130    0.09650    0.57010    1.000
    O50      O        0.96310    0.22650    0.57470    1.000
    O51      O        0.08510    0.12790    0.71430    1.000
    O52      O        0.98030    0.12320    0.47710    1.000
    O53      O        0.58880    0.11260    0.40660    1.000
    O54      O        0.62080    0.15100    0.27780    1.000
    O55      O        0.64840    0.01920    0.35220    1.000
    O56      O        0.74720    0.12330    0.51020    1.000
    O57      O        0.86130    0.97450    0.65020    1.000
    O58      O        0.90820    0.84030    0.71500    1.000
    O59      O        0.75090    0.87070    0.51520    1.000
    O60      O        0.87730    0.88940    0.52910    1.000
    O61      O        0.58520    0.85260    0.23710    1.000
    O62      O        0.45370    0.77170    0.05540    1.000
    O63      O        0.42970    0.90790    0.07100    1.000
    O64      O        0.51400    0.87460    0.01610    1.000
    Mg17     Mg       0.36630    0.42090    0.13030    1.000
    Mg18     Mg       0.13390    0.58280    0.87980    1.000
    Mg19     Mg       0.51340    0.33140    0.89380    1.000
    Mg20     Mg       0.49890    0.17010    0.11540    1.000
    P17      P        0.48800    0.35500    0.08590    1.000
    P18      P        0.14970    0.39980    0.88590    1.000
    P19      P        0.35040    0.60450    0.10360    1.000
    P20      P        0.99560    0.65040    0.59610    1.000
    O65      O        0.42130    0.40350    0.07010    1.000
    O66      O        0.46310    0.27350    0.07470    1.000
    O67      O        0.58510    0.37210    0.21430    1.000
    O68      O        0.48030    0.37680    0.97710    1.000
    O69      O        0.08880    0.38740    0.90660    1.000
    O70      O        0.12080    0.34900    0.77780    1.000
    O71      O        0.14840    0.48080    0.85220    1.000
    O72      O        0.24720    0.37670    0.01020    1.000
    O73      O        0.36130    0.52550    0.15020    1.000
    O74      O        0.40820    0.65970    0.21500    1.000
    O75      O        0.25090    0.62930    0.01520    1.000
    O76      O        0.37730    0.61060    0.02910    1.000
    O77      O        0.08520    0.64740    0.73710    1.000
    O78      O        0.95370    0.72830    0.55540    1.000
    O79      O        0.92970    0.59210    0.57100    1.000
    O80      O        0.01400    0.62540    0.51610    1.000
    Mg21     Mg       0.86630    0.92090    0.13030    1.000
    Mg22     Mg       0.63390    0.08280    0.87980    1.000
    Mg23     Mg       0.01340    0.83140    0.89380    1.000
    Mg24     Mg       0.99890    0.67010    0.11540    1.000
    P21      P        0.98800    0.85500    0.08590    1.000
    P22      P        0.64970    0.89980    0.88590    1.000
    P23      P        0.85040    0.10450    0.10360    1.000
    P24      P        0.49560    0.15040    0.59610    1.000
    O81      O        0.92130    0.90350    0.07010    1.000
    O82      O        0.96310    0.77350    0.07470    1.000
    O83      O        0.08510    0.87210    0.21430    1.000
    O84      O        0.98030    0.87680    0.97710    1.000
    O85      O        0.58880    0.88740    0.90660    1.000
    O86      O        0.62080    0.84900    0.77780    1.000
    O87      O        0.64840    0.98080    0.85220    1.000
    O88      O        0.74720    0.87670    0.01020    1.000
    O89      O        0.86130    0.02550    0.15020    1.000
    O90      O        0.90820    0.15970    0.21500    1.000
    O91      O        0.75090    0.12930    0.01520    1.000
    O92      O        0.87730    0.11060    0.02910    1.000
    O93      O        0.58520    0.14740    0.73710    1.000
    O94      O        0.45370    0.22830    0.55540    1.000
    O95      O        0.42970    0.09210    0.57100    1.000
    O96      O        0.51400    0.12540    0.51610    1.000
    Mg25     Mg       0.63370    0.42090    0.36970    1.000
    Mg26     Mg       0.86610    0.58280    0.62020    1.000
    Mg27     Mg       0.48660    0.33140    0.60620    1.000
    Mg28     Mg       0.50110    0.17010    0.38460    1.000
    P25      P        0.51200    0.35500    0.41410    1.000
    P26      P        0.85030    0.39980    0.61410    1.000
    P27      P        0.64960    0.60450    0.39640    1.000
    P28      P        0.00440    0.65040    0.90390    1.000
    O97      O        0.57870    0.40350    0.42990    1.000
    O98      O        0.53690    0.27350    0.42530    1.000
    O99      O        0.41490    0.37210    0.28570    1.000
    O100     O        0.51970    0.37680    0.52290    1.000
    O101     O        0.91120    0.38740    0.59340    1.000
    O102     O        0.87920    0.34900    0.72220    1.000
    O103     O        0.85160    0.48080    0.64780    1.000
    O104     O        0.75280    0.37670    0.48980    1.000
    O105     O        0.63870    0.52550    0.34980    1.000
    O106     O        0.59180    0.65970    0.28500    1.000
    O107     O        0.74910    0.62930    0.48480    1.000
    O108     O        0.62270    0.61060    0.47090    1.000
    O109     O        0.91480    0.64740    0.76290    1.000
    O110     O        0.04630    0.72830    0.94460    1.000
    O111     O        0.07030    0.59210    0.92900    1.000
    O112     O        0.98600    0.62540    0.98390    1.000
    Mg29     Mg       0.13370    0.92090    0.36970    1.000
    Mg30     Mg       0.36610    0.08280    0.62020    1.000
    Mg31     Mg       0.98660    0.83140    0.60620    1.000
    Mg32     Mg       0.00110    0.67010    0.38460    1.000
    P29      P        0.01200    0.85500    0.41410    1.000
    P30      P        0.35030    0.89980    0.61410    1.000
    P31      P        0.14960    0.10450    0.39640    1.000
    P32      P        0.50440    0.15040    0.90390    1.000
    O113     O        0.07870    0.90350    0.42990    1.000
    O114     O        0.03690    0.77350    0.42530    1.000
    O115     O        0.91490    0.87210    0.28570    1.000
    O116     O        0.01970    0.87680    0.52290    1.000
    O117     O        0.41120    0.88740    0.59340    1.000
    O118     O        0.37920    0.84900    0.72220    1.000
    O119     O        0.35160    0.98080    0.64780    1.000
    O120     O        0.25280    0.87670    0.48980    1.000
    O121     O        0.13870    0.02550    0.34980    1.000
    O122     O        0.09180    0.15970    0.28500    1.000
    O123     O        0.24910    0.12930    0.48480    1.000
    O124     O        0.12270    0.11060    0.47090    1.000
    O125     O        0.41480    0.14740    0.76290    1.000
    O126     O        0.54630    0.22830    0.94460    1.000
    O127     O        0.57030    0.09210    0.92900    1.000
    O128     O        0.48600    0.12540    0.98390    1.000
