data_functionalizedCrystal
_audit_creation_method	'EQeq! by Chris Wilmer'
_symmetry_space_group_name_H-M	'P1'
_symmetry_Int_Tables_number	1
_symmetry_cell_setting	triclinic
loop_
_symmetry_equiv_pos_as_xyz
  x,y,z
_cell_length_a	10.241
_cell_length_b	10.241
_cell_length_c	14.4026
_cell_angle_alpha	90
_cell_angle_beta	90
_cell_angle_gamma	90
loop_
_atom_site_label
_atom_site_type_symbol
_atom_site_fract_x
_atom_site_fract_y
_atom_site_fract_z
_atom_site_charge
Mof_Yb	Yb	0.85287	0.85287	0.125	1.988
Mof_Yb	Yb	0.14713	0.14713	0.625	1.901
Mof_Yb	Yb	0.14713	0.85287	0.875	1.978
Mof_Yb	Yb	0.85287	0.14713	0.375	1.958
Mof_H 	H 	0.4435	0.9267	0.1202	-0.04
Mof_H 	H 	0.5565	0.0733	0.6202	-0.024
Mof_H 	H 	0.0733	0.4435	0.8702	-0.034
Mof_H 	H 	0.9267	0.5565	0.3702	-0.03
Mof_H 	H 	0.5565	0.9267	0.8798	-0.024
Mof_H 	H 	0.4435	0.0733	0.3798	-0.031
Mof_H 	H 	0.9267	0.4435	0.1298	-0.034
Mof_H 	H 	0.0733	0.5565	0.6298	-0.025
Mof_H 	H 	0.1051	4.17796e-33	0.25	-0.064
Mof_H 	H 	0.8949	-8.35593e-33	0.75	-0.034
Mof_H 	H 	-0	0.1051	-0	-0.062
Mof_H 	H 	2.63652e-33	0.8949	0.5	-0.035
Mof_C 	C 	0.3981	0.9567	0.1719	0.244
Mof_C 	C 	0.2617	0.9586	0.1718	-0.266
Mof_C 	C 	0.1842	0.9151	0.0877	0.56
Mof_C 	C 	0.6019	0.0433	0.6719	0.193
Mof_C 	C 	0.7383	0.0414	0.6718	-0.265
Mof_C 	C 	0.8158	0.0849	0.5877	0.541
Mof_C 	C 	0.0433	0.3981	0.9219	0.225
Mof_C 	C 	0.0414	0.2617	0.9218	-0.271
Mof_C 	C 	0.0849	0.1842	0.8377	0.549
Mof_C 	C 	0.9567	0.6019	0.4219	0.23
Mof_C 	C 	0.9586	0.7383	0.4218	-0.238
Mof_C 	C 	0.9151	0.8158	0.3377	0.547
Mof_C 	C 	0.6019	0.9567	0.8281	0.228
Mof_C 	C 	0.7383	0.9586	0.8282	-0.233
Mof_C 	C 	0.8158	0.9151	0.9123	0.546
Mof_C 	C 	0.3981	0.0433	0.3281	0.208
Mof_C 	C 	0.2617	0.0414	0.3282	-0.293
Mof_C 	C 	0.1842	0.0849	0.4123	0.552
Mof_C 	C 	0.9567	0.3981	0.0781	0.236
Mof_C 	C 	0.9586	0.2617	0.0782	-0.261
Mof_C 	C 	0.9151	0.1842	0.1623	0.554
Mof_C 	C 	0.0433	0.6019	0.5781	0.194
Mof_C 	C 	0.0414	0.7383	0.5782	-0.268
Mof_C 	C 	0.0849	0.8158	0.6623	0.542
Mof_C 	C 	0.6136	4.17796e-33	0.25	0.537
Mof_C 	C 	0.4658	4.17796e-33	0.25	-0.318
Mof_C 	C 	0.1959	4.17796e-33	0.25	0.186
Mof_C 	C 	0.3864	-8.35593e-33	0.75	0.529
Mof_C 	C 	0.5342	-8.35593e-33	0.75	-0.299
Mof_C 	C 	0.8041	-8.35593e-33	0.75	0.166
Mof_C 	C 	-0	0.6136	-0	0.518
Mof_C 	C 	-0	0.4658	-0	-0.329
Mof_C 	C 	-0	0.1959	-0	0.159
Mof_C 	C 	2.63652e-33	0.3864	0.5	0.528
Mof_C 	C 	1.93484e-32	0.5342	0.5	-0.302
Mof_C 	C 	2.63652e-33	0.8041	0.5	0.168
Mof_O 	O 	0.6677	0.9278	0.192	-0.528
Mof_O 	O 	0.0681	0.8887	0.0987	-0.572
Mof_O 	O 	0.2416	0.9078	0.0112	-0.554
Mof_O 	O 	0.3323	0.0722	0.692	-0.543
Mof_O 	O 	0.9319	0.1113	0.5987	-0.531
Mof_O 	O 	0.7584	0.0922	0.5112	-0.542
Mof_O 	O 	0.0722	0.6677	0.942	-0.536
Mof_O 	O 	0.1113	0.0681	0.8487	-0.578
Mof_O 	O 	0.0922	0.2416	0.7612	-0.544
Mof_O 	O 	0.9278	0.3323	0.442	-0.517
Mof_O 	O 	0.8887	0.9319	0.3487	-0.521
Mof_O 	O 	0.9078	0.7584	0.2612	-0.534
Mof_O 	O 	0.3323	0.9278	0.808	-0.515
Mof_O 	O 	0.9319	0.8887	0.9013	-0.514
Mof_O 	O 	0.7584	0.9078	0.9888	-0.516
Mof_O 	O 	0.6677	0.0722	0.308	-0.554
Mof_O 	O 	0.0681	0.1113	0.4013	-0.58
Mof_O 	O 	0.2416	0.0922	0.4888	-0.546
Mof_O 	O 	0.9278	0.6677	0.058	-0.529
Mof_O 	O 	0.8887	0.0681	0.1513	-0.571
Mof_O 	O 	0.9078	0.2416	0.2388	-0.539
Mof_O 	O 	0.0722	0.3323	0.558	-0.544
Mof_O 	O 	0.1113	0.9319	0.6513	-0.533
Mof_O 	O 	0.0922	0.7584	0.7388	-0.544
_end
