data_functionalizedCrystal
_audit_creation_method	'EQeq! by Chris Wilmer'
_symmetry_space_group_name_H-M	'P1'
_symmetry_Int_Tables_number	1
_symmetry_cell_setting	triclinic
loop_
_symmetry_equiv_pos_as_xyz
  x,y,z
_cell_length_a	12.946
_cell_length_b	23.746
_cell_length_c	15.957
_cell_angle_alpha	90
_cell_angle_beta	90
_cell_angle_gamma	90
loop_
_atom_site_label
_atom_site_type_symbol
_atom_site_fract_x
_atom_site_fract_y
_atom_site_fract_z
_atom_site_charge
Mof_Mn	Mn	0.7877	0.47717	0.88683	0.668
Mof_Mn	Mn	0.89383	0.73095	0.0094	0.686
Mof_Mn	Mn	0.7123	0.02283	0.38683	0.668
Mof_Mn	Mn	0.60617	0.76905	0.5094	0.688
Mof_Mn	Mn	0.7877	0.52283	0.61317	0.667
Mof_Mn	Mn	0.89383	0.26905	0.4906	0.688
Mof_Mn	Mn	0.7123	0.97717	0.11317	0.665
Mof_Mn	Mn	0.60617	0.23095	0.9906	0.687
Mof_Mn	Mn	0.2123	0.52283	0.11317	0.668
Mof_Mn	Mn	0.10617	0.26905	0.9906	0.686
Mof_Mn	Mn	0.2877	0.97717	0.61317	0.668
Mof_Mn	Mn	0.39383	0.23095	0.4906	0.688
Mof_Mn	Mn	0.2123	0.47717	0.38683	0.668
Mof_Mn	Mn	0.10617	0.73095	0.5094	0.689
Mof_Mn	Mn	0.2877	0.02283	0.88683	0.666
Mof_Mn	Mn	0.39383	0.76905	0.0094	0.688
Mof_H 	H 	0.8848	0.2008	0.0046	-0.013
Mof_H 	H 	0.3933	0.4464	0.9116	0.087
Mof_H 	H 	0.3338	0.5344	0.8705	0.005
Mof_H 	H 	0.4517	0.6018	0.8269	0.078
Mof_H 	H 	0.6245	0.5807	0.8289	-0.002
Mof_H 	H 	0.8766	0.6467	0.6798	-0
Mof_H 	H 	0.8104	0.5796	0.2307	0.08
Mof_H 	H 	0.8273	0.632	0.3519	0.002
Mof_H 	H 	0.8692	0.7261	0.3423	0.078
Mof_H 	H 	0.898	0.765	0.2136	-0.005
Mof_H 	H 	0.6152	0.2992	0.5046	-0.013
Mof_H 	H 	0.1067	0.0536	0.4116	0.086
Mof_H 	H 	0.1662	0.9656	0.3705	0.006
Mof_H 	H 	0.0483	0.8982	0.3269	0.077
Mof_H 	H 	0.8755	0.9193	0.3289	-0.001
Mof_H 	H 	0.6234	0.8533	0.1798	-0
Mof_H 	H 	0.6896	0.9204	0.7307	0.08
Mof_H 	H 	0.6727	0.868	0.8519	0.003
Mof_H 	H 	0.6308	0.7739	0.8423	0.079
Mof_H 	H 	0.602	0.735	0.7136	-0.005
Mof_H 	H 	0.8848	0.7992	0.4954	-0.013
Mof_H 	H 	0.3933	0.5536	0.5884	0.087
Mof_H 	H 	0.3338	0.4656	0.6295	0.005
Mof_H 	H 	0.4517	0.3982	0.6731	0.078
Mof_H 	H 	0.6245	0.4193	0.6711	-0.002
Mof_H 	H 	0.8766	0.3533	0.8202	-0
Mof_H 	H 	0.8104	0.4204	0.2693	0.08
Mof_H 	H 	0.8273	0.368	0.1481	0.002
Mof_H 	H 	0.8692	0.2739	0.1577	0.078
Mof_H 	H 	0.898	0.235	0.2864	-0.005
Mof_H 	H 	0.6152	0.7008	0.9954	-0.011
Mof_H 	H 	0.1067	0.9464	0.0884	0.087
Mof_H 	H 	0.1662	0.0344	0.1295	0.006
Mof_H 	H 	0.0483	0.1018	0.1731	0.077
Mof_H 	H 	0.8755	0.0807	0.1711	-0.001
Mof_H 	H 	0.6234	0.1467	0.3202	-0
Mof_H 	H 	0.6896	0.0796	0.7693	0.08
Mof_H 	H 	0.6727	0.132	0.6481	0.002
Mof_H 	H 	0.6308	0.2261	0.6577	0.079
Mof_H 	H 	0.602	0.265	0.7864	-0.005
Mof_H 	H 	0.1152	0.7992	0.9954	-0.013
Mof_H 	H 	0.6067	0.5536	0.0884	0.087
Mof_H 	H 	0.6662	0.4656	0.1295	0.005
Mof_H 	H 	0.5483	0.3982	0.1731	0.078
Mof_H 	H 	0.3755	0.4193	0.1711	-0.002
Mof_H 	H 	0.1234	0.3533	0.3202	-0
Mof_H 	H 	0.1896	0.4204	0.7693	0.08
Mof_H 	H 	0.1727	0.368	0.6481	0.002
Mof_H 	H 	0.1308	0.2739	0.6577	0.078
Mof_H 	H 	0.102	0.235	0.7864	-0.005
Mof_H 	H 	0.3848	0.7008	0.4954	-0.013
Mof_H 	H 	0.8933	0.9464	0.5884	0.086
Mof_H 	H 	0.8338	0.0344	0.6295	0.006
Mof_H 	H 	0.9517	0.1018	0.6731	0.077
Mof_H 	H 	0.1245	0.0807	0.6711	-0.001
Mof_H 	H 	0.3766	0.1467	0.8202	-0
Mof_H 	H 	0.3104	0.0796	0.2693	0.08
Mof_H 	H 	0.3273	0.132	0.1481	0.003
Mof_H 	H 	0.3692	0.2261	0.1577	0.079
Mof_H 	H 	0.398	0.265	0.2864	-0.005
Mof_H 	H 	0.1152	0.2008	0.5046	-0.013
Mof_H 	H 	0.6067	0.4464	0.4116	0.087
Mof_H 	H 	0.6662	0.5344	0.3705	0.005
Mof_H 	H 	0.5483	0.6018	0.3269	0.078
Mof_H 	H 	0.3755	0.5807	0.3289	-0.002
Mof_H 	H 	0.1234	0.6467	0.1798	-0
Mof_H 	H 	0.1896	0.5796	0.7307	0.08
Mof_H 	H 	0.1727	0.632	0.8519	0.002
Mof_H 	H 	0.1308	0.7261	0.8423	0.078
Mof_H 	H 	0.102	0.765	0.7136	-0.005
Mof_H 	H 	0.3848	0.2992	0.0046	-0.011
Mof_H 	H 	0.8933	0.0536	0.9116	0.087
Mof_H 	H 	0.8338	0.9656	0.8705	0.006
Mof_H 	H 	0.9517	0.8982	0.8269	0.077
Mof_H 	H 	0.1245	0.9193	0.8289	-0.001
Mof_H 	H 	0.3766	0.8533	0.6798	-0
Mof_H 	H 	0.3104	0.9204	0.2307	0.08
Mof_H 	H 	0.3273	0.868	0.3519	0.002
Mof_H 	H 	0.3692	0.7739	0.3423	0.079
Mof_H 	H 	0.398	0.735	0.2136	-0.005
Mof_C 	C 	0.8687	0.23833	0.9941	0.106
Mof_C 	C 	0.7873	0.31334	0.9718	0.064
Mof_C 	C 	0.6969	0.34859	0.955	0.076
Mof_C 	C 	0.5887	0.41005	0.9215	0.075
Mof_C 	C 	0.5451	0.46411	0.8952	0.07
Mof_C 	C 	0.4395	0.47432	0.8951	-0.134
Mof_C 	C 	0.4041	0.52644	0.8701	0.063
Mof_C 	C 	0.474	0.56651	0.8447	-0.142
Mof_C 	C 	0.5775	0.55343	0.8461	0.085
Mof_C 	C 	0.8631	0.62546	0.7275	0.096
Mof_C 	C 	0.845	0.6014	0.8515	0.064
Mof_C 	C 	0.8374	0.59851	0.9425	0.08
Mof_C 	C 	0.8358	0.61311	0.0712	0.071
Mof_C 	C 	0.8454	0.64293	0.1519	0.071
Mof_C 	C 	0.8283	0.6175	0.228	-0.142
Mof_C 	C 	0.838	0.6486	0.2998	0.069
Mof_C 	C 	0.8634	0.7042	0.2943	-0.157
Mof_C 	C 	0.8801	0.7272	0.217	0.091
Mof_C 	C 	0.6313	0.26167	0.4941	0.105
Mof_C 	C 	0.7127	0.18666	0.4718	0.064
Mof_C 	C 	0.8031	0.15141	0.455	0.076
Mof_C 	C 	0.9113	0.08995	0.4215	0.075
Mof_C 	C 	0.9549	0.03589	0.3952	0.069
Mof_C 	C 	0.0605	0.02568	0.3951	-0.131
Mof_C 	C 	0.0959	0.97356	0.3701	0.06
Mof_C 	C 	0.026	0.93349	0.3447	-0.14
Mof_C 	C 	0.9225	0.94657	0.3461	0.083
Mof_C 	C 	0.6369	0.87454	0.2275	0.096
Mof_C 	C 	0.655	0.8986	0.3515	0.064
Mof_C 	C 	0.6626	0.90149	0.4425	0.08
Mof_C 	C 	0.6642	0.88689	0.5712	0.072
Mof_C 	C 	0.6546	0.85707	0.6519	0.071
Mof_C 	C 	0.6717	0.8825	0.728	-0.142
Mof_C 	C 	0.662	0.8514	0.7998	0.069
Mof_C 	C 	0.6366	0.7958	0.7943	-0.156
Mof_C 	C 	0.6199	0.7728	0.717	0.091
Mof_C 	C 	0.8687	0.76167	0.5059	0.105
Mof_C 	C 	0.7873	0.68666	0.5282	0.064
Mof_C 	C 	0.6969	0.65141	0.545	0.076
Mof_C 	C 	0.5887	0.58995	0.5785	0.075
Mof_C 	C 	0.5451	0.53589	0.6048	0.07
Mof_C 	C 	0.4395	0.52568	0.6049	-0.134
Mof_C 	C 	0.4041	0.47356	0.6299	0.063
Mof_C 	C 	0.474	0.43349	0.6553	-0.142
Mof_C 	C 	0.5775	0.44657	0.6539	0.085
Mof_C 	C 	0.8631	0.37454	0.7725	0.096
Mof_C 	C 	0.845	0.3986	0.6485	0.064
Mof_C 	C 	0.8374	0.40149	0.5575	0.08
Mof_C 	C 	0.8358	0.38689	0.4288	0.072
Mof_C 	C 	0.8454	0.35707	0.3481	0.071
Mof_C 	C 	0.8283	0.3825	0.272	-0.142
Mof_C 	C 	0.838	0.3514	0.2002	0.069
Mof_C 	C 	0.8634	0.2958	0.2057	-0.156
Mof_C 	C 	0.8801	0.2728	0.283	0.091
Mof_C 	C 	0.6313	0.73833	0.0059	0.103
Mof_C 	C 	0.7127	0.81334	0.0282	0.064
Mof_C 	C 	0.8031	0.84859	0.045	0.075
Mof_C 	C 	0.9113	0.91005	0.0785	0.075
Mof_C 	C 	0.9549	0.96411	0.1048	0.067
Mof_C 	C 	0.0605	0.97432	0.1049	-0.133
Mof_C 	C 	0.0959	0.02644	0.1299	0.063
Mof_C 	C 	0.026	0.06651	0.1553	-0.14
Mof_C 	C 	0.9225	0.05343	0.1539	0.082
Mof_C 	C 	0.6369	0.12546	0.2725	0.096
Mof_C 	C 	0.655	0.1014	0.1485	0.064
Mof_C 	C 	0.6626	0.09851	0.0575	0.08
Mof_C 	C 	0.6642	0.11311	0.9288	0.072
Mof_C 	C 	0.6546	0.14293	0.8481	0.071
Mof_C 	C 	0.6717	0.1175	0.772	-0.142
Mof_C 	C 	0.662	0.1486	0.7002	0.069
Mof_C 	C 	0.6366	0.2042	0.7057	-0.156
Mof_C 	C 	0.6199	0.2272	0.783	0.091
Mof_C 	C 	0.1313	0.76167	0.0059	0.106
Mof_C 	C 	0.2127	0.68666	0.0282	0.064
Mof_C 	C 	0.3031	0.65141	0.045	0.076
Mof_C 	C 	0.4113	0.58995	0.0785	0.075
Mof_C 	C 	0.4549	0.53589	0.1048	0.07
Mof_C 	C 	0.5605	0.52568	0.1049	-0.134
Mof_C 	C 	0.5959	0.47356	0.1299	0.063
Mof_C 	C 	0.526	0.43349	0.1553	-0.142
Mof_C 	C 	0.4225	0.44657	0.1539	0.085
Mof_C 	C 	0.1369	0.37454	0.2725	0.096
Mof_C 	C 	0.155	0.3986	0.1485	0.064
Mof_C 	C 	0.1626	0.40149	0.0575	0.08
Mof_C 	C 	0.1642	0.38689	0.9288	0.071
Mof_C 	C 	0.1546	0.35707	0.8481	0.071
Mof_C 	C 	0.1717	0.3825	0.772	-0.142
Mof_C 	C 	0.162	0.3514	0.7002	0.069
Mof_C 	C 	0.1366	0.2958	0.7057	-0.157
Mof_C 	C 	0.1199	0.2728	0.783	0.091
Mof_C 	C 	0.3687	0.73833	0.5059	0.105
Mof_C 	C 	0.2873	0.81334	0.5282	0.064
Mof_C 	C 	0.1969	0.84859	0.545	0.076
Mof_C 	C 	0.0887	0.91005	0.5785	0.075
Mof_C 	C 	0.0451	0.96411	0.6048	0.069
Mof_C 	C 	0.9395	0.97432	0.6049	-0.131
Mof_C 	C 	0.9041	0.02644	0.6299	0.06
Mof_C 	C 	0.974	0.06651	0.6553	-0.14
Mof_C 	C 	0.0775	0.05343	0.6539	0.083
Mof_C 	C 	0.3631	0.12546	0.7725	0.096
Mof_C 	C 	0.345	0.1014	0.6485	0.064
Mof_C 	C 	0.3374	0.09851	0.5575	0.08
Mof_C 	C 	0.3358	0.11311	0.4288	0.072
Mof_C 	C 	0.3454	0.14293	0.3481	0.071
Mof_C 	C 	0.3283	0.1175	0.272	-0.142
Mof_C 	C 	0.338	0.1486	0.2002	0.069
Mof_C 	C 	0.3634	0.2042	0.2057	-0.156
Mof_C 	C 	0.3801	0.2272	0.283	0.091
Mof_C 	C 	0.1313	0.23833	0.4941	0.105
Mof_C 	C 	0.2127	0.31334	0.4718	0.064
Mof_C 	C 	0.3031	0.34859	0.455	0.076
Mof_C 	C 	0.4113	0.41005	0.4215	0.075
Mof_C 	C 	0.4549	0.46411	0.3952	0.07
Mof_C 	C 	0.5605	0.47432	0.3951	-0.134
Mof_C 	C 	0.5959	0.52644	0.3701	0.063
Mof_C 	C 	0.526	0.56651	0.3447	-0.142
Mof_C 	C 	0.4225	0.55343	0.3461	0.085
Mof_C 	C 	0.1369	0.62546	0.2275	0.096
Mof_C 	C 	0.155	0.6014	0.3515	0.064
Mof_C 	C 	0.1626	0.59851	0.4425	0.08
Mof_C 	C 	0.1642	0.61311	0.5712	0.072
Mof_C 	C 	0.1546	0.64293	0.6519	0.071
Mof_C 	C 	0.1717	0.6175	0.728	-0.142
Mof_C 	C 	0.162	0.6486	0.7998	0.069
Mof_C 	C 	0.1366	0.7042	0.7943	-0.156
Mof_C 	C 	0.1199	0.7272	0.717	0.091
Mof_C 	C 	0.3687	0.26167	0.9941	0.103
Mof_C 	C 	0.2873	0.18666	0.9718	0.064
Mof_C 	C 	0.1969	0.15141	0.955	0.075
Mof_C 	C 	0.0887	0.08995	0.9215	0.075
Mof_C 	C 	0.0451	0.03589	0.8952	0.067
Mof_C 	C 	0.9395	0.02568	0.8951	-0.133
Mof_C 	C 	0.9041	0.97356	0.8701	0.063
Mof_C 	C 	0.974	0.93349	0.8447	-0.14
Mof_C 	C 	0.0775	0.94657	0.8461	0.082
Mof_C 	C 	0.3631	0.87454	0.7275	0.096
Mof_C 	C 	0.345	0.8986	0.8515	0.064
Mof_C 	C 	0.3374	0.90149	0.9425	0.08
Mof_C 	C 	0.3358	0.88689	0.0712	0.072
Mof_C 	C 	0.3454	0.85707	0.1519	0.071
Mof_C 	C 	0.3283	0.8825	0.228	-0.142
Mof_C 	C 	0.338	0.8514	0.2998	0.069
Mof_C 	C 	0.3634	0.7958	0.2943	-0.156
Mof_C 	C 	0.3801	0.7728	0.217	0.091
Mof_N 	N 	0.772	0.25756	0.98687	-0.194
Mof_N 	N 	0.88547	0.3279	0.97071	-0.107
Mof_N 	N 	0.93927	0.27831	0.98488	-0.168
Mof_N 	N 	0.69205	0.40339	0.93293	-0.186
Mof_N 	N 	0.6042	0.32373	0.9571	-0.153
Mof_N 	N 	0.5332	0.364	0.9348	-0.098
Mof_N 	N 	0.6142	0.50302	0.8713	-0.181
Mof_N 	N 	0.8682	0.64705	0.8053	-0.142
Mof_N 	N 	0.8268	0.55538	0.80703	-0.149
Mof_N 	N 	0.8374	0.57148	0.7241	-0.164
Mof_N 	N 	0.8536	0.64002	0.99731	-0.187
Mof_N 	N 	0.811	0.54979	0.97778	-0.155
Mof_N 	N 	0.8106	0.5594	0.06288	-0.105
Mof_N 	N 	0.8721	0.69756	0.14563	-0.181
Mof_N 	N 	0.728	0.24244	0.48687	-0.194
Mof_N 	N 	0.61453	0.1721	0.47071	-0.107
Mof_N 	N 	0.56073	0.22169	0.48488	-0.168
Mof_N 	N 	0.80795	0.09661	0.43293	-0.187
Mof_N 	N 	0.8958	0.17627	0.4571	-0.153
Mof_N 	N 	0.9668	0.136	0.4348	-0.098
Mof_N 	N 	0.8858	0.99698	0.3713	-0.181
Mof_N 	N 	0.6318	0.85295	0.3053	-0.142
Mof_N 	N 	0.6732	0.94462	0.30703	-0.149
Mof_N 	N 	0.6626	0.92852	0.2241	-0.164
Mof_N 	N 	0.6464	0.85998	0.49731	-0.188
Mof_N 	N 	0.689	0.95021	0.47778	-0.156
Mof_N 	N 	0.6894	0.9406	0.56288	-0.104
Mof_N 	N 	0.6279	0.80244	0.64563	-0.181
Mof_N 	N 	0.772	0.74244	0.51313	-0.194
Mof_N 	N 	0.88547	0.6721	0.52929	-0.107
Mof_N 	N 	0.93927	0.72169	0.51512	-0.168
Mof_N 	N 	0.69205	0.59661	0.56707	-0.186
Mof_N 	N 	0.6042	0.67627	0.5429	-0.153
Mof_N 	N 	0.5332	0.636	0.5652	-0.098
Mof_N 	N 	0.6142	0.49698	0.6287	-0.181
Mof_N 	N 	0.8682	0.35295	0.6947	-0.142
Mof_N 	N 	0.8268	0.44462	0.69297	-0.149
Mof_N 	N 	0.8374	0.42852	0.7759	-0.164
Mof_N 	N 	0.8536	0.35998	0.50269	-0.188
Mof_N 	N 	0.811	0.45021	0.52222	-0.156
Mof_N 	N 	0.8106	0.4406	0.43712	-0.104
Mof_N 	N 	0.8721	0.30244	0.35437	-0.181
Mof_N 	N 	0.728	0.75756	0.01313	-0.194
Mof_N 	N 	0.61453	0.8279	0.02929	-0.107
Mof_N 	N 	0.56073	0.77831	0.01512	-0.168
Mof_N 	N 	0.80795	0.90339	0.06707	-0.187
Mof_N 	N 	0.8958	0.82373	0.0429	-0.153
Mof_N 	N 	0.9668	0.864	0.0652	-0.099
Mof_N 	N 	0.8858	0.00302	0.1287	-0.18
Mof_N 	N 	0.6318	0.14705	0.1947	-0.142
Mof_N 	N 	0.6732	0.05538	0.19297	-0.149
Mof_N 	N 	0.6626	0.07148	0.2759	-0.164
Mof_N 	N 	0.6464	0.14002	0.00269	-0.188
Mof_N 	N 	0.689	0.04979	0.02222	-0.155
Mof_N 	N 	0.6894	0.0594	0.93712	-0.105
Mof_N 	N 	0.6279	0.19756	0.85437	-0.181
Mof_N 	N 	0.228	0.74244	0.01313	-0.194
Mof_N 	N 	0.11453	0.6721	0.02929	-0.107
Mof_N 	N 	0.06073	0.72169	0.01512	-0.168
Mof_N 	N 	0.30795	0.59661	0.06707	-0.186
Mof_N 	N 	0.3958	0.67627	0.0429	-0.153
Mof_N 	N 	0.4668	0.636	0.0652	-0.098
Mof_N 	N 	0.3858	0.49698	0.1287	-0.181
Mof_N 	N 	0.1318	0.35295	0.1947	-0.142
Mof_N 	N 	0.1732	0.44462	0.19297	-0.149
Mof_N 	N 	0.1626	0.42852	0.2759	-0.164
Mof_N 	N 	0.1464	0.35998	0.00269	-0.187
Mof_N 	N 	0.189	0.45021	0.02222	-0.155
Mof_N 	N 	0.1894	0.4406	0.93712	-0.105
Mof_N 	N 	0.1279	0.30244	0.85437	-0.181
Mof_N 	N 	0.272	0.75756	0.51313	-0.194
Mof_N 	N 	0.38547	0.8279	0.52929	-0.107
Mof_N 	N 	0.43927	0.77831	0.51512	-0.168
Mof_N 	N 	0.19205	0.90339	0.56707	-0.187
Mof_N 	N 	0.1042	0.82373	0.5429	-0.153
Mof_N 	N 	0.0332	0.864	0.5652	-0.098
Mof_N 	N 	0.1142	0.00302	0.6287	-0.181
Mof_N 	N 	0.3682	0.14705	0.6947	-0.142
Mof_N 	N 	0.3268	0.05538	0.69297	-0.149
Mof_N 	N 	0.3374	0.07148	0.7759	-0.164
Mof_N 	N 	0.3536	0.14002	0.50269	-0.188
Mof_N 	N 	0.311	0.04979	0.52222	-0.156
Mof_N 	N 	0.3106	0.0594	0.43712	-0.104
Mof_N 	N 	0.3721	0.19756	0.35437	-0.181
Mof_N 	N 	0.228	0.25756	0.48687	-0.194
Mof_N 	N 	0.11453	0.3279	0.47071	-0.107
Mof_N 	N 	0.06073	0.27831	0.48488	-0.168
Mof_N 	N 	0.30795	0.40339	0.43293	-0.186
Mof_N 	N 	0.3958	0.32373	0.4571	-0.153
Mof_N 	N 	0.4668	0.364	0.4348	-0.098
Mof_N 	N 	0.3858	0.50302	0.3713	-0.181
Mof_N 	N 	0.1318	0.64705	0.3053	-0.142
Mof_N 	N 	0.1732	0.55538	0.30703	-0.149
Mof_N 	N 	0.1626	0.57148	0.2241	-0.164
Mof_N 	N 	0.1464	0.64002	0.49731	-0.188
Mof_N 	N 	0.189	0.54979	0.47778	-0.156
Mof_N 	N 	0.1894	0.5594	0.56288	-0.104
Mof_N 	N 	0.1279	0.69756	0.64563	-0.181
Mof_N 	N 	0.272	0.24244	0.98687	-0.194
Mof_N 	N 	0.38547	0.1721	0.97071	-0.107
Mof_N 	N 	0.43927	0.22169	0.98488	-0.168
Mof_N 	N 	0.19205	0.09661	0.93293	-0.187
Mof_N 	N 	0.1042	0.17627	0.9571	-0.153
Mof_N 	N 	0.0332	0.136	0.9348	-0.099
Mof_N 	N 	0.1142	0.99698	0.8713	-0.18
Mof_N 	N 	0.3682	0.85295	0.8053	-0.142
Mof_N 	N 	0.3268	0.94462	0.80703	-0.149
Mof_N 	N 	0.3374	0.92852	0.7241	-0.164
Mof_N 	N 	0.3536	0.85998	0.99731	-0.188
Mof_N 	N 	0.311	0.95021	0.97778	-0.155
Mof_N 	N 	0.3106	0.9406	0.06288	-0.105
Mof_N 	N 	0.3721	0.80244	0.14563	-0.181
_end
