data_functionalizedCrystal
_audit_creation_method	'EQeq! by Chris Wilmer'
_symmetry_space_group_name_H-M	'P1'
_symmetry_Int_Tables_number	1
_symmetry_cell_setting	triclinic
loop_
_symmetry_equiv_pos_as_xyz
  x,y,z
_cell_length_a	8.5326
_cell_length_b	13.2128
_cell_length_c	9.5883
_cell_angle_alpha	90
_cell_angle_beta	94.585
_cell_angle_gamma	90
loop_
_atom_site_label
_atom_site_type_symbol
_atom_site_fract_x
_atom_site_fract_y
_atom_site_fract_z
_atom_site_charge
Mof_Gd	Gd	0.53941	0.26882	0.49206	1.363
Mof_C 	C 	0.5393	0.3894	0.7437	0.285
Mof_C 	C 	0.5244	0.4509	0.8758	-0.039
Mof_C 	C 	0.6164	0.4257	0.9958	-0.042
Mof_C 	C 	0.4083	0.527	0.8755	-0.074
Mof_C 	C 	0.7537	0.351	0.9896	0.306
Mof_C 	C 	0.3017	0.5514	0.7445	0.356
Mof_O 	O 	0.5502	0.4324	0.6265	-0.348
Mof_O 	O 	0.5363	0.2936	0.7518	-0.363
Mof_O 	O 	0.7832	0.2883	0.0827	-0.369
Mof_O 	O 	0.841	0.3598	0.888	-0.375
Mof_O 	O 	0.3505	0.6146	0.6573	-0.414
Mof_O 	O 	0.1676	0.5101	0.7312	-0.276
Mof_Gd	Gd	0.96059	0.76882	0.00794	1.339
Mof_C 	C 	0.9607	0.8894	0.7563	0.284
Mof_C 	C 	0.9756	0.9509	0.6242	-0.034
Mof_C 	C 	0.8836	0.9257	0.5042	-0.043
Mof_C 	C 	0.0917	0.027	0.6245	-0.079
Mof_C 	C 	0.7463	0.851	0.5104	0.302
Mof_C 	C 	0.1983	0.0514	0.7555	0.355
Mof_O 	O 	0.9498	0.9324	0.8735	-0.34
Mof_O 	O 	0.9637	0.7936	0.7482	-0.358
Mof_O 	O 	0.7168	0.7883	0.4173	-0.368
Mof_O 	O 	0.659	0.8598	0.612	-0.378
Mof_O 	O 	0.1495	0.1146	0.8427	-0.415
Mof_O 	O 	0.3324	0.0101	0.7688	-0.277
Mof_Gd	Gd	0.46059	0.73118	0.50794	1.364
Mof_C 	C 	0.4607	0.6106	0.2563	0.286
Mof_C 	C 	0.4756	0.5491	0.1242	-0.038
Mof_C 	C 	0.3836	0.5743	0.0042	-0.041
Mof_C 	C 	0.5917	0.473	0.1245	-0.074
Mof_C 	C 	0.2463	0.649	0.0104	0.306
Mof_C 	C 	0.6983	0.4486	0.2555	0.356
Mof_O 	O 	0.4498	0.5676	0.3735	-0.348
Mof_O 	O 	0.4637	0.7064	0.2482	-0.363
Mof_O 	O 	0.2168	0.7117	0.9173	-0.369
Mof_O 	O 	0.159	0.6402	0.112	-0.375
Mof_O 	O 	0.6495	0.3854	0.3427	-0.414
Mof_O 	O 	0.8324	0.4899	0.2688	-0.276
Mof_Gd	Gd	0.03941	0.23118	0.99206	1.339
Mof_C 	C 	0.0393	0.1106	0.2437	0.284
Mof_C 	C 	0.0244	0.0491	0.3758	-0.034
Mof_C 	C 	0.1164	0.0743	0.4958	-0.043
Mof_C 	C 	0.9083	0.973	0.3755	-0.079
Mof_C 	C 	0.2537	0.149	0.4896	0.302
Mof_C 	C 	0.8017	0.9486	0.2445	0.355
Mof_O 	O 	0.0502	0.0676	0.1265	-0.34
Mof_O 	O 	0.0363	0.2064	0.2518	-0.358
Mof_O 	O 	0.2832	0.2117	0.5827	-0.368
Mof_O 	O 	0.341	0.1402	0.388	-0.378
Mof_O 	O 	0.8505	0.8854	0.1573	-0.415
Mof_O 	O 	0.6676	0.9899	0.2312	-0.277
_end
