data_functionalizedCrystal
_audit_creation_method	'EQeq! by Chris Wilmer'
_symmetry_space_group_name_H-M	'P1'
_symmetry_Int_Tables_number	1
_symmetry_cell_setting	triclinic
loop_
_symmetry_equiv_pos_as_xyz
  x,y,z
_cell_length_a	9.5268
_cell_length_b	9.5268
_cell_length_c	23.401
_cell_angle_alpha	90
_cell_angle_beta	90
_cell_angle_gamma	90
loop_
_atom_site_label
_atom_site_type_symbol
_atom_site_fract_x
_atom_site_fract_y
_atom_site_fract_z
_atom_site_charge
Mof_N 	N 	0.6026	0.8873	0.81027	-0.201
Mof_O 	O 	0.8317	0.9578	0.92672	-0.207
Mof_C 	C 	0.9283	0.8865	0.96361	0.09
Mof_H 	H 	0.9974	0.8356	0.9413	0.039
Mof_H 	H 	0.8789	0.8204	0.9879	0.029
Mof_C 	C 	0.7571	0.8767	0.88978	0.149
Mof_C 	C 	0.7512	0.7326	0.89	-0.135
Mof_H 	H 	0.7995	0.6801	0.9171	0.084
Mof_C 	C 	0.6719	0.6699	0.84908	-0.008
Mof_H 	H 	0.6683	0.5724	0.8477	0.031
Mof_C 	C 	0.5975	0.7449	0.81007	0.002
Mof_H 	H 	0.5428	0.6985	0.7831	0.009
Mof_C 	C 	0.6798	0.9507	0.8498	-0
Mof_H 	H 	0.682	0.0482	0.8507	0.005
Mof_N 	N 	0.3974	0.1127	0.81027	-0.185
Mof_O 	O 	0.1683	0.0422	0.92672	-0.258
Mof_C 	C 	0.0717	0.1135	0.96361	0.055
Mof_H 	H 	0.0026	0.1644	0.9413	0.017
Mof_H 	H 	0.1211	0.1796	0.9879	0.019
Mof_C 	C 	0.2429	0.1233	0.88978	0.204
Mof_C 	C 	0.2488	0.2674	0.89	-0.186
Mof_H 	H 	0.2005	0.3199	0.9171	0.094
Mof_C 	C 	0.3281	0.3301	0.84908	0.026
Mof_H 	H 	0.3317	0.4276	0.8477	0.015
Mof_C 	C 	0.4025	0.2551	0.81007	-0.024
Mof_H 	H 	0.4572	0.3015	0.7831	0.016
Mof_C 	C 	0.3202	0.0493	0.8498	-0.144
Mof_H 	H 	0.318	0.9518	0.8507	0.089
Mof_N 	N 	0.8873	0.3974	0.18973	-0.202
Mof_O 	O 	0.9578	0.1683	0.07328	-0.216
Mof_C 	C 	0.8865	0.0717	0.03639	0.073
Mof_H 	H 	0.8356	0.0026	0.0587	0.022
Mof_H 	H 	0.8204	0.1211	0.0121	0.024
Mof_C 	C 	0.8767	0.2429	0.11022	0.146
Mof_C 	C 	0.7326	0.2488	0.11	-0.136
Mof_H 	H 	0.6801	0.2005	0.0829	0.078
Mof_C 	C 	0.6699	0.3281	0.15092	-0.01
Mof_H 	H 	0.5724	0.3317	0.1523	0.028
Mof_C 	C 	0.7449	0.4025	0.18993	0
Mof_H 	H 	0.6985	0.4572	0.2169	0.011
Mof_C 	C 	0.9507	0.3202	0.1502	-0.003
Mof_H 	H 	0.0482	0.318	0.1493	0.001
Mof_N 	N 	0.1127	0.6026	0.18973	-0.185
Mof_O 	O 	0.0422	0.8317	0.07328	-0.249
Mof_C 	C 	0.1135	0.9283	0.03639	0.075
Mof_H 	H 	0.1644	0.9974	0.0587	0.034
Mof_H 	H 	0.1796	0.8789	0.0121	0.026
Mof_C 	C 	0.1233	0.7571	0.11022	0.209
Mof_C 	C 	0.2674	0.7512	0.11	-0.185
Mof_H 	H 	0.3199	0.7995	0.0829	0.101
Mof_C 	C 	0.3301	0.6719	0.15092	0.029
Mof_H 	H 	0.4276	0.6683	0.1523	0.02
Mof_C 	C 	0.2551	0.5975	0.18993	-0.023
Mof_H 	H 	0.3015	0.5428	0.2169	0.015
Mof_C 	C 	0.0493	0.6798	0.1502	-0.142
Mof_H 	H 	0.9518	0.682	0.1493	0.095
Mof_N 	N 	0.1026	0.6127	0.31027	-0.201
Mof_O 	O 	0.3317	0.5422	0.42672	-0.221
Mof_C 	C 	0.4283	0.6135	0.46361	-0.012
Mof_H 	H 	0.4974	0.6644	0.4413	0.055
Mof_H 	H 	0.3789	0.6796	0.4879	0.049
Mof_C 	C 	0.2571	0.6233	0.38978	0.168
Mof_C 	C 	0.2512	0.7674	0.39	-0.155
Mof_H 	H 	0.2995	0.8199	0.4171	0.089
Mof_C 	C 	0.1719	0.8301	0.34908	0.004
Mof_H 	H 	0.1683	0.9276	0.3477	0.028
Mof_C 	C 	0.0975	0.7551	0.31007	-0.01
Mof_H 	H 	0.0428	0.8015	0.2831	0.009
Mof_C 	C 	0.1798	0.5493	0.3498	-0.07
Mof_H 	H 	0.182	0.4518	0.3507	0.038
Mof_N 	N 	0.8974	0.3873	0.31027	-0.189
Mof_O 	O 	0.6683	0.4578	0.42672	-0.218
Mof_C 	C 	0.5717	0.3865	0.46361	-0.009
Mof_H 	H 	0.5026	0.3356	0.4413	0.047
Mof_H 	H 	0.6211	0.3204	0.4879	0.046
Mof_C 	C 	0.7429	0.3767	0.38978	0.171
Mof_C 	C 	0.7488	0.2326	0.39	-0.156
Mof_H 	H 	0.7005	0.1801	0.4171	0.083
Mof_C 	C 	0.8281	0.1699	0.34908	0.006
Mof_H 	H 	0.8317	0.0724	0.3477	0.021
Mof_C 	C 	0.9025	0.2449	0.31007	-0.009
Mof_H 	H 	0.9572	0.1985	0.2831	0.015
Mof_C 	C 	0.8202	0.4507	0.3498	-0.068
Mof_H 	H 	0.818	0.5482	0.3507	0.053
Mof_N 	N 	0.3873	0.1026	0.68973	-0.201
Mof_O 	O 	0.4578	0.3317	0.57328	-0.222
Mof_C 	C 	0.3865	0.4283	0.53639	-0.008
Mof_H 	H 	0.3356	0.4974	0.5587	0.048
Mof_H 	H 	0.3204	0.3789	0.5121	0.042
Mof_C 	C 	0.3767	0.2571	0.61022	0.168
Mof_C 	C 	0.2326	0.2512	0.61	-0.16
Mof_H 	H 	0.1801	0.2995	0.5829	0.081
Mof_C 	C 	0.1699	0.1719	0.65092	0.002
Mof_H 	H 	0.0724	0.1683	0.6523	0.011
Mof_C 	C 	0.2449	0.0975	0.68993	-0.015
Mof_H 	H 	0.1985	0.0428	0.7169	0.001
Mof_C 	C 	0.4507	0.1798	0.6502	-0.073
Mof_H 	H 	0.5482	0.182	0.6493	0.042
Mof_N 	N 	0.6127	0.8974	0.68973	-0.189
Mof_O 	O 	0.5422	0.6683	0.57328	-0.217
Mof_C 	C 	0.6135	0.5717	0.53639	-0.013
Mof_H 	H 	0.6644	0.5026	0.5587	0.053
Mof_H 	H 	0.6796	0.6211	0.5121	0.052
Mof_C 	C 	0.6233	0.7429	0.61022	0.171
Mof_C 	C 	0.7674	0.7488	0.61	-0.151
Mof_H 	H 	0.8199	0.7005	0.5829	0.092
Mof_C 	C 	0.8301	0.8281	0.65092	0.008
Mof_H 	H 	0.9276	0.8317	0.6523	0.037
Mof_C 	C 	0.7551	0.9025	0.68993	-0.004
Mof_H 	H 	0.8015	0.9572	0.7169	0.024
Mof_C 	C 	0.5493	0.8202	0.6502	-0.065
Mof_H 	H 	0.4518	0.818	0.6493	0.048
Mof_Cu	Cu	0.5	0	0.75	0.837
Mof_Cu	Cu	2.30244e-33	0.5	0.25	0.837
Mof_C 	C 	-0	0	-0	-0.096
Mof_C 	C 	0.5	0.5	0.5	0.035
_end
