# CIF file generated by openbabel 3.1.0, see https://openbabel.org
data_I
_chemical_name_common 'image0'
_cell_length_a 9.982
_cell_length_b 10
_cell_length_c 9.576
_cell_angle_alpha 97.96
_cell_angle_beta 114.87
_cell_angle_gamma 107.67
_space_group_name_H-M_alt 'P 1'
_space_group_name_Hall 'P 1'
loop_
    _symmetry_equiv_pos_as_xyz
    x,y,z
loop_
    _atom_site_label
    _atom_site_type_symbol
    _atom_site_fract_x
    _atom_site_fract_y
    _atom_site_fract_z
    _atom_site_occupancy
    Ge1      Ge       0.03306    0.11545    0.86359    1.000
    Zn1      Zn       0.79116    0.34102    0.31218    1.000
    P1       P        0.40020    0.22910    0.17460    1.000
    P2       P        0.02840    0.65950    0.33620    1.000
    P3       P        0.96990    0.19290    0.15390    1.000
    O1       O        0.55730    0.28740    0.16950    1.000
    O2       O        0.39550    0.33380    0.30210    1.000
    O3       O        0.26380    0.19430    0.00520    1.000
    O4       O        0.38410    0.07860    0.21990    1.000
    O5       O        0.88750    0.54860    0.33920    1.000
    O6       O        0.99720    0.79540    0.30460    1.000
    O7       O        0.18640    0.70220    0.49370    1.000
    O8       O        0.04730    0.59150    0.18870    1.000
    O9       O        0.84070    0.22120    0.17870    1.000
    O10      O        0.11750    0.34810    0.22040    1.000
    O11      O        0.03640    0.09330    0.24450    1.000
    O12      O        0.90610    0.12940    0.97170    1.000
    H1       H        0.07760    0.50270    0.19220    1.000
    H2       H        0.20550    0.44060    0.26010    1.000
    H3       H        0.39240    0.39950    0.38160    1.000
    Ge2      Ge       0.96694    0.88455    0.13641    1.000
    Zn2      Zn       0.20884    0.65898    0.68782    1.000
    P4       P        0.59980    0.77090    0.82540    1.000
    P5       P        0.97160    0.34050    0.66380    1.000
    P6       P        0.03010    0.80710    0.84610    1.000
    O13      O        0.44270    0.71260    0.83050    1.000
    O14      O        0.60450    0.66620    0.69790    1.000
    O15      O        0.73620    0.80570    0.99480    1.000
    O16      O        0.61590    0.92140    0.78010    1.000
    O17      O        0.11250    0.45140    0.66080    1.000
    O18      O        0.00280    0.20460    0.69540    1.000
    O19      O        0.81360    0.29780    0.50630    1.000
    O20      O        0.95270    0.40850    0.81130    1.000
    O21      O        0.15930    0.77880    0.82130    1.000
    O22      O        0.88250    0.65190    0.77960    1.000
    O23      O        0.96360    0.90670    0.75550    1.000
    O24      O        0.09390    0.87060    0.02830    1.000
    H4       H        0.92240    0.49730    0.80780    1.000
    H5       H        0.79450    0.55940    0.73990    1.000
    H6       H        0.60760    0.60050    0.61840    1.000
