# CIF file generated by openbabel 3.1.0, see https://openbabel.org
data_I
_chemical_name_common 'ISAYOQ_charged'
_cell_length_a 13.4623
_cell_length_b 13.4623
_cell_length_c 25.1103
_cell_angle_alpha 74.4509
_cell_angle_beta 74.4509
_cell_angle_gamma 89.9999
_space_group_name_H-M_alt 'P 1'
_space_group_name_Hall 'P 1'
loop_
    _symmetry_equiv_pos_as_xyz
    x,y,z
loop_
    _atom_site_label
    _atom_site_type_symbol
    _atom_site_fract_x
    _atom_site_fract_y
    _atom_site_fract_z
    _atom_site_occupancy
    Cu1      Cu       0.84702    0.59702    0.80596    1.000
    Cu2      Cu       0.59702    0.84702    0.30596    1.000
    H1       H        0.84910    0.67600    0.90340    1.000
    H2       H        0.74170    0.69990    0.98540    1.000
    H3       H        0.49940    0.63230    0.93400    1.000
    H4       H        0.61340    0.60840    0.85320    1.000
    H5       H        0.67830    0.74700    0.12440    1.000
    H6       H        0.70770    0.79130    0.20140    1.000
    H7       H        0.41180    0.78980    0.27140    1.000
    H8       H        0.37260    0.74860    0.19580    1.000
    H9       H        0.74750    0.42060    0.90340    1.000
    H10      H        0.77290    0.31470    0.98540    1.000
    H11      H        0.06660    0.43370    0.93400    1.000
    H12      H        0.03340    0.53840    0.85320    1.000
    H13      H        0.69730    0.12860    0.12440    1.000
    H14      H        0.59090    0.00730    0.20140    1.000
    H15      H        0.81680    0.93880    0.27140    1.000
    H16      H        0.93160    0.05560    0.19580    1.000
    H17      H        0.67600    0.74750    0.40340    1.000
    H18      H        0.69990    0.77290    0.48540    1.000
    H19      H        0.63230    0.06660    0.43400    1.000
    H20      H        0.60840    0.03340    0.35320    1.000
    H21      H        0.74700    0.69730    0.62440    1.000
    H22      H        0.79130    0.59090    0.70140    1.000
    H23      H        0.78980    0.81680    0.77140    1.000
    H24      H        0.74860    0.93160    0.69580    1.000
    H25      H        0.42060    0.84910    0.40340    1.000
    H26      H        0.31470    0.74170    0.48540    1.000
    H27      H        0.43370    0.49940    0.43400    1.000
    H28      H        0.53840    0.61340    0.35320    1.000
    H29      H        0.12860    0.67830    0.62440    1.000
    H30      H        0.00730    0.70770    0.70140    1.000
    H31      H        0.93880    0.41180    0.77140    1.000
    H32      H        0.05560    0.37260    0.69580    1.000
    C1       C        0.77801    0.66671    0.90978    1.000
    C2       C        0.71438    0.68118    0.95884    1.000
    C3       C        0.60954    0.66794    0.96852    1.000
    C4       C        0.57026    0.64086    0.92848    1.000
    C5       C        0.63931    0.62711    0.88018    1.000
    C6       C        0.53951    0.67851    0.02318    1.000
    C7       C        0.50033    0.71223    0.10354    1.000
    C8       C        0.52165    0.73955    0.15210    1.000
    C9       C        0.62287    0.75487    0.15406    1.000
    C10      C        0.64008    0.78188    0.20004    1.000
    C11      C        0.46573    0.78143    0.24114    1.000
    C12      C        0.44100    0.75540    0.19640    1.000
    C13      C        0.81221    0.42351    0.90978    1.000
    C14      C        0.82678    0.35998    0.95884    1.000
    C15      C        0.92194    0.36354    0.96852    1.000
    C16      C        0.00126    0.43066    0.92848    1.000
    C17      C        0.98051    0.49271    0.88018    1.000
    C18      C        0.93731    0.29831    0.02318    1.000
    C19      C        0.89613    0.18423    0.10354    1.000
    C20      C        0.82625    0.10835    0.15210    1.000
    C21      C        0.72307    0.09107    0.15406    1.000
    C22      C        0.65988    0.01808    0.20004    1.000
    C23      C        0.79313    0.97743    0.24114    1.000
    C24      C        0.86260    0.04820    0.19640    1.000
    C25      C        0.66671    0.81221    0.40978    1.000
    C26      C        0.68118    0.82678    0.45884    1.000
    C27      C        0.66794    0.92194    0.46852    1.000
    C28      C        0.64086    0.00126    0.42848    1.000
    C29      C        0.62711    0.98051    0.38018    1.000
    C30      C        0.67851    0.93731    0.52318    1.000
    C31      C        0.71223    0.89613    0.60354    1.000
    C32      C        0.73955    0.82625    0.65210    1.000
    C33      C        0.75487    0.72307    0.65406    1.000
    C34      C        0.78188    0.65988    0.70004    1.000
    C35      C        0.78143    0.79313    0.74114    1.000
    C36      C        0.75540    0.86260    0.69640    1.000
    C37      C        0.42351    0.77801    0.40978    1.000
    C38      C        0.35998    0.71438    0.45884    1.000
    C39      C        0.36354    0.60954    0.46852    1.000
    C40      C        0.43066    0.57026    0.42848    1.000
    C41      C        0.49271    0.63931    0.38018    1.000
    C42      C        0.29831    0.53951    0.52318    1.000
    C43      C        0.18423    0.50033    0.60354    1.000
    C44      C        0.10835    0.52165    0.65210    1.000
    C45      C        0.09107    0.62287    0.65406    1.000
    C46      C        0.01808    0.64008    0.70004    1.000
    C47      C        0.97743    0.46573    0.74114    1.000
    C48      C        0.04820    0.44100    0.69640    1.000
    N1       N        0.74176    0.63916    0.87008    1.000
    N2       N        0.44228    0.65578    0.04424    1.000
    N3       N        0.41837    0.68007    0.09786    1.000
    N4       N        0.56044    0.79504    0.24352    1.000
    N5       N        0.88816    0.49076    0.87008    1.000
    N6       N        0.01348    0.29998    0.04424    1.000
    N7       N        0.98377    0.22207    0.09786    1.000
    N8       N        0.69604    0.96144    0.24352    1.000
    N9       N        0.63916    0.88816    0.37008    1.000
    N10      N        0.65578    0.01348    0.54424    1.000
    N11      N        0.68007    0.98377    0.59786    1.000
    N12      N        0.79504    0.69604    0.74352    1.000
    N13      N        0.49076    0.74176    0.37008    1.000
    N14      N        0.29998    0.44228    0.54424    1.000
    N15      N        0.22207    0.41837    0.59786    1.000
    N16      N        0.96144    0.56044    0.74352    1.000
    O1       O        0.58375    0.71315    0.05770    1.000
    O2       O        0.85855    0.22915    0.05770    1.000
    O3       O        0.71315    0.85855    0.55770    1.000
    O4       O        0.22915    0.58375    0.55770    1.000
    Cu3      Cu       0.15298    0.40298    0.19404    1.000
    Cu4      Cu       0.40298    0.15298    0.69404    1.000
    H33      H        0.15090    0.32400    0.09660    1.000
    H34      H        0.25830    0.30010    0.01460    1.000
    H35      H        0.50060    0.36770    0.06600    1.000
    H36      H        0.38660    0.39160    0.14680    1.000
    H37      H        0.32170    0.25300    0.87560    1.000
    H38      H        0.29230    0.20870    0.79860    1.000
    H39      H        0.58820    0.21020    0.72860    1.000
    H40      H        0.62740    0.25140    0.80420    1.000
    H41      H        0.25250    0.57940    0.09660    1.000
    H42      H        0.22710    0.68530    0.01460    1.000
    H43      H        0.93340    0.56630    0.06600    1.000
    H44      H        0.96660    0.46160    0.14680    1.000
    H45      H        0.30270    0.87140    0.87560    1.000
    H46      H        0.40910    0.99270    0.79860    1.000
    H47      H        0.18320    0.06120    0.72860    1.000
    H48      H        0.06840    0.94440    0.80420    1.000
    H49      H        0.32400    0.25250    0.59660    1.000
    H50      H        0.30010    0.22710    0.51460    1.000
    H51      H        0.36770    0.93340    0.56600    1.000
    H52      H        0.39160    0.96660    0.64680    1.000
    H53      H        0.25300    0.30270    0.37560    1.000
    H54      H        0.20870    0.40910    0.29860    1.000
    H55      H        0.21020    0.18320    0.22860    1.000
    H56      H        0.25140    0.06840    0.30420    1.000
    H57      H        0.57940    0.15090    0.59660    1.000
    H58      H        0.68530    0.25830    0.51460    1.000
    H59      H        0.56630    0.50060    0.56600    1.000
    H60      H        0.46160    0.38660    0.64680    1.000
    H61      H        0.87140    0.32170    0.37560    1.000
    H62      H        0.99270    0.29230    0.29860    1.000
    H63      H        0.06120    0.58820    0.22860    1.000
    H64      H        0.94440    0.62740    0.30420    1.000
    C49      C        0.22199    0.33329    0.09022    1.000
    C50      C        0.28562    0.31882    0.04116    1.000
    C51      C        0.39046    0.33206    0.03148    1.000
    C52      C        0.42974    0.35914    0.07152    1.000
    C53      C        0.36069    0.37289    0.11982    1.000
    C54      C        0.46049    0.32149    0.97682    1.000
    C55      C        0.49967    0.28777    0.89646    1.000
    C56      C        0.47835    0.26045    0.84790    1.000
    C57      C        0.37713    0.24513    0.84594    1.000
    C58      C        0.35992    0.21812    0.79996    1.000
    C59      C        0.53427    0.21857    0.75886    1.000
    C60      C        0.55900    0.24460    0.80360    1.000
    C61      C        0.18779    0.57649    0.09022    1.000
    C62      C        0.17322    0.64002    0.04116    1.000
    C63      C        0.07806    0.63646    0.03148    1.000
    C64      C        0.99874    0.56934    0.07152    1.000
    C65      C        0.01949    0.50729    0.11982    1.000
    C66      C        0.06269    0.70169    0.97682    1.000
    C67      C        0.10387    0.81577    0.89646    1.000
    C68      C        0.17375    0.89165    0.84790    1.000
    C69      C        0.27693    0.90893    0.84594    1.000
    C70      C        0.34012    0.98192    0.79996    1.000
    C71      C        0.20687    0.02257    0.75886    1.000
    C72      C        0.13740    0.95180    0.80360    1.000
    C73      C        0.33329    0.18779    0.59022    1.000
    C74      C        0.31882    0.17322    0.54116    1.000
    C75      C        0.33206    0.07806    0.53148    1.000
    C76      C        0.35914    0.99874    0.57152    1.000
    C77      C        0.37289    0.01949    0.61982    1.000
    C78      C        0.32149    0.06269    0.47682    1.000
    C79      C        0.28777    0.10387    0.39646    1.000
    C80      C        0.26045    0.17375    0.34790    1.000
    C81      C        0.24513    0.27693    0.34594    1.000
    C82      C        0.21812    0.34012    0.29996    1.000
    C83      C        0.21857    0.20687    0.25886    1.000
    C84      C        0.24460    0.13740    0.30360    1.000
    C85      C        0.57649    0.22199    0.59022    1.000
    C86      C        0.64002    0.28562    0.54116    1.000
    C87      C        0.63646    0.39046    0.53148    1.000
    C88      C        0.56934    0.42974    0.57152    1.000
    C89      C        0.50729    0.36069    0.61982    1.000
    C90      C        0.70169    0.46049    0.47682    1.000
    C91      C        0.81577    0.49967    0.39646    1.000
    C92      C        0.89165    0.47835    0.34790    1.000
    C93      C        0.90893    0.37713    0.34594    1.000
    C94      C        0.98192    0.35992    0.29996    1.000
    C95      C        0.02257    0.53427    0.25886    1.000
    C96      C        0.95180    0.55900    0.30360    1.000
    N17      N        0.25824    0.36084    0.12992    1.000
    N18      N        0.55772    0.34422    0.95576    1.000
    N19      N        0.58163    0.31993    0.90214    1.000
    N20      N        0.43956    0.20496    0.75648    1.000
    N21      N        0.11184    0.50924    0.12992    1.000
    N22      N        0.98652    0.70002    0.95576    1.000
    N23      N        0.01623    0.77793    0.90214    1.000
    N24      N        0.30396    0.03856    0.75648    1.000
    N25      N        0.36084    0.11184    0.62992    1.000
    N26      N        0.34422    0.98652    0.45576    1.000
    N27      N        0.31993    0.01623    0.40214    1.000
    N28      N        0.20496    0.30396    0.25648    1.000
    N29      N        0.50924    0.25824    0.62992    1.000
    N30      N        0.70002    0.55772    0.45576    1.000
    N31      N        0.77793    0.58163    0.40214    1.000
    N32      N        0.03856    0.43956    0.25648    1.000
    O5       O        0.41625    0.28685    0.94230    1.000
    O6       O        0.14145    0.77085    0.94230    1.000
    O7       O        0.28685    0.14145    0.44230    1.000
    O8       O        0.77085    0.41625    0.44230    1.000
    P1       P        0.61090    0.95460    0.85960    1.000
    F1       F        0.58380    0.90480    0.92640    1.000
    F2       F        0.66510    0.04760    0.86980    1.000
    F3       F        0.63820    0.00320    0.79360    1.000
    F4       F        0.57620    0.86950    0.83560    1.000
    F5       F        0.71130    0.89590    0.85420    1.000
    F6       F        0.50570    0.00320    0.86400    1.000
    P2       P        0.02950    0.18580    0.85960    1.000
    F7       F        0.98980    0.16880    0.92640    1.000
    F8       F        0.96510    0.08260    0.86980    1.000
    F9       F        0.06820    0.20320    0.79360    1.000
    F10      F        0.08820    0.29490    0.83560    1.000
    F11      F        0.93450    0.24990    0.85420    1.000
    F12      F        0.13030    0.13280    0.86400    1.000
    P3       P        0.95460    0.02950    0.35960    1.000
    F13      F        0.90480    0.98980    0.42640    1.000
    F14      F        0.04760    0.96510    0.36980    1.000
    F15      F        0.00320    0.06820    0.29360    1.000
    F16      F        0.86950    0.08820    0.33560    1.000
    F17      F        0.89590    0.93450    0.35420    1.000
    F18      F        0.00320    0.13030    0.36400    1.000
    P4       P        0.18580    0.61090    0.35960    1.000
    F19      F        0.16880    0.58380    0.42640    1.000
    F20      F        0.08260    0.66510    0.36980    1.000
    F21      F        0.20320    0.63820    0.29360    1.000
    F22      F        0.29490    0.57620    0.33560    1.000
    F23      F        0.24990    0.71130    0.35420    1.000
    F24      F        0.13280    0.50570    0.36400    1.000
    P5       P        0.38910    0.04540    0.14040    1.000
    F25      F        0.41620    0.09520    0.07360    1.000
    F26      F        0.33490    0.95240    0.13020    1.000
    F27      F        0.36180    0.99680    0.20640    1.000
    F28      F        0.42380    0.13050    0.16440    1.000
    F29      F        0.28870    0.10410    0.14580    1.000
    F30      F        0.49430    0.99680    0.13600    1.000
    P6       P        0.97050    0.81420    0.14040    1.000
    F31      F        0.01020    0.83120    0.07360    1.000
    F32      F        0.03490    0.91740    0.13020    1.000
    F33      F        0.93180    0.79680    0.20640    1.000
    F34      F        0.91180    0.70510    0.16440    1.000
    F35      F        0.06550    0.75010    0.14580    1.000
    F36      F        0.86970    0.86720    0.13600    1.000
    P7       P        0.04540    0.97050    0.64040    1.000
    F37      F        0.09520    0.01020    0.57360    1.000
    F38      F        0.95240    0.03490    0.63020    1.000
    F39      F        0.99680    0.93180    0.70640    1.000
    F40      F        0.13050    0.91180    0.66440    1.000
    F41      F        0.10410    0.06550    0.64580    1.000
    F42      F        0.99680    0.86970    0.63600    1.000
    P8       P        0.81420    0.38910    0.64040    1.000
    F43      F        0.83120    0.41620    0.57360    1.000
    F44      F        0.91740    0.33490    0.63020    1.000
    F45      F        0.79680    0.36180    0.70640    1.000
    F46      F        0.70510    0.42380    0.66440    1.000
    F47      F        0.75010    0.28870    0.64580    1.000
    F48      F        0.86720    0.49430    0.63600    1.000
    P9       P        0.68811    0.43811    0.12378    1.000
    F49      F        0.79480    0.39130    0.12000    1.000
    F50      F        0.64540    0.33440    0.11860    1.000
    F51      F        0.68400    0.45290    0.06120    1.000
    F52      F        0.58520    0.48870    0.12000    1.000
    F53      F        0.73600    0.54700    0.11860    1.000
    F54      F        0.75480    0.48590    0.06120    1.000
    F55      F        0.65530    0.40530    0.18940    1.000
    P10      P        0.43811    0.68811    0.62378    1.000
    F56      F        0.39130    0.58520    0.62000    1.000
    F57      F        0.33440    0.73600    0.61860    1.000
    F58      F        0.45290    0.75480    0.56120    1.000
    F59      F        0.48870    0.79480    0.62000    1.000
    F60      F        0.54700    0.64540    0.61860    1.000
    F61      F        0.48590    0.68400    0.56120    1.000
    F62      F        0.40530    0.65530    0.68940    1.000
    P11      P        0.31189    0.56189    0.87622    1.000
    F63      F        0.20520    0.60870    0.88000    1.000
    F64      F        0.35460    0.66560    0.88140    1.000
    F65      F        0.31600    0.54710    0.93880    1.000
    F66      F        0.41480    0.51130    0.88000    1.000
    F67      F        0.26400    0.45300    0.88140    1.000
    F68      F        0.24520    0.51410    0.93880    1.000
    F69      F        0.34470    0.59470    0.81060    1.000
    P12      P        0.56189    0.31189    0.37622    1.000
    F70      F        0.60870    0.41480    0.38000    1.000
    F71      F        0.66560    0.26400    0.38140    1.000
    F72      F        0.54710    0.24520    0.43880    1.000
    F73      F        0.51130    0.20520    0.38000    1.000
    F74      F        0.45300    0.35460    0.38140    1.000
    F75      F        0.51410    0.31600    0.43880    1.000
    F76      F        0.59470    0.34470    0.31060    1.000
