# CIF file generated by openbabel 3.1.0, see https://openbabel.org
data_I
_chemical_name_common 'image0'
_cell_length_a 10.6897
_cell_length_b 8.4857
_cell_length_c 17.2965
_cell_angle_alpha 90
_cell_angle_beta 90
_cell_angle_gamma 90
_space_group_name_H-M_alt 'P 1'
_space_group_name_Hall 'P 1'
loop_
    _symmetry_equiv_pos_as_xyz
    x,y,z
loop_
    _atom_site_label
    _atom_site_type_symbol
    _atom_site_fract_x
    _atom_site_fract_y
    _atom_site_fract_z
    _atom_site_occupancy
    Zn1      Zn       0.86911    0.62885    0.30064    1.000
    Zn2      Zn       0.08628    0.35019    0.13499    1.000
    P1       P        0.14628    0.65367    0.23569    1.000
    P2       P        0.97320    0.53420    0.46465    1.000
    P3       P        0.80705    0.39957    0.16187    1.000
    O1       O        0.02470    0.71830    0.26600    1.000
    O2       O        0.25570    0.69030    0.28840    1.000
    O3       O        0.14350    0.47890    0.22100    1.000
    O4       O        0.91710    0.51930    0.54470    1.000
    O5       O        0.87500    0.57730    0.40820    1.000
    O6       O        0.04310    0.38970    0.44280    1.000
    O7       O        0.91310    0.28140    0.15620    1.000
    O8       O        0.79620    0.45750    0.24440    1.000
    O9       O        0.68450    0.33890    0.13220    1.000
    H1       H        0.16160    0.71670    0.15990    1.000
    H2       H        0.05160    0.62100    0.46510    1.000
    H3       H        0.82380    0.50290    0.12160    1.000
    Zn3      Zn       0.13089    0.37115    0.80064    1.000
    Zn4      Zn       0.91372    0.64981    0.63499    1.000
    P4       P        0.85372    0.34633    0.73569    1.000
    P5       P        0.02680    0.46580    0.96465    1.000
    P6       P        0.19295    0.60043    0.66187    1.000
    O10      O        0.97530    0.28170    0.76600    1.000
    O11      O        0.74430    0.30970    0.78840    1.000
    O12      O        0.85650    0.52110    0.72100    1.000
    O13      O        0.08290    0.48070    0.04470    1.000
    O14      O        0.12500    0.42270    0.90820    1.000
    O15      O        0.95690    0.61030    0.94280    1.000
    O16      O        0.08690    0.71860    0.65620    1.000
    O17      O        0.20380    0.54250    0.74440    1.000
    O18      O        0.31550    0.66110    0.63220    1.000
    H4       H        0.83840    0.28330    0.65990    1.000
    H5       H        0.94840    0.37900    0.96510    1.000
    H6       H        0.17620    0.49710    0.62160    1.000
    Zn5      Zn       0.36911    0.87115    0.30064    1.000
    Zn6      Zn       0.58628    0.14981    0.13499    1.000
    P7       P        0.64628    0.84633    0.23569    1.000
    P8       P        0.47320    0.96580    0.46465    1.000
    P9       P        0.30705    0.10043    0.16187    1.000
    O19      O        0.52470    0.78170    0.26600    1.000
    O20      O        0.75570    0.80970    0.28840    1.000
    O21      O        0.64350    0.02110    0.22100    1.000
    O22      O        0.41710    0.98070    0.54470    1.000
    O23      O        0.37500    0.92270    0.40820    1.000
    O24      O        0.54310    0.11030    0.44280    1.000
    O25      O        0.41310    0.21860    0.15620    1.000
    O26      O        0.29620    0.04250    0.24440    1.000
    O27      O        0.18450    0.16110    0.13220    1.000
    H7       H        0.66160    0.78330    0.15990    1.000
    H8       H        0.55160    0.87900    0.46510    1.000
    H9       H        0.32380    0.99710    0.12160    1.000
    Zn7      Zn       0.63089    0.12885    0.80064    1.000
    Zn8      Zn       0.41372    0.85019    0.63499    1.000
    P10      P        0.35372    0.15367    0.73569    1.000
    P11      P        0.52680    0.03420    0.96465    1.000
    P12      P        0.69295    0.89957    0.66187    1.000
    O28      O        0.47530    0.21830    0.76600    1.000
    O29      O        0.24430    0.19030    0.78840    1.000
    O30      O        0.35650    0.97890    0.72100    1.000
    O31      O        0.58290    0.01930    0.04470    1.000
    O32      O        0.62500    0.07730    0.90820    1.000
    O33      O        0.45690    0.88970    0.94280    1.000
    O34      O        0.58690    0.78140    0.65620    1.000
    O35      O        0.70380    0.95750    0.74440    1.000
    O36      O        0.81550    0.83890    0.63220    1.000
    H10      H        0.33840    0.21670    0.65990    1.000
    H11      H        0.44840    0.12100    0.96510    1.000
    H12      H        0.67620    0.00290    0.62160    1.000
