data_functionalizedCrystal
_audit_creation_method	'EQeq! by Chris Wilmer'
_symmetry_space_group_name_H-M	'P1'
_symmetry_Int_Tables_number	1
_symmetry_cell_setting	triclinic
loop_
_symmetry_equiv_pos_as_xyz
  x,y,z
_cell_length_a	14.4068
_cell_length_b	15.0646
_cell_length_c	33.0834
_cell_angle_alpha	90
_cell_angle_beta	90
_cell_angle_gamma	90
loop_
_atom_site_label
_atom_site_type_symbol
_atom_site_fract_x
_atom_site_fract_y
_atom_site_fract_z
_atom_site_charge
Mof_Yb	Yb	0.13846	0.67806	0.25	1.357
Mof_Yb	Yb	0.13056	0.69462	0.84976	1.392
Mof_Yb	Yb	0.88826	0.29773	0.55114	1.215
Mof_Yb	Yb	0.63846	0.82194	0.75	1.354
Mof_Yb	Yb	0.63056	0.80538	0.15024	1.389
Mof_Yb	Yb	0.36154	0.17806	0.25	1.354
Mof_Yb	Yb	0.13056	0.69462	0.65024	1.393
Mof_Yb	Yb	0.11174	0.70227	0.44886	1.215
Mof_Yb	Yb	0.61174	0.79773	0.94886	1.211
Mof_Yb	Yb	0.86154	0.32194	0.75	1.357
Mof_Yb	Yb	0.11174	0.70227	0.05114	1.216
Mof_Yb	Yb	0.38826	0.20227	0.44886	1.211
Mof_Yb	Yb	0.38826	0.20227	0.05114	1.211
Mof_Yb	Yb	0.63056	0.80538	0.34976	1.389
Mof_Yb	Yb	0.86944	0.30538	0.15024	1.392
Mof_Yb	Yb	0.61174	0.79773	0.55114	1.211
Mof_Yb	Yb	0.86944	0.30538	0.34976	1.393
Mof_Yb	Yb	0.36944	0.19462	0.84976	1.389
Mof_Yb	Yb	0.88826	0.29773	0.94886	1.216
Mof_Yb	Yb	0.36944	0.19462	0.65024	1.389
Mof_K 	K 	0.18527	0.21403	0.54531	3.105
Mof_K 	K 	0.8139	0.7554	0.25	3.225
Mof_K 	K 	0.81473	0.78597	0.45469	3.105
Mof_K 	K 	0.80932	0.76869	0.64252	3.238
Mof_K 	K 	0.69068	0.26869	0.64252	3.246
Mof_K 	K 	0.18527	0.21403	0.95469	3.102
Mof_K 	K 	0.1861	0.2446	0.75	3.225
Mof_K 	K 	0.31473	0.71403	0.95469	3.114
Mof_K 	K 	0.68527	0.28597	0.04531	3.114
Mof_K 	K 	0.19068	0.23131	0.35748	3.238
Mof_K 	K 	0.6861	0.2554	0.25	3.234
Mof_K 	K 	0.31473	0.71403	0.54531	3.115
Mof_K 	K 	0.19068	0.23131	0.14252	3.238
Mof_K 	K 	0.80932	0.76869	0.85748	3.238
Mof_K 	K 	0.81473	0.78597	0.04531	3.102
Mof_K 	K 	0.30932	0.73131	0.14252	3.246
Mof_K 	K 	0.3139	0.7446	0.75	3.234
Mof_K 	K 	0.68527	0.28597	0.45469	3.115
Mof_K 	K 	0.69068	0.26869	0.85748	3.246
Mof_K 	K 	0.30932	0.73131	0.35748	3.246
Mof_C 	C 	0.3329	0.9782	0.6474	-0.006
Mof_C 	C 	0.1646	0.3971	0.051	-0.175
Mof_C 	C 	0.4951	0.9099	0.0499	-0.063
Mof_C 	C 	0.8354	0.6029	0.949	-0.175
Mof_C 	C 	0.4874	0.0013	0.4506	-0.036
Mof_C 	C 	0.738	0.4593	0.9497	0.317
Mof_C 	C 	0.5126	0.9987	0.5494	-0.036
Mof_C 	C 	0.9899	0.491	0.1499	-0.031
Mof_C 	C 	0.0667	0.4317	0.5484	0.415
Mof_C 	C 	0.1671	0.4782	0.8526	-0.013
Mof_C 	C 	0.2604	0.497	0.25	0.346
Mof_C 	C 	0.8354	0.6029	0.551	-0.175
Mof_C 	C 	0.0667	0.4317	0.9516	0.414
Mof_C 	C 	0.0873	0.6399	0.9503	0.412
Mof_C 	C 	0.0148	0.5936	0.75	-0.062
Mof_C 	C 	0.6475	0.112	0.147	-0.188
Mof_C 	C 	0.5101	0.991	0.1499	-0.03
Mof_C 	C 	0.5087	0.9174	0.6492	-0.059
Mof_C 	C 	0.992	0.5051	0.75	-0.011
Mof_C 	C 	0.8383	0.5398	0.75	-0
Mof_C 	C 	0.7378	0.4789	0.1445	0.323
Mof_C 	C 	0.0609	0.4165	0.3506	0.413
Mof_C 	C 	0.7784	0.6825	0.3537	0.534
Mof_C 	C 	0.6671	0.0218	0.1474	-0.006
Mof_C 	C 	0.2216	0.3175	0.8537	0.533
Mof_C 	C 	0.5049	0.0901	0.5499	-0.063
Mof_C 	C 	0.5873	0.8601	0.4503	0.41
Mof_C 	C 	0.508	0.0051	0.75	-0.013
Mof_C 	C 	0.4899	0.009	0.6499	-0.03
Mof_C 	C 	0.1129	0.6311	0.75	0.405
Mof_C 	C 	0.9852	0.4064	0.25	-0.062
Mof_C 	C 	0.4333	0.9317	0.9516	0.415
Mof_C 	C 	0.6051	0.8776	0.8503	0.397
Mof_C 	C 	0.441	0.9267	0.75	0.363
Mof_C 	C 	0.4127	0.1399	0.5497	0.41
Mof_C 	C 	0.5609	0.0835	0.8506	0.412
Mof_C 	C 	0.9127	0.3601	0.0497	0.412
Mof_C 	C 	0.762	0.9593	0.5503	0.307
Mof_C 	C 	0.6646	0.1029	0.949	-0.177
Mof_C 	C 	0.0049	0.4099	0.0499	-0.065
Mof_C 	C 	0.559	0.0733	0.25	0.363
Mof_C 	C 	0.8329	0.5218	0.3526	-0.013
Mof_C 	C 	0.492	0.9949	0.25	-0.013
Mof_C 	C 	0.7622	0.9789	0.3555	0.311
Mof_C 	C 	0.7116	0.2052	0.75	0.62
Mof_C 	C 	0.8269	0.511	0.5507	-0.016
Mof_C 	C 	0.7554	0.6676	0.5494	0.468
Mof_C 	C 	0.86	0.6312	0.75	-0.209
Mof_C 	C 	0.762	0.9593	0.9497	0.308
Mof_C 	C 	0.4899	0.009	0.8501	-0.03
Mof_C 	C 	0.941	0.5733	0.25	0.362
Mof_C 	C 	0.2378	0.0211	0.8555	0.311
Mof_C 	C 	0.7884	0.7052	0.75	0.619
Mof_C 	C 	0.9874	0.4987	0.9506	-0.033
Mof_C 	C 	0.9913	0.4174	0.8508	-0.055
Mof_C 	C 	0.1731	0.489	0.0507	-0.016
Mof_C 	C 	0.2378	0.0211	0.6445	0.311
Mof_C 	C 	0.9127	0.3601	0.4503	0.413
Mof_C 	C 	0.0609	0.4165	0.1494	0.413
Mof_C 	C 	0.1475	0.388	0.853	-0.186
Mof_C 	C 	0.4913	0.0826	0.3508	-0.059
Mof_C 	C 	0.7396	0.503	0.75	0.346
Mof_C 	C 	0.0101	0.509	0.6499	-0.03
Mof_C 	C 	0.4913	0.0826	0.1492	-0.059
Mof_C 	C 	0.4951	0.9099	0.4501	-0.063
Mof_C 	C 	0.2396	0.997	0.25	0.348
Mof_C 	C 	0.5087	0.9174	0.8508	-0.059
Mof_C 	C 	0.7446	0.1676	0.9506	0.469
Mof_C 	C 	0.1475	0.388	0.647	-0.186
Mof_C 	C 	0.9874	0.4987	0.5494	-0.033
Mof_C 	C 	0.3525	0.888	0.853	-0.188
Mof_C 	C 	0.3525	0.888	0.647	-0.188
Mof_C 	C 	0.008	0.4949	0.25	-0.011
Mof_C 	C 	0.0101	0.509	0.8501	-0.031
Mof_C 	C 	0.9333	0.5683	0.0484	0.414
Mof_C 	C 	0.9951	0.5901	0.9501	-0.065
Mof_C 	C 	0.5148	0.9064	0.25	-0.062
Mof_C 	C 	0.2884	0.7948	0.25	0.62
Mof_C 	C 	0.5049	0.0901	0.9501	-0.063
Mof_C 	C 	0.6731	0.011	0.5507	-0.011
Mof_C 	C 	0.6731	0.011	0.9493	-0.011
Mof_C 	C 	0.1671	0.4782	0.6474	-0.013
Mof_C 	C 	0.2784	0.8175	0.6463	0.536
Mof_C 	C 	0.4852	0.0936	0.75	-0.062
Mof_C 	C 	0.6617	0.0398	0.75	0
Mof_C 	C 	0.8329	0.5218	0.1474	-0.013
Mof_C 	C 	0.2446	0.3324	0.0494	0.468
Mof_C 	C 	0.6671	0.0218	0.3526	-0.006
Mof_C 	C 	0.3354	0.8971	0.051	-0.177
Mof_C 	C 	0.2216	0.3175	0.6463	0.534
Mof_C 	C 	0.1646	0.3971	0.449	-0.175
Mof_C 	C 	0.7216	0.1825	0.3537	0.536
Mof_C 	C 	0.1051	0.6224	0.3503	0.397
Mof_C 	C 	0.8269	0.511	0.9493	-0.016
Mof_C 	C 	0.2554	0.8324	0.0494	0.469
Mof_C 	C 	0.7378	0.4789	0.3555	0.323
Mof_C 	C 	0.6646	0.1029	0.551	-0.177
Mof_C 	C 	0.9899	0.491	0.3501	-0.03
Mof_C 	C 	0.8525	0.612	0.147	-0.186
Mof_C 	C 	0.0049	0.4099	0.4501	-0.066
Mof_C 	C 	0.7446	0.1676	0.5494	0.469
Mof_C 	C 	0.5101	0.991	0.3501	-0.03
Mof_C 	C 	0.2622	0.5211	0.6445	0.323
Mof_C 	C 	0.2784	0.8175	0.8537	0.536
Mof_C 	C 	0.2116	0.2948	0.25	0.619
Mof_C 	C 	0.64	0.1312	0.75	-0.209
Mof_C 	C 	0.0873	0.6399	0.5497	0.413
Mof_C 	C 	0.2622	0.5211	0.8555	0.323
Mof_C 	C 	0.14	0.3688	0.25	-0.209
Mof_C 	C 	0.9913	0.4174	0.6492	-0.056
Mof_C 	C 	0.4391	0.9165	0.1494	0.412
Mof_C 	C 	0.3383	0.9602	0.25	0
Mof_C 	C 	0.6051	0.8776	0.6497	0.397
Mof_C 	C 	0.3269	0.989	0.0507	-0.011
Mof_C 	C 	0.5667	0.0683	0.4516	0.415
Mof_C 	C 	0.0087	0.5826	0.1492	-0.055
Mof_C 	C 	0.7216	0.1825	0.1463	0.536
Mof_C 	C 	0.3871	0.1311	0.75	0.404
Mof_C 	C 	0.3949	0.1224	0.3503	0.397
Mof_C 	C 	0.9333	0.5683	0.4516	0.415
Mof_C 	C 	0.4333	0.9317	0.5484	0.415
Mof_C 	C 	0.9391	0.5835	0.6494	0.413
Mof_C 	C 	0.262	0.5407	0.4497	0.317
Mof_C 	C 	0.1051	0.6224	0.1497	0.397
Mof_C 	C 	0.8949	0.3776	0.8503	0.397
Mof_C 	C 	0.0087	0.5826	0.3508	-0.056
Mof_C 	C 	0.7622	0.9789	0.1445	0.311
Mof_C 	C 	0.5873	0.8601	0.0497	0.41
Mof_C 	C 	0.262	0.5407	0.0503	0.317
Mof_C 	C 	0.4127	0.1399	0.9503	0.41
Mof_C 	C 	0.3949	0.1224	0.1497	0.397
Mof_C 	C 	0.5126	0.9987	0.9506	-0.035
Mof_C 	C 	0.3354	0.8971	0.449	-0.177
Mof_C 	C 	0.4391	0.9165	0.3506	0.412
Mof_C 	C 	0.0126	0.5013	0.4506	-0.033
Mof_C 	C 	0.8949	0.3776	0.6497	0.397
Mof_C 	C 	0.8525	0.612	0.353	-0.186
Mof_C 	C 	0.5667	0.0683	0.0484	0.415
Mof_C 	C 	0.238	0.0407	0.0503	0.308
Mof_C 	C 	0.238	0.0407	0.4497	0.307
Mof_C 	C 	0.3269	0.989	0.4493	-0.011
Mof_C 	C 	0.1731	0.489	0.4493	-0.016
Mof_C 	C 	0.36	0.8688	0.25	-0.209
Mof_C 	C 	0.9391	0.5835	0.8506	0.413
Mof_C 	C 	0.7784	0.6825	0.1463	0.533
Mof_C 	C 	0.5609	0.0835	0.6494	0.412
Mof_C 	C 	0.2554	0.8324	0.4506	0.469
Mof_C 	C 	0.6129	0.8689	0.25	0.404
Mof_C 	C 	0.3329	0.9782	0.8526	-0.006
Mof_C 	C 	0.9951	0.5901	0.5499	-0.066
Mof_C 	C 	0.7554	0.6676	0.9506	0.468
Mof_C 	C 	0.4874	0.0013	0.0494	-0.035
Mof_C 	C 	0.6475	0.112	0.353	-0.188
Mof_C 	C 	0.8871	0.3689	0.25	0.405
Mof_C 	C 	0.1617	0.4602	0.25	-0
Mof_C 	C 	0.738	0.4593	0.5503	0.317
Mof_C 	C 	0.2446	0.3324	0.4506	0.468
Mof_C 	C 	0.059	0.4267	0.75	0.362
Mof_C 	C 	0.0126	0.5013	0.0494	-0.033
Mof_C 	C 	0.7604	0.003	0.75	0.348
Mof_N 	N 	0.4023	0.0202	0.25	-0.181
Mof_N 	N 	0.9034	0.4604	0.55	-0.169
Mof_N 	N 	0.4034	0.0396	0.05	-0.17
Mof_N 	N 	0.5601	0.1421	0.35194	-0.195
Mof_N 	N 	0.5966	0.9604	0.95	-0.17
Mof_N 	N 	0.0976	0.5368	0.85121	-0.183
Mof_N 	N 	0.0803	0.358	0.45	-0.216
Mof_N 	N 	0.9399	0.6421	0.35194	-0.197
Mof_N 	N 	0.5966	0.9604	0.55	-0.17
Mof_N 	N 	0.4034	0.0396	0.45	-0.17
Mof_N 	N 	0.9197	0.642	0.55	-0.216
Mof_N 	N 	0.5508	0.1559	0.75	-0.178
Mof_N 	N 	0.0508	0.3441	0.25	-0.179
Mof_N 	N 	0.4197	0.858	0.45	-0.216
Mof_N 	N 	0.5601	0.1421	0.14806	-0.195
Mof_N 	N 	0.4197	0.858	0.05	-0.216
Mof_N 	N 	0.9034	0.4604	0.95	-0.169
Mof_N 	N 	0.4024	0.0368	0.85121	-0.185
Mof_N 	N 	0.9492	0.6559	0.75	-0.179
Mof_N 	N 	0.0601	0.3579	0.64806	-0.197
Mof_N 	N 	0.4024	0.0368	0.64879	-0.185
Mof_N 	N 	0.4399	0.8579	0.85194	-0.195
Mof_N 	N 	0.0976	0.5368	0.64879	-0.183
Mof_N 	N 	0.9399	0.6421	0.14806	-0.197
Mof_N 	N 	0.5803	0.142	0.55	-0.216
Mof_N 	N 	0.0966	0.5396	0.45	-0.169
Mof_N 	N 	0.0977	0.5202	0.25	-0.18
Mof_N 	N 	0.9197	0.642	0.95	-0.216
Mof_N 	N 	0.0803	0.358	0.05	-0.216
Mof_N 	N 	0.4492	0.8441	0.25	-0.178
Mof_N 	N 	0.5976	0.9632	0.14879	-0.185
Mof_N 	N 	0.0966	0.5396	0.05	-0.169
Mof_N 	N 	0.9023	0.4798	0.75	-0.18
Mof_N 	N 	0.9024	0.4632	0.35121	-0.183
Mof_N 	N 	0.5976	0.9632	0.35121	-0.185
Mof_N 	N 	0.5977	0.9798	0.75	-0.181
Mof_N 	N 	0.0601	0.3579	0.85194	-0.197
Mof_N 	N 	0.5803	0.142	0.95	-0.216
Mof_N 	N 	0.9024	0.4632	0.14879	-0.183
Mof_N 	N 	0.4399	0.8579	0.64806	-0.195
Mof_O 	O 	0.0198	0.3502	0.75	-0.776
Mof_O 	O 	0.262	0.2959	0.4833	-0.829
Mof_O 	O 	0.6497	0.8544	0.2835	-0.701
Mof_O 	O 	0.745	0.215	0.11322	-0.85
Mof_O 	O 	0.88	0.3406	0.48393	-0.671
Mof_O 	O 	0.2384	0.2666	0.28272	-0.923
Mof_O 	O 	0.3573	0.9343	0.3523	-0.537
Mof_O 	O 	0.3534	0.9601	0.5473	-0.453
Mof_O 	O 	0.4749	0.8397	0.1511	-0.779
Mof_O 	O 	0.762	0.2041	0.5167	-0.83
Mof_O 	O 	0.1497	0.6456	0.7835	-0.702
Mof_O 	O 	0.1211	0.6602	0.9173	-0.68
Mof_O 	O 	0.1466	0.4601	0.9527	-0.453
Mof_O 	O 	0.8573	0.5657	0.6477	-0.537
Mof_O 	O 	0.7441	0.7088	0.17876	-0.895
Mof_O 	O 	0.9749	0.6603	0.6511	-0.78
Mof_O 	O 	0.3565	0.9425	0.75	-0.543
Mof_O 	O 	0.6497	0.8544	0.2165	-0.702
Mof_O 	O 	0.2663	0.581	0.25	-0.549
Mof_O 	O 	0.3503	0.1456	0.7165	-0.701
Mof_O 	O 	0.0251	0.3397	0.1511	-0.78
Mof_O 	O 	0.755	0.715	0.38678	-0.849
Mof_O 	O 	0.664	0.5003	0.9513	-0.525
Mof_O 	O 	0.9749	0.6603	0.8489	-0.78
Mof_O 	O 	0.8307	0.0275	0.3567	-0.494
Mof_O 	O 	0.255	0.785	0.88678	-0.85
Mof_O 	O 	0.1497	0.6456	0.7165	-0.702
Mof_O 	O 	0.3573	0.9343	0.1477	-0.537
Mof_O 	O 	0.7383	0.3948	0.35541	-0.606
Mof_O 	O 	0.8534	0.5399	0.4527	-0.453
Mof_O 	O 	0.8573	0.5657	0.8523	-0.538
Mof_O 	O 	0.6466	0.0399	0.0473	-0.453
Mof_O 	O 	0.9802	0.6498	0.25	-0.776
Mof_O 	O 	0.3534	0.9601	0.9527	-0.453
Mof_O 	O 	0.836	0.0003	0.5487	-0.52
Mof_O 	O 	0.2857	0.3124	0.0817	-0.826
Mof_O 	O 	0.664	0.5003	0.5487	-0.525
Mof_O 	O 	0.1427	0.4343	0.3523	-0.537
Mof_O 	O 	0.2528	0.6241	0.4505	-0.656
Mof_O 	O 	0.38	0.1594	0.98393	-0.671
Mof_O 	O 	0.1357	0.6516	0.11721	-0.724
Mof_O 	O 	0.745	0.215	0.38678	-0.85
Mof_O 	O 	0.7559	0.2088	0.17876	-0.896
Mof_O 	O 	0.6464	0.8734	0.68302	-0.651
Mof_O 	O 	0.6743	0.5522	0.75	-0.503
Mof_O 	O 	0.9595	0.6494	0.0488	-0.738
Mof_O 	O 	0.7384	0.2334	0.78272	-0.923
Mof_O 	O 	0.238	0.7959	0.0167	-0.83
Mof_O 	O 	0.245	0.285	0.88678	-0.849
Mof_O 	O 	0.3307	0.4725	0.8567	-0.5
Mof_O 	O 	0.6466	0.0399	0.4527	-0.453
Mof_O 	O 	0.7617	0.8948	0.35541	-0.604
Mof_O 	O 	0.7337	0.419	0.75	-0.549
Mof_O 	O 	0.5198	0.1498	0.25	-0.774
Mof_O 	O 	0.2143	0.8124	0.0817	-0.827
Mof_O 	O 	0.8503	0.3544	0.2835	-0.702
Mof_O 	O 	0.3503	0.1456	0.7835	-0.702
Mof_O 	O 	0.7617	0.8948	0.14459	-0.604
Mof_O 	O 	0.2472	0.1241	0.0495	-0.654
Mof_O 	O 	0.7143	0.6876	0.5817	-0.826
Mof_O 	O 	0.2472	0.1241	0.4505	-0.654
Mof_O 	O 	0.2559	0.2912	0.67876	-0.895
Mof_O 	O 	0.2384	0.2666	0.21728	-0.923
Mof_O 	O 	0.5405	0.1494	0.4512	-0.737
Mof_O 	O 	0.2528	0.6241	0.0495	-0.656
Mof_O 	O 	0.2143	0.8124	0.4183	-0.827
Mof_O 	O 	0.7472	0.3759	0.9505	-0.656
Mof_O 	O 	0.7559	0.2088	0.32124	-0.896
Mof_O 	O 	0.164	0.9997	0.0487	-0.52
Mof_O 	O 	0.245	0.285	0.61322	-0.849
Mof_O 	O 	0.2617	0.6052	0.64459	-0.606
Mof_O 	O 	0.5251	0.1603	0.8489	-0.779
Mof_O 	O 	0.262	0.2959	0.0167	-0.828
Mof_O 	O 	0.8534	0.5399	0.0473	-0.453
Mof_O 	O 	0.2559	0.2912	0.82124	-0.895
Mof_O 	O 	0.62	0.8406	0.48393	-0.671
Mof_O 	O 	0.62	0.8406	0.01607	-0.671
Mof_O 	O 	0.1464	0.6266	0.18302	-0.651
Mof_O 	O 	0.6693	0.5275	0.1433	-0.5
Mof_O 	O 	0.1211	0.6602	0.5827	-0.68
Mof_O 	O 	0.3536	0.1266	0.31698	-0.651
Mof_O 	O 	0.8536	0.3734	0.81698	-0.651
Mof_O 	O 	0.12	0.6594	0.98393	-0.672
Mof_O 	O 	0.1743	0.9478	0.25	-0.503
Mof_O 	O 	0.4802	0.8502	0.75	-0.774
Mof_O 	O 	0.2616	0.7666	0.21728	-0.923
Mof_O 	O 	0.0405	0.3506	0.9512	-0.738
Mof_O 	O 	0.6435	0.0575	0.25	-0.543
Mof_O 	O 	0.5251	0.1603	0.6511	-0.779
Mof_O 	O 	0.1693	0.9725	0.6433	-0.494
Mof_O 	O 	0.8565	0.5575	0.25	-0.543
Mof_O 	O 	0.3789	0.1602	0.5827	-0.679
Mof_O 	O 	0.1427	0.4343	0.1477	-0.538
Mof_O 	O 	0.88	0.3406	0.01607	-0.672
Mof_O 	O 	0.738	0.7041	0.9833	-0.828
Mof_O 	O 	0.7857	0.1876	0.5817	-0.827
Mof_O 	O 	0.6693	0.5275	0.3567	-0.5
Mof_O 	O 	0.3257	0.4478	0.25	-0.503
Mof_O 	O 	0.6427	0.0657	0.8523	-0.537
Mof_O 	O 	0.2857	0.3124	0.4183	-0.826
Mof_O 	O 	0.12	0.6594	0.51607	-0.671
Mof_O 	O 	0.336	0.4997	0.4513	-0.525
Mof_O 	O 	0.2441	0.7912	0.67876	-0.896
Mof_O 	O 	0.738	0.7041	0.5167	-0.829
Mof_O 	O 	0.255	0.785	0.61322	-0.85
Mof_O 	O 	0.7528	0.8759	0.5495	-0.654
Mof_O 	O 	0.7616	0.7334	0.71728	-0.923
Mof_O 	O 	0.2616	0.7666	0.28272	-0.923
Mof_O 	O 	0.2383	0.1052	0.85541	-0.604
Mof_O 	O 	0.6211	0.8398	0.4173	-0.679
Mof_O 	O 	0.3643	0.1516	0.11721	-0.724
Mof_O 	O 	0.8503	0.3544	0.2165	-0.702
Mof_O 	O 	0.2617	0.6052	0.85541	-0.606
Mof_O 	O 	0.8536	0.3734	0.68302	-0.651
Mof_O 	O 	0.5405	0.1494	0.0488	-0.737
Mof_O 	O 	0.4595	0.8506	0.5488	-0.737
Mof_O 	O 	0.2383	0.1052	0.64459	-0.604
Mof_O 	O 	0.8789	0.3398	0.4173	-0.68
Mof_O 	O 	0.6357	0.8484	0.61721	-0.724
Mof_O 	O 	0.164	0.9997	0.4513	-0.52
Mof_O 	O 	0.755	0.715	0.11322	-0.849
Mof_O 	O 	0.8307	0.0275	0.1433	-0.494
Mof_O 	O 	0.836	0.0003	0.9513	-0.52
Mof_O 	O 	0.7663	0.919	0.75	-0.552
Mof_O 	O 	0.7616	0.7334	0.78272	-0.923
Mof_O 	O 	0.1435	0.4425	0.75	-0.543
Mof_O 	O 	0.3307	0.4725	0.6433	-0.5
Mof_O 	O 	0.8789	0.3398	0.0827	-0.68
Mof_O 	O 	0.0405	0.3506	0.5488	-0.738
Mof_O 	O 	0.1693	0.9725	0.8567	-0.494
Mof_O 	O 	0.3536	0.1266	0.18302	-0.651
Mof_O 	O 	0.8643	0.3484	0.61721	-0.724
Mof_O 	O 	0.2441	0.7912	0.82124	-0.896
Mof_O 	O 	0.7383	0.3948	0.14459	-0.606
Mof_O 	O 	0.3789	0.1602	0.9173	-0.679
Mof_O 	O 	0.7441	0.7088	0.32124	-0.895
Mof_O 	O 	0.7857	0.1876	0.9183	-0.827
Mof_O 	O 	0.8257	0.0522	0.75	-0.503
Mof_O 	O 	0.1357	0.6516	0.38279	-0.724
Mof_O 	O 	0.7143	0.6876	0.9183	-0.826
Mof_O 	O 	0.8643	0.3484	0.88279	-0.724
Mof_O 	O 	0.6464	0.8734	0.81698	-0.651
Mof_O 	O 	0.4749	0.8397	0.3489	-0.779
Mof_O 	O 	0.38	0.1594	0.51607	-0.671
Mof_O 	O 	0.9595	0.6494	0.4512	-0.738
Mof_O 	O 	0.6427	0.0657	0.6477	-0.537
Mof_O 	O 	0.4595	0.8506	0.9512	-0.737
Mof_O 	O 	0.1464	0.6266	0.31698	-0.651
Mof_O 	O 	0.1466	0.4601	0.5473	-0.453
Mof_O 	O 	0.7528	0.8759	0.9505	-0.654
Mof_O 	O 	0.238	0.7959	0.4833	-0.83
Mof_O 	O 	0.6357	0.8484	0.88279	-0.724
Mof_O 	O 	0.762	0.2041	0.9833	-0.83
Mof_O 	O 	0.3643	0.1516	0.38279	-0.724
Mof_O 	O 	0.7384	0.2334	0.71728	-0.923
Mof_O 	O 	0.0251	0.3397	0.3489	-0.78
Mof_O 	O 	0.336	0.4997	0.0487	-0.525
Mof_O 	O 	0.6211	0.8398	0.0827	-0.679
Mof_O 	O 	0.2337	0.081	0.25	-0.552
Mof_O 	O 	0.7472	0.3759	0.5495	-0.656
_end
