data_functionalizedCrystal
_audit_creation_method	'EQeq! by Chris Wilmer'
_symmetry_space_group_name_H-M	'P1'
_symmetry_Int_Tables_number	1
_symmetry_cell_setting	triclinic
loop_
_symmetry_equiv_pos_as_xyz
  x,y,z
_cell_length_a	26.865
_cell_length_b	12.937
_cell_length_c	23.858
_cell_angle_alpha	90
_cell_angle_beta	109.571
_cell_angle_gamma	90
loop_
_atom_site_label
_atom_site_type_symbol
_atom_site_fract_x
_atom_site_fract_y
_atom_site_fract_z
_atom_site_charge
Mof_C 	C 	0.1155	0.1536	0.7783	0.319
Mof_N 	N 	0.74038	0.5202	0.7573	-0.159
Mof_C 	C 	0.7677	0.6035	0.7849	0.082
Mof_H 	H 	0.7496	0.6657	0.7826	0.021
Mof_C 	C 	0.767	0.4317	0.7613	0.088
Mof_H 	H 	0.7488	0.3735	0.7423	0.002
Mof_Cd	Cd	0.15225	0.96753	0.20671	0.409
Mof_N 	N 	0.01608	0.5001	0.9086	-0.135
Mof_C 	C 	0.01555	0.6455	0.9705	0.028
Mof_C 	C 	0.98628	0.5708	0.9236	0.085
Mof_C 	C 	0.90605	0.505	0.8517	0.055
Mof_C 	C 	0.93144	0.5751	0.8965	-0.132
Mof_H 	H 	0.9119	0.6246	0.9083	0.075
Mof_C 	C 	0.1023	0.8553	0.1076	0.298
Mof_C 	C 	0.0097	0.2537	0.8357	-0.096
Mof_H 	H 	0.9781	0.2304	0.8392	0.075
Mof_C 	C 	0.0668	0.6222	0.0069	-0.082
Mof_H 	H 	0.0823	0.5604	0.0017	0.071
Mof_C 	C 	0.9937	0.7401	0.9782	-0.084
Mof_H 	H 	0.9598	0.7573	0.9537	0.063
Mof_C 	C 	0.93744	0.4312	0.8377	-0.133
Mof_H 	H 	0.9223	0.3818	0.8086	0.084
Mof_C 	C 	0.095	0.6905	0.0509	0.014
Mof_H 	H 	0.129	0.6738	0.0753	0.043
Mof_C 	C 	0.99164	0.4316	0.8674	0.089
Mof_C 	C 	0.84852	0.51	0.8207	0.062
Mof_C 	C 	0.0726	0.7833	0.0587	-0.08
Mof_C 	C 	0.8201	0.6013	0.816	-0.136
Mof_H 	H 	0.8372	0.6611	0.8342	0.078
Mof_C 	C 	0.82011	0.423	0.7923	-0.142
Mof_H 	H 	0.8371	0.3597	0.7944	0.101
Mof_C 	C 	0.0217	0.8083	0.0215	0.015
Mof_H 	H 	0.0067	0.8712	0.0261	0.045
Mof_C 	C 	0.0866	0.2207	0.809	-0.093
Mof_C 	C 	0.0742	0.3871	0.8468	-0.093
Mof_H 	H 	0.0863	0.4536	0.8587	0.074
Mof_C 	C 	0.02609	0.3547	0.8507	0.035
Mof_C 	C 	0.1038	0.3206	0.8254	0.023
Mof_H 	H 	0.1356	0.343	0.8221	0.037
Mof_C 	C 	0.0404	0.188	0.8157	0.028
Mof_H 	H 	0.0296	0.12	0.8065	0.046
Mof_O 	O 	0.14578	0.8282	0.1421	-0.275
Mof_O 	O 	0.08154	0.9418	0.1124	-0.265
Mof_O 	O 	0.15635	0.1859	0.7723	-0.277
Mof_O 	O 	0.0951	0.0699	0.7568	-0.281
Mof_C 	C 	0.6155	0.6536	0.7783	0.32
Mof_N 	N 	0.24038	0.0202	0.7573	-0.158
Mof_C 	C 	0.2677	0.1035	0.7849	0.083
Mof_H 	H 	0.2496	0.1657	0.7826	0.022
Mof_C 	C 	0.267	0.9317	0.7613	0.089
Mof_H 	H 	0.2488	0.8735	0.7423	0.003
Mof_Cd	Cd	0.65225	0.46753	0.20671	0.41
Mof_N 	N 	0.51608	0.0001	0.9086	-0.134
Mof_C 	C 	0.51555	0.1455	0.9705	0.028
Mof_C 	C 	0.48628	0.0708	0.9236	0.087
Mof_C 	C 	0.40605	0.005	0.8517	0.057
Mof_C 	C 	0.43144	0.0751	0.8965	-0.131
Mof_H 	H 	0.4119	0.1246	0.9083	0.076
Mof_C 	C 	0.6023	0.3553	0.1076	0.298
Mof_C 	C 	0.5097	0.7537	0.8357	-0.095
Mof_H 	H 	0.4781	0.7304	0.8392	0.077
Mof_C 	C 	0.5668	0.1222	0.0069	-0.08
Mof_H 	H 	0.5823	0.0604	0.0017	0.072
Mof_C 	C 	0.4937	0.2401	0.9782	-0.081
Mof_H 	H 	0.4598	0.2573	0.9537	0.063
Mof_C 	C 	0.43744	0.9312	0.8377	-0.133
Mof_H 	H 	0.4223	0.8818	0.8086	0.084
Mof_C 	C 	0.595	0.1905	0.0509	0.014
Mof_H 	H 	0.629	0.1738	0.0753	0.043
Mof_C 	C 	0.49164	0.9316	0.8674	0.089
Mof_C 	C 	0.34852	0.01	0.8207	0.062
Mof_C 	C 	0.5726	0.2833	0.0587	-0.079
Mof_C 	C 	0.3201	0.1013	0.816	-0.136
Mof_H 	H 	0.3372	0.1611	0.8342	0.078
Mof_C 	C 	0.32011	0.923	0.7923	-0.142
Mof_H 	H 	0.3371	0.8597	0.7944	0.101
Mof_C 	C 	0.5217	0.3083	0.0215	0.013
Mof_H 	H 	0.5067	0.3712	0.0261	0.046
Mof_C 	C 	0.5866	0.7207	0.809	-0.093
Mof_C 	C 	0.5742	0.8871	0.8468	-0.093
Mof_H 	H 	0.5863	0.9536	0.8587	0.074
Mof_C 	C 	0.52609	0.8547	0.8507	0.035
Mof_C 	C 	0.6038	0.8206	0.8254	0.023
Mof_H 	H 	0.6356	0.843	0.8221	0.037
Mof_C 	C 	0.5404	0.688	0.8157	0.028
Mof_H 	H 	0.5296	0.62	0.8065	0.046
Mof_O 	O 	0.64578	0.3282	0.1421	-0.275
Mof_O 	O 	0.58154	0.4418	0.1124	-0.265
Mof_O 	O 	0.65635	0.6859	0.7723	-0.277
Mof_O 	O 	0.5951	0.5699	0.7568	-0.281
Mof_C 	C 	0.1155	0.8464	0.2783	0.32
Mof_N 	N 	0.74038	0.4798	0.2573	-0.158
Mof_C 	C 	0.7677	0.3965	0.2849	0.083
Mof_H 	H 	0.7496	0.3343	0.2826	0.022
Mof_C 	C 	0.767	0.5683	0.2613	0.089
Mof_H 	H 	0.7488	0.6265	0.2423	0.003
Mof_Cd	Cd	0.15225	0.03247	0.70671	0.41
Mof_N 	N 	0.01608	0.4999	0.4086	-0.134
Mof_C 	C 	0.01555	0.3545	0.4705	0.027
Mof_C 	C 	0.98628	0.4292	0.4236	0.087
Mof_C 	C 	0.90605	0.495	0.3517	0.056
Mof_C 	C 	0.93144	0.4249	0.3965	-0.131
Mof_H 	H 	0.9119	0.3754	0.4083	0.076
Mof_C 	C 	0.1023	0.1447	0.6076	0.298
Mof_C 	C 	0.0097	0.7463	0.3357	-0.095
Mof_H 	H 	0.9781	0.7696	0.3392	0.077
Mof_C 	C 	0.0668	0.3778	0.5069	-0.08
Mof_H 	H 	0.0823	0.4396	0.5017	0.071
Mof_C 	C 	0.9937	0.2599	0.4782	-0.082
Mof_H 	H 	0.9598	0.2427	0.4537	0.063
Mof_C 	C 	0.93744	0.5688	0.3377	-0.133
Mof_H 	H 	0.9223	0.6182	0.3086	0.084
Mof_C 	C 	0.095	0.3095	0.5509	0.014
Mof_H 	H 	0.129	0.3262	0.5753	0.043
Mof_C 	C 	0.99164	0.5684	0.3674	0.089
Mof_C 	C 	0.84852	0.49	0.3207	0.062
Mof_C 	C 	0.0726	0.2167	0.5587	-0.079
Mof_C 	C 	0.8201	0.3987	0.316	-0.136
Mof_H 	H 	0.8372	0.3389	0.3342	0.078
Mof_C 	C 	0.82011	0.577	0.2923	-0.142
Mof_H 	H 	0.8371	0.6403	0.2944	0.101
Mof_C 	C 	0.0217	0.1917	0.5215	0.014
Mof_H 	H 	0.0067	0.1288	0.5261	0.046
Mof_C 	C 	0.0866	0.7793	0.309	-0.094
Mof_C 	C 	0.0742	0.6129	0.3468	-0.093
Mof_H 	H 	0.0863	0.5464	0.3587	0.074
Mof_C 	C 	0.02609	0.6453	0.3507	0.035
Mof_C 	C 	0.1038	0.6794	0.3254	0.023
Mof_H 	H 	0.1356	0.657	0.3221	0.037
Mof_C 	C 	0.0404	0.812	0.3157	0.028
Mof_H 	H 	0.0296	0.88	0.3065	0.046
Mof_O 	O 	0.14578	0.1718	0.6421	-0.275
Mof_O 	O 	0.08154	0.0582	0.6124	-0.265
Mof_O 	O 	0.15635	0.8141	0.2723	-0.277
Mof_O 	O 	0.0951	0.9301	0.2568	-0.281
Mof_C 	C 	0.6155	0.3464	0.2783	0.32
Mof_N 	N 	0.24038	0.9798	0.2573	-0.158
Mof_C 	C 	0.2677	0.8965	0.2849	0.083
Mof_H 	H 	0.2496	0.8343	0.2826	0.022
Mof_C 	C 	0.267	0.0683	0.2613	0.089
Mof_H 	H 	0.2488	0.1265	0.2423	0.003
Mof_Cd	Cd	0.65225	0.53247	0.70671	0.41
Mof_N 	N 	0.51608	0.9999	0.4086	-0.134
Mof_C 	C 	0.51555	0.8545	0.4705	0.027
Mof_C 	C 	0.48628	0.9292	0.4236	0.087
Mof_C 	C 	0.40605	0.995	0.3517	0.056
Mof_C 	C 	0.43144	0.9249	0.3965	-0.131
Mof_H 	H 	0.4119	0.8754	0.4083	0.076
Mof_C 	C 	0.6023	0.6447	0.6076	0.298
Mof_C 	C 	0.5097	0.2463	0.3357	-0.095
Mof_H 	H 	0.4781	0.2696	0.3392	0.077
Mof_C 	C 	0.5668	0.8778	0.5069	-0.08
Mof_H 	H 	0.5823	0.9396	0.5017	0.071
Mof_C 	C 	0.4937	0.7599	0.4782	-0.082
Mof_H 	H 	0.4598	0.7427	0.4537	0.063
Mof_C 	C 	0.43744	0.0688	0.3377	-0.133
Mof_H 	H 	0.4223	0.1182	0.3086	0.084
Mof_C 	C 	0.595	0.8095	0.5509	0.014
Mof_H 	H 	0.629	0.8262	0.5753	0.043
Mof_C 	C 	0.49164	0.0684	0.3674	0.089
Mof_C 	C 	0.34852	0.99	0.3207	0.062
Mof_C 	C 	0.5726	0.7167	0.5587	-0.079
Mof_C 	C 	0.3201	0.8987	0.316	-0.136
Mof_H 	H 	0.3372	0.8389	0.3342	0.078
Mof_C 	C 	0.32011	0.077	0.2923	-0.142
Mof_H 	H 	0.3371	0.1403	0.2944	0.101
Mof_C 	C 	0.5217	0.6917	0.5215	0.014
Mof_H 	H 	0.5067	0.6288	0.5261	0.046
Mof_C 	C 	0.5866	0.2793	0.309	-0.093
Mof_C 	C 	0.5742	0.1129	0.3468	-0.093
Mof_H 	H 	0.5863	0.0464	0.3587	0.074
Mof_C 	C 	0.52609	0.1453	0.3507	0.035
Mof_C 	C 	0.6038	0.1794	0.3254	0.023
Mof_H 	H 	0.6356	0.157	0.3221	0.037
Mof_C 	C 	0.5404	0.312	0.3157	0.028
Mof_H 	H 	0.5296	0.38	0.3065	0.046
Mof_O 	O 	0.64578	0.6718	0.6421	-0.275
Mof_O 	O 	0.58154	0.5582	0.6124	-0.265
Mof_O 	O 	0.65635	0.3141	0.2723	-0.277
Mof_O 	O 	0.5951	0.4301	0.2568	-0.281
Mof_C 	C 	0.8845	0.1536	0.7217	0.32
Mof_N 	N 	0.25962	0.5202	0.7427	-0.158
Mof_C 	C 	0.2323	0.6035	0.7151	0.083
Mof_H 	H 	0.2504	0.6657	0.7174	0.022
Mof_C 	C 	0.233	0.4317	0.7387	0.089
Mof_H 	H 	0.2512	0.3735	0.7577	0.003
Mof_Cd	Cd	0.84775	0.96753	0.29329	0.41
Mof_N 	N 	0.98392	0.5001	0.5914	-0.134
Mof_C 	C 	0.98445	0.6455	0.5295	0.027
Mof_C 	C 	0.01372	0.5708	0.5764	0.087
Mof_C 	C 	0.09395	0.505	0.6483	0.056
Mof_C 	C 	0.06856	0.5751	0.6035	-0.131
Mof_H 	H 	0.0881	0.6246	0.5917	0.076
Mof_C 	C 	0.8977	0.8553	0.3924	0.298
Mof_C 	C 	0.9903	0.2537	0.6643	-0.095
Mof_H 	H 	0.0219	0.2304	0.6608	0.077
Mof_C 	C 	0.9332	0.6222	0.4931	-0.08
Mof_H 	H 	0.9177	0.5604	0.4983	0.071
Mof_C 	C 	0.0063	0.7401	0.5218	-0.082
Mof_H 	H 	0.0402	0.7573	0.5463	0.063
Mof_C 	C 	0.06256	0.4312	0.6623	-0.133
Mof_H 	H 	0.0777	0.3818	0.6914	0.084
Mof_C 	C 	0.905	0.6905	0.4491	0.014
Mof_H 	H 	0.871	0.6738	0.4247	0.043
Mof_C 	C 	0.00836	0.4316	0.6326	0.089
Mof_C 	C 	0.15148	0.51	0.6793	0.062
Mof_C 	C 	0.9274	0.7833	0.4413	-0.079
Mof_C 	C 	0.1799	0.6013	0.684	-0.136
Mof_H 	H 	0.1628	0.6611	0.6658	0.078
Mof_C 	C 	0.17989	0.423	0.7077	-0.142
Mof_H 	H 	0.1629	0.3597	0.7056	0.101
Mof_C 	C 	0.9783	0.8083	0.4785	0.014
Mof_H 	H 	0.9933	0.8712	0.4739	0.046
Mof_C 	C 	0.9134	0.2207	0.691	-0.094
Mof_C 	C 	0.9258	0.3871	0.6532	-0.093
Mof_H 	H 	0.9137	0.4536	0.6413	0.074
Mof_C 	C 	0.97391	0.3547	0.6493	0.035
Mof_C 	C 	0.8962	0.3206	0.6746	0.023
Mof_H 	H 	0.8644	0.343	0.6779	0.037
Mof_C 	C 	0.9596	0.188	0.6843	0.028
Mof_H 	H 	0.9704	0.12	0.6935	0.046
Mof_O 	O 	0.85422	0.8282	0.3579	-0.275
Mof_O 	O 	0.91846	0.9418	0.3876	-0.265
Mof_O 	O 	0.84365	0.1859	0.7277	-0.277
Mof_O 	O 	0.9049	0.0699	0.7432	-0.281
Mof_C 	C 	0.3845	0.6536	0.7217	0.32
Mof_N 	N 	0.75962	0.0202	0.7427	-0.158
Mof_C 	C 	0.7323	0.1035	0.7151	0.083
Mof_H 	H 	0.7504	0.1657	0.7174	0.022
Mof_C 	C 	0.733	0.9317	0.7387	0.089
Mof_H 	H 	0.7512	0.8735	0.7577	0.003
Mof_Cd	Cd	0.34775	0.46753	0.29329	0.41
Mof_N 	N 	0.48392	0.0001	0.5914	-0.134
Mof_C 	C 	0.48445	0.1455	0.5295	0.027
Mof_C 	C 	0.51372	0.0708	0.5764	0.087
Mof_C 	C 	0.59395	0.005	0.6483	0.056
Mof_C 	C 	0.56856	0.0751	0.6035	-0.131
Mof_H 	H 	0.5881	0.1246	0.5917	0.076
Mof_C 	C 	0.3977	0.3553	0.3924	0.298
Mof_C 	C 	0.4903	0.7537	0.6643	-0.095
Mof_H 	H 	0.5219	0.7304	0.6608	0.077
Mof_C 	C 	0.4332	0.1222	0.4931	-0.08
Mof_H 	H 	0.4177	0.0604	0.4983	0.071
Mof_C 	C 	0.5063	0.2401	0.5218	-0.082
Mof_H 	H 	0.5402	0.2573	0.5463	0.063
Mof_C 	C 	0.56256	0.9312	0.6623	-0.133
Mof_H 	H 	0.5777	0.8818	0.6914	0.084
Mof_C 	C 	0.405	0.1905	0.4491	0.014
Mof_H 	H 	0.371	0.1738	0.4247	0.043
Mof_C 	C 	0.50836	0.9316	0.6326	0.089
Mof_C 	C 	0.65148	0.01	0.6793	0.062
Mof_C 	C 	0.4274	0.2833	0.4413	-0.079
Mof_C 	C 	0.6799	0.1013	0.684	-0.136
Mof_H 	H 	0.6628	0.1611	0.6658	0.078
Mof_C 	C 	0.67989	0.923	0.7077	-0.142
Mof_H 	H 	0.6629	0.8597	0.7056	0.101
Mof_C 	C 	0.4783	0.3083	0.4785	0.014
Mof_H 	H 	0.4933	0.3712	0.4739	0.046
Mof_C 	C 	0.4134	0.7207	0.691	-0.093
Mof_C 	C 	0.4258	0.8871	0.6532	-0.093
Mof_H 	H 	0.4137	0.9536	0.6413	0.074
Mof_C 	C 	0.47391	0.8547	0.6493	0.035
Mof_C 	C 	0.3962	0.8206	0.6746	0.023
Mof_H 	H 	0.3644	0.843	0.6779	0.037
Mof_C 	C 	0.4596	0.688	0.6843	0.028
Mof_H 	H 	0.4704	0.62	0.6935	0.046
Mof_O 	O 	0.35422	0.3282	0.3579	-0.275
Mof_O 	O 	0.41846	0.4418	0.3876	-0.265
Mof_O 	O 	0.34365	0.6859	0.7277	-0.277
Mof_O 	O 	0.4049	0.5699	0.7432	-0.281
Mof_C 	C 	0.8845	0.8464	0.2217	0.32
Mof_N 	N 	0.25962	0.4798	0.2427	-0.158
Mof_C 	C 	0.2323	0.3965	0.2151	0.083
Mof_H 	H 	0.2504	0.3343	0.2174	0.022
Mof_C 	C 	0.233	0.5683	0.2387	0.089
Mof_H 	H 	0.2512	0.6265	0.2577	0.003
Mof_Cd	Cd	0.84775	0.03247	0.79329	0.41
Mof_N 	N 	0.98392	0.4999	0.0914	-0.134
Mof_C 	C 	0.98445	0.3545	0.0295	0.029
Mof_C 	C 	0.01372	0.4292	0.0764	0.086
Mof_C 	C 	0.09395	0.495	0.1483	0.056
Mof_C 	C 	0.06856	0.4249	0.1035	-0.131
Mof_H 	H 	0.0881	0.3754	0.0917	0.076
Mof_C 	C 	0.8977	0.1447	0.8924	0.299
Mof_C 	C 	0.9903	0.7463	0.1643	-0.095
Mof_H 	H 	0.0219	0.7696	0.1608	0.076
Mof_C 	C 	0.9332	0.3778	0.9931	-0.081
Mof_H 	H 	0.9177	0.4396	0.9983	0.072
Mof_C 	C 	0.0063	0.2599	0.0218	-0.083
Mof_H 	H 	0.0402	0.2427	0.0463	0.064
Mof_C 	C 	0.06256	0.5688	0.1623	-0.133
Mof_H 	H 	0.0777	0.6182	0.1914	0.084
Mof_C 	C 	0.905	0.3095	0.9491	0.014
Mof_H 	H 	0.871	0.3262	0.9247	0.043
Mof_C 	C 	0.00836	0.5684	0.1326	0.089
Mof_C 	C 	0.15148	0.49	0.1793	0.062
Mof_C 	C 	0.9274	0.2167	0.9413	-0.08
Mof_C 	C 	0.1799	0.3987	0.184	-0.136
Mof_H 	H 	0.1628	0.3389	0.1658	0.078
Mof_C 	C 	0.17989	0.577	0.2077	-0.142
Mof_H 	H 	0.1629	0.6403	0.2056	0.101
Mof_C 	C 	0.9783	0.1917	0.9785	0.015
Mof_H 	H 	0.9933	0.1288	0.9739	0.045
Mof_C 	C 	0.9134	0.7793	0.191	-0.093
Mof_C 	C 	0.9258	0.6129	0.1532	-0.093
Mof_H 	H 	0.9137	0.5464	0.1413	0.074
Mof_C 	C 	0.97391	0.6453	0.1493	0.035
Mof_C 	C 	0.8962	0.6794	0.1746	0.023
Mof_H 	H 	0.8644	0.657	0.1779	0.037
Mof_C 	C 	0.9596	0.812	0.1843	0.028
Mof_H 	H 	0.9704	0.88	0.1935	0.046
Mof_O 	O 	0.85422	0.1718	0.8579	-0.275
Mof_O 	O 	0.91846	0.0582	0.8876	-0.265
Mof_O 	O 	0.84365	0.8141	0.2277	-0.277
Mof_O 	O 	0.9049	0.9301	0.2432	-0.281
Mof_C 	C 	0.3845	0.3464	0.2217	0.32
Mof_N 	N 	0.75962	0.9798	0.2427	-0.158
Mof_C 	C 	0.7323	0.8965	0.2151	0.083
Mof_H 	H 	0.7504	0.8343	0.2174	0.022
Mof_C 	C 	0.733	0.0683	0.2387	0.089
Mof_H 	H 	0.7512	0.1265	0.2577	0.003
Mof_Cd	Cd	0.34775	0.53247	0.79329	0.41
Mof_N 	N 	0.48392	0.9999	0.0914	-0.134
Mof_C 	C 	0.48445	0.8545	0.0295	0.028
Mof_C 	C 	0.51372	0.9292	0.0764	0.087
Mof_C 	C 	0.59395	0.995	0.1483	0.057
Mof_C 	C 	0.56856	0.9249	0.1035	-0.131
Mof_H 	H 	0.5881	0.8754	0.0917	0.076
Mof_C 	C 	0.3977	0.6447	0.8924	0.298
Mof_C 	C 	0.4903	0.2463	0.1643	-0.095
Mof_H 	H 	0.5219	0.2696	0.1608	0.077
Mof_C 	C 	0.4332	0.8778	0.9931	-0.08
Mof_H 	H 	0.4177	0.9396	0.9983	0.072
Mof_C 	C 	0.5063	0.7599	0.0218	-0.081
Mof_H 	H 	0.5402	0.7427	0.0463	0.063
Mof_C 	C 	0.56256	0.0688	0.1623	-0.133
Mof_H 	H 	0.5777	0.1182	0.1914	0.084
Mof_C 	C 	0.405	0.8095	0.9491	0.014
Mof_H 	H 	0.371	0.8262	0.9247	0.043
Mof_C 	C 	0.50836	0.0684	0.1326	0.089
Mof_C 	C 	0.65148	0.99	0.1793	0.062
Mof_C 	C 	0.4274	0.7167	0.9413	-0.079
Mof_C 	C 	0.6799	0.8987	0.184	-0.136
Mof_H 	H 	0.6628	0.8389	0.1658	0.078
Mof_C 	C 	0.67989	0.077	0.2077	-0.142
Mof_H 	H 	0.6629	0.1403	0.2056	0.101
Mof_C 	C 	0.4783	0.6917	0.9785	0.013
Mof_H 	H 	0.4933	0.6288	0.9739	0.046
Mof_C 	C 	0.4134	0.2793	0.191	-0.093
Mof_C 	C 	0.4258	0.1129	0.1532	-0.093
Mof_H 	H 	0.4137	0.0464	0.1413	0.074
Mof_C 	C 	0.47391	0.1453	0.1493	0.035
Mof_C 	C 	0.3962	0.1794	0.1746	0.023
Mof_H 	H 	0.3644	0.157	0.1779	0.037
Mof_C 	C 	0.4596	0.312	0.1843	0.028
Mof_H 	H 	0.4704	0.38	0.1935	0.046
Mof_O 	O 	0.35422	0.6718	0.8579	-0.275
Mof_O 	O 	0.41846	0.5582	0.8876	-0.265
Mof_O 	O 	0.34365	0.3141	0.2277	-0.277
Mof_O 	O 	0.4049	0.4301	0.2432	-0.281
_end
