data_functionalizedCrystal
_audit_creation_method	'EQeq! by Chris Wilmer'
_symmetry_space_group_name_H-M	'P1'
_symmetry_Int_Tables_number	1
_symmetry_cell_setting	triclinic
loop_
_symmetry_equiv_pos_as_xyz
  x,y,z
_cell_length_a	9.9033
_cell_length_b	9.9033
_cell_length_c	14.626
_cell_angle_alpha	84.6672
_cell_angle_beta	71.1235
_cell_angle_gamma	112.639
loop_
_atom_site_label
_atom_site_type_symbol
_atom_site_fract_x
_atom_site_fract_y
_atom_site_fract_z
_atom_site_charge
Mof_La	La	0.72795	0.46278	0.98594	2.093
Mof_La	La	0.94872	0.71389	0.51406	2.079
Mof_La	La	0.27205	0.53722	0.01406	2.093
Mof_La	La	0.05128	0.28611	0.48594	2.079
Mof_H 	H 	0.986	0.887	0.869	-0.062
Mof_H 	H 	0.058	0.14	0.8	0.113
Mof_H 	H 	0.275	0.333	0.8	-0.054
Mof_H 	H 	0.345	0.012	0.947	-0.056
Mof_H 	H 	0.256	0.855	0.631	-0.053
Mof_H 	H 	0.44	0.858	0.7	0.106
Mof_H 	H 	0.633	0.075	0.7	-0.05
Mof_H 	H 	0.459	0.292	0.553	-0.055
Mof_H 	H 	0.014	0.113	0.131	-0.063
Mof_H 	H 	0.942	0.86	0.2	0.112
Mof_H 	H 	0.725	0.667	0.2	-0.054
Mof_H 	H 	0.655	0.988	0.053	-0.056
Mof_H 	H 	0.744	0.145	0.369	-0.053
Mof_H 	H 	0.56	0.142	0.3	0.106
Mof_H 	H 	0.367	0.925	0.3	-0.05
Mof_H 	H 	0.541	0.708	0.447	-0.055
Mof_C 	C 	0.3266	0.189	0.885	-0.272
Mof_C 	C 	0.1005	0.7639	0.9706	0.523
Mof_C 	C 	0.4598	0.3107	0.8995	0.468
Mof_C 	C 	0.2374	0.2243	0.8393	0.173
Mof_C 	C 	0.2859	0.0383	0.9236	0.215
Mof_C 	C 	0.8318	0.6772	0.7606	0.269
Mof_C 	C 	0.0641	0.9617	0.8744	0.235
Mof_C 	C 	0.1099	0.1103	0.8316	-0.293
Mof_C 	C 	0.1521	0.9247	0.9212	-0.299
Mof_C 	C 	0.574	0.2116	0.615	-0.266
Mof_C 	C 	0.2345	0.0711	0.5294	0.517
Mof_C 	C 	0.7102	0.3593	0.6005	0.465
Mof_C 	C 	0.5636	0.0767	0.6607	0.164
Mof_C 	C 	0.4619	0.2095	0.5764	0.213
Mof_C 	C 	0.9378	0.5924	0.7394	0.269
Mof_C 	C 	0.3361	0.9385	0.6256	0.214
Mof_C 	C 	0.4419	0.9415	0.6684	-0.275
Mof_C 	C 	0.3459	0.0733	0.5788	-0.294
Mof_C 	C 	0.6734	0.811	0.115	-0.272
Mof_C 	C 	0.8995	0.2361	0.0294	0.523
Mof_C 	C 	0.5402	0.6893	0.1005	0.468
Mof_C 	C 	0.7626	0.7757	0.1607	0.173
Mof_C 	C 	0.7141	0.9617	0.0764	0.215
Mof_C 	C 	0.1682	0.3228	0.2394	0.269
Mof_C 	C 	0.9359	0.0383	0.1256	0.235
Mof_C 	C 	0.8901	0.8897	0.1684	-0.293
Mof_C 	C 	0.8479	0.0753	0.0788	-0.299
Mof_C 	C 	0.426	0.7884	0.385	-0.266
Mof_C 	C 	0.7655	0.9289	0.4706	0.517
Mof_C 	C 	0.2898	0.6407	0.3995	0.465
Mof_C 	C 	0.4364	0.9233	0.3393	0.164
Mof_C 	C 	0.5381	0.7905	0.4236	0.213
Mof_C 	C 	0.0622	0.4076	0.2606	0.269
Mof_C 	C 	0.6639	0.0615	0.3744	0.214
Mof_C 	C 	0.5581	0.0585	0.3316	-0.275
Mof_C 	C 	0.6541	0.9267	0.4212	-0.294
Mof_O 	O 	0.76083	0.66856	0.85061	-0.434
Mof_O 	O 	0.58483	0.29797	0.8892	-0.48
Mof_O 	O 	0.97707	0.66393	0.969	-0.576
Mof_O 	O 	0.43866	0.42134	0.9262	-0.593
Mof_O 	O 	0.18557	0.73793	0.0113	-0.547
Mof_O 	O 	0.82807	0.74935	0.68778	-0.419
Mof_O 	O 	0.01917	0.61144	0.64939	-0.432
Mof_O 	O 	0.68717	0.47403	0.6108	-0.479
Mof_O 	O 	0.13293	0.94607	0.531	-0.571
Mof_O 	O 	0.84754	0.36486	0.5738	-0.589
Mof_O 	O 	0.24923	0.19687	0.4887	-0.549
Mof_O 	O 	0.93713	0.51585	0.81222	-0.417
Mof_O 	O 	0.23917	0.33144	0.14939	-0.434
Mof_O 	O 	0.41517	0.70203	0.1108	-0.48
Mof_O 	O 	0.02293	0.33607	0.031	-0.576
Mof_O 	O 	0.56134	0.57866	0.0738	-0.593
Mof_O 	O 	0.81443	0.26207	0.9887	-0.547
Mof_O 	O 	0.17193	0.25065	0.31222	-0.419
Mof_O 	O 	0.98083	0.38856	0.35061	-0.432
Mof_O 	O 	0.31283	0.52597	0.3892	-0.479
Mof_O 	O 	0.86707	0.05393	0.469	-0.571
Mof_O 	O 	0.15246	0.63514	0.4262	-0.589
Mof_O 	O 	0.75077	0.80313	0.5113	-0.549
Mof_O 	O 	0.06287	0.48415	0.18778	-0.417
_end
