data_functionalizedCrystal
_audit_creation_method	'EQeq! by Chris Wilmer'
_symmetry_space_group_name_H-M	'P1'
_symmetry_Int_Tables_number	1
_symmetry_cell_setting	triclinic
loop_
_symmetry_equiv_pos_as_xyz
  x,y,z
_cell_length_a	11.4393
_cell_length_b	24.6749
_cell_length_c	20.3245
_cell_angle_alpha	90
_cell_angle_beta	92.3471
_cell_angle_gamma	90
loop_
_atom_site_label
_atom_site_type_symbol
_atom_site_fract_x
_atom_site_fract_y
_atom_site_fract_z
_atom_site_charge
Mof_Co	Co	0.44476	0.50937	0.2638	1.162
Mof_O 	O 	0.4476	0.54463	0.35628	-0.427
Mof_O 	O 	0.4403	0.48149	0.16943	-0.43
Mof_N 	N 	0.6342	0.50885	0.26294	-0.226
Mof_O 	O 	0.4392	0.59571	0.24304	-0.453
Mof_N 	N 	0.5387	0.92852	0.69835	-0.226
Mof_N 	N 	0.2547	0.50366	0.26588	-0.221
Mof_C 	C 	0.4273	0.59431	0.36099	0.326
Mof_C 	C 	0.4417	0.50525	0.11468	0.344
Mof_C 	C 	0.6931	0.5142	0.2079	0.065
Mof_C 	C 	0.6974	0.5003	0.3192	0.063
Mof_H 	H 	0.5	0.6056	0.223	0.216
Mof_C 	C 	0.4203	0.629	0.29834	-0.036
Mof_O 	O 	0.4165	0.61951	0.41481	-0.42
Mof_O 	O 	0.4543	0.55515	0.10625	-0.431
Mof_C 	C 	0.4263	0.46817	0.0546	-0.061
Mof_H 	H 	0.6499	0.5202	0.1676	0.005
Mof_C 	C 	0.8137	0.5114	0.2067	-0.123
Mof_H 	H 	0.6571	0.4961	0.3588	0.002
Mof_C 	C 	0.8183	0.49741	0.3222	-0.121
Mof_H 	H 	0.4844	0.6566	0.3016	0.04
Mof_C 	C 	0.304	0.65884	0.2919	0.073
Mof_Co	Co	0.42515	0.59158	0.5102	1.158
Mof_Co	Co	0.44296	0.58768	0.01172	1.159
Mof_O 	O 	0.4161	0.50088	0.99655	-0.408
Mof_H 	H 	0.3527	0.4467	0.0585	0.05
Mof_C 	C 	0.5288	0.42941	0.0527	0.086
Mof_H 	H 	0.8517	0.515	0.1662	0.068
Mof_C 	C 	0.8787	0.50351	0.2646	0.048
Mof_H 	H 	0.8595	0.4913	0.3631	0.067
Mof_C 	C 	0.2121	0.6393	0.2526	-0.111
Mof_C 	C 	0.2881	0.7059	0.3285	-0.112
Mof_N 	N 	0.2349	0.59855	0.51147	-0.223
Mof_O 	O 	0.4406	0.55693	0.60427	-0.43
Mof_N 	N 	0.4334	0.67116	0.55227	-0.228
Mof_O 	O 	0.4042	0.50476	0.49331	-0.415
Mof_N 	N 	0.615	0.59677	0.50697	-0.224
Mof_N 	N 	0.6325	0.58825	0.00906	-0.222
Mof_O 	O 	0.4371	0.61401	0.91606	-0.423
Mof_N 	N 	0.457	0.66706	0.05336	-0.23
Mof_N 	N 	0.2524	0.59586	0.01249	-0.224
Mof_H 	H 	0.347	0.4983	0.9737	0.173
Mof_C 	C 	0.5178	0.3778	0.0783	-0.118
Mof_C 	C 	0.6339	0.4448	0.0271	-0.115
Mof_C 	C 	0.0091	0.50218	0.2654	0.046
Mof_H 	H 	0.2229	0.608	0.2263	0.077
Mof_C 	C 	0.103	0.6654	0.2512	0.021
Mof_H 	H 	0.3512	0.7206	0.3546	0.069
Mof_C 	C 	0.1785	0.7315	0.3267	0.018
Mof_C 	C 	0.1761	0.5826	0.5635	0.06
Mof_C 	C 	0.1716	0.62046	0.4606	0.055
Mof_C 	C 	0.4427	0.50659	0.61085	0.348
Mof_C 	C 	0.4173	0.67963	0.6159	0.063
Mof_C 	C 	0.4658	0.7144	0.5168	0.064
Mof_C 	C 	0.432	0.47085	0.5489	-0.069
Mof_H 	H 	0.333	0.497	0.476	0.182
Mof_C 	C 	0.6923	0.5818	0.9538	0.062
Mof_C 	C 	0.6949	0.60119	0.0646	0.061
Mof_C 	C 	0.4469	0.58978	0.8623	0.316
Mof_C 	C 	0.4102	0.67877	0.1109	0.067
Mof_C 	C 	0.5186	0.7062	0.0247	0.067
Mof_H 	H 	0.4459	0.3667	0.0958	0.069
Mof_C 	C 	0.6138	0.3416	0.0784	0.02
Mof_H 	H 	0.6415	0.4802	0.0094	0.075
Mof_C 	C 	0.7292	0.4093	0.0267	0.025
Mof_C 	C 	0.0747	0.51567	0.3211	-0.122
Mof_C 	C 	0.0688	0.48759	0.2093	-0.12
Mof_H 	H 	0.0404	0.6516	0.2239	0.02
Mof_C 	C 	0.0864	0.7103	0.2887	-0.094
Mof_H 	H 	0.1675	0.7635	0.3517	0.021
Mof_H 	H 	0.219	0.5685	0.6006	0.001
Mof_C 	C 	0.0553	0.5859	0.5658	-0.119
Mof_C 	C 	0.0508	0.62409	0.4592	-0.116
Mof_H 	H 	0.2119	0.634	0.4242	0.014
Mof_O 	O 	0.4519	0.48145	0.66462	-0.428
Mof_H 	H 	0.3922	0.65	0.6416	0.01
Mof_C 	C 	0.4351	0.72932	0.6466	-0.121
Mof_C 	C 	0.4845	0.7651	0.544	-0.12
Mof_H 	H 	0.4763	0.7098	0.4711	0.002
Mof_C 	C 	0.5443	0.43972	0.5412	0.106
Mof_H 	H 	0.3667	0.4444	0.5541	0.05
Mof_H 	H 	0.6498	0.5739	0.9138	0.007
Mof_C 	C 	0.8134	0.5861	0.9527	-0.122
Mof_H 	H 	0.6541	0.6073	0.1037	-0.001
Mof_C 	C 	0.8155	0.60602	0.0674	-0.121
Mof_O 	O 	0.4604	0.53954	0.85534	-0.415
Mof_C 	C 	0.4432	0.62591	0.8005	0.036
Mof_H 	H 	0.3651	0.6518	0.1314	0.007
Mof_C 	C 	0.4243	0.72813	0.1417	-0.122
Mof_C 	C 	0.5372	0.7565	0.0527	-0.122
Mof_H 	H 	0.5508	0.6988	0.9833	-0.001
Mof_H 	H 	0.6074	0.3063	0.0964	0.019
Mof_C 	C 	0.7173	0.3586	0.0518	-0.094
Mof_H 	H 	0.8011	0.4204	0.0092	0.019
Mof_C 	C 	0.1965	0.5159	0.3198	0.065
Mof_H 	H 	0.0373	0.5248	0.3605	0.067
Mof_C 	C 	0.1896	0.48842	0.2119	0.058
Mof_H 	H 	0.0268	0.4773	0.1699	0.065
Mof_H 	H 	0.0116	0.7271	0.2888	0.058
Mof_C 	C 	0.99	0.60515	0.5125	0.043
Mof_H 	H 	0.0176	0.5748	0.6043	0.065
Mof_H 	H 	0.0098	0.6394	0.4221	0.067
Mof_Co	Co	0.45771	0.50598	0.76112	1.167
Mof_H 	H 	0.4226	0.7331	0.6923	0.071
Mof_C 	C 	0.4712	0.77326	0.6106	0.05
Mof_H 	H 	0.5066	0.7945	0.5169	0.069
Mof_C 	C 	0.5606	0.3917	0.5739	-0.14
Mof_C 	C 	0.6301	0.4593	0.5033	-0.141
Mof_H 	H 	0.8521	0.5813	0.9127	0.067
Mof_C 	C 	0.8771	0.59738	0.0105	0.047
Mof_H 	H 	0.8559	0.6151	0.1076	0.067
Mof_O 	O 	0.4652	0.59294	0.7447	-0.641
Mof_H 	H 	0.507	0.6535	0.8055	0.015
Mof_C 	C 	0.3269	0.6554	0.79269	0.042
Mof_C 	C 	0.4896	0.76845	0.1125	0.049
Mof_H 	H 	0.3896	0.7347	0.1826	0.073
Mof_H 	H 	0.5825	0.7828	0.0311	0.069
Mof_H 	H 	0.7815	0.3342	0.0511	0.059
Mof_H 	H 	0.2402	0.5252	0.3589	-0.001
Mof_H 	H 	0.2292	0.4777	0.1738	0.004
Mof_C 	C 	0.86	0.60489	0.511	0.05
Mof_N 	N 	0.6468	0.50138	0.75968	-0.227
Mof_N 	N 	0.535	0.92605	0.19923	-0.23
Mof_N 	N 	0.267	0.50109	0.75998	-0.222
Mof_C 	C 	0.4945	0.82663	0.6415	0.048
Mof_C 	C 	0.6703	0.3656	0.5701	0.047
Mof_H 	H 	0.5	0.3763	0.5985	0.076
Mof_C 	C 	0.7369	0.4333	0.5009	0.055
Mof_H 	H 	0.6165	0.4913	0.4782	0.086
Mof_C 	C 	0.0071	0.59946	0.0115	0.044
Mof_H 	H 	0.514	0.603	0.726	0.371
Mof_C 	C 	0.2379	0.63671	0.7511	-0.087
Mof_C 	C 	0.3085	0.7017	0.8306	-0.091
Mof_C 	C 	0.5067	0.82268	0.1435	0.053
Mof_C 	C 	0.796	0.59833	0.4517	-0.126
Mof_C 	C 	0.7975	0.6095	0.5677	-0.126
Mof_C 	C 	0.7046	0.5088	0.7045	0.065
Mof_C 	C 	0.7113	0.49117	0.8144	0.069
Mof_C 	C 	0.4476	0.84164	0.7009	-0.12
Mof_C 	C 	0.5666	0.8644	0.6122	-0.116
Mof_C 	C 	0.7564	0.3863	0.5335	-0.123
Mof_H 	H 	0.6841	0.3328	0.5936	0.01
Mof_H 	H 	0.7972	0.4487	0.4761	0.008
Mof_C 	C 	0.0732	0.5832	0.0673	-0.12
Mof_C 	C 	0.0673	0.61555	0.9573	-0.118
Mof_H 	H 	0.2501	0.6057	0.7244	0.072
Mof_C 	C 	0.1294	0.663	0.7477	0.003
Mof_H 	H 	0.3694	0.715	0.8594	0.062
Mof_C 	C 	0.2016	0.7284	0.8263	0.001
Mof_C 	C 	0.5078	0.8305	0.2107	-0.126
Mof_C 	C 	0.521	0.868	0.1052	-0.123
Mof_C 	C 	0.6753	0.59493	0.452	0.068
Mof_H 	H 	0.835	0.5962	0.4114	0.069
Mof_C 	C 	0.6771	0.6051	0.5636	0.068
Mof_H 	H 	0.8372	0.6156	0.609	0.067
Mof_C 	C 	0.8245	0.507	0.7025	-0.123
Mof_H 	H 	0.6606	0.5157	0.6647	0.003
Mof_C 	C 	0.8319	0.48875	0.8173	-0.124
Mof_H 	H 	0.6717	0.4852	0.8539	-0
Mof_C 	C 	0.4717	0.89193	0.7273	0.07
Mof_H 	H 	0.3988	0.8171	0.7232	0.07
Mof_C 	C 	0.5854	0.9149	0.6419	0.071
Mof_H 	H 	0.6027	0.8559	0.5722	0.068
Mof_H 	H 	0.8291	0.3679	0.5309	0.068
Mof_H 	H 	0.0355	0.5735	0.1064	0.066
Mof_C 	C 	0.1937	0.58131	0.06536	0.06
Mof_C 	C 	0.1891	0.61365	0.9598	0.056
Mof_H 	H 	0.0259	0.6278	0.9187	0.068
Mof_H 	H 	0.0681	0.6496	0.7193	0.027
Mof_C 	C 	0.1113	0.7082	0.7855	-0.077
Mof_H 	H 	0.1901	0.7603	0.8513	0.026
Mof_C 	C 	0.5212	0.8825	0.2361	0.073
Mof_H 	H 	0.4994	0.8005	0.2395	0.069
Mof_C 	C 	0.5343	0.918	0.1347	0.067
Mof_H 	H 	0.5217	0.8648	0.0586	0.076
Mof_H 	H 	0.6331	0.5911	0.411	0.004
Mof_H 	H 	0.6359	0.6081	0.6031	-0.007
Mof_C 	C 	0.8917	0.4976	0.7598	0.046
Mof_H 	H 	0.8614	0.5122	0.662	0.067
Mof_H 	H 	0.8735	0.4812	0.8577	0.068
Mof_H 	H 	0.4393	0.9011	0.7682	0.007
Mof_H 	H 	0.6335	0.9405	0.621	0.002
Mof_H 	H 	0.2371	0.5691	0.1034	0.001
Mof_H 	H 	0.2292	0.6255	0.9224	0.012
Mof_H 	H 	0.0372	0.7256	0.7836	0.053
Mof_H 	H 	0.5205	0.887	0.2825	-0
Mof_H 	H 	0.5435	0.9486	0.1071	0.017
Mof_C 	C 	0.0215	0.49792	0.7601	0.049
Mof_C 	C 	0.0878	0.51133	0.8157	-0.125
Mof_C 	C 	0.0822	0.4845	0.7038	-0.125
Mof_C 	C 	0.2082	0.51242	0.814	0.068
Mof_H 	H 	0.0506	0.5198	0.8554	0.068
Mof_C 	C 	0.2023	0.4863	0.7063	0.067
Mof_H 	H 	0.0406	0.4742	0.6644	0.067
Mof_H 	H 	0.2518	0.5217	0.8532	-0.002
Mof_H 	H 	0.2419	0.4765	0.6678	0.002
Mof_Co	Co	0.55524	0.00937	0.7362	1.157
Mof_O 	O 	0.5524	0.04463	0.64372	-0.43
Mof_O 	O 	0.5597	0.98149	0.83057	-0.405
Mof_N 	N 	0.3658	0.00885	0.73706	-0.213
Mof_O 	O 	0.5608	0.09571	0.75696	-0.454
Mof_N 	N 	0.4613	0.42852	0.30165	-0.23
Mof_N 	N 	0.7453	0.00366	0.73412	-0.231
Mof_C 	C 	0.5727	0.09431	0.63901	0.327
Mof_C 	C 	0.5583	0.00525	0.88532	0.302
Mof_C 	C 	0.3069	0.0142	0.7921	0.046
Mof_C 	C 	0.3026	0.0003	0.6808	-0.011
Mof_H 	H 	0.5	0.1056	0.777	0.216
Mof_C 	C 	0.5797	0.129	0.70166	-0.036
Mof_O 	O 	0.5835	0.11951	0.58519	-0.421
Mof_O 	O 	0.5457	0.05515	0.89375	-0.422
Mof_C 	C 	0.5737	0.96817	0.9454	-0.017
Mof_H 	H 	0.3501	0.0202	0.8324	0.008
Mof_C 	C 	0.1863	0.0114	0.7933	-0.098
Mof_H 	H 	0.3429	0.9961	0.6412	0.038
Mof_C 	C 	0.1817	0.99741	0.6778	-0.042
Mof_H 	H 	0.5156	0.1566	0.6984	0.04
Mof_C 	C 	0.696	0.15884	0.7081	0.073
Mof_Co	Co	0.57485	0.09158	0.4898	1.158
Mof_Co	Co	0.55704	0.08768	0.98828	1.158
Mof_O 	O 	0.5839	0.00088	0.00345	-0.439
Mof_H 	H 	0.6473	0.9467	0.9415	0.04
Mof_C 	C 	0.4712	0.92941	0.9473	0.072
Mof_H 	H 	0.1483	0.015	0.8338	0.056
Mof_C 	C 	0.1213	0.00351	0.7354	0.004
Mof_H 	H 	0.1405	0.9913	0.6369	0.047
Mof_C 	C 	0.7879	0.1393	0.7474	-0.11
Mof_C 	C 	0.7119	0.2059	0.6715	-0.111
Mof_N 	N 	0.7651	0.09855	0.48853	-0.224
Mof_O 	O 	0.5594	0.05693	0.39573	-0.421
Mof_N 	N 	0.5666	0.17116	0.44773	-0.228
Mof_O 	O 	0.5958	0.00476	0.50669	-0.449
Mof_N 	N 	0.385	0.09677	0.49303	-0.225
Mof_N 	N 	0.3675	0.08825	0.99094	-0.224
Mof_O 	O 	0.5629	0.11401	0.08394	-0.423
Mof_N 	N 	0.543	0.16706	0.94664	-0.23
Mof_N 	N 	0.7476	0.09586	0.98751	-0.225
Mof_H 	H 	0.653	0.9983	0.0263	0.193
Mof_C 	C 	0.4822	0.8778	0.9217	-0.107
Mof_C 	C 	0.3661	0.9448	0.9729	-0.102
Mof_C 	C 	0.9909	0.00218	0.7346	0.045
Mof_H 	H 	0.7771	0.108	0.7737	0.076
Mof_C 	C 	0.897	0.1654	0.7488	0.021
Mof_H 	H 	0.6488	0.2206	0.6454	0.069
Mof_C 	C 	0.8215	0.2315	0.6733	0.018
Mof_C 	C 	0.8239	0.0826	0.4365	0.059
Mof_C 	C 	0.8284	0.12046	0.5394	0.054
Mof_C 	C 	0.5573	0.00659	0.38915	0.31
Mof_C 	C 	0.5827	0.17963	0.3841	0.062
Mof_C 	C 	0.5342	0.2144	0.4832	0.064
Mof_C 	C 	0.568	0.97085	0.4511	-0.025
Mof_H 	H 	0.667	0.997	0.524	0.204
Mof_C 	C 	0.3077	0.0818	0.0462	0.061
Mof_C 	C 	0.3051	0.10119	0.9354	0.06
Mof_C 	C 	0.5531	0.08978	0.1377	0.316
Mof_C 	C 	0.5898	0.17877	0.8891	0.067
Mof_C 	C 	0.4814	0.2062	0.9753	0.065
Mof_H 	H 	0.5541	0.8667	0.9042	0.066
Mof_C 	C 	0.3862	0.8416	0.9216	0.013
Mof_H 	H 	0.3585	0.9802	0.9906	0.077
Mof_C 	C 	0.2708	0.9093	0.9733	0.017
Mof_C 	C 	0.9253	0.01567	0.6789	-0.127
Mof_C 	C 	0.9312	0.98759	0.7907	-0.11
Mof_H 	H 	0.9596	0.1516	0.7761	0.02
Mof_C 	C 	0.9136	0.2103	0.7113	-0.093
Mof_H 	H 	0.8325	0.2635	0.6483	0.021
Mof_H 	H 	0.781	0.0685	0.3994	-0.001
Mof_C 	C 	0.9447	0.0859	0.4342	-0.121
Mof_C 	C 	0.9492	0.12409	0.5408	-0.117
Mof_H 	H 	0.7881	0.134	0.5758	0.014
Mof_O 	O 	0.5481	0.98145	0.33538	-0.405
Mof_H 	H 	0.6078	0.15	0.3584	0.01
Mof_C 	C 	0.5649	0.22932	0.3534	-0.121
Mof_C 	C 	0.5155	0.2651	0.456	-0.12
Mof_H 	H 	0.5237	0.2098	0.5289	0.002
Mof_C 	C 	0.4557	0.93972	0.4588	0.089
Mof_H 	H 	0.6333	0.9444	0.4459	0.04
Mof_H 	H 	0.3502	0.0739	0.0862	0.005
Mof_C 	C 	0.1866	0.0861	0.0473	-0.122
Mof_H 	H 	0.3459	0.1073	0.8963	-0.001
Mof_C 	C 	0.1845	0.10602	0.9326	-0.121
Mof_O 	O 	0.5396	0.03954	0.14466	-0.419
Mof_C 	C 	0.5568	0.12591	0.1995	0.036
Mof_H 	H 	0.6349	0.1518	0.8686	0.007
Mof_C 	C 	0.5757	0.22813	0.8583	-0.122
Mof_C 	C 	0.4628	0.2565	0.9473	-0.121
Mof_H 	H 	0.4492	0.1988	0.0167	0.001
Mof_H 	H 	0.3926	0.8063	0.9036	0.021
Mof_C 	C 	0.2827	0.8586	0.9482	-0.085
Mof_H 	H 	0.1989	0.9204	0.9908	0.024
Mof_C 	C 	0.8035	0.0159	0.6802	0.063
Mof_H 	H 	0.9627	0.0248	0.6395	0.066
Mof_C 	C 	0.8104	0.98842	0.7881	0.073
Mof_H 	H 	0.9732	0.9773	0.8301	0.068
Mof_H 	H 	0.9884	0.2271	0.7112	0.057
Mof_C 	C 	0.01	0.10515	0.4875	0.043
Mof_H 	H 	0.9824	0.0748	0.3957	0.063
Mof_H 	H 	0.9902	0.1394	0.5779	0.067
Mof_Co	Co	0.54229	0.00598	0.23888	1.162
Mof_H 	H 	0.5774	0.2331	0.3077	0.071
Mof_C 	C 	0.5288	0.27326	0.3894	0.05
Mof_H 	H 	0.4934	0.2945	0.4831	0.069
Mof_C 	C 	0.4394	0.8917	0.4261	-0.125
Mof_C 	C 	0.3699	0.9593	0.4967	-0.124
Mof_H 	H 	0.1479	0.0813	0.0873	0.064
Mof_C 	C 	0.1229	0.09738	0.9895	0.045
Mof_H 	H 	0.1441	0.1151	0.8924	0.067
Mof_O 	O 	0.5348	0.09294	0.2553	-0.642
Mof_H 	H 	0.493	0.1535	0.1945	0.015
Mof_C 	C 	0.6731	0.1554	0.20731	0.042
Mof_C 	C 	0.5104	0.26845	0.8875	0.048
Mof_H 	H 	0.6104	0.2347	0.8174	0.073
Mof_H 	H 	0.4175	0.2828	0.9689	0.068
Mof_H 	H 	0.2185	0.8342	0.9489	0.057
Mof_H 	H 	0.7598	0.0252	0.6411	-0.004
Mof_H 	H 	0.7708	0.9777	0.8262	0.004
Mof_C 	C 	0.14	0.10489	0.489	0.048
Mof_N 	N 	0.3532	0.00138	0.24032	-0.24
Mof_N 	N 	0.465	0.42605	0.80077	-0.234
Mof_N 	N 	0.733	0.00109	0.24002	-0.234
Mof_C 	C 	0.5055	0.32663	0.3585	0.048
Mof_C 	C 	0.3297	0.8656	0.4299	0.036
Mof_H 	H 	0.5	0.8763	0.4015	0.072
Mof_C 	C 	0.2631	0.9333	0.4991	0.043
Mof_H 	H 	0.3835	0.9913	0.5218	0.086
Mof_C 	C 	0.9929	0.09946	0.9885	0.041
Mof_H 	H 	0.486	0.103	0.274	0.371
Mof_C 	C 	0.7621	0.13671	0.2489	-0.086
Mof_C 	C 	0.6915	0.2017	0.1694	-0.091
Mof_C 	C 	0.4933	0.32268	0.8565	0.054
Mof_C 	C 	0.204	0.09833	0.5483	-0.127
Mof_C 	C 	0.2025	0.1095	0.4323	-0.126
Mof_C 	C 	0.2954	0.0088	0.2955	0.073
Mof_C 	C 	0.2887	0.99117	0.1856	0.092
Mof_C 	C 	0.5524	0.34164	0.2991	-0.121
Mof_C 	C 	0.4334	0.3644	0.3878	-0.117
Mof_C 	C 	0.2436	0.8863	0.4665	-0.11
Mof_H 	H 	0.3159	0.8328	0.4064	0.014
Mof_H 	H 	0.2028	0.9487	0.5239	0.016
Mof_C 	C 	0.9268	0.0832	0.9327	-0.12
Mof_C 	C 	0.9327	0.11555	0.0427	-0.116
Mof_H 	H 	0.7499	0.1057	0.2756	0.071
Mof_C 	C 	0.8706	0.163	0.2523	0.002
Mof_H 	H 	0.6306	0.215	0.1406	0.062
Mof_C 	C 	0.7984	0.2284	0.1737	0.001
Mof_C 	C 	0.4922	0.3305	0.7893	-0.126
Mof_C 	C 	0.479	0.368	0.8948	-0.124
Mof_C 	C 	0.3247	0.09493	0.548	0.065
Mof_H 	H 	0.165	0.0962	0.5886	0.067
Mof_C 	C 	0.3229	0.1051	0.4364	0.067
Mof_H 	H 	0.1628	0.1156	0.391	0.067
Mof_C 	C 	0.1755	0.007	0.2975	-0.15
Mof_H 	H 	0.3394	0.0157	0.3353	-0.003
Mof_C 	C 	0.1681	0.98875	0.1827	-0.137
Mof_H 	H 	0.3283	0.9852	0.1461	-0.004
Mof_C 	C 	0.5283	0.39193	0.2727	0.07
Mof_H 	H 	0.6012	0.3171	0.2768	0.069
Mof_C 	C 	0.4146	0.4149	0.3581	0.071
Mof_H 	H 	0.3973	0.3559	0.4278	0.068
Mof_H 	H 	0.1709	0.8679	0.4691	0.065
Mof_H 	H 	0.9645	0.0735	0.8936	0.064
Mof_C 	C 	0.8063	0.08131	0.93464	0.058
Mof_C 	C 	0.8109	0.11365	0.0402	0.056
Mof_H 	H 	0.9741	0.1278	0.0813	0.067
Mof_H 	H 	0.9319	0.1496	0.2807	0.026
Mof_C 	C 	0.8887	0.2082	0.2145	-0.077
Mof_H 	H 	0.8099	0.2603	0.1487	0.026
Mof_C 	C 	0.4788	0.3825	0.7639	0.073
Mof_H 	H 	0.5006	0.3005	0.7605	0.069
Mof_C 	C 	0.4657	0.418	0.8653	0.067
Mof_H 	H 	0.4783	0.3648	0.9414	0.076
Mof_H 	H 	0.3669	0.0911	0.589	0.003
Mof_H 	H 	0.3641	0.1081	0.3969	-0.007
Mof_C 	C 	0.1083	0.9976	0.2402	0.066
Mof_H 	H 	0.1386	0.0122	0.338	0.071
Mof_H 	H 	0.1265	0.9812	0.1423	0.076
Mof_H 	H 	0.5607	0.4011	0.2318	0.005
Mof_H 	H 	0.3665	0.4405	0.379	-0.002
Mof_H 	H 	0.7629	0.0691	0.8966	-0.001
Mof_H 	H 	0.7708	0.1255	0.0776	0.012
Mof_H 	H 	0.9628	0.2256	0.2164	0.052
Mof_H 	H 	0.4795	0.387	0.7175	-0.001
Mof_H 	H 	0.4565	0.4486	0.8929	0.013
Mof_C 	C 	0.9785	0.99792	0.2399	0.067
Mof_C 	C 	0.9122	0.01133	0.1843	-0.151
Mof_C 	C 	0.9178	0.9845	0.2962	-0.137
Mof_C 	C 	0.7918	0.01242	0.186	0.077
Mof_H 	H 	0.9494	0.0198	0.1446	0.072
Mof_C 	C 	0.7977	0.9863	0.2937	0.089
Mof_H 	H 	0.9594	0.9742	0.3356	0.075
Mof_H 	H 	0.7482	0.0217	0.1468	-0.007
Mof_H 	H 	0.7581	0.9765	0.3322	-0.001
_end
