data_functionalizedCrystal
_audit_creation_method	'EQeq! by Chris Wilmer'
_symmetry_space_group_name_H-M	'P1'
_symmetry_Int_Tables_number	1
_symmetry_cell_setting	triclinic
loop_
_symmetry_equiv_pos_as_xyz
  x,y,z
_cell_length_a	10.283
_cell_length_b	12.096
_cell_length_c	16.911
_cell_angle_alpha	76.07
_cell_angle_beta	72.38
_cell_angle_gamma	65.2
loop_
_atom_site_label
_atom_site_type_symbol
_atom_site_fract_x
_atom_site_fract_y
_atom_site_fract_z
_atom_site_charge
Mof_Ga	Ga	0.27335	0.4981	0.76132	4.162
Mof_Ga	Ga	0.53427	0.00087	0.74472	4.11
Mof_Ga	Ga	0.85725	0.59352	0.89893	4.318
Mof_Ga	Ga	0.34526	0.90775	0.60375	4.188
Mof_Ga	Ga	0.85072	0.73977	0.69607	4.354
Mof_Ga	Ga	0.28706	0.75935	0.80608	4.353
Mof_P 	P 	0.1151	0.59935	0.93639	1.048
Mof_P 	P 	0.001	0.45861	0.73743	0.909
Mof_P 	P 	0.197	0.04184	0.76537	0.883
Mof_P 	P 	0.6506	0.90897	0.56652	1.049
Mof_P 	P 	0.5718	0.75124	0.84528	0.953
Mof_P 	P 	0.1701	0.74404	0.65691	0.949
Mof_P 	P 	0.5602	0.25554	0.73445	0.826
Mof_O 	O 	0.6687	0.7127	0.7599	-1.149
Mof_O 	O 	0.1427	0.7849	0.7412	-1.139
Mof_O 	O 	0.1591	0.7092	0.904	-1.047
Mof_O 	O 	0.5207	0.8919	0.8416	-1.117
Mof_O 	O 	0.2553	0.6029	0.661	-1.115
Mof_O 	O 	0.5446	0.868	0.5428	-1.081
Mof_O 	O 	0.2604	0.8078	0.5869	-1.042
Mof_O 	O 	0.9449	0.643	0.962	-1.087
Mof_O 	O 	0.7704	0.7958	0.5986	-1.054
Mof_O 	O 	0.1978	0.9275	0.8268	-1.039
Mof_O 	O 	0.3224	0.081	0.7621	-0.994
Mof_O 	O 	0.7223	0.9746	0.4892	-0.981
Mof_O 	O 	0.9501	0.5697	0.6742	-1.004
Mof_O 	O 	0.1583	0.5157	0.8695	-1.292
Mof_O 	O 	0.4396	0.7125	0.8672	-0.943
Mof_O 	O 	0.1794	0.5284	0.0116	-1.026
Mof_O 	O 	0.0235	0.7807	0.6336	-0.935
Mof_O 	O 	0.5526	0.1307	0.7732	-1.03
Mof_O 	O 	0.2049	0.0258	0.6755	-1.042
Mof_O 	O 	0.4236	0.3511	0.7817	-1.038
Mof_O 	O 	0.1623	0.4175	0.7393	-1.006
Mof_O 	O 	0.5533	0.9963	0.6331	-1.252
Mof_O 	O 	0.9849	0.353	0.7085	-0.487
Mof_H 	H 	0.0145	0.2891	0.7397	0.35
Mof_O 	O 	0.9025	0.4757	0.8266	-1.046
Mof_F 	F 	0.7527	0.9148	0.7212	-1.347
Mof_F 	F 	0.3831	0.5839	0.7818	-1.371
Mof_O 	O 	0.9117	0.7003	0.8012	-1.963
Mof_H 	H 	0.9383	0.757	0.8118	0.538
Mof_O 	O 	0.4126	0.8001	0.7007	-1.837
Mof_H 	H 	0.5166	0.757	0.6979	0.432
Mof_O 	O 	0.655	0.6875	0.9155	-1.06
Mof_O 	O 	0.6985	0.2578	0.7489	-0.245
Mof_O 	O 	0.0533	0.1463	0.7947	-0.275
Mof_O 	O 	0.5643	0.2805	0.6411	-0.378
Mof_Ga	Ga	0.72665	0.5019	0.23868	4.162
Mof_Ga	Ga	0.46573	0.99913	0.25528	4.11
Mof_Ga	Ga	0.14275	0.40648	0.10107	4.318
Mof_Ga	Ga	0.65474	0.09225	0.39625	4.188
Mof_Ga	Ga	0.14928	0.26023	0.30393	4.354
Mof_Ga	Ga	0.71294	0.24065	0.19392	4.353
Mof_P 	P 	0.8849	0.40065	0.06361	1.048
Mof_P 	P 	0.999	0.54139	0.26257	0.909
Mof_P 	P 	0.803	0.95816	0.23463	0.883
Mof_P 	P 	0.3494	0.09103	0.43348	1.049
Mof_P 	P 	0.4282	0.24876	0.15472	0.953
Mof_P 	P 	0.8299	0.25596	0.34309	0.949
Mof_P 	P 	0.4398	0.74446	0.26555	0.826
Mof_O 	O 	0.3313	0.2873	0.2401	-1.149
Mof_O 	O 	0.8573	0.2151	0.2588	-1.139
Mof_O 	O 	0.8409	0.2908	0.096	-1.047
Mof_O 	O 	0.4793	0.1081	0.1584	-1.117
Mof_O 	O 	0.7447	0.3971	0.339	-1.115
Mof_O 	O 	0.4554	0.132	0.4572	-1.081
Mof_O 	O 	0.7396	0.1922	0.4131	-1.042
Mof_O 	O 	0.0551	0.357	0.038	-1.087
Mof_O 	O 	0.2296	0.2042	0.4014	-1.054
Mof_O 	O 	0.8022	0.0725	0.1732	-1.039
Mof_O 	O 	0.6776	0.919	0.2379	-0.994
Mof_O 	O 	0.2777	0.0254	0.5108	-0.981
Mof_O 	O 	0.0499	0.4303	0.3258	-1.004
Mof_O 	O 	0.8417	0.4843	0.1305	-1.292
Mof_O 	O 	0.5604	0.2875	0.1328	-0.943
Mof_O 	O 	0.8206	0.4716	0.9884	-1.026
Mof_O 	O 	0.9765	0.2193	0.3664	-0.935
Mof_O 	O 	0.4474	0.8693	0.2268	-1.03
Mof_O 	O 	0.7951	0.9742	0.3245	-1.042
Mof_O 	O 	0.5764	0.6489	0.2183	-1.038
Mof_O 	O 	0.8377	0.5825	0.2607	-1.006
Mof_O 	O 	0.4467	0.0037	0.3669	-1.252
Mof_O 	O 	0.0151	0.647	0.2915	-0.487
Mof_H 	H 	0.9855	0.7109	0.2603	0.35
Mof_O 	O 	0.0975	0.5243	0.1734	-1.046
Mof_F 	F 	0.2473	0.0852	0.2788	-1.347
Mof_F 	F 	0.6169	0.4161	0.2182	-1.371
Mof_O 	O 	0.0883	0.2997	0.1988	-1.963
Mof_H 	H 	0.0617	0.243	0.1882	0.538
Mof_O 	O 	0.5874	0.1999	0.2993	-1.837
Mof_H 	H 	0.4834	0.243	0.3021	0.432
Mof_O 	O 	0.345	0.3125	0.0845	-1.06
Mof_O 	O 	0.3015	0.7422	0.2511	-0.245
Mof_O 	O 	0.9467	0.8537	0.2053	-0.275
Mof_O 	O 	0.4357	0.7195	0.3589	-0.378
_end
