data_functionalizedCrystal
_audit_creation_method	'EQeq! by Chris Wilmer'
_symmetry_space_group_name_H-M	'P1'
_symmetry_Int_Tables_number	1
_symmetry_cell_setting	triclinic
loop_
_symmetry_equiv_pos_as_xyz
  x,y,z
_cell_length_a	22.425
_cell_length_b	22.425
_cell_length_c	22.425
_cell_angle_alpha	90
_cell_angle_beta	90
_cell_angle_gamma	90
loop_
_atom_site_label
_atom_site_type_symbol
_atom_site_fract_x
_atom_site_fract_y
_atom_site_fract_z
_atom_site_charge
Mof_Br	Br	0.66427	0.42066	0.1208	-0.177
Mof_C 	C 	0.712	0.4173	0.0522	-0.012
Mof_C 	C 	0.685	0.416	0.9971	0.148
Mof_C 	C 	0.774	0.4152	0.0598	0.172
Mof_O 	O 	0.6298	0.4156	0.9876	-0.989
Mof_O 	O 	0.8024	0.4112	0.1083	-1.028
Mof_Br	Br	0.16427	0.92066	0.6208	-0.177
Mof_C 	C 	0.212	0.9173	0.5522	-0.011
Mof_C 	C 	0.185	0.916	0.4971	0.15
Mof_C 	C 	0.274	0.9152	0.5598	0.173
Mof_O 	O 	0.1298	0.9156	0.4876	-0.988
Mof_O 	O 	0.3024	0.9112	0.6083	-1.029
Mof_Br	Br	0.83573	0.57934	0.6208	-0.176
Mof_C 	C 	0.788	0.5827	0.5522	-0.011
Mof_C 	C 	0.815	0.584	0.4971	0.15
Mof_C 	C 	0.726	0.5848	0.5598	0.173
Mof_O 	O 	0.8702	0.5844	0.4876	-0.988
Mof_O 	O 	0.6976	0.5888	0.6083	-1.029
Mof_Br	Br	0.33573	0.07934	0.1208	-0.177
Mof_C 	C 	0.288	0.0827	0.0522	-0.011
Mof_C 	C 	0.315	0.084	0.9971	0.149
Mof_C 	C 	0.226	0.0848	0.0598	0.173
Mof_O 	O 	0.3702	0.0844	0.9876	-0.989
Mof_O 	O 	0.1976	0.0888	0.1083	-1.028
Mof_Br	Br	0.33573	0.92066	0.3792	-0.177
Mof_C 	C 	0.288	0.9173	0.4478	-0.011
Mof_C 	C 	0.315	0.916	0.5029	0.15
Mof_C 	C 	0.226	0.9152	0.4402	0.173
Mof_O 	O 	0.3702	0.9156	0.5124	-0.988
Mof_O 	O 	0.1976	0.9112	0.3917	-1.028
Mof_Br	Br	0.83573	0.42066	0.8792	-0.177
Mof_C 	C 	0.788	0.4173	0.9478	-0.011
Mof_C 	C 	0.815	0.416	0.0029	0.15
Mof_C 	C 	0.726	0.4152	0.9402	0.173
Mof_O 	O 	0.8702	0.4156	0.0124	-0.989
Mof_O 	O 	0.6976	0.4112	0.8917	-1.028
Mof_Br	Br	0.16427	0.07934	0.8792	-0.177
Mof_C 	C 	0.212	0.0827	0.9478	-0.011
Mof_C 	C 	0.185	0.084	0.0029	0.15
Mof_C 	C 	0.274	0.0848	0.9402	0.173
Mof_O 	O 	0.1298	0.0844	0.0124	-0.989
Mof_O 	O 	0.3024	0.0888	0.8917	-1.028
Mof_Br	Br	0.66427	0.57934	0.3792	-0.176
Mof_C 	C 	0.712	0.5827	0.4478	-0.011
Mof_C 	C 	0.685	0.584	0.5029	0.15
Mof_C 	C 	0.774	0.5848	0.4402	0.173
Mof_O 	O 	0.6298	0.5844	0.5124	-0.988
Mof_O 	O 	0.8024	0.5888	0.3917	-1.028
Mof_Br	Br	0.1208	0.66427	0.42066	-0.176
Mof_C 	C 	0.0522	0.712	0.4173	-0.011
Mof_C 	C 	0.9971	0.685	0.416	0.149
Mof_C 	C 	0.0598	0.774	0.4152	0.173
Mof_O 	O 	0.9876	0.6298	0.4156	-0.989
Mof_O 	O 	0.1083	0.8024	0.4112	-1.028
Mof_Br	Br	0.6208	0.16427	0.92066	-0.177
Mof_C 	C 	0.5522	0.212	0.9173	-0.011
Mof_C 	C 	0.4971	0.185	0.916	0.15
Mof_C 	C 	0.5598	0.274	0.9152	0.173
Mof_O 	O 	0.4876	0.1298	0.9156	-0.988
Mof_O 	O 	0.6083	0.3024	0.9112	-1.029
Mof_Br	Br	0.6208	0.83573	0.57934	-0.176
Mof_C 	C 	0.5522	0.788	0.5827	-0.011
Mof_C 	C 	0.4971	0.815	0.584	0.15
Mof_C 	C 	0.5598	0.726	0.5848	0.173
Mof_O 	O 	0.4876	0.8702	0.5844	-0.988
Mof_O 	O 	0.6083	0.6976	0.5888	-1.029
Mof_Br	Br	0.1208	0.33573	0.07934	-0.177
Mof_C 	C 	0.0522	0.288	0.0827	-0.011
Mof_C 	C 	0.9971	0.315	0.084	0.149
Mof_C 	C 	0.0598	0.226	0.0848	0.173
Mof_O 	O 	0.9876	0.3702	0.0844	-0.989
Mof_O 	O 	0.1083	0.1976	0.0888	-1.028
Mof_Br	Br	0.3792	0.33573	0.92066	-0.177
Mof_C 	C 	0.4478	0.288	0.9173	-0.011
Mof_C 	C 	0.5029	0.315	0.916	0.15
Mof_C 	C 	0.4402	0.226	0.9152	0.173
Mof_O 	O 	0.5124	0.3702	0.9156	-0.988
Mof_O 	O 	0.3917	0.1976	0.9112	-1.028
Mof_Br	Br	0.8792	0.83573	0.42066	-0.177
Mof_C 	C 	0.9478	0.788	0.4173	-0.011
Mof_C 	C 	0.0029	0.815	0.416	0.15
Mof_C 	C 	0.9402	0.726	0.4152	0.173
Mof_O 	O 	0.0124	0.8702	0.4156	-0.989
Mof_O 	O 	0.8917	0.6976	0.4112	-1.028
Mof_Br	Br	0.8792	0.16427	0.07934	-0.177
Mof_C 	C 	0.9478	0.212	0.0827	-0.011
Mof_C 	C 	0.0029	0.185	0.084	0.15
Mof_C 	C 	0.9402	0.274	0.0848	0.173
Mof_O 	O 	0.0124	0.1298	0.0844	-0.989
Mof_O 	O 	0.8917	0.3024	0.0888	-1.028
Mof_Br	Br	0.3792	0.66427	0.57934	-0.176
Mof_C 	C 	0.4478	0.712	0.5827	-0.011
Mof_C 	C 	0.5029	0.685	0.584	0.15
Mof_C 	C 	0.4402	0.774	0.5848	0.173
Mof_O 	O 	0.5124	0.6298	0.5844	-0.988
Mof_O 	O 	0.3917	0.8024	0.5888	-1.028
Mof_Br	Br	0.42066	0.1208	0.66427	-0.176
Mof_C 	C 	0.4173	0.0522	0.712	-0.011
Mof_C 	C 	0.416	0.9971	0.685	0.149
Mof_C 	C 	0.4152	0.0598	0.774	0.173
Mof_O 	O 	0.4156	0.9876	0.6298	-0.989
Mof_O 	O 	0.4112	0.1083	0.8024	-1.028
Mof_Br	Br	0.92066	0.6208	0.16427	-0.177
Mof_C 	C 	0.9173	0.5522	0.212	-0.011
Mof_C 	C 	0.916	0.4971	0.185	0.15
Mof_C 	C 	0.9152	0.5598	0.274	0.173
Mof_O 	O 	0.9156	0.4876	0.1298	-0.988
Mof_O 	O 	0.9112	0.6083	0.3024	-1.029
Mof_Br	Br	0.57934	0.6208	0.83573	-0.176
Mof_C 	C 	0.5827	0.5522	0.788	-0.011
Mof_C 	C 	0.584	0.4971	0.815	0.15
Mof_C 	C 	0.5848	0.5598	0.726	0.173
Mof_O 	O 	0.5844	0.4876	0.8702	-0.988
Mof_O 	O 	0.5888	0.6083	0.6976	-1.029
Mof_Br	Br	0.07934	0.1208	0.33573	-0.177
Mof_C 	C 	0.0827	0.0522	0.288	-0.011
Mof_C 	C 	0.084	0.9971	0.315	0.149
Mof_C 	C 	0.0848	0.0598	0.226	0.173
Mof_O 	O 	0.0844	0.9876	0.3702	-0.989
Mof_O 	O 	0.0888	0.1083	0.1976	-1.028
Mof_Br	Br	0.92066	0.3792	0.33573	-0.177
Mof_C 	C 	0.9173	0.4478	0.288	-0.011
Mof_C 	C 	0.916	0.5029	0.315	0.15
Mof_C 	C 	0.9152	0.4402	0.226	0.173
Mof_O 	O 	0.9156	0.5124	0.3702	-0.988
Mof_O 	O 	0.9112	0.3917	0.1976	-1.028
Mof_Br	Br	0.42066	0.8792	0.83573	-0.177
Mof_C 	C 	0.4173	0.9478	0.788	-0.011
Mof_C 	C 	0.416	0.0029	0.815	0.15
Mof_C 	C 	0.4152	0.9402	0.726	0.173
Mof_O 	O 	0.4156	0.0124	0.8702	-0.989
Mof_O 	O 	0.4112	0.8917	0.6976	-1.028
Mof_Br	Br	0.07934	0.8792	0.16427	-0.177
Mof_C 	C 	0.0827	0.9478	0.212	-0.011
Mof_C 	C 	0.084	0.0029	0.185	0.15
Mof_C 	C 	0.0848	0.9402	0.274	0.173
Mof_O 	O 	0.0844	0.0124	0.1298	-0.989
Mof_O 	O 	0.0888	0.8917	0.3024	-1.028
Mof_Br	Br	0.57934	0.3792	0.66427	-0.176
Mof_C 	C 	0.5827	0.4478	0.712	-0.011
Mof_C 	C 	0.584	0.5029	0.685	0.15
Mof_C 	C 	0.5848	0.4402	0.774	0.173
Mof_O 	O 	0.5844	0.5124	0.6298	-0.988
Mof_O 	O 	0.5888	0.3917	0.8024	-1.028
Mof_Na	Na	0.60353	0.39647	0.89647	5.645
Mof_Na	Na	0.10353	0.89647	0.39647	5.645
Mof_Na	Na	0.89647	0.60353	0.39647	5.645
Mof_Na	Na	0.39647	0.10353	0.89647	5.645
Mof_Na	Na	0.39647	0.89647	0.60353	5.645
Mof_Na	Na	0.89647	0.39647	0.10353	5.645
Mof_Na	Na	0.10353	0.10353	0.10353	5.645
Mof_Na	Na	0.60353	0.60353	0.60353	5.646
Mof_Br	Br	0.67066	0.91427	0.3708	-0.176
Mof_C 	C 	0.6673	0.962	0.3022	-0.011
Mof_C 	C 	0.666	0.935	0.2471	0.15
Mof_C 	C 	0.6652	0.024	0.3098	0.173
Mof_O 	O 	0.6656	0.8798	0.2376	-0.988
Mof_O 	O 	0.6612	0.0524	0.3583	-1.029
Mof_Br	Br	0.17066	0.41427	0.8708	-0.177
Mof_C 	C 	0.1673	0.462	0.8022	-0.011
Mof_C 	C 	0.166	0.435	0.7471	0.15
Mof_C 	C 	0.1652	0.524	0.8098	0.173
Mof_O 	O 	0.1656	0.3798	0.7376	-0.988
Mof_O 	O 	0.1612	0.5524	0.8583	-1.029
Mof_Br	Br	0.82934	0.08573	0.8708	-0.177
Mof_C 	C 	0.8327	0.038	0.8022	-0.011
Mof_C 	C 	0.834	0.065	0.7471	0.15
Mof_C 	C 	0.8348	0.976	0.8098	0.172
Mof_O 	O 	0.8344	0.1202	0.7376	-0.988
Mof_O 	O 	0.8388	0.9476	0.8583	-1.029
Mof_Br	Br	0.32934	0.58573	0.3708	-0.176
Mof_C 	C 	0.3327	0.538	0.3022	-0.011
Mof_C 	C 	0.334	0.565	0.2471	0.15
Mof_C 	C 	0.3348	0.476	0.3098	0.173
Mof_O 	O 	0.3344	0.6202	0.2376	-0.988
Mof_O 	O 	0.3388	0.4476	0.3583	-1.029
Mof_Br	Br	0.17066	0.58573	0.6292	-0.176
Mof_C 	C 	0.1673	0.538	0.6978	-0.011
Mof_C 	C 	0.166	0.565	0.7529	0.15
Mof_C 	C 	0.1652	0.476	0.6902	0.173
Mof_O 	O 	0.1656	0.6202	0.7624	-0.988
Mof_O 	O 	0.1612	0.4476	0.6417	-1.029
Mof_Br	Br	0.67066	0.08573	0.1292	-0.177
Mof_C 	C 	0.6673	0.038	0.1978	-0.011
Mof_C 	C 	0.666	0.065	0.2529	0.15
Mof_C 	C 	0.6652	0.976	0.1902	0.172
Mof_O 	O 	0.6656	0.1202	0.2624	-0.988
Mof_O 	O 	0.6612	0.9476	0.1417	-1.029
Mof_Br	Br	0.32934	0.41427	0.1292	-0.176
Mof_C 	C 	0.3327	0.462	0.1978	-0.011
Mof_C 	C 	0.334	0.435	0.2529	0.15
Mof_C 	C 	0.3348	0.524	0.1902	0.173
Mof_O 	O 	0.3344	0.3798	0.2624	-0.988
Mof_O 	O 	0.3388	0.5524	0.1417	-1.029
Mof_Br	Br	0.82934	0.91427	0.6292	-0.177
Mof_C 	C 	0.8327	0.962	0.6978	-0.011
Mof_C 	C 	0.834	0.935	0.7529	0.15
Mof_C 	C 	0.8348	0.024	0.6902	0.173
Mof_O 	O 	0.8344	0.8798	0.7624	-0.988
Mof_O 	O 	0.8388	0.0524	0.6417	-1.029
Mof_Br	Br	0.91427	0.3708	0.67066	-0.176
Mof_C 	C 	0.962	0.3022	0.6673	-0.011
Mof_C 	C 	0.935	0.2471	0.666	0.15
Mof_C 	C 	0.024	0.3098	0.6652	0.173
Mof_O 	O 	0.8798	0.2376	0.6656	-0.988
Mof_O 	O 	0.0524	0.3583	0.6612	-1.029
Mof_Br	Br	0.41427	0.8708	0.17066	-0.177
Mof_C 	C 	0.462	0.8022	0.1673	-0.011
Mof_C 	C 	0.435	0.7471	0.166	0.15
Mof_C 	C 	0.524	0.8098	0.1652	0.173
Mof_O 	O 	0.3798	0.7376	0.1656	-0.988
Mof_O 	O 	0.5524	0.8583	0.1612	-1.029
Mof_Br	Br	0.08573	0.8708	0.82934	-0.177
Mof_C 	C 	0.038	0.8022	0.8327	-0.011
Mof_C 	C 	0.065	0.7471	0.834	0.15
Mof_C 	C 	0.976	0.8098	0.8348	0.172
Mof_O 	O 	0.1202	0.7376	0.8344	-0.988
Mof_O 	O 	0.9476	0.8583	0.8388	-1.029
Mof_Br	Br	0.58573	0.3708	0.32934	-0.176
Mof_C 	C 	0.538	0.3022	0.3327	-0.011
Mof_C 	C 	0.565	0.2471	0.334	0.15
Mof_C 	C 	0.476	0.3098	0.3348	0.173
Mof_O 	O 	0.6202	0.2376	0.3344	-0.988
Mof_O 	O 	0.4476	0.3583	0.3388	-1.029
Mof_Br	Br	0.58573	0.6292	0.17066	-0.176
Mof_C 	C 	0.538	0.6978	0.1673	-0.011
Mof_C 	C 	0.565	0.7529	0.166	0.15
Mof_C 	C 	0.476	0.6902	0.1652	0.173
Mof_O 	O 	0.6202	0.7624	0.1656	-0.988
Mof_O 	O 	0.4476	0.6417	0.1612	-1.029
Mof_Br	Br	0.08573	0.1292	0.67066	-0.177
Mof_C 	C 	0.038	0.1978	0.6673	-0.011
Mof_C 	C 	0.065	0.2529	0.666	0.15
Mof_C 	C 	0.976	0.1902	0.6652	0.172
Mof_O 	O 	0.1202	0.2624	0.6656	-0.988
Mof_O 	O 	0.9476	0.1417	0.6612	-1.029
Mof_Br	Br	0.41427	0.1292	0.32934	-0.176
Mof_C 	C 	0.462	0.1978	0.3327	-0.011
Mof_C 	C 	0.435	0.2529	0.334	0.15
Mof_C 	C 	0.524	0.1902	0.3348	0.173
Mof_O 	O 	0.3798	0.2624	0.3344	-0.988
Mof_O 	O 	0.5524	0.1417	0.3388	-1.029
Mof_Br	Br	0.91427	0.6292	0.82934	-0.177
Mof_C 	C 	0.962	0.6978	0.8327	-0.011
Mof_C 	C 	0.935	0.7529	0.834	0.15
Mof_C 	C 	0.024	0.6902	0.8348	0.173
Mof_O 	O 	0.8798	0.7624	0.8344	-0.988
Mof_O 	O 	0.0524	0.6417	0.8388	-1.029
Mof_Br	Br	0.3708	0.67066	0.91427	-0.176
Mof_C 	C 	0.3022	0.6673	0.962	-0.011
Mof_C 	C 	0.2471	0.666	0.935	0.15
Mof_C 	C 	0.3098	0.6652	0.024	0.173
Mof_O 	O 	0.2376	0.6656	0.8798	-0.988
Mof_O 	O 	0.3583	0.6612	0.0524	-1.029
Mof_Br	Br	0.8708	0.17066	0.41427	-0.177
Mof_C 	C 	0.8022	0.1673	0.462	-0.011
Mof_C 	C 	0.7471	0.166	0.435	0.15
Mof_C 	C 	0.8098	0.1652	0.524	0.173
Mof_O 	O 	0.7376	0.1656	0.3798	-0.988
Mof_O 	O 	0.8583	0.1612	0.5524	-1.029
Mof_Br	Br	0.8708	0.82934	0.08573	-0.177
Mof_C 	C 	0.8022	0.8327	0.038	-0.011
Mof_C 	C 	0.7471	0.834	0.065	0.15
Mof_C 	C 	0.8098	0.8348	0.976	0.172
Mof_O 	O 	0.7376	0.8344	0.1202	-0.988
Mof_O 	O 	0.8583	0.8388	0.9476	-1.029
Mof_Br	Br	0.3708	0.32934	0.58573	-0.176
Mof_C 	C 	0.3022	0.3327	0.538	-0.011
Mof_C 	C 	0.2471	0.334	0.565	0.15
Mof_C 	C 	0.3098	0.3348	0.476	0.173
Mof_O 	O 	0.2376	0.3344	0.6202	-0.988
Mof_O 	O 	0.3583	0.3388	0.4476	-1.029
Mof_Br	Br	0.6292	0.17066	0.58573	-0.176
Mof_C 	C 	0.6978	0.1673	0.538	-0.011
Mof_C 	C 	0.7529	0.166	0.565	0.15
Mof_C 	C 	0.6902	0.1652	0.476	0.173
Mof_O 	O 	0.7624	0.1656	0.6202	-0.988
Mof_O 	O 	0.6417	0.1612	0.4476	-1.029
Mof_Br	Br	0.1292	0.67066	0.08573	-0.177
Mof_C 	C 	0.1978	0.6673	0.038	-0.011
Mof_C 	C 	0.2529	0.666	0.065	0.15
Mof_C 	C 	0.1902	0.6652	0.976	0.172
Mof_O 	O 	0.2624	0.6656	0.1202	-0.988
Mof_O 	O 	0.1417	0.6612	0.9476	-1.029
Mof_Br	Br	0.1292	0.32934	0.41427	-0.176
Mof_C 	C 	0.1978	0.3327	0.462	-0.011
Mof_C 	C 	0.2529	0.334	0.435	0.15
Mof_C 	C 	0.1902	0.3348	0.524	0.173
Mof_O 	O 	0.2624	0.3344	0.3798	-0.988
Mof_O 	O 	0.1417	0.3388	0.5524	-1.029
Mof_Br	Br	0.6292	0.82934	0.91427	-0.177
Mof_C 	C 	0.6978	0.8327	0.962	-0.011
Mof_C 	C 	0.7529	0.834	0.935	0.15
Mof_C 	C 	0.6902	0.8348	0.024	0.173
Mof_O 	O 	0.7624	0.8344	0.8798	-0.988
Mof_O 	O 	0.6417	0.8388	0.0524	-1.029
Mof_Na	Na	0.64647	0.85353	0.14647	5.645
Mof_Na	Na	0.14647	0.35353	0.64647	5.646
Mof_Na	Na	0.85353	0.14647	0.64647	5.645
Mof_Na	Na	0.35353	0.64647	0.14647	5.646
Mof_Na	Na	0.14647	0.64647	0.85353	5.645
Mof_Na	Na	0.64647	0.14647	0.35353	5.646
Mof_Na	Na	0.35353	0.35353	0.35353	5.646
Mof_Na	Na	0.85353	0.85353	0.85353	5.645
_end
