# CIF file generated by openbabel 3.1.0, see https://openbabel.org
data_I
_chemical_name_common 'image0'
_cell_length_a 20.658
_cell_length_b 20.658
_cell_length_c 13.775
_cell_angle_alpha 90
_cell_angle_beta 90
_cell_angle_gamma 120
_space_group_name_H-M_alt 'P 1'
_space_group_name_Hall 'P 1'
loop_
    _symmetry_equiv_pos_as_xyz
    x,y,z
loop_
    _atom_site_label
    _atom_site_type_symbol
    _atom_site_fract_x
    _atom_site_fract_y
    _atom_site_fract_z
    _atom_site_occupancy
    H1       H        0.32010    0.56400    0.11990    1.000
    H2       H        0.32080    0.56580    0.27990    1.000
    H3       H        0.98677    0.89733    0.45323    1.000
    H4       H        0.98747    0.89913    0.61323    1.000
    H5       H        0.65343    0.23067    0.78657    1.000
    H6       H        0.65413    0.23247    0.94657    1.000
    H7       H        0.43600    0.75610    0.11990    1.000
    H8       H        0.43420    0.75500    0.27990    1.000
    H9       H        0.10267    0.08943    0.45323    1.000
    H10      H        0.10087    0.08833    0.61323    1.000
    H11      H        0.76933    0.42277    0.78657    1.000
    H12      H        0.76753    0.42167    0.94657    1.000
    H13      H        0.24390    0.67990    0.11990    1.000
    H14      H        0.24500    0.67920    0.27990    1.000
    H15      H        0.91057    0.01323    0.45323    1.000
    H16      H        0.91167    0.01253    0.61323    1.000
    H17      H        0.57723    0.34657    0.78657    1.000
    H18      H        0.57833    0.34587    0.94657    1.000
    H19      H        0.43600    0.67990    0.11990    1.000
    H20      H        0.43420    0.67920    0.27990    1.000
    H21      H        0.10267    0.01323    0.45323    1.000
    H22      H        0.10087    0.01253    0.61323    1.000
    H23      H        0.76933    0.34657    0.78657    1.000
    H24      H        0.76753    0.34587    0.94657    1.000
    H25      H        0.24390    0.56400    0.11990    1.000
    H26      H        0.24500    0.56580    0.27990    1.000
    H27      H        0.91057    0.89733    0.45323    1.000
    H28      H        0.91167    0.89913    0.61323    1.000
    H29      H        0.57723    0.23067    0.78657    1.000
    H30      H        0.57833    0.23247    0.94657    1.000
    H31      H        0.32010    0.75610    0.11990    1.000
    H32      H        0.32080    0.75500    0.27990    1.000
    H33      H        0.98677    0.08943    0.45323    1.000
    H34      H        0.98747    0.08833    0.61323    1.000
    H35      H        0.65343    0.42277    0.78657    1.000
    H36      H        0.65413    0.42167    0.94657    1.000
    F1       F        0.45360    0.90720    0.71090    1.000
    N1       N        0.61790    0.23580    0.45260    1.000
    N2       N        0.62245    0.24490    0.55170    1.000
    N3       N        0.58795    0.17590    0.59160    1.000
    N4       N        0.58240    0.16480    0.42850    1.000
    C1       C        0.56300    0.12600    0.51410    1.000
    C2       C        0.52235    0.04470    0.52430    1.000
    C3       C        0.50470    0.00940    0.61330    1.000
    H37      H        0.51880    0.03760    0.67000    1.000
    C4       C        0.46645    0.93290    0.61850    1.000
    C5       C        0.44160    0.88320    0.53930    1.000
    C6       C        0.46125    0.92250    0.45130    1.000
    H38      H        0.44740    0.89480    0.39410    1.000
    C7       C        0.50015    0.00030    0.44350    1.000
    H39      H        0.51115    0.02230    0.38240    1.000
    C8       C        0.40390    0.80780    0.54440    1.000
    C9       C        0.29500    0.59000    0.14340    1.000
    C10      C        0.29610    0.59220    0.25630    1.000
    O1       O        0.38490    0.76980    0.61500    1.000
    O2       O        0.38570    0.77140    0.46950    1.000
    F2       F        0.12027    0.24053    0.04423    1.000
    N5       N        0.28457    0.56913    0.78593    1.000
    N6       N        0.28912    0.57823    0.88503    1.000
    N7       N        0.25462    0.50923    0.92493    1.000
    N8       N        0.24907    0.49813    0.76183    1.000
    C11      C        0.22967    0.45933    0.84743    1.000
    C12      C        0.18902    0.37803    0.85763    1.000
    C13      C        0.17137    0.34273    0.94663    1.000
    H40      H        0.18547    0.37093    0.00333    1.000
    C14      C        0.13312    0.26623    0.95183    1.000
    C15      C        0.10827    0.21653    0.87263    1.000
    C16      C        0.12792    0.25583    0.78463    1.000
    H41      H        0.11407    0.22813    0.72743    1.000
    C17      C        0.16682    0.33363    0.77683    1.000
    H42      H        0.17782    0.35563    0.71573    1.000
    C18      C        0.07057    0.14113    0.87773    1.000
    C19      C        0.96167    0.92333    0.47673    1.000
    C20      C        0.96277    0.92553    0.58963    1.000
    O3       O        0.05157    0.10313    0.94833    1.000
    O4       O        0.05237    0.10473    0.80283    1.000
    F3       F        0.78693    0.57387    0.37757    1.000
    N9       N        0.95123    0.90247    0.11927    1.000
    N10      N        0.95578    0.91157    0.21837    1.000
    N11      N        0.92128    0.84257    0.25827    1.000
    N12      N        0.91573    0.83147    0.09517    1.000
    C21      C        0.89633    0.79267    0.18077    1.000
    C22      C        0.85568    0.71137    0.19097    1.000
    C23      C        0.83803    0.67607    0.27997    1.000
    H43      H        0.85213    0.70427    0.33667    1.000
    C24      C        0.79978    0.59957    0.28517    1.000
    C25      C        0.77493    0.54987    0.20597    1.000
    C26      C        0.79458    0.58917    0.11797    1.000
    H44      H        0.78073    0.56147    0.06077    1.000
    C27      C        0.83348    0.66697    0.11017    1.000
    H45      H        0.84448    0.68897    0.04907    1.000
    C28      C        0.73723    0.47447    0.21107    1.000
    C29      C        0.62833    0.25667    0.81007    1.000
    C30      C        0.62943    0.25887    0.92297    1.000
    O5       O        0.71823    0.43647    0.28167    1.000
    O6       O        0.71903    0.43807    0.13617    1.000
    F4       F        0.09280    0.54640    0.71090    1.000
    N13      N        0.76420    0.38210    0.45260    1.000
    N14      N        0.75510    0.37755    0.55170    1.000
    N15      N        0.82410    0.41205    0.59160    1.000
    N16      N        0.83520    0.41760    0.42850    1.000
    C31      C        0.87400    0.43700    0.51410    1.000
    C32      C        0.95530    0.47765    0.52430    1.000
    C33      C        0.99060    0.49530    0.61330    1.000
    H46      H        0.96240    0.48120    0.67000    1.000
    C34      C        0.06710    0.53355    0.61850    1.000
    C35      C        0.11680    0.55840    0.53930    1.000
    C36      C        0.07750    0.53875    0.45130    1.000
    H47      H        0.10520    0.55260    0.39410    1.000
    C37      C        0.99970    0.49985    0.44350    1.000
    H48      H        0.97770    0.48885    0.38240    1.000
    C38      C        0.19220    0.59610    0.54440    1.000
    C39      C        0.41000    0.70500    0.14340    1.000
    C40      C        0.40780    0.70390    0.25630    1.000
    O7       O        0.23020    0.61510    0.61500    1.000
    O8       O        0.22860    0.61430    0.46950    1.000
    F5       F        0.75947    0.87973    0.04423    1.000
    N17      N        0.43087    0.71543    0.78593    1.000
    N18      N        0.42177    0.71088    0.88503    1.000
    N19      N        0.49077    0.74538    0.92493    1.000
    N20      N        0.50187    0.75093    0.76183    1.000
    C41      C        0.54067    0.77033    0.84743    1.000
    C42      C        0.62197    0.81098    0.85763    1.000
    C43      C        0.65727    0.82863    0.94663    1.000
    H49      H        0.62907    0.81453    0.00333    1.000
    C44      C        0.73377    0.86688    0.95183    1.000
    C45      C        0.78347    0.89173    0.87263    1.000
    C46      C        0.74417    0.87208    0.78463    1.000
    H50      H        0.77187    0.88593    0.72743    1.000
    C47      C        0.66637    0.83318    0.77683    1.000
    H51      H        0.64437    0.82218    0.71573    1.000
    C48      C        0.85887    0.92943    0.87773    1.000
    C49      C        0.07667    0.03833    0.47673    1.000
    C50      C        0.07447    0.03723    0.58963    1.000
    O9       O        0.89687    0.94843    0.94833    1.000
    O10      O        0.89527    0.94763    0.80283    1.000
    F6       F        0.42613    0.21307    0.37757    1.000
    N21      N        0.09753    0.04877    0.11927    1.000
    N22      N        0.08843    0.04422    0.21837    1.000
    N23      N        0.15743    0.07872    0.25827    1.000
    N24      N        0.16853    0.08427    0.09517    1.000
    C51      C        0.20733    0.10367    0.18077    1.000
    C52      C        0.28863    0.14432    0.19097    1.000
    C53      C        0.32393    0.16197    0.27997    1.000
    H52      H        0.29573    0.14787    0.33667    1.000
    C54      C        0.40043    0.20022    0.28517    1.000
    C55      C        0.45013    0.22507    0.20597    1.000
    C56      C        0.41083    0.20542    0.11797    1.000
    H53      H        0.43853    0.21927    0.06077    1.000
    C57      C        0.33303    0.16652    0.11017    1.000
    H54      H        0.31103    0.15552    0.04907    1.000
    C58      C        0.52553    0.26277    0.21107    1.000
    C59      C        0.74333    0.37167    0.81007    1.000
    C60      C        0.74113    0.37057    0.92297    1.000
    O11      O        0.56353    0.28177    0.28167    1.000
    O12      O        0.56193    0.28097    0.13617    1.000
    F7       F        0.45360    0.54640    0.71090    1.000
    N25      N        0.61790    0.38210    0.45260    1.000
    N26      N        0.62245    0.37755    0.55170    1.000
    N27      N        0.58795    0.41205    0.59160    1.000
    N28      N        0.58240    0.41760    0.42850    1.000
    C61      C        0.56300    0.43700    0.51410    1.000
    C62      C        0.52235    0.47765    0.52430    1.000
    C63      C        0.50470    0.49530    0.61330    1.000
    H55      H        0.51880    0.48120    0.67000    1.000
    C64      C        0.46645    0.53355    0.61850    1.000
    C65      C        0.44160    0.55840    0.53930    1.000
    C66      C        0.46125    0.53875    0.45130    1.000
    H56      H        0.44740    0.55260    0.39410    1.000
    C67      C        0.50015    0.49985    0.44350    1.000
    H57      H        0.51115    0.48885    0.38240    1.000
    C68      C        0.40390    0.59610    0.54440    1.000
    C69      C        0.29500    0.70500    0.14340    1.000
    C70      C        0.29610    0.70390    0.25630    1.000
    O13      O        0.38490    0.61510    0.61500    1.000
    O14      O        0.38570    0.61430    0.46950    1.000
    F8       F        0.12027    0.87973    0.04423    1.000
    N29      N        0.28457    0.71543    0.78593    1.000
    N30      N        0.28912    0.71088    0.88503    1.000
    N31      N        0.25462    0.74538    0.92493    1.000
    N32      N        0.24907    0.75093    0.76183    1.000
    C71      C        0.22967    0.77033    0.84743    1.000
    C72      C        0.18902    0.81098    0.85763    1.000
    C73      C        0.17137    0.82863    0.94663    1.000
    H58      H        0.18547    0.81453    0.00333    1.000
    C74      C        0.13312    0.86688    0.95183    1.000
    C75      C        0.10827    0.89173    0.87263    1.000
    C76      C        0.12792    0.87208    0.78463    1.000
    H59      H        0.11407    0.88593    0.72743    1.000
    C77      C        0.16682    0.83318    0.77683    1.000
    H60      H        0.17782    0.82218    0.71573    1.000
    C78      C        0.07057    0.92943    0.87773    1.000
    C79      C        0.96167    0.03833    0.47673    1.000
    C80      C        0.96277    0.03723    0.58963    1.000
    O15      O        0.05157    0.94843    0.94833    1.000
    O16      O        0.05237    0.94763    0.80283    1.000
    F9       F        0.78693    0.21307    0.37757    1.000
    N33      N        0.95123    0.04877    0.11927    1.000
    N34      N        0.95578    0.04422    0.21837    1.000
    N35      N        0.92128    0.07872    0.25827    1.000
    N36      N        0.91573    0.08427    0.09517    1.000
    C81      C        0.89633    0.10367    0.18077    1.000
    C82      C        0.85568    0.14432    0.19097    1.000
    C83      C        0.83803    0.16197    0.27997    1.000
    H61      H        0.85213    0.14787    0.33667    1.000
    C84      C        0.79978    0.20022    0.28517    1.000
    C85      C        0.77493    0.22507    0.20597    1.000
    C86      C        0.79458    0.20542    0.11797    1.000
    H62      H        0.78073    0.21927    0.06077    1.000
    C87      C        0.83348    0.16652    0.11017    1.000
    H63      H        0.84448    0.15552    0.04907    1.000
    C88      C        0.73723    0.26277    0.21107    1.000
    C89      C        0.62833    0.37167    0.81007    1.000
    C90      C        0.62943    0.37057    0.92297    1.000
    O17      O        0.71823    0.28177    0.28167    1.000
    O18      O        0.71903    0.28097    0.13617    1.000
    Zn1      Zn       0.66667    0.33333    0.36326    1.000
    Zn2      Zn       0.66667    0.33333    0.62343    1.000
    Zn3      Zn       0.33333    0.66667    0.69659    1.000
    Zn4      Zn       0.33333    0.66667    0.95676    1.000
    Zn5      Zn       0.00000    0.00000    0.02993    1.000
    Zn6      Zn       0.00000    0.00000    0.29010    1.000
    Zn7      Zn       0.33333    0.66667    0.43650    1.000
    N37      N        0.33333    0.66667    0.10920    1.000
    N38      N        0.33333    0.66667    0.29660    1.000
    Zn8      Zn       0.00000    0.00000    0.76983    1.000
    N39      N        0.00000    0.00000    0.44253    1.000
    N40      N        0.00000    0.00000    0.62993    1.000
    Zn9      Zn       0.66667    0.33333    0.10317    1.000
    N41      N        0.66667    0.33333    0.77587    1.000
    N42      N        0.66667    0.33333    0.96327    1.000
