# CIF file generated by openbabel 3.1.0, see https://openbabel.org
data_I
_chemical_name_common 'image0'
_cell_length_a 24.05
_cell_length_b 12.458
_cell_length_c 18.14
_cell_angle_alpha 90
_cell_angle_beta 104.466
_cell_angle_gamma 90
_space_group_name_H-M_alt 'P 1'
_space_group_name_Hall 'P 1'
loop_
    _symmetry_equiv_pos_as_xyz
    x,y,z
loop_
    _atom_site_label
    _atom_site_type_symbol
    _atom_site_fract_x
    _atom_site_fract_y
    _atom_site_fract_z
    _atom_site_occupancy
    Na1      Na       0.08198    0.02470    0.10670    1.000
    Fe1      Fe       0.64219    0.23009    0.58440    1.000
    Zn1      Zn       0.14402    0.16886    0.23442    1.000
    C1       C        0.20660    0.06820    0.13780    1.000
    C2       C        0.26300    0.02260    0.13630    1.000
    C3       C        0.26920    0.95540    0.07730    1.000
    H1       H        0.23760    0.93980    0.03740    1.000
    C4       C        0.32200    0.91250    0.07830    1.000
    C5       C        0.36870    0.93120    0.14080    1.000
    H2       H        0.40400    0.89950    0.14210    1.000
    C6       C        0.36340    0.99620    0.20070    1.000
    C7       C        0.30990    0.04310    0.19540    1.000
    H3       H        0.30580    0.09020    0.23340    1.000
    C8       C        0.33220    0.84430    0.01490    1.000
    C9       C        0.41370    0.01050    0.26600    1.000
    H4       H        0.42500    0.94180    0.29030    1.000
    H5       H        0.44570    0.03870    0.24850    1.000
    C10      C        0.44420    0.10570    0.38380    1.000
    C11      C        0.49820    0.06790    0.39540    1.000
    H6       H        0.50800    0.02140    0.36060    1.000
    C12      C        0.53950    0.10020    0.46130    1.000
    C13      C        0.52490    0.17110    0.51560    1.000
    C14      C        0.46760    0.20600    0.50270    1.000
    C15      C        0.42820    0.17320    0.43650    1.000
    H7       H        0.39040    0.19690    0.42710    1.000
    C16      C        0.44880    0.28350    0.55760    1.000
    C17      C        0.47760    0.39230    0.55520    1.000
    H8       H        0.51850    0.38310    0.56780    1.000
    H9       H        0.46740    0.43990    0.59130    1.000
    H10      H        0.46500    0.42220    0.50500    1.000
    C18      C        0.38490    0.30250    0.53840    1.000
    H11      H        0.36540    0.23540    0.53930    1.000
    H12      H        0.37280    0.33370    0.48860    1.000
    H13      H        0.37580    0.35040    0.57520    1.000
    C19      C        0.46610    0.23650    0.64200    1.000
    H14      H        0.44790    0.16810    0.64300    1.000
    H15      H        0.45380    0.28520    0.67580    1.000
    H16      H        0.50700    0.22790    0.65800    1.000
    C20      C        0.59700    0.05590    0.47160    1.000
    H17      H        0.60110    0.99530    0.44360    1.000
    C21      C        0.69610    0.03850    0.53060    1.000
    H18      H        0.72390    0.07940    0.51150    1.000
    H19      H        0.69140    0.96860    0.50630    1.000
    C22      C        0.71560    0.02710    0.61670    1.000
    H20      H        0.69370    0.97120    0.63380    1.000
    H21      H        0.75590    0.00770    0.63180    1.000
    C23      C        0.74030    0.15660    0.71580    1.000
    H22      H        0.76960    0.10850    0.73670    1.000
    C24      C        0.73730    0.25130    0.75790    1.000
    C25      C        0.77970    0.26140    0.82970    1.000
    H23      H        0.80570    0.20630    0.84730    1.000
    C26      C        0.78100    0.35270    0.87090    1.000
    C27      C        0.74250    0.43460    0.84500    1.000
    H24      H        0.74450    0.49630    0.87440    1.000
    C28      C        0.70040    0.42860    0.77620    1.000
    C29      C        0.69720    0.33280    0.73320    1.000
    C30      C        0.65730    0.52180    0.74980    1.000
    C31      C        0.65950    0.55660    0.66920    1.000
    H25      H        0.69770    0.58020    0.67000    1.000
    H26      H        0.63300    0.61430    0.65240    1.000
    H27      H        0.64940    0.49690    0.63500    1.000
    C32      C        0.59700    0.48300    0.74800    1.000
    H28      H        0.57010    0.54050    0.73150    1.000
    H29      H        0.59550    0.46020    0.79800    1.000
    H30      H        0.58720    0.42390    0.71320    1.000
    C33      C        0.67130    0.62140    0.80140    1.000
    H31      H        0.70940    0.64590    0.80260    1.000
    H32      H        0.66920    0.60300    0.85200    1.000
    H33      H        0.64420    0.67730    0.78180    1.000
    C34      C        0.85200    0.28240    0.97310    1.000
    H34      H        0.87500    0.25690    0.93970    1.000
    H35      H        0.82680    0.22460    0.98010    1.000
    C35      C        0.89080    0.31340    0.04900    1.000
    C36      C        0.94470    0.26460    0.07020    1.000
    H36      H        0.95570    0.21870    0.03590    1.000
    C37      C        0.98160    0.28150    0.13890    1.000
    C38      C        0.96520    0.34960    0.18750    1.000
    H37      H        0.98990    0.36150    0.23510    1.000
    C39      C        0.91480    0.40030    0.16920    1.000
    C40      C        0.87620    0.38180    0.10070    1.000
    H38      H        0.84050    0.41520    0.08930    1.000
    C41      C        0.89670    0.47560    0.22440    1.000
    C42      C        0.04190    0.23010    0.15750    1.000
    N1       N        0.70660    0.13060    0.65140    1.000
    N2       N        0.64210    0.09440    0.51650    1.000
    O1       O        0.20350    0.13680    0.18590    1.000
    O2       O        0.16370    0.02640    0.09310    1.000
    O3       O        0.28980    0.80150    0.96790    1.000
    O4       O        0.38200    0.83190    0.00790    1.000
    O5       O        0.05230    0.17250    0.10550    1.000
    O6       O        0.06920    0.23470    0.21710    1.000
    O7       O        0.92850    0.47560    0.28910    1.000
    O8       O        0.86080    0.54160    0.19910    1.000
    O9       O        0.39964    0.08290    0.31960    1.000
    O10      O        0.81930    0.37010    0.93980    1.000
    O11      O        0.56406    0.19680    0.57830    1.000
    O12      O        0.65612    0.32130    0.66880    1.000
    Na2      Na       0.91802    0.52470    0.39330    1.000
    Fe2      Fe       0.35781    0.73009    0.91560    1.000
    Zn2      Zn       0.85598    0.66886    0.26558    1.000
    C43      C        0.79340    0.56820    0.36220    1.000
    C44      C        0.73700    0.52260    0.36370    1.000
    C45      C        0.73080    0.45540    0.42270    1.000
    H39      H        0.76240    0.43980    0.46260    1.000
    C46      C        0.67800    0.41250    0.42170    1.000
    C47      C        0.63130    0.43120    0.35920    1.000
    H40      H        0.59600    0.39950    0.35790    1.000
    C48      C        0.63660    0.49620    0.29930    1.000
    C49      C        0.69010    0.54310    0.30460    1.000
    H41      H        0.69420    0.59020    0.26660    1.000
    C50      C        0.66780    0.34430    0.48510    1.000
    C51      C        0.58630    0.51050    0.23400    1.000
    H42      H        0.57500    0.44180    0.20970    1.000
    H43      H        0.55430    0.53870    0.25150    1.000
    C52      C        0.55580    0.60570    0.11620    1.000
    C53      C        0.50180    0.56790    0.10460    1.000
    H44      H        0.49200    0.52140    0.13940    1.000
    C54      C        0.46050    0.60020    0.03870    1.000
    C55      C        0.47510    0.67110    0.98440    1.000
    C56      C        0.53240    0.70600    0.99730    1.000
    C57      C        0.57180    0.67320    0.06350    1.000
    H45      H        0.60960    0.69690    0.07290    1.000
    C58      C        0.55120    0.78350    0.94240    1.000
    C59      C        0.52240    0.89230    0.94480    1.000
    H46      H        0.48150    0.88310    0.93220    1.000
    H47      H        0.53260    0.93990    0.90870    1.000
    H48      H        0.53500    0.92220    0.99500    1.000
    C60      C        0.61510    0.80250    0.96160    1.000
    H49      H        0.63460    0.73540    0.96070    1.000
    H50      H        0.62720    0.83370    0.01140    1.000
    H51      H        0.62420    0.85040    0.92480    1.000
    C61      C        0.53390    0.73650    0.85800    1.000
    H52      H        0.55210    0.66810    0.85700    1.000
    H53      H        0.54620    0.78520    0.82420    1.000
    H54      H        0.49300    0.72790    0.84200    1.000
    C62      C        0.40300    0.55590    0.02840    1.000
    H55      H        0.39890    0.49530    0.05640    1.000
    C63      C        0.30390    0.53850    0.96940    1.000
    H56      H        0.27610    0.57940    0.98850    1.000
    H57      H        0.30860    0.46860    0.99370    1.000
    C64      C        0.28440    0.52710    0.88330    1.000
    H58      H        0.30630    0.47120    0.86620    1.000
    H59      H        0.24410    0.50770    0.86820    1.000
    C65      C        0.25970    0.65660    0.78420    1.000
    H60      H        0.23040    0.60850    0.76330    1.000
    C66      C        0.26270    0.75130    0.74210    1.000
    C67      C        0.22030    0.76140    0.67030    1.000
    H61      H        0.19430    0.70630    0.65270    1.000
    C68      C        0.21900    0.85270    0.62910    1.000
    C69      C        0.25750    0.93460    0.65500    1.000
    H62      H        0.25550    0.99630    0.62560    1.000
    C70      C        0.29960    0.92860    0.72380    1.000
    C71      C        0.30280    0.83280    0.76680    1.000
    C72      C        0.34270    0.02180    0.75020    1.000
    C73      C        0.34050    0.05660    0.83080    1.000
    H63      H        0.30230    0.08020    0.83000    1.000
    H64      H        0.36700    0.11430    0.84760    1.000
    H65      H        0.35060    0.99690    0.86500    1.000
    C74      C        0.40300    0.98300    0.75200    1.000
    H66      H        0.42990    0.04050    0.76850    1.000
    H67      H        0.40450    0.96020    0.70200    1.000
    H68      H        0.41280    0.92390    0.78680    1.000
    C75      C        0.32870    0.12140    0.69860    1.000
    H69      H        0.29060    0.14590    0.69740    1.000
    H70      H        0.33080    0.10300    0.64800    1.000
    H71      H        0.35580    0.17730    0.71820    1.000
    C76      C        0.14800    0.78240    0.52690    1.000
    H72      H        0.12500    0.75690    0.56030    1.000
    H73      H        0.17320    0.72460    0.51990    1.000
    C77      C        0.10920    0.81340    0.45100    1.000
    C78      C        0.05530    0.76460    0.42980    1.000
    H74      H        0.04430    0.71870    0.46410    1.000
    C79      C        0.01840    0.78150    0.36110    1.000
    C80      C        0.03480    0.84960    0.31250    1.000
    H75      H        0.01010    0.86150    0.26490    1.000
    C81      C        0.08520    0.90030    0.33080    1.000
    C82      C        0.12380    0.88180    0.39930    1.000
    H76      H        0.15950    0.91520    0.41070    1.000
    C83      C        0.10330    0.97560    0.27560    1.000
    C84      C        0.95810    0.73010    0.34250    1.000
    N3       N        0.29340    0.63060    0.84860    1.000
    N4       N        0.35790    0.59440    0.98350    1.000
    O13      O        0.79650    0.63680    0.31410    1.000
    O14      O        0.83630    0.52640    0.40690    1.000
    O15      O        0.71020    0.30150    0.53210    1.000
    O16      O        0.61800    0.33190    0.49210    1.000
    O17      O        0.94770    0.67250    0.39450    1.000
    O18      O        0.93080    0.73470    0.28290    1.000
    O19      O        0.07150    0.97560    0.21090    1.000
    O20      O        0.13920    0.04160    0.30090    1.000
    O21      O        0.60036    0.58290    0.18040    1.000
    O22      O        0.18070    0.87010    0.56020    1.000
    O23      O        0.43594    0.69680    0.92170    1.000
    O24      O        0.34388    0.82130    0.83120    1.000
    Na3      Na       0.91802    0.97530    0.89330    1.000
    Fe3      Fe       0.35781    0.76991    0.41560    1.000
    Zn3      Zn       0.85598    0.83114    0.76558    1.000
    C85      C        0.79340    0.93180    0.86220    1.000
    C86      C        0.73700    0.97740    0.86370    1.000
    C87      C        0.73080    0.04460    0.92270    1.000
    H77      H        0.76240    0.06020    0.96260    1.000
    C88      C        0.67800    0.08750    0.92170    1.000
    C89      C        0.63130    0.06880    0.85920    1.000
    H78      H        0.59600    0.10050    0.85790    1.000
    C90      C        0.63660    0.00380    0.79930    1.000
    C91      C        0.69010    0.95690    0.80460    1.000
    H79      H        0.69420    0.90980    0.76660    1.000
    C92      C        0.66780    0.15570    0.98510    1.000
    C93      C        0.58630    0.98950    0.73400    1.000
    H80      H        0.57500    0.05820    0.70970    1.000
    H81      H        0.55430    0.96130    0.75150    1.000
    C94      C        0.55580    0.89430    0.61620    1.000
    C95      C        0.50180    0.93210    0.60460    1.000
    H82      H        0.49200    0.97860    0.63940    1.000
    C96      C        0.46050    0.89980    0.53870    1.000
    C97      C        0.47510    0.82890    0.48440    1.000
    C98      C        0.53240    0.79400    0.49730    1.000
    C99      C        0.57180    0.82680    0.56350    1.000
    H83      H        0.60960    0.80310    0.57290    1.000
    C100     C        0.55120    0.71650    0.44240    1.000
    C101     C        0.52240    0.60770    0.44480    1.000
    H84      H        0.48150    0.61690    0.43220    1.000
    H85      H        0.53260    0.56010    0.40870    1.000
    H86      H        0.53500    0.57780    0.49500    1.000
    C102     C        0.61510    0.69750    0.46160    1.000
    H87      H        0.63460    0.76460    0.46070    1.000
    H88      H        0.62720    0.66630    0.51140    1.000
    H89      H        0.62420    0.64960    0.42480    1.000
    C103     C        0.53390    0.76350    0.35800    1.000
    H90      H        0.55210    0.83190    0.35700    1.000
    H91      H        0.54620    0.71480    0.32420    1.000
    H92      H        0.49300    0.77210    0.34200    1.000
    C104     C        0.40300    0.94410    0.52840    1.000
    H93      H        0.39890    0.00470    0.55640    1.000
    C105     C        0.30390    0.96150    0.46940    1.000
    H94      H        0.27610    0.92060    0.48850    1.000
    H95      H        0.30860    0.03140    0.49370    1.000
    C106     C        0.28440    0.97290    0.38330    1.000
    H96      H        0.30630    0.02880    0.36620    1.000
    H97      H        0.24410    0.99230    0.36820    1.000
    C107     C        0.25970    0.84340    0.28420    1.000
    H98      H        0.23040    0.89150    0.26330    1.000
    C108     C        0.26270    0.74870    0.24210    1.000
    C109     C        0.22030    0.73860    0.17030    1.000
    H99      H        0.19430    0.79370    0.15270    1.000
    C110     C        0.21900    0.64730    0.12910    1.000
    C111     C        0.25750    0.56540    0.15500    1.000
    H100     H        0.25550    0.50370    0.12560    1.000
    C112     C        0.29960    0.57140    0.22380    1.000
    C113     C        0.30280    0.66720    0.26680    1.000
    C114     C        0.34270    0.47820    0.25020    1.000
    C115     C        0.34050    0.44340    0.33080    1.000
    H101     H        0.30230    0.41980    0.33000    1.000
    H102     H        0.36700    0.38570    0.34760    1.000
    H103     H        0.35060    0.50310    0.36500    1.000
    C116     C        0.40300    0.51700    0.25200    1.000
    H104     H        0.42990    0.45950    0.26850    1.000
    H105     H        0.40450    0.53980    0.20200    1.000
    H106     H        0.41280    0.57610    0.28680    1.000
    C117     C        0.32870    0.37860    0.19860    1.000
    H107     H        0.29060    0.35410    0.19740    1.000
    H108     H        0.33080    0.39700    0.14800    1.000
    H109     H        0.35580    0.32270    0.21820    1.000
    C118     C        0.14800    0.71760    0.02690    1.000
    H110     H        0.12500    0.74310    0.06030    1.000
    H111     H        0.17320    0.77540    0.01990    1.000
    C119     C        0.10920    0.68660    0.95100    1.000
    C120     C        0.05530    0.73540    0.92980    1.000
    H112     H        0.04430    0.78130    0.96410    1.000
    C121     C        0.01840    0.71850    0.86110    1.000
    C122     C        0.03480    0.65040    0.81250    1.000
    H113     H        0.01010    0.63850    0.76490    1.000
    C123     C        0.08520    0.59970    0.83080    1.000
    C124     C        0.12380    0.61820    0.89930    1.000
    H114     H        0.15950    0.58480    0.91070    1.000
    C125     C        0.10330    0.52440    0.77560    1.000
    C126     C        0.95810    0.76990    0.84250    1.000
    N5       N        0.29340    0.86940    0.34860    1.000
    N6       N        0.35790    0.90560    0.48350    1.000
    O25      O        0.79650    0.86320    0.81410    1.000
    O26      O        0.83630    0.97360    0.90690    1.000
    O27      O        0.71020    0.19850    0.03210    1.000
    O28      O        0.61800    0.16810    0.99210    1.000
    O29      O        0.94770    0.82750    0.89450    1.000
    O30      O        0.93080    0.76530    0.78290    1.000
    O31      O        0.07150    0.52440    0.71090    1.000
    O32      O        0.13920    0.45840    0.80090    1.000
    O33      O        0.60036    0.91710    0.68040    1.000
    O34      O        0.18070    0.62990    0.06020    1.000
    O35      O        0.43594    0.80320    0.42170    1.000
    O36      O        0.34388    0.67870    0.33120    1.000
    Na4      Na       0.08198    0.47530    0.60670    1.000
    Fe4      Fe       0.64219    0.26991    0.08440    1.000
    Zn4      Zn       0.14402    0.33114    0.73442    1.000
    C127     C        0.20660    0.43180    0.63780    1.000
    C128     C        0.26300    0.47740    0.63630    1.000
    C129     C        0.26920    0.54460    0.57730    1.000
    H115     H        0.23760    0.56020    0.53740    1.000
    C130     C        0.32200    0.58750    0.57830    1.000
    C131     C        0.36870    0.56880    0.64080    1.000
    H116     H        0.40400    0.60050    0.64210    1.000
    C132     C        0.36340    0.50380    0.70070    1.000
    C133     C        0.30990    0.45690    0.69540    1.000
    H117     H        0.30580    0.40980    0.73340    1.000
    C134     C        0.33220    0.65570    0.51490    1.000
    C135     C        0.41370    0.48950    0.76600    1.000
    H118     H        0.42500    0.55820    0.79030    1.000
    H119     H        0.44570    0.46130    0.74850    1.000
    C136     C        0.44420    0.39430    0.88380    1.000
    C137     C        0.49820    0.43210    0.89540    1.000
    H120     H        0.50800    0.47860    0.86060    1.000
    C138     C        0.53950    0.39980    0.96130    1.000
    C139     C        0.52490    0.32890    0.01560    1.000
    C140     C        0.46760    0.29400    0.00270    1.000
    C141     C        0.42820    0.32680    0.93650    1.000
    H121     H        0.39040    0.30310    0.92710    1.000
    C142     C        0.44880    0.21650    0.05760    1.000
    C143     C        0.47760    0.10770    0.05520    1.000
    H122     H        0.51850    0.11690    0.06780    1.000
    H123     H        0.46740    0.06010    0.09130    1.000
    H124     H        0.46500    0.07780    0.00500    1.000
    C144     C        0.38490    0.19750    0.03840    1.000
    H125     H        0.36540    0.26460    0.03930    1.000
    H126     H        0.37280    0.16630    0.98860    1.000
    H127     H        0.37580    0.14960    0.07520    1.000
    C145     C        0.46610    0.26350    0.14200    1.000
    H128     H        0.44790    0.33190    0.14300    1.000
    H129     H        0.45380    0.21480    0.17580    1.000
    H130     H        0.50700    0.27210    0.15800    1.000
    C146     C        0.59700    0.44410    0.97160    1.000
    H131     H        0.60110    0.50470    0.94360    1.000
    C147     C        0.69610    0.46150    0.03060    1.000
    H132     H        0.72390    0.42060    0.01150    1.000
    H133     H        0.69140    0.53140    0.00630    1.000
    C148     C        0.71560    0.47290    0.11670    1.000
    H134     H        0.69370    0.52880    0.13380    1.000
    H135     H        0.75590    0.49230    0.13180    1.000
    C149     C        0.74030    0.34340    0.21580    1.000
    H136     H        0.76960    0.39150    0.23670    1.000
    C150     C        0.73730    0.24870    0.25790    1.000
    C151     C        0.77970    0.23860    0.32970    1.000
    H137     H        0.80570    0.29370    0.34730    1.000
    C152     C        0.78100    0.14730    0.37090    1.000
    C153     C        0.74250    0.06540    0.34500    1.000
    H138     H        0.74450    0.00370    0.37440    1.000
    C154     C        0.70040    0.07140    0.27620    1.000
    C155     C        0.69720    0.16720    0.23320    1.000
    C156     C        0.65730    0.97820    0.24980    1.000
    C157     C        0.65950    0.94340    0.16920    1.000
    H139     H        0.69770    0.91980    0.17000    1.000
    H140     H        0.63300    0.88570    0.15240    1.000
    H141     H        0.64940    0.00310    0.13500    1.000
    C158     C        0.59700    0.01700    0.24800    1.000
    H142     H        0.57010    0.95950    0.23150    1.000
    H143     H        0.59550    0.03980    0.29800    1.000
    H144     H        0.58720    0.07610    0.21320    1.000
    C159     C        0.67130    0.87860    0.30140    1.000
    H145     H        0.70940    0.85410    0.30260    1.000
    H146     H        0.66920    0.89700    0.35200    1.000
    H147     H        0.64420    0.82270    0.28180    1.000
    C160     C        0.85200    0.21760    0.47310    1.000
    H148     H        0.87500    0.24310    0.43970    1.000
    H149     H        0.82680    0.27540    0.48010    1.000
    C161     C        0.89080    0.18660    0.54900    1.000
    C162     C        0.94470    0.23540    0.57020    1.000
    H150     H        0.95570    0.28130    0.53590    1.000
    C163     C        0.98160    0.21850    0.63890    1.000
    C164     C        0.96520    0.15040    0.68750    1.000
    H151     H        0.98990    0.13850    0.73510    1.000
    C165     C        0.91480    0.09970    0.66920    1.000
    C166     C        0.87620    0.11820    0.60070    1.000
    H152     H        0.84050    0.08480    0.58930    1.000
    C167     C        0.89670    0.02440    0.72440    1.000
    C168     C        0.04190    0.26990    0.65750    1.000
    N7       N        0.70660    0.36940    0.15140    1.000
    N8       N        0.64210    0.40560    0.01650    1.000
    O37      O        0.20350    0.36320    0.68590    1.000
    O38      O        0.16370    0.47360    0.59310    1.000
    O39      O        0.28980    0.69850    0.46790    1.000
    O40      O        0.38200    0.66810    0.50790    1.000
    O41      O        0.05230    0.32750    0.60550    1.000
    O42      O        0.06920    0.26530    0.71710    1.000
    O43      O        0.92850    0.02440    0.78910    1.000
    O44      O        0.86080    0.95840    0.69910    1.000
    O45      O        0.39964    0.41710    0.81960    1.000
    O46      O        0.81930    0.12990    0.43980    1.000
    O47      O        0.56406    0.30320    0.07830    1.000
    O48      O        0.65612    0.17870    0.16880    1.000
