data_functionalizedCrystal
_audit_creation_method	'EQeq! by Chris Wilmer'
_symmetry_space_group_name_H-M	'P1'
_symmetry_Int_Tables_number	1
_symmetry_cell_setting	triclinic
loop_
_symmetry_equiv_pos_as_xyz
  x,y,z
_cell_length_a	21.218
_cell_length_b	21.218
_cell_length_c	15.259
_cell_angle_alpha	90
_cell_angle_beta	90
_cell_angle_gamma	120
loop_
_atom_site_label
_atom_site_type_symbol
_atom_site_fract_x
_atom_site_fract_y
_atom_site_fract_z
_atom_site_charge
Mof_N 	N 	0.07582	0.20983	0.14198	-0.105
Mof_N 	N 	0.02033	0.09891	0.08844	-0.153
Mof_N 	N 	0.17681	0.16347	0.32731	-0.109
Mof_N 	N 	0.10297	0.07179	0.41154	-0.144
Mof_C 	C 	0.14991	0.3092	0.24603	0.026
Mof_C 	C 	0.18282	0.2813	0.29985	0.033
Mof_C 	C 	0.13391	0.36065	0.27997	-0.098
Mof_H 	H 	0.1111	0.3795	0.2433	0.065
Mof_C 	C 	0.13088	0.28742	0.15133	-0.094
Mof_H 	H 	0.1121	0.3174	0.1247	0.055
Mof_H 	H 	0.1754	0.2973	0.1192	0.054
Mof_C 	C 	0.07749	0.1641	0.08234	0.079
Mof_H 	H 	0.1155	0.1774	0.0408	0.005
Mof_C 	C 	0.97976	0.10329	0.1558	0.044
Mof_H 	H 	0.9348	0.0641	0.1759	0.021
Mof_C 	C 	0.01308	0.17151	0.1894	-0.046
Mof_H 	H 	0.9964	0.1891	0.2361	0.056
Mof_C 	C 	0.20445	0.2271	0.26873	-0.096
Mof_H 	H 	0.1851	0.2106	0.2089	0.064
Mof_H 	H 	0.2582	0.2513	0.2658	0.058
Mof_C 	C 	0.10896	0.12415	0.36	0.084
Mof_H 	H 	0.0703	0.1331	0.3473	0.01
Mof_C 	C 	0.1698	0.07724	0.4106	0.009
Mof_H 	H 	0.1822	0.0462	0.4418	0.026
Mof_C 	C 	0.21581	0.13326	0.3591	-0.012
Mof_H 	H 	0.2654	0.1485	0.3473	0.029
Mof_N 	N 	0.74249	0.54316	0.47531	-0.112
Mof_N 	N 	0.687	0.43224	0.42177	-0.143
Mof_N 	N 	0.84348	0.4968	0.66064	-0.109
Mof_N 	N 	0.76964	0.40512	0.74487	-0.143
Mof_C 	C 	0.81658	0.64253	0.57936	0.026
Mof_C 	C 	0.84949	0.61463	0.63318	0.033
Mof_C 	C 	0.80058	0.69398	0.6133	-0.098
Mof_H 	H 	0.77777	0.71283	0.57663	0.066
Mof_C 	C 	0.79755	0.62075	0.48466	-0.092
Mof_H 	H 	0.77877	0.65073	0.45803	0.056
Mof_H 	H 	0.84207	0.63063	0.45253	0.055
Mof_C 	C 	0.74416	0.49743	0.41567	0.081
Mof_H 	H 	0.78217	0.51073	0.37413	0.006
Mof_C 	C 	0.64643	0.43662	0.48913	0.007
Mof_H 	H 	0.60147	0.39743	0.50923	0.035
Mof_C 	C 	0.67975	0.50484	0.52273	-0.004
Mof_H 	H 	0.66307	0.52243	0.56943	0.035
Mof_C 	C 	0.87112	0.56043	0.60206	-0.097
Mof_H 	H 	0.85177	0.54393	0.54223	0.066
Mof_H 	H 	0.92487	0.58463	0.59913	0.06
Mof_C 	C 	0.77563	0.45748	0.69333	0.084
Mof_H 	H 	0.73697	0.46643	0.68063	0.013
Mof_C 	C 	0.83647	0.41057	0.74393	0.01
Mof_H 	H 	0.84887	0.37953	0.77513	0.029
Mof_C 	C 	0.88248	0.46659	0.69243	-0.012
Mof_H 	H 	0.93207	0.48183	0.68063	0.032
Mof_N 	N 	0.40915	0.8765	0.80865	-0.11
Mof_N 	N 	0.35366	0.76558	0.75511	-0.143
Mof_N 	N 	0.51014	0.83014	0.99398	-0.104
Mof_N 	N 	0.4363	0.73846	0.07821	-0.143
Mof_C 	C 	0.48324	0.97587	0.9127	0.039
Mof_C 	C 	0.51615	0.94797	0.96652	0.031
Mof_C 	C 	0.46724	0.02732	0.94664	-0.107
Mof_H 	H 	0.44443	0.04617	0.90997	0.068
Mof_C 	C 	0.46421	0.95409	0.818	-0.099
Mof_H 	H 	0.44543	0.98407	0.79137	0.061
Mof_H 	H 	0.50873	0.96397	0.78587	0.058
Mof_C 	C 	0.41082	0.83077	0.74901	0.081
Mof_H 	H 	0.44883	0.84407	0.70747	0.007
Mof_C 	C 	0.31309	0.76996	0.82247	0.008
Mof_H 	H 	0.26813	0.73077	0.84257	0.035
Mof_C 	C 	0.34641	0.83818	0.85607	-0.004
Mof_H 	H 	0.32973	0.85577	0.90277	0.037
Mof_C 	C 	0.53778	0.89377	0.9354	-0.095
Mof_H 	H 	0.51843	0.87727	0.87557	0.066
Mof_H 	H 	0.59153	0.91797	0.93247	0.06
Mof_C 	C 	0.44229	0.79082	0.02667	0.079
Mof_H 	H 	0.40363	0.79977	0.01397	0.013
Mof_C 	C 	0.50313	0.74391	0.07727	0.011
Mof_H 	H 	0.51553	0.71287	0.10847	0.027
Mof_C 	C 	0.54914	0.79993	0.02577	-0.018
Mof_H 	H 	0.59873	0.81517	0.01397	0.031
Mof_N 	N 	0.79017	0.86599	0.14198	-0.112
Mof_N 	N 	0.90109	0.92142	0.08844	-0.139
Mof_N 	N 	0.83653	0.01334	0.32731	-0.122
Mof_N 	N 	0.92821	0.03118	0.41154	-0.147
Mof_C 	C 	0.6908	0.84071	0.24603	0.03
Mof_C 	C 	0.7187	0.90152	0.29985	0.024
Mof_C 	C 	0.63935	0.77326	0.27997	-0.101
Mof_H 	H 	0.6205	0.7316	0.2433	0.067
Mof_C 	C 	0.71258	0.84346	0.15133	-0.094
Mof_H 	H 	0.6826	0.7947	0.1247	0.056
Mof_H 	H 	0.7027	0.8781	0.1192	0.055
Mof_C 	C 	0.8359	0.91339	0.08234	0.082
Mof_H 	H 	0.8226	0.9381	0.0408	0.007
Mof_C 	C 	0.89671	0.87647	0.1558	0.007
Mof_H 	H 	0.9359	0.8707	0.1759	0.038
Mof_C 	C 	0.82849	0.84157	0.1894	-0.003
Mof_H 	H 	0.8109	0.8073	0.2361	0.035
Mof_C 	C 	0.7729	0.97735	0.26873	-0.069
Mof_H 	H 	0.7894	0.9745	0.2089	0.06
Mof_H 	H 	0.7487	0.0069	0.2658	0.044
Mof_C 	C 	0.87585	0.98481	0.36	0.104
Mof_H 	H 	0.8669	0.9372	0.3473	0.008
Mof_C 	C 	0.92276	0.09256	0.4106	0.008
Mof_H 	H 	0.9538	0.136	0.4418	0.03
Mof_C 	C 	0.86674	0.08255	0.3591	-0.011
Mof_H 	H 	0.8515	0.1169	0.3473	0.029
Mof_N 	N 	0.45684	0.19932	0.47531	-0.112
Mof_N 	N 	0.56776	0.25475	0.42177	-0.143
Mof_N 	N 	0.5032	0.34667	0.66064	-0.109
Mof_N 	N 	0.59488	0.36451	0.74487	-0.143
Mof_C 	C 	0.35747	0.17404	0.57936	0.028
Mof_C 	C 	0.38537	0.23485	0.63318	0.03
Mof_C 	C 	0.30602	0.10659	0.6133	-0.104
Mof_H 	H 	0.28717	0.06493	0.57663	0.066
Mof_C 	C 	0.37925	0.17679	0.48466	-0.093
Mof_H 	H 	0.34927	0.12803	0.45803	0.055
Mof_H 	H 	0.36937	0.21143	0.45253	0.054
Mof_C 	C 	0.50257	0.24672	0.41567	0.081
Mof_H 	H 	0.48927	0.27143	0.37413	0.006
Mof_C 	C 	0.56338	0.2098	0.48913	0.006
Mof_H 	H 	0.60257	0.20403	0.50923	0.034
Mof_C 	C 	0.49516	0.1749	0.52273	-0.004
Mof_H 	H 	0.47757	0.14063	0.56943	0.034
Mof_C 	C 	0.43957	0.31068	0.60206	-0.095
Mof_H 	H 	0.45607	0.30783	0.54223	0.065
Mof_H 	H 	0.41537	0.34023	0.59913	0.058
Mof_C 	C 	0.54252	0.31814	0.69333	0.084
Mof_H 	H 	0.53357	0.27053	0.68063	0.012
Mof_C 	C 	0.58943	0.42589	0.74393	0.009
Mof_H 	H 	0.62047	0.46933	0.77513	0.028
Mof_C 	C 	0.53341	0.41588	0.69243	-0.012
Mof_H 	H 	0.51817	0.45023	0.68063	0.03
Mof_N 	N 	0.1235	0.53266	0.80865	-0.114
Mof_N 	N 	0.23442	0.58809	0.75511	-0.143
Mof_N 	N 	0.16986	0.68001	0.99398	-0.102
Mof_N 	N 	0.26154	0.69785	0.07821	-0.143
Mof_C 	C 	0.02413	0.50738	0.9127	-0.003
Mof_C 	C 	0.05203	0.56819	0.96652	0.058
Mof_C 	C 	0.97268	0.43993	0.94664	-0.061
Mof_H 	H 	0.95383	0.39827	0.90997	0.058
Mof_C 	C 	0.04591	0.51013	0.818	-0.077
Mof_H 	H 	0.01593	0.46137	0.79137	0.049
Mof_H 	H 	0.03603	0.54477	0.78587	0.048
Mof_C 	C 	0.16923	0.58006	0.74901	0.082
Mof_H 	H 	0.15593	0.60477	0.70747	0.005
Mof_C 	C 	0.23004	0.54314	0.82247	0.007
Mof_H 	H 	0.26923	0.53737	0.84257	0.035
Mof_C 	C 	0.16182	0.50824	0.85607	-0.003
Mof_H 	H 	0.14423	0.47397	0.90277	0.035
Mof_C 	C 	0.10623	0.64402	0.9354	-0.109
Mof_H 	H 	0.12273	0.64117	0.87557	0.069
Mof_H 	H 	0.08203	0.67357	0.93247	0.062
Mof_C 	C 	0.20918	0.65148	0.02667	0.078
Mof_H 	H 	0.20023	0.60387	0.01397	0.013
Mof_C 	C 	0.25609	0.75923	0.07727	0.012
Mof_H 	H 	0.28713	0.80267	0.10847	0.027
Mof_C 	C 	0.20007	0.74922	0.02577	-0.02
Mof_H 	H 	0.18483	0.78357	0.01397	0.031
Mof_N 	N 	0.13401	0.92418	0.14198	-0.119
Mof_N 	N 	0.07858	0.97967	0.08844	-0.132
Mof_N 	N 	0.98666	0.82319	0.32731	-0.097
Mof_N 	N 	0.96882	0.89703	0.41154	-0.133
Mof_C 	C 	0.15929	0.85009	0.24603	0.021
Mof_C 	C 	0.09848	0.81718	0.29985	0.04
Mof_C 	C 	0.22674	0.86609	0.27997	-0.095
Mof_H 	H 	0.2684	0.8889	0.2433	0.066
Mof_C 	C 	0.15654	0.86912	0.15133	-0.086
Mof_H 	H 	0.2053	0.8879	0.1247	0.055
Mof_H 	H 	0.1219	0.8246	0.1192	0.051
Mof_C 	C 	0.08661	0.92251	0.08234	0.082
Mof_H 	H 	0.0619	0.8845	0.0408	0.003
Mof_C 	C 	0.12353	0.02024	0.1558	-0.035
Mof_H 	H 	0.1293	0.0652	0.1759	0.046
Mof_C 	C 	0.15843	0.98692	0.1894	0.041
Mof_H 	H 	0.1927	0.0036	0.2361	0.013
Mof_C 	C 	0.02265	0.79555	0.26873	-0.122
Mof_H 	H 	0.0255	0.8149	0.2089	0.07
Mof_H 	H 	0.9931	0.7418	0.2658	0.07
Mof_C 	C 	0.01519	0.89104	0.36	0.067
Mof_H 	H 	0.0628	0.9297	0.3473	0.02
Mof_C 	C 	0.90744	0.8302	0.4106	0.011
Mof_H 	H 	0.864	0.8178	0.4418	0.028
Mof_C 	C 	0.91745	0.78419	0.3591	-0.013
Mof_H 	H 	0.8831	0.7346	0.3473	0.031
Mof_N 	N 	0.80068	0.25751	0.47531	-0.112
Mof_N 	N 	0.74525	0.313	0.42177	-0.143
Mof_N 	N 	0.65333	0.15652	0.66064	-0.11
Mof_N 	N 	0.63549	0.23036	0.74487	-0.143
Mof_C 	C 	0.82596	0.18342	0.57936	0.023
Mof_C 	C 	0.76515	0.15051	0.63318	0.033
Mof_C 	C 	0.89341	0.19942	0.6133	-0.093
Mof_H 	H 	0.93507	0.22223	0.57663	0.066
Mof_C 	C 	0.82321	0.20245	0.48466	-0.091
Mof_H 	H 	0.87197	0.22123	0.45803	0.057
Mof_H 	H 	0.78857	0.15793	0.45253	0.053
Mof_C 	C 	0.75328	0.25584	0.41567	0.081
Mof_H 	H 	0.72857	0.21783	0.37413	0.005
Mof_C 	C 	0.7902	0.35357	0.48913	0.007
Mof_H 	H 	0.79597	0.39853	0.50923	0.035
Mof_C 	C 	0.8251	0.32025	0.52273	-0.003
Mof_H 	H 	0.85937	0.33693	0.56943	0.036
Mof_C 	C 	0.68932	0.12888	0.60206	-0.096
Mof_H 	H 	0.69217	0.14823	0.54223	0.065
Mof_H 	H 	0.65977	0.07513	0.59913	0.056
Mof_C 	C 	0.68186	0.22437	0.69333	0.084
Mof_H 	H 	0.72947	0.26303	0.68063	0.013
Mof_C 	C 	0.57411	0.16353	0.74393	0.009
Mof_H 	H 	0.53067	0.15113	0.77513	0.027
Mof_C 	C 	0.58412	0.11752	0.69243	-0.012
Mof_H 	H 	0.54977	0.06793	0.68063	0.027
Mof_N 	N 	0.46734	0.59085	0.80865	-0.112
Mof_N 	N 	0.41191	0.64634	0.75511	-0.143
Mof_N 	N 	0.31999	0.48986	0.99398	-0.102
Mof_N 	N 	0.30215	0.5637	0.07821	-0.143
Mof_C 	C 	0.49262	0.51676	0.9127	0.017
Mof_C 	C 	0.43181	0.48385	0.96652	0.046
Mof_C 	C 	0.56007	0.53276	0.94664	-0.084
Mof_H 	H 	0.60173	0.55557	0.90997	0.063
Mof_C 	C 	0.48987	0.53579	0.818	-0.087
Mof_H 	H 	0.53863	0.55457	0.79137	0.055
Mof_H 	H 	0.45523	0.49127	0.78587	0.053
Mof_C 	C 	0.41994	0.58918	0.74901	0.081
Mof_H 	H 	0.39523	0.55117	0.70747	0.006
Mof_C 	C 	0.45686	0.68691	0.82247	0.007
Mof_H 	H 	0.46263	0.73187	0.84257	0.035
Mof_C 	C 	0.49176	0.65359	0.85607	-0.003
Mof_H 	H 	0.52603	0.67027	0.90277	0.036
Mof_C 	C 	0.35598	0.46222	0.9354	-0.103
Mof_H 	H 	0.35883	0.48157	0.87557	0.067
Mof_H 	H 	0.32643	0.40847	0.93247	0.061
Mof_C 	C 	0.34852	0.55771	0.02667	0.078
Mof_H 	H 	0.39613	0.59637	0.01397	0.013
Mof_C 	C 	0.24077	0.49687	0.07727	0.012
Mof_H 	H 	0.19733	0.48447	0.10847	0.026
Mof_C 	C 	0.25078	0.45086	0.02577	-0.019
Mof_H 	H 	0.21643	0.40127	0.01397	0.03
Mof_N 	N 	0.92418	0.79017	0.85802	-0.116
Mof_N 	N 	0.97967	0.90109	0.91156	-0.13
Mof_N 	N 	0.82319	0.83653	0.67269	-0.109
Mof_N 	N 	0.89703	0.92821	0.58846	-0.139
Mof_C 	C 	0.85009	0.6908	0.75397	0.026
Mof_C 	C 	0.81718	0.7187	0.70015	0.033
Mof_C 	C 	0.86609	0.63935	0.72003	-0.098
Mof_H 	H 	0.8889	0.6205	0.7567	0.068
Mof_C 	C 	0.86912	0.71258	0.84867	-0.09
Mof_H 	H 	0.8879	0.6826	0.8753	0.057
Mof_H 	H 	0.8246	0.7027	0.8808	0.054
Mof_C 	C 	0.92251	0.8359	0.91766	0.083
Mof_H 	H 	0.8845	0.8226	0.9592	0.008
Mof_C 	C 	0.02024	0.89671	0.8442	-0.023
Mof_H 	H 	0.0652	0.9359	0.8241	0.047
Mof_C 	C 	0.98692	0.82849	0.8106	0.031
Mof_H 	H 	0.0036	0.8109	0.7639	0.018
Mof_C 	C 	0.79555	0.7729	0.73127	-0.097
Mof_H 	H 	0.8149	0.7894	0.7911	0.066
Mof_H 	H 	0.7418	0.7487	0.7342	0.058
Mof_C 	C 	0.89104	0.87585	0.64	0.085
Mof_H 	H 	0.9297	0.8669	0.6527	0.015
Mof_C 	C 	0.8302	0.92276	0.5894	0.01
Mof_H 	H 	0.8178	0.9538	0.5582	0.03
Mof_C 	C 	0.78419	0.86674	0.6409	-0.012
Mof_H 	H 	0.7346	0.8515	0.6527	0.03
Mof_N 	N 	0.59085	0.1235	0.19135	-0.113
Mof_N 	N 	0.64634	0.23442	0.24489	-0.143
Mof_N 	N 	0.48986	0.16986	0.00602	-0.115
Mof_N 	N 	0.5637	0.26154	0.92179	-0.144
Mof_C 	C 	0.51676	0.02413	0.0873	0.011
Mof_C 	C 	0.48385	0.05203	0.03348	0.032
Mof_C 	C 	0.53276	0.97268	0.05336	-0.086
Mof_H 	H 	0.55557	0.95383	0.09003	0.064
Mof_C 	C 	0.53579	0.04591	0.182	-0.085
Mof_H 	H 	0.55457	0.01593	0.20863	0.051
Mof_H 	H 	0.49127	0.03603	0.21413	0.05
Mof_C 	C 	0.58918	0.16923	0.25099	0.081
Mof_H 	H 	0.55117	0.15593	0.29253	0.005
Mof_C 	C 	0.68691	0.23004	0.17753	0.006
Mof_H 	H 	0.73187	0.26923	0.15743	0.034
Mof_C 	C 	0.65359	0.16182	0.14393	-0.004
Mof_H 	H 	0.67027	0.14423	0.09723	0.033
Mof_C 	C 	0.46222	0.10623	0.0646	-0.097
Mof_H 	H 	0.48157	0.12273	0.12443	0.065
Mof_H 	H 	0.40847	0.08203	0.06753	0.055
Mof_C 	C 	0.55771	0.20918	0.97333	0.09
Mof_H 	H 	0.59637	0.20023	0.98603	0.012
Mof_C 	C 	0.49687	0.25609	0.92273	0.007
Mof_H 	H 	0.48447	0.28713	0.89153	0.029
Mof_C 	C 	0.45086	0.20007	0.97423	-0.006
Mof_H 	H 	0.40127	0.18483	0.98603	0.029
Mof_N 	N 	0.25751	0.45684	0.52469	-0.112
Mof_N 	N 	0.313	0.56776	0.57823	-0.143
Mof_N 	N 	0.15652	0.5032	0.33936	-0.11
Mof_N 	N 	0.23036	0.59488	0.25513	-0.143
Mof_C 	C 	0.18342	0.35747	0.42064	0.025
Mof_C 	C 	0.15051	0.38537	0.36682	0.031
Mof_C 	C 	0.19942	0.30602	0.3867	-0.098
Mof_H 	H 	0.22223	0.28717	0.42337	0.066
Mof_C 	C 	0.20245	0.37925	0.51534	-0.092
Mof_H 	H 	0.22123	0.34927	0.54197	0.056
Mof_H 	H 	0.15793	0.36937	0.54747	0.053
Mof_C 	C 	0.25584	0.50257	0.58433	0.081
Mof_H 	H 	0.21783	0.48927	0.62587	0.006
Mof_C 	C 	0.35357	0.56338	0.51087	0.007
Mof_H 	H 	0.39853	0.60257	0.49077	0.035
Mof_C 	C 	0.32025	0.49516	0.47727	-0.004
Mof_H 	H 	0.33693	0.47757	0.43057	0.035
Mof_C 	C 	0.12888	0.43957	0.39794	-0.095
Mof_H 	H 	0.14823	0.45607	0.45777	0.064
Mof_H 	H 	0.07513	0.41537	0.40087	0.056
Mof_C 	C 	0.22437	0.54252	0.30667	0.084
Mof_H 	H 	0.26303	0.53357	0.31937	0.013
Mof_C 	C 	0.16353	0.58943	0.25607	0.009
Mof_H 	H 	0.15113	0.62047	0.22487	0.027
Mof_C 	C 	0.11752	0.53341	0.30757	-0.012
Mof_H 	H 	0.06793	0.51817	0.31937	0.027
Mof_N 	N 	0.20983	0.13401	0.85802	-0.112
Mof_N 	N 	0.09891	0.07858	0.91156	-0.143
Mof_N 	N 	0.16347	0.98666	0.67269	-0.095
Mof_N 	N 	0.07179	0.96882	0.58846	-0.135
Mof_C 	C 	0.3092	0.15929	0.75397	0.02
Mof_C 	C 	0.2813	0.09848	0.70015	0.041
Mof_C 	C 	0.36065	0.22674	0.72003	-0.095
Mof_H 	H 	0.3795	0.2684	0.7567	0.065
Mof_C 	C 	0.28742	0.15654	0.84867	-0.09
Mof_H 	H 	0.3174	0.2053	0.8753	0.056
Mof_H 	H 	0.2973	0.1219	0.8808	0.053
Mof_C 	C 	0.1641	0.08661	0.91766	0.081
Mof_H 	H 	0.1774	0.0619	0.9592	0.006
Mof_C 	C 	0.10329	0.12353	0.8442	0.006
Mof_H 	H 	0.0641	0.1293	0.8241	0.032
Mof_C 	C 	0.17151	0.15843	0.8106	-0.004
Mof_H 	H 	0.1891	0.1927	0.7639	0.035
Mof_C 	C 	0.2271	0.02265	0.73127	-0.126
Mof_H 	H 	0.2106	0.0255	0.7911	0.071
Mof_H 	H 	0.2513	0.9931	0.7342	0.073
Mof_C 	C 	0.12415	0.01519	0.64	0.062
Mof_H 	H 	0.1331	0.0628	0.6527	0.019
Mof_C 	C 	0.07724	0.90744	0.5894	0.011
Mof_H 	H 	0.0462	0.864	0.5582	0.026
Mof_C 	C 	0.13326	0.91745	0.6409	-0.013
Mof_H 	H 	0.1485	0.8831	0.6527	0.031
Mof_N 	N 	0.8765	0.46734	0.19135	-0.109
Mof_N 	N 	0.76558	0.41191	0.24489	-0.143
Mof_N 	N 	0.83014	0.31999	0.00602	-0.117
Mof_N 	N 	0.73846	0.30215	0.92179	-0.144
Mof_C 	C 	0.97587	0.49262	0.0873	0.055
Mof_C 	C 	0.94797	0.43181	0.03348	0.007
Mof_C 	C 	0.02732	0.56007	0.05336	-0.136
Mof_H 	H 	0.04617	0.60173	0.09003	0.075
Mof_C 	C 	0.95409	0.48987	0.182	-0.107
Mof_H 	H 	0.98407	0.53863	0.20863	0.063
Mof_H 	H 	0.96397	0.45523	0.21413	0.061
Mof_C 	C 	0.83077	0.41994	0.25099	0.08
Mof_H 	H 	0.84407	0.39523	0.29253	0.007
Mof_C 	C 	0.76996	0.45686	0.17753	0.007
Mof_H 	H 	0.73077	0.46263	0.15743	0.034
Mof_C 	C 	0.83818	0.49176	0.14393	-0.005
Mof_H 	H 	0.85577	0.52603	0.09723	0.035
Mof_C 	C 	0.89377	0.35598	0.0646	-0.084
Mof_H 	H 	0.87727	0.35883	0.12443	0.062
Mof_H 	H 	0.91797	0.32643	0.06753	0.055
Mof_C 	C 	0.79082	0.34852	0.97333	0.091
Mof_H 	H 	0.79977	0.39613	0.98603	0.012
Mof_C 	C 	0.74391	0.24077	0.92273	0.007
Mof_H 	H 	0.71287	0.19733	0.89153	0.028
Mof_C 	C 	0.79993	0.25078	0.97423	-0.005
Mof_H 	H 	0.81517	0.21643	0.98603	0.029
Mof_N 	N 	0.54316	0.80068	0.52469	-0.112
Mof_N 	N 	0.43224	0.74525	0.57823	-0.143
Mof_N 	N 	0.4968	0.65333	0.33936	-0.109
Mof_N 	N 	0.40512	0.63549	0.25513	-0.143
Mof_C 	C 	0.64253	0.82596	0.42064	0.023
Mof_C 	C 	0.61463	0.76515	0.36682	0.034
Mof_C 	C 	0.69398	0.89341	0.3867	-0.093
Mof_H 	H 	0.71283	0.93507	0.42337	0.066
Mof_C 	C 	0.62075	0.82321	0.51534	-0.091
Mof_H 	H 	0.65073	0.87197	0.54197	0.057
Mof_H 	H 	0.63063	0.78857	0.54747	0.054
Mof_C 	C 	0.49743	0.75328	0.58433	0.081
Mof_H 	H 	0.51073	0.72857	0.62587	0.006
Mof_C 	C 	0.43662	0.7902	0.51087	0.007
Mof_H 	H 	0.39743	0.79597	0.49077	0.035
Mof_C 	C 	0.50484	0.8251	0.47727	-0.003
Mof_H 	H 	0.52243	0.85937	0.43057	0.036
Mof_C 	C 	0.56043	0.68932	0.39794	-0.097
Mof_H 	H 	0.54393	0.69217	0.45777	0.066
Mof_H 	H 	0.58463	0.65977	0.40087	0.058
Mof_C 	C 	0.45748	0.68186	0.30667	0.084
Mof_H 	H 	0.46643	0.72947	0.31937	0.013
Mof_C 	C 	0.41057	0.57411	0.25607	0.009
Mof_H 	H 	0.37953	0.53067	0.22487	0.028
Mof_C 	C 	0.46659	0.58412	0.30757	-0.012
Mof_H 	H 	0.48183	0.54977	0.31937	0.03
Mof_N 	N 	0.86599	0.07582	0.85802	-0.106
Mof_N 	N 	0.92142	0.02033	0.91156	-0.147
Mof_N 	N 	0.01334	0.17681	0.67269	-0.122
Mof_N 	N 	0.03118	0.10297	0.58846	-0.151
Mof_C 	C 	0.84071	0.14991	0.75397	0.031
Mof_C 	C 	0.90152	0.18282	0.70015	0.024
Mof_C 	C 	0.77326	0.13391	0.72003	-0.101
Mof_H 	H 	0.7316	0.1111	0.7567	0.066
Mof_C 	C 	0.84346	0.13088	0.84867	-0.097
Mof_H 	H 	0.7947	0.1121	0.8753	0.057
Mof_H 	H 	0.8781	0.1754	0.8808	0.057
Mof_C 	C 	0.91339	0.07749	0.91766	0.081
Mof_H 	H 	0.9381	0.1155	0.9592	0.01
Mof_C 	C 	0.87647	0.97976	0.8442	0.04
Mof_H 	H 	0.8707	0.9348	0.8241	0.026
Mof_C 	C 	0.84157	0.01308	0.8106	-0.039
Mof_H 	H 	0.8073	0.9964	0.7639	0.053
Mof_C 	C 	0.97735	0.20445	0.73127	-0.069
Mof_H 	H 	0.9745	0.1851	0.7911	0.06
Mof_H 	H 	0.0069	0.2582	0.7342	0.045
Mof_C 	C 	0.98481	0.10896	0.64	0.105
Mof_H 	H 	0.9372	0.0703	0.6527	0.005
Mof_C 	C 	0.09256	0.1698	0.5894	0.007
Mof_H 	H 	0.136	0.1822	0.5582	0.028
Mof_C 	C 	0.08255	0.21581	0.6409	-0.011
Mof_H 	H 	0.1169	0.2654	0.6527	0.029
Mof_N 	N 	0.53266	0.40915	0.19135	-0.111
Mof_N 	N 	0.58809	0.35366	0.24489	-0.143
Mof_N 	N 	0.68001	0.51014	0.00602	-0.116
Mof_N 	N 	0.69785	0.4363	0.92179	-0.144
Mof_C 	C 	0.50738	0.48324	0.0873	0.034
Mof_C 	C 	0.56819	0.51615	0.03348	0.019
Mof_C 	C 	0.43993	0.46724	0.05336	-0.113
Mof_H 	H 	0.39827	0.44443	0.09003	0.07
Mof_C 	C 	0.51013	0.46421	0.182	-0.096
Mof_H 	H 	0.46137	0.44543	0.20863	0.057
Mof_H 	H 	0.54477	0.50873	0.21413	0.055
Mof_C 	C 	0.58006	0.41082	0.25099	0.081
Mof_H 	H 	0.60477	0.44883	0.29253	0.006
Mof_C 	C 	0.54314	0.31309	0.17753	0.006
Mof_H 	H 	0.53737	0.26813	0.15743	0.034
Mof_C 	C 	0.50824	0.34641	0.14393	-0.004
Mof_H 	H 	0.47397	0.32973	0.09723	0.034
Mof_C 	C 	0.64402	0.53778	0.0646	-0.09
Mof_H 	H 	0.64117	0.51843	0.12443	0.063
Mof_H 	H 	0.67357	0.59153	0.06753	0.055
Mof_C 	C 	0.65148	0.44229	0.97333	0.09
Mof_H 	H 	0.60387	0.40363	0.98603	0.012
Mof_C 	C 	0.75923	0.50313	0.92273	0.007
Mof_H 	H 	0.80267	0.51553	0.89153	0.029
Mof_C 	C 	0.74922	0.54914	0.97423	-0.005
Mof_H 	H 	0.78357	0.59873	0.98603	0.029
Mof_N 	N 	0.19932	0.74249	0.52469	-0.112
Mof_N 	N 	0.25475	0.687	0.57823	-0.143
Mof_N 	N 	0.34667	0.84348	0.33936	-0.109
Mof_N 	N 	0.36451	0.76964	0.25513	-0.143
Mof_C 	C 	0.17404	0.81658	0.42064	0.028
Mof_C 	C 	0.23485	0.84949	0.36682	0.031
Mof_C 	C 	0.10659	0.80058	0.3867	-0.103
Mof_H 	H 	0.06493	0.77777	0.42337	0.066
Mof_C 	C 	0.17679	0.79755	0.51534	-0.093
Mof_H 	H 	0.12803	0.77877	0.54197	0.056
Mof_H 	H 	0.21143	0.84207	0.54747	0.055
Mof_C 	C 	0.24672	0.74416	0.58433	0.081
Mof_H 	H 	0.27143	0.78217	0.62587	0.006
Mof_C 	C 	0.2098	0.64643	0.51087	0.006
Mof_H 	H 	0.20403	0.60147	0.49077	0.034
Mof_C 	C 	0.1749	0.67975	0.47727	-0.004
Mof_H 	H 	0.14063	0.66307	0.43057	0.034
Mof_C 	C 	0.31068	0.87112	0.39794	-0.097
Mof_H 	H 	0.30783	0.85177	0.45777	0.066
Mof_H 	H 	0.34023	0.92487	0.40087	0.06
Mof_C 	C 	0.31814	0.77563	0.30667	0.085
Mof_H 	H 	0.27053	0.73697	0.31937	0.012
Mof_C 	C 	0.42589	0.83647	0.25607	0.01
Mof_H 	H 	0.46933	0.84887	0.22487	0.028
Mof_C 	C 	0.41588	0.88248	0.30757	-0.012
Mof_H 	H 	0.45023	0.93207	0.31937	0.033
Mof_Cd	Cd	-0	0	-0	0.353
Mof_Cd	Cd	0.66667	0.33333	0.33333	0.376
Mof_Cd	Cd	0.33333	0.66667	0.66667	0.376
Mof_Cd	Cd	-0	0	0.5	0.357
Mof_Cd	Cd	0.66667	0.33333	0.83333	0.374
Mof_Cd	Cd	0.33333	0.66667	0.16667	0.374
_end
