# CIF file generated by openbabel 3.1.0, see https://openbabel.org
data_I
_chemical_name_common 'image0'
_cell_length_a 23.458
_cell_length_b 7.5546
_cell_length_c 16.518
_cell_angle_alpha 90
_cell_angle_beta 90
_cell_angle_gamma 90
_space_group_name_H-M_alt 'P 1'
_space_group_name_Hall 'P 1'
loop_
    _symmetry_equiv_pos_as_xyz
    x,y,z
loop_
    _atom_site_label
    _atom_site_type_symbol
    _atom_site_fract_x
    _atom_site_fract_y
    _atom_site_fract_z
    _atom_site_occupancy
    Ag1      Ag       0.14263    0.11973    0.56512    1.000
    S1       S        0.22232    0.66230    0.04066    1.000
    S2       S        0.15399    0.79110    0.65794    1.000
    C1       C        0.23990    0.74780    0.13580    1.000
    C2       C        0.31010    0.81720    0.22040    1.000
    H1       H        0.34860    0.83270    0.23180    1.000
    C3       C        0.27180    0.86540    0.27780    1.000
    H2       H        0.28360    0.90640    0.32820    1.000
    C4       C        0.21550    0.85160    0.25900    1.000
    C5       C        0.16740    0.89650    0.31590    1.000
    C6       C        0.11060    0.85170    0.29490    1.000
    H3       H        0.10250    0.79910    0.24530    1.000
    C7       C        0.06840    0.88600    0.34780    1.000
    H4       H        0.03110    0.85560    0.33490    1.000
    C8       C        0.07960    0.96370    0.41830    1.000
    H5       H        0.04950    0.98980    0.45290    1.000
    C9       C        0.17460    0.96920    0.38870    1.000
    H6       H        0.21160    0.99680    0.40430    1.000
    C10      C        0.14730    0.68970    0.04190    1.000
    H7       H        0.13010    0.60700    0.07960    1.000
    H8       H        0.13750    0.80900    0.05860    1.000
    C11      C        0.12540    0.65400    0.95430    1.000
    C12      C        0.13520    0.76320    0.89280    1.000
    H9       H        0.15670    0.86500    0.90170    1.000
    C13      C        0.11420    0.72900    0.81520    1.000
    C14      C        0.08240    0.59160    0.80040    1.000
    H10      H        0.06510    0.57960    0.75000    1.000
    C15      C        0.07380    0.46030    0.86020    1.000
    H11      H        0.05440    0.35620    0.84820    1.000
    C16      C        0.09450    0.49000    0.93560    1.000
    H12      H        0.08900    0.40570    0.97590    1.000
    C17      C        0.12400    0.87070    0.75140    1.000
    H13      H        0.14920    0.95990    0.77370    1.000
    H14      H        0.08780    0.92750    0.73970    1.000
    C18      C        0.22860    0.78440    0.67670    1.000
    C19      C        0.31300    0.71600    0.62670    1.000
    H15      H        0.33560    0.67450    0.58450    1.000
    C20      C        0.33950    0.77630    0.69120    1.000
    H16      H        0.37910    0.77660    0.69450    1.000
    C21      C        0.30530    0.84100    0.75550    1.000
    C22      C        0.32900    0.91210    0.83190    1.000
    C23      C        0.29360    0.96190    0.89080    1.000
    H17      H        0.25440    0.96070    0.88320    1.000
    C24      C        0.31720    0.01560    0.96360    1.000
    H18      H        0.29330    0.04090    0.00710    1.000
    C25      C        0.37380    0.03160    0.97240    1.000
    H19      H        0.38790    0.07800    0.02060    1.000
    C26      C        0.38710    0.92760    0.84780    1.000
    H20      H        0.41180    0.89460    0.80640    1.000
    N1       N        0.29630    0.74980    0.14940    1.000
    N2       N        0.19890    0.78620    0.18700    1.000
    N3       N        0.13250    0.00540    0.44120    1.000
    N4       N        0.25740    0.70890    0.61610    1.000
    N5       N        0.24950    0.85070    0.74710    1.000
    N6       N        0.41060    0.98430    0.91540    1.000
    Ag2      Ag       0.85737    0.88027    0.56512    1.000
    S3       S        0.77768    0.33770    0.04066    1.000
    S4       S        0.84601    0.20890    0.65794    1.000
    C27      C        0.76010    0.25220    0.13580    1.000
    C28      C        0.68990    0.18280    0.22040    1.000
    H21      H        0.65140    0.16730    0.23180    1.000
    C29      C        0.72820    0.13460    0.27780    1.000
    H22      H        0.71640    0.09360    0.32820    1.000
    C30      C        0.78450    0.14840    0.25900    1.000
    C31      C        0.83260    0.10350    0.31590    1.000
    C32      C        0.88940    0.14830    0.29490    1.000
    H23      H        0.89750    0.20090    0.24530    1.000
    C33      C        0.93160    0.11400    0.34780    1.000
    H24      H        0.96890    0.14440    0.33490    1.000
    C34      C        0.92040    0.03630    0.41830    1.000
    H25      H        0.95050    0.01020    0.45290    1.000
    C35      C        0.82540    0.03080    0.38870    1.000
    H26      H        0.78840    0.00320    0.40430    1.000
    C36      C        0.85270    0.31030    0.04190    1.000
    H27      H        0.86990    0.39300    0.07960    1.000
    H28      H        0.86250    0.19100    0.05860    1.000
    C37      C        0.87460    0.34600    0.95430    1.000
    C38      C        0.86480    0.23680    0.89280    1.000
    H29      H        0.84330    0.13500    0.90170    1.000
    C39      C        0.88580    0.27100    0.81520    1.000
    C40      C        0.91760    0.40840    0.80040    1.000
    H30      H        0.93490    0.42040    0.75000    1.000
    C41      C        0.92620    0.53970    0.86020    1.000
    H31      H        0.94560    0.64380    0.84820    1.000
    C42      C        0.90550    0.51000    0.93560    1.000
    H32      H        0.91100    0.59430    0.97590    1.000
    C43      C        0.87600    0.12930    0.75140    1.000
    H33      H        0.85080    0.04010    0.77370    1.000
    H34      H        0.91220    0.07250    0.73970    1.000
    C44      C        0.77140    0.21560    0.67670    1.000
    C45      C        0.68700    0.28400    0.62670    1.000
    H35      H        0.66440    0.32550    0.58450    1.000
    C46      C        0.66050    0.22370    0.69120    1.000
    H36      H        0.62090    0.22340    0.69450    1.000
    C47      C        0.69470    0.15900    0.75550    1.000
    C48      C        0.67100    0.08790    0.83190    1.000
    C49      C        0.70640    0.03810    0.89080    1.000
    H37      H        0.74560    0.03930    0.88320    1.000
    C50      C        0.68280    0.98440    0.96360    1.000
    H38      H        0.70670    0.95910    0.00710    1.000
    C51      C        0.62620    0.96840    0.97240    1.000
    H39      H        0.61210    0.92200    0.02060    1.000
    C52      C        0.61290    0.07240    0.84780    1.000
    H40      H        0.58820    0.10540    0.80640    1.000
    N7       N        0.70370    0.25020    0.14940    1.000
    N8       N        0.80110    0.21380    0.18700    1.000
    N9       N        0.86750    0.99460    0.44120    1.000
    N10      N        0.74260    0.29110    0.61610    1.000
    N11      N        0.75050    0.14930    0.74710    1.000
    N12      N        0.58940    0.01570    0.91540    1.000
    Ag3      Ag       0.64263    0.38027    0.06512    1.000
    S5       S        0.72232    0.83770    0.54066    1.000
    S6       S        0.65399    0.70890    0.15794    1.000
    C53      C        0.73990    0.75220    0.63580    1.000
    C54      C        0.81010    0.68280    0.72040    1.000
    H41      H        0.84860    0.66730    0.73180    1.000
    C55      C        0.77180    0.63460    0.77780    1.000
    H42      H        0.78360    0.59360    0.82820    1.000
    C56      C        0.71550    0.64840    0.75900    1.000
    C57      C        0.66740    0.60350    0.81590    1.000
    C58      C        0.61060    0.64830    0.79490    1.000
    H43      H        0.60250    0.70090    0.74530    1.000
    C59      C        0.56840    0.61400    0.84780    1.000
    H44      H        0.53110    0.64440    0.83490    1.000
    C60      C        0.57960    0.53630    0.91830    1.000
    H45      H        0.54950    0.51020    0.95290    1.000
    C61      C        0.67460    0.53080    0.88870    1.000
    H46      H        0.71160    0.50320    0.90430    1.000
    C62      C        0.64730    0.81030    0.54190    1.000
    H47      H        0.63010    0.89300    0.57960    1.000
    H48      H        0.63750    0.69100    0.55860    1.000
    C63      C        0.62540    0.84600    0.45430    1.000
    C64      C        0.63520    0.73680    0.39280    1.000
    H49      H        0.65670    0.63500    0.40170    1.000
    C65      C        0.61420    0.77100    0.31520    1.000
    C66      C        0.58240    0.90840    0.30040    1.000
    H50      H        0.56510    0.92040    0.25000    1.000
    C67      C        0.57380    0.03970    0.36020    1.000
    H51      H        0.55440    0.14380    0.34820    1.000
    C68      C        0.59450    0.01000    0.43560    1.000
    H52      H        0.58900    0.09430    0.47590    1.000
    C69      C        0.62400    0.62930    0.25140    1.000
    H53      H        0.64920    0.54010    0.27370    1.000
    H54      H        0.58780    0.57250    0.23970    1.000
    C70      C        0.72860    0.71560    0.17670    1.000
    C71      C        0.81300    0.78400    0.12670    1.000
    H55      H        0.83560    0.82550    0.08450    1.000
    C72      C        0.83950    0.72370    0.19120    1.000
    H56      H        0.87910    0.72340    0.19450    1.000
    C73      C        0.80530    0.65900    0.25550    1.000
    C74      C        0.82900    0.58790    0.33190    1.000
    C75      C        0.79360    0.53810    0.39080    1.000
    H57      H        0.75440    0.53930    0.38320    1.000
    C76      C        0.81720    0.48440    0.46360    1.000
    H58      H        0.79330    0.45910    0.50710    1.000
    C77      C        0.87380    0.46840    0.47240    1.000
    H59      H        0.88790    0.42200    0.52060    1.000
    C78      C        0.88710    0.57240    0.34780    1.000
    H60      H        0.91180    0.60540    0.30640    1.000
    N13      N        0.79630    0.75020    0.64940    1.000
    N14      N        0.69890    0.71380    0.68700    1.000
    N15      N        0.63250    0.49460    0.94120    1.000
    N16      N        0.75740    0.79110    0.11610    1.000
    N17      N        0.74950    0.64930    0.24710    1.000
    N18      N        0.91060    0.51570    0.41540    1.000
    Ag4      Ag       0.35737    0.61973    0.06512    1.000
    S7       S        0.27768    0.16230    0.54066    1.000
    S8       S        0.34601    0.29110    0.15794    1.000
    C79      C        0.26010    0.24780    0.63580    1.000
    C80      C        0.18990    0.31720    0.72040    1.000
    H61      H        0.15140    0.33270    0.73180    1.000
    C81      C        0.22820    0.36540    0.77780    1.000
    H62      H        0.21640    0.40640    0.82820    1.000
    C82      C        0.28450    0.35160    0.75900    1.000
    C83      C        0.33260    0.39650    0.81590    1.000
    C84      C        0.38940    0.35170    0.79490    1.000
    H63      H        0.39750    0.29910    0.74530    1.000
    C85      C        0.43160    0.38600    0.84780    1.000
    H64      H        0.46890    0.35560    0.83490    1.000
    C86      C        0.42040    0.46370    0.91830    1.000
    H65      H        0.45050    0.48980    0.95290    1.000
    C87      C        0.32540    0.46920    0.88870    1.000
    H66      H        0.28840    0.49680    0.90430    1.000
    C88      C        0.35270    0.18970    0.54190    1.000
    H67      H        0.36990    0.10700    0.57960    1.000
    H68      H        0.36250    0.30900    0.55860    1.000
    C89      C        0.37460    0.15400    0.45430    1.000
    C90      C        0.36480    0.26320    0.39280    1.000
    H69      H        0.34330    0.36500    0.40170    1.000
    C91      C        0.38580    0.22900    0.31520    1.000
    C92      C        0.41760    0.09160    0.30040    1.000
    H70      H        0.43490    0.07960    0.25000    1.000
    C93      C        0.42620    0.96030    0.36020    1.000
    H71      H        0.44560    0.85620    0.34820    1.000
    C94      C        0.40550    0.99000    0.43560    1.000
    H72      H        0.41100    0.90570    0.47590    1.000
    C95      C        0.37600    0.37070    0.25140    1.000
    H73      H        0.35080    0.45990    0.27370    1.000
    H74      H        0.41220    0.42750    0.23970    1.000
    C96      C        0.27140    0.28440    0.17670    1.000
    C97      C        0.18700    0.21600    0.12670    1.000
    H75      H        0.16440    0.17450    0.08450    1.000
    C98      C        0.16050    0.27630    0.19120    1.000
    H76      H        0.12090    0.27660    0.19450    1.000
    C99      C        0.19470    0.34100    0.25550    1.000
    C100     C        0.17100    0.41210    0.33190    1.000
    C101     C        0.20640    0.46190    0.39080    1.000
    H77      H        0.24560    0.46070    0.38320    1.000
    C102     C        0.18280    0.51560    0.46360    1.000
    H78      H        0.20670    0.54090    0.50710    1.000
    C103     C        0.12620    0.53160    0.47240    1.000
    H79      H        0.11210    0.57800    0.52060    1.000
    C104     C        0.11290    0.42760    0.34780    1.000
    H80      H        0.08820    0.39460    0.30640    1.000
    N19      N        0.20370    0.24980    0.64940    1.000
    N20      N        0.30110    0.28620    0.68700    1.000
    N21      N        0.36750    0.50540    0.94120    1.000
    N22      N        0.24260    0.20890    0.11610    1.000
    N23      N        0.25050    0.35070    0.24710    1.000
    N24      N        0.08940    0.48430    0.41540    1.000
    Ag5      Ag       0.50000    0.00000    0.93341    1.000
    Ag6      Ag       0.00000    0.50000    0.43341    1.000
