data_functionalizedCrystal
_audit_creation_method	'EQeq! by Chris Wilmer'
_symmetry_space_group_name_H-M	'P1'
_symmetry_Int_Tables_number	1
_symmetry_cell_setting	triclinic
loop_
_symmetry_equiv_pos_as_xyz
  x,y,z
_cell_length_a	20.495
_cell_length_b	22.701
_cell_length_c	27.435
_cell_angle_alpha	84.146
_cell_angle_beta	78.935
_cell_angle_gamma	67.636
loop_
_atom_site_label
_atom_site_type_symbol
_atom_site_fract_x
_atom_site_fract_y
_atom_site_fract_z
_atom_site_charge
Mof_Yb	Yb	0.92583	0.64644	0.72315	1.941
Mof_Yb	Yb	0.07417	0.35356	0.27685	1.941
Mof_H 	H 	0.7347	0.6314	0.7288	0.041
Mof_H 	H 	0.6626	0.5863	0.7811	0.121
Mof_H 	H 	0.718	0.6326	0.8982	0.129
Mof_H 	H 	0.7923	0.6758	0.846	0.062
Mof_H 	H 	0.6378	0.5113	0.8368	0.127
Mof_H 	H 	0.5614	0.4724	0.8924	0.061
Mof_H 	H 	0.532	0.6036	0.9883	0.038
Mof_H 	H 	0.6072	0.6423	0.9351	0.115
Mof_H 	H 	0.4385	0.5559	0.9902	0.089
Mof_H 	H 	0.4682	0.4918	0.9594	0.091
Mof_H 	H 	0.8971	0.7563	0.8192	0.056
Mof_H 	H 	0.8085	0.8137	0.8841	0.116
Mof_H 	H 	0.6822	0.8916	0.7783	0.115
Mof_H 	H 	0.7665	0.8298	0.7193	0.038
Mof_H 	H 	0.7024	0.8301	0.9356	0.12
Mof_H 	H 	0.6258	0.9103	0.9937	0.041
Mof_H 	H 	0.5501	0.0286	0.8981	0.054
Mof_H 	H 	0.6242	0.9738	0.8337	0.147
Mof_H 	H 	0.5025	0.0555	0.9779	0.084
Mof_H 	H 	0.5508	0.0126	0.0173	0.083
Mof_H 	H 	0.0638	0.709	0.7684	0.059
Mof_H 	H 	0.073	0.8091	0.7706	0.088
Mof_H 	H 	0.0097	0.8514	0.6355	0.117
Mof_H 	H 	0.0067	0.7507	0.6363	0.094
Mof_H 	H 	0.1208	0.8863	0.7455	0.099
Mof_H 	H 	0.1204	0.9883	0.7436	0.032
Mof_H 	H 	0.9583	0.0541	0.6686	0.058
Mof_H 	H 	0.9595	0.9521	0.6665	0.127
Mof_H 	H 	0.0583	0.0975	0.738	0.08
Mof_H 	H 	0.9832	0.1246	0.7185	0.091
Mof_H 	H 	0.1234	0.5247	0.7283	0.063
Mof_H 	H 	0.2405	0.5	0.6849	0.108
Mof_H 	H 	0.16	0.5412	0.5562	0.129
Mof_H 	H 	0.0446	0.5634	0.6031	0.062
Mof_H 	H 	0.3412	0.4608	0.6425	0.124
Mof_H 	H 	0.4535	0.4448	0.5961	0.052
Mof_H 	H 	0.3719	0.5261	0.4789	0.043
Mof_H 	H 	0.2549	0.5462	0.5211	0.133
Mof_H 	H 	0.5288	0.4394	0.5245	0.087
Mof_H 	H 	0.4987	0.4499	0.4731	0.091
Mof_H 	H 	0.9496	0.4753	0.7885	0.074
Mof_H 	H 	0.0016	0.3678	0.7683	0.115
Mof_H 	H 	0.9427	0.42	0.633	0.116
Mof_H 	H 	0.8921	0.5259	0.6568	0.036
Mof_H 	H 	0.0903	0.2839	0.7235	0.119
Mof_H 	H 	0.129	0.1755	0.7041	0.044
Mof_H 	H 	0.9749	0.2145	0.6263	0.06
Mof_H 	H 	0.9337	0.322	0.6431	0.151
Mof_H 	H 	0.05	0.1102	0.6345	0.094
Mof_H 	H 	0.1208	0.0956	0.6581	0.086
Mof_H 	H 	0.8721	0.7881	0.6331	0.049
Mof_H 	H 	0.7754	0.8597	0.6029	0.126
Mof_H 	H 	0.7152	0.7169	0.5823	0.122
Mof_H 	H 	0.8105	0.6461	0.6145	0.045
Mof_H 	H 	0.6553	0.9185	0.6156	0.121
Mof_H 	H 	0.56	0.9912	0.5845	0.061
Mof_H 	H 	0.5601	0.8616	0.4958	0.055
Mof_H 	H 	0.6568	0.7871	0.5257	0.133
Mof_H 	H 	0.4604	0.9586	0.5085	0.089
Mof_H 	H 	0.4562	0.0076	0.5483	0.089
Mof_H 	H 	0.2653	0.3686	0.2712	0.04
Mof_H 	H 	0.3374	0.4137	0.2189	0.12
Mof_H 	H 	0.282	0.3674	0.1018	0.128
Mof_H 	H 	0.2077	0.3242	0.154	0.061
Mof_H 	H 	0.3622	0.4887	0.1632	0.126
Mof_H 	H 	0.4386	0.5276	0.1076	0.06
Mof_H 	H 	0.468	0.3964	0.0117	0.037
Mof_H 	H 	0.3928	0.3577	0.0649	0.114
Mof_H 	H 	0.5615	0.4441	0.0098	0.088
Mof_H 	H 	0.5318	0.5082	0.0406	0.09
Mof_H 	H 	0.1029	0.2437	0.1808	0.055
Mof_H 	H 	0.1915	0.1863	0.1159	0.115
Mof_H 	H 	0.3178	0.1084	0.2217	0.114
Mof_H 	H 	0.2335	0.1702	0.2807	0.037
Mof_H 	H 	0.2976	0.1699	0.0644	0.119
Mof_H 	H 	0.3742	0.0897	0.0063	0.04
Mof_H 	H 	0.4499	0.9714	0.1019	0.053
Mof_H 	H 	0.3758	0.0262	0.1663	0.146
Mof_H 	H 	0.4975	0.9445	0.0221	0.084
Mof_H 	H 	0.4492	0.9874	0.9827	0.083
Mof_H 	H 	0.9362	0.291	0.2316	0.059
Mof_H 	H 	0.927	0.1909	0.2294	0.088
Mof_H 	H 	0.9903	0.1486	0.3645	0.117
Mof_H 	H 	0.9933	0.2493	0.3637	0.094
Mof_H 	H 	0.8792	0.1137	0.2545	0.099
Mof_H 	H 	0.8796	0.0117	0.2564	0.032
Mof_H 	H 	0.0417	0.9459	0.3314	0.058
Mof_H 	H 	0.0405	0.0479	0.3335	0.127
Mof_H 	H 	0.9417	0.9025	0.262	0.08
Mof_H 	H 	0.0168	0.8754	0.2815	0.091
Mof_H 	H 	0.8766	0.4753	0.2717	0.063
Mof_H 	H 	0.7595	0.5	0.3151	0.108
Mof_H 	H 	0.84	0.4588	0.4438	0.129
Mof_H 	H 	0.9554	0.4366	0.3969	0.062
Mof_H 	H 	0.6588	0.5392	0.3575	0.124
Mof_H 	H 	0.5465	0.5552	0.4039	0.052
Mof_H 	H 	0.6281	0.4739	0.5211	0.043
Mof_H 	H 	0.7451	0.4538	0.4789	0.133
Mof_H 	H 	0.4712	0.5606	0.4755	0.087
Mof_H 	H 	0.5013	0.5501	0.5269	0.091
Mof_H 	H 	0.0504	0.5247	0.2115	0.074
Mof_H 	H 	0.9984	0.6322	0.2317	0.115
Mof_H 	H 	0.0573	0.58	0.367	0.116
Mof_H 	H 	0.1079	0.4741	0.3432	0.036
Mof_H 	H 	0.9097	0.7161	0.2765	0.119
Mof_H 	H 	0.871	0.8245	0.2959	0.044
Mof_H 	H 	0.0251	0.7855	0.3737	0.06
Mof_H 	H 	0.0663	0.678	0.3569	0.151
Mof_H 	H 	0.95	0.8898	0.3655	0.094
Mof_H 	H 	0.8792	0.9044	0.3419	0.086
Mof_H 	H 	0.1279	0.2119	0.3669	0.049
Mof_H 	H 	0.2246	0.1403	0.3971	0.126
Mof_H 	H 	0.2848	0.2831	0.4177	0.122
Mof_H 	H 	0.1895	0.3539	0.3855	0.045
Mof_H 	H 	0.3447	0.0815	0.3844	0.121
Mof_H 	H 	0.44	0.0088	0.4155	0.061
Mof_H 	H 	0.4399	0.1384	0.5042	0.055
Mof_H 	H 	0.3432	0.2129	0.4743	0.133
Mof_H 	H 	0.5396	0.0414	0.4915	0.089
Mof_H 	H 	0.5438	0.9924	0.4517	0.089
Mof_C 	C 	0.731	0.6321	0.7638	0.1
Mof_C 	C 	0.6878	0.6063	0.7947	-0.114
Mof_C 	C 	0.6801	0.6087	0.8457	0.087
Mof_C 	C 	0.7201	0.6329	0.8633	-0.114
Mof_C 	C 	0.7646	0.6584	0.8324	0.096
Mof_C 	C 	0.6291	0.5819	0.8795	0.084
Mof_C 	C 	0.6154	0.5312	0.8677	-0.106
Mof_C 	C 	0.5696	0.5088	0.8998	0.079
Mof_C 	C 	0.5517	0.5857	0.9565	0.113
Mof_C 	C 	0.5971	0.6081	0.9253	-0.124
Mof_C 	C 	0.4821	0.5192	0.9778	-0.061
Mof_C 	C 	0.8517	0.7838	0.8118	0.075
Mof_C 	C 	0.7997	0.8177	0.8509	-0.101
Mof_C 	C 	0.7354	0.8571	0.8375	0.065
Mof_C 	C 	0.7259	0.8622	0.7871	-0.116
Mof_C 	C 	0.7752	0.8278	0.7524	0.094
Mof_C 	C 	0.6789	0.895	0.8762	0.086
Mof_C 	C 	0.6749	0.8721	0.9254	-0.125
Mof_C 	C 	0.6237	0.9197	0.9593	0.107
Mof_C 	C 	0.5828	0.9873	0.9054	0.141
Mof_C 	C 	0.6269	0.9562	0.8665	-0.145
Mof_C 	C 	0.525	0.0113	0.9907	-0.054
Mof_C 	C 	0.0529	0.7389	0.7415	0.066
Mof_C 	C 	0.0577	0.7989	0.7431	-0.085
Mof_C 	C 	0.0399	0.8435	0.704	0.05
Mof_C 	C 	0.021	0.8234	0.6634	-0.078
Mof_C 	C 	0.0188	0.7637	0.664	0.075
Mof_C 	C 	0.0418	0.9077	0.7045	0.089
Mof_C 	C 	0.0881	0.9199	0.7287	-0.123
Mof_C 	C 	0.0869	0.98	0.7285	0.095
Mof_C 	C 	0.9916	0.0192	0.6839	0.104
Mof_C 	C 	0.9929	0.9591	0.6827	-0.117
Mof_C 	C 	0.0339	0.0959	0.7106	-0.066
Mof_C 	C 	0.1318	0.5277	0.693	0.094
Mof_C 	C 	0.2011	0.5132	0.6675	-0.084
Mof_C 	C 	0.2118	0.5186	0.6153	0.091
Mof_C 	C 	0.1537	0.5373	0.5914	-0.07
Mof_C 	C 	0.085	0.5508	0.6193	0.104
Mof_C 	C 	0.2857	0.5059	0.5875	0.113
Mof_C 	C 	0.3455	0.4751	0.6087	-0.104
Mof_C 	C 	0.4122	0.4649	0.5807	0.107
Mof_C 	C 	0.3651	0.5121	0.5126	0.115
Mof_C 	C 	0.2947	0.5251	0.5376	-0.097
Mof_C 	C 	0.4933	0.4696	0.505	-0.059
Mof_C 	C 	0.9476	0.4628	0.7569	0.105
Mof_C 	C 	0.9793	0.3991	0.7448	-0.088
Mof_C 	C 	0.9779	0.3821	0.699	0.091
Mof_C 	C 	0.9442	0.4305	0.6653	-0.083
Mof_C 	C 	0.9137	0.4928	0.6794	0.111
Mof_C 	C 	0.0062	0.3148	0.6852	0.102
Mof_C 	C 	0.0654	0.2706	0.7037	-0.105
Mof_C 	C 	0.0878	0.2061	0.6929	0.095
Mof_C 	C 	0.9976	0.2287	0.6472	0.117
Mof_C 	C 	0.9737	0.2929	0.6568	-0.116
Mof_C 	C 	0.0683	0.1185	0.663	-0.059
Mof_C 	C 	0.8387	0.7737	0.6234	0.103
Mof_C 	C 	0.7817	0.8158	0.6054	-0.123
Mof_C 	C 	0.7329	0.7976	0.5905	0.088
Mof_C 	C 	0.7467	0.7321	0.5937	-0.114
Mof_C 	C 	0.803	0.6902	0.6123	0.096
Mof_C 	C 	0.6699	0.8424	0.572	0.071
Mof_C 	C 	0.6366	0.9067	0.5906	-0.1
Mof_C 	C 	0.5804	0.9489	0.5729	0.09
Mof_C 	C 	0.5802	0.8726	0.5203	0.09
Mof_C 	C 	0.6378	0.8291	0.5378	-0.109
Mof_C 	C 	0.4877	0.9801	0.5207	-0.062
Mof_C 	C 	0.9619	0.5914	0.8878	0.701
Mof_C 	C 	0.269	0.3679	0.2362	0.1
Mof_C 	C 	0.3122	0.3937	0.2053	-0.114
Mof_C 	C 	0.3199	0.3913	0.1543	0.087
Mof_C 	C 	0.2799	0.3671	0.1367	-0.114
Mof_C 	C 	0.2354	0.3416	0.1676	0.096
Mof_C 	C 	0.3709	0.4181	0.1205	0.084
Mof_C 	C 	0.3846	0.4688	0.1323	-0.106
Mof_C 	C 	0.4304	0.4912	0.1002	0.079
Mof_C 	C 	0.4483	0.4143	0.0435	0.113
Mof_C 	C 	0.4029	0.3919	0.0747	-0.124
Mof_C 	C 	0.5179	0.4808	0.0222	-0.061
Mof_C 	C 	0.1483	0.2162	0.1882	0.075
Mof_C 	C 	0.2003	0.1823	0.1491	-0.101
Mof_C 	C 	0.2646	0.1429	0.1625	0.065
Mof_C 	C 	0.2741	0.1378	0.2129	-0.116
Mof_C 	C 	0.2248	0.1722	0.2476	0.094
Mof_C 	C 	0.3211	0.105	0.1238	0.086
Mof_C 	C 	0.3251	0.1279	0.0746	-0.125
Mof_C 	C 	0.3763	0.0803	0.0407	0.107
Mof_C 	C 	0.4172	0.0127	0.0946	0.141
Mof_C 	C 	0.3731	0.0438	0.1335	-0.145
Mof_C 	C 	0.475	0.9887	0.0093	-0.054
Mof_C 	C 	0.9471	0.2611	0.2585	0.066
Mof_C 	C 	0.9423	0.2011	0.2569	-0.085
Mof_C 	C 	0.9601	0.1565	0.296	0.05
Mof_C 	C 	0.979	0.1766	0.3366	-0.078
Mof_C 	C 	0.9812	0.2363	0.336	0.075
Mof_C 	C 	0.9582	0.0923	0.2955	0.089
Mof_C 	C 	0.9119	0.0801	0.2713	-0.123
Mof_C 	C 	0.9131	0.02	0.2715	0.095
Mof_C 	C 	0.0084	0.9808	0.3161	0.104
Mof_C 	C 	0.0071	0.0409	0.3173	-0.117
Mof_C 	C 	0.9661	0.9041	0.2894	-0.066
Mof_C 	C 	0.8682	0.4723	0.307	0.094
Mof_C 	C 	0.7989	0.4868	0.3325	-0.084
Mof_C 	C 	0.7882	0.4814	0.3847	0.091
Mof_C 	C 	0.8463	0.4627	0.4086	-0.07
Mof_C 	C 	0.915	0.4492	0.3807	0.104
Mof_C 	C 	0.7143	0.4941	0.4125	0.113
Mof_C 	C 	0.6545	0.5249	0.3913	-0.104
Mof_C 	C 	0.5878	0.5351	0.4193	0.107
Mof_C 	C 	0.6349	0.4879	0.4874	0.115
Mof_C 	C 	0.7053	0.4749	0.4624	-0.097
Mof_C 	C 	0.5067	0.5304	0.495	-0.059
Mof_C 	C 	0.0524	0.5372	0.2431	0.105
Mof_C 	C 	0.0207	0.6009	0.2552	-0.088
Mof_C 	C 	0.0221	0.6179	0.301	0.091
Mof_C 	C 	0.0558	0.5695	0.3347	-0.083
Mof_C 	C 	0.0863	0.5072	0.3206	0.111
Mof_C 	C 	0.9938	0.6852	0.3148	0.102
Mof_C 	C 	0.9346	0.7294	0.2963	-0.105
Mof_C 	C 	0.9122	0.7939	0.3071	0.095
Mof_C 	C 	0.0024	0.7713	0.3528	0.117
Mof_C 	C 	0.0263	0.7071	0.3432	-0.116
Mof_C 	C 	0.9317	0.8815	0.337	-0.059
Mof_C 	C 	0.1613	0.2263	0.3766	0.103
Mof_C 	C 	0.2183	0.1842	0.3946	-0.123
Mof_C 	C 	0.2671	0.2024	0.4095	0.088
Mof_C 	C 	0.2533	0.2679	0.4063	-0.114
Mof_C 	C 	0.197	0.3098	0.3877	0.096
Mof_C 	C 	0.3301	0.1576	0.428	0.071
Mof_C 	C 	0.3634	0.0933	0.4094	-0.1
Mof_C 	C 	0.4196	0.0511	0.4271	0.09
Mof_C 	C 	0.4198	0.1274	0.4797	0.09
Mof_C 	C 	0.3622	0.1709	0.4622	-0.109
Mof_C 	C 	0.5123	0.0199	0.4793	-0.062
Mof_C 	C 	0.0381	0.4086	0.1122	0.701
Mof_S 	S 	0.0024	0.6022	0.8266	0.482
Mof_S 	S 	0.9976	0.3978	0.1734	0.482
Mof_N 	N 	0.7686	0.6586	0.7834	-0.061
Mof_N 	N 	0.5342	0.5419	0.9451	-0.12
Mof_N 	N 	0.8411	0.7879	0.7656	-0.061
Mof_N 	N 	0.5777	0.9712	0.9491	-0.15
Mof_N 	N 	0.0331	0.7241	0.7025	-0.055
Mof_N 	N 	0.038	0.0275	0.7069	-0.122
Mof_N 	N 	0.0771	0.5458	0.6686	-0.052
Mof_N 	N 	0.4204	0.4823	0.5328	-0.123
Mof_N 	N 	0.9148	0.5061	0.7249	-0.057
Mof_N 	N 	0.0503	0.1881	0.6664	-0.123
Mof_N 	N 	0.8494	0.7105	0.628	-0.063
Mof_N 	N 	0.5519	0.932	0.5385	-0.115
Mof_N 	N 	0.2314	0.3414	0.2166	-0.061
Mof_N 	N 	0.4658	0.4581	0.0549	-0.12
Mof_N 	N 	0.1589	0.2121	0.2344	-0.061
Mof_N 	N 	0.4223	0.0288	0.0509	-0.15
Mof_N 	N 	0.9669	0.2759	0.2975	-0.055
Mof_N 	N 	0.962	0.9725	0.2931	-0.122
Mof_N 	N 	0.9229	0.4542	0.3314	-0.052
Mof_N 	N 	0.5796	0.5177	0.4672	-0.123
Mof_N 	N 	0.0852	0.4939	0.2751	-0.057
Mof_N 	N 	0.9497	0.8119	0.3336	-0.123
Mof_N 	N 	0.1506	0.2895	0.372	-0.063
Mof_N 	N 	0.4481	0.068	0.4615	-0.115
Mof_O 	O 	0.8081	0.687	0.754	-0.312
Mof_O 	O 	0.8917	0.7537	0.7302	-0.301
Mof_O 	O 	0.0283	0.6671	0.7028	-0.289
Mof_O 	O 	0.0123	0.5563	0.6941	-0.306
Mof_O 	O 	0.8838	0.5663	0.7386	-0.29
Mof_O 	O 	0.9079	0.6683	0.6457	-0.323
Mof_O 	O 	0.9516	0.6309	0.7963	-0.484
Mof_O 	O 	0.036	0.645	0.8396	-0.159
Mof_O 	O 	0.0556	0.5415	0.8132	-0.172
Mof_O 	O 	0.1919	0.313	0.246	-0.312
Mof_O 	O 	0.1083	0.2463	0.2698	-0.301
Mof_O 	O 	0.9717	0.3329	0.2972	-0.289
Mof_O 	O 	0.9877	0.4437	0.3059	-0.306
Mof_O 	O 	0.1162	0.4337	0.2614	-0.29
Mof_O 	O 	0.0921	0.3317	0.3543	-0.323
Mof_O 	O 	0.0484	0.3691	0.2037	-0.484
Mof_O 	O 	0.964	0.355	0.1604	-0.159
Mof_O 	O 	0.9444	0.4585	0.1868	-0.172
Mof_F 	F 	0.9254	0.5544	0.8835	-0.407
Mof_F 	F 	0.9215	0.6523	0.9057	-0.394
Mof_F 	F 	0.012	0.5609	0.9176	-0.345
Mof_F 	F 	0.0746	0.4456	0.1165	-0.407
Mof_F 	F 	0.0785	0.3477	0.0943	-0.394
Mof_F 	F 	0.988	0.4391	0.0824	-0.345
Mof_C 	C 	0.2022	0.9872	0.3906	0.737
Mof_S 	S 	0.13182	0.06102	0.40437	0.313
Mof_O 	O 	0.1498	0.0819	0.4451	-0.125
Mof_O 	O 	0.1365	0.0988	0.3595	-0.17
Mof_O 	O 	0.0698	0.0439	0.4148	-0.129
Mof_F 	F 	0.2665	0.9938	0.3802	-0.423
Mof_F 	F 	0.1935	0.9607	0.351	-0.412
Mof_F 	F 	0.2061	0.9449	0.4298	-0.395
Mof_C 	C 	0.6993	0.6445	0.4766	0.855
Mof_S 	S 	0.6083	0.6794	0.50243	0.285
Mof_O 	O 	0.6234	0.6801	0.553	-0.152
Mof_O 	O 	0.5812	0.7398	0.4832	-0.137
Mof_O 	O 	0.5767	0.6346	0.4987	-0.14
Mof_F 	F 	0.7009	0.6377	0.4256	-0.394
Mof_F 	F 	0.7343	0.5902	0.484	-0.52
Mof_F 	F 	0.7339	0.6839	0.4753	-0.457
Mof_C 	C 	0.9357	0.2876	0.4859	0.808
Mof_S 	S 	0.8819	0.34284	0.52948	0.383
Mof_O 	O 	0.8929	0.3115	0.5714	-0.171
Mof_O 	O 	0.9108	0.3889	0.5186	-0.165
Mof_O 	O 	0.817	0.3668	0.5151	-0.17
Mof_F 	F 	0.9996	0.2574	0.4907	-0.464
Mof_F 	F 	0.9357	0.3104	0.4384	-0.455
Mof_F 	F 	0.9162	0.2395	0.482	-0.421
Mof_C 	C 	0.248	0.6046	0.2653	0.806
Mof_S 	S 	0.3076	0.6363	0.2318	0.267
Mof_O 	O 	0.2586	0.6925	0.2109	-0.106
Mof_O 	O 	0.3405	0.645	0.2689	-0.08
Mof_O 	O 	0.3498	0.5938	0.192	-0.117
Mof_F 	F 	0.286	0.5453	0.2854	-0.41
Mof_F 	F 	0.2049	0.6295	0.3031	-0.472
Mof_F 	F 	0.2135	0.5842	0.2385	-0.446
Mof_C 	C 	0.2123	0.3566	0.9793	0.742
Mof_S 	S 	0.2736	0.303	0.0148	0.317
Mof_O 	O 	0.3038	0.2454	0.9878	-0.118
Mof_O 	O 	0.2343	0.2921	0.0612	-0.138
Mof_O 	O 	0.3233	0.3354	0.0141	-0.138
Mof_F 	F 	0.1705	0.3291	0.9659	-0.368
Mof_F 	F 	0.1776	0.4107	0.0071	-0.362
Mof_F 	F 	0.2463	0.3687	0.9341	-0.36
Mof_C 	C 	0.4109	0.3604	0.7859	0.741
Mof_S 	S 	0.3702	0.4281	0.7485	0.322
Mof_O 	O 	0.3158	0.4156	0.7325	-0.121
Mof_O 	O 	0.4225	0.432	0.7077	-0.135
Mof_O 	O 	0.3453	0.4717	0.7904	-0.094
Mof_F 	F 	0.4728	0.3611	0.7955	-0.402
Mof_F 	F 	0.3589	0.366	0.8282	-0.363
Mof_F 	F 	0.4257	0.3062	0.7622	-0.372
Mof_C 	C 	0.4956	0.9336	0.2533	0.733
Mof_S 	S 	0.4158	0.9905	0.285	0.345
Mof_O 	O 	0.4218	0.9784	0.3356	-0.119
Mof_O 	O 	0.4098	0.0502	0.2622	-0.169
Mof_O 	O 	0.3664	0.9628	0.2711	-0.071
Mof_F 	F 	0.497	0.8759	0.2732	-0.38
Mof_F 	F 	0.5447	0.9607	0.2561	-0.422
Mof_F 	F 	0.483	0.9343	0.2057	-0.414
Mof_C 	C 	0.7978	0.0128	0.6094	0.737
Mof_S 	S 	0.86818	0.93898	0.59563	0.313
Mof_O 	O 	0.8502	0.9181	0.5549	-0.125
Mof_O 	O 	0.8635	0.9012	0.6405	-0.17
Mof_O 	O 	0.9302	0.9561	0.5852	-0.129
Mof_F 	F 	0.7335	0.0062	0.6198	-0.423
Mof_F 	F 	0.8065	0.0393	0.649	-0.412
Mof_F 	F 	0.7939	0.0551	0.5702	-0.395
Mof_C 	C 	0.3007	0.3555	0.5234	0.855
Mof_S 	S 	0.3917	0.3206	0.49757	0.285
Mof_O 	O 	0.3766	0.3199	0.447	-0.152
Mof_O 	O 	0.4188	0.2602	0.5168	-0.137
Mof_O 	O 	0.4233	0.3654	0.5013	-0.14
Mof_F 	F 	0.2991	0.3623	0.5744	-0.394
Mof_F 	F 	0.2657	0.4098	0.516	-0.52
Mof_F 	F 	0.2661	0.3161	0.5247	-0.457
Mof_C 	C 	0.0643	0.7124	0.5141	0.808
Mof_S 	S 	0.1181	0.65716	0.47052	0.383
Mof_O 	O 	0.1071	0.6885	0.4286	-0.171
Mof_O 	O 	0.0892	0.6111	0.4814	-0.165
Mof_O 	O 	0.183	0.6332	0.4849	-0.17
Mof_F 	F 	0.0004	0.7426	0.5093	-0.464
Mof_F 	F 	0.0643	0.6896	0.5616	-0.455
Mof_F 	F 	0.0838	0.7605	0.518	-0.421
Mof_C 	C 	0.752	0.3954	0.7347	0.806
Mof_S 	S 	0.6924	0.3637	0.7682	0.267
Mof_O 	O 	0.7414	0.3075	0.7891	-0.106
Mof_O 	O 	0.6595	0.355	0.7311	-0.08
Mof_O 	O 	0.6502	0.4062	0.808	-0.117
Mof_F 	F 	0.714	0.4547	0.7146	-0.41
Mof_F 	F 	0.7951	0.3705	0.6969	-0.472
Mof_F 	F 	0.7865	0.4158	0.7615	-0.446
Mof_C 	C 	0.7877	0.6434	0.0207	0.742
Mof_S 	S 	0.7264	0.697	0.9852	0.317
Mof_O 	O 	0.6962	0.7546	0.0122	-0.118
Mof_O 	O 	0.7657	0.7079	0.9388	-0.138
Mof_O 	O 	0.6767	0.6646	0.9859	-0.138
Mof_F 	F 	0.8295	0.6709	0.0341	-0.368
Mof_F 	F 	0.8224	0.5893	0.9929	-0.362
Mof_F 	F 	0.7537	0.6313	0.0659	-0.36
Mof_C 	C 	0.5891	0.6396	0.2141	0.741
Mof_S 	S 	0.6298	0.5719	0.2515	0.322
Mof_O 	O 	0.6842	0.5844	0.2675	-0.121
Mof_O 	O 	0.5775	0.568	0.2923	-0.135
Mof_O 	O 	0.6547	0.5283	0.2096	-0.094
Mof_F 	F 	0.5272	0.6389	0.2045	-0.402
Mof_F 	F 	0.6411	0.634	0.1718	-0.363
Mof_F 	F 	0.5743	0.6938	0.2378	-0.372
Mof_C 	C 	0.5044	0.0664	0.7467	0.733
Mof_S 	S 	0.5842	0.0095	0.715	0.345
Mof_O 	O 	0.5782	0.0216	0.6644	-0.119
Mof_O 	O 	0.5902	0.9498	0.7378	-0.169
Mof_O 	O 	0.6336	0.0372	0.7289	-0.071
Mof_F 	F 	0.503	0.1241	0.7268	-0.38
Mof_F 	F 	0.4553	0.0393	0.7439	-0.422
Mof_F 	F 	0.517	0.0657	0.7943	-0.414
Mof_Cl	Cl	0.1347	0.3886	0.6371	-0.145
Mof_Cl	Cl	0.8653	0.6114	0.3629	-0.145
_end
