# CIF file generated by openbabel 3.1.0, see https://openbabel.org
data_I
_chemical_name_common 'image0'
_cell_length_a 10.6636
_cell_length_b 13.3253
_cell_length_c 20.0859
_cell_angle_alpha 90
_cell_angle_beta 90
_cell_angle_gamma 90
_space_group_name_H-M_alt 'P 1'
_space_group_name_Hall 'P 1'
loop_
    _symmetry_equiv_pos_as_xyz
    x,y,z
loop_
    _atom_site_label
    _atom_site_type_symbol
    _atom_site_fract_x
    _atom_site_fract_y
    _atom_site_fract_z
    _atom_site_occupancy
    O1       O        0.65760    0.39170    0.18400    1.000
    O2       O        0.76680    0.30530    0.10640    1.000
    O3       O        0.86290    0.12660    0.31580    1.000
    O4       O        0.76800    0.22080    0.39390    1.000
    C1       C        0.79740    0.19920    0.33510    1.000
    C2       C        0.73130    0.32330    0.16520    1.000
    C3       C        0.78500    0.25850    0.21970    1.000
    H1       H        0.84900    0.21370    0.20940    1.000
    C4       C        0.74420    0.26330    0.28100    1.000
    H2       H        0.68020    0.30810    0.29130    1.000
    O5       O        0.35400    0.49100    0.05620    1.000
    O6       O        0.50950    0.38540    0.05400    1.000
    C5       C        0.01100    0.35600    0.02350    1.000
    O7       O        0.29770    0.48780    0.07080    1.000
    O8       O        0.51360    0.34060    0.07700    1.000
    O9       O        0.34240    0.60830    0.18400    1.000
    O10      O        0.23320    0.69470    0.10640    1.000
    O11      O        0.13710    0.87340    0.31580    1.000
    O12      O        0.23200    0.77920    0.39390    1.000
    C6       C        0.20260    0.80080    0.33510    1.000
    C7       C        0.26870    0.67670    0.16520    1.000
    C8       C        0.21500    0.74150    0.21970    1.000
    H3       H        0.15100    0.78630    0.20940    1.000
    C9       C        0.25580    0.73670    0.28100    1.000
    H4       H        0.31980    0.69190    0.29130    1.000
    O13      O        0.64600    0.50900    0.05620    1.000
    O14      O        0.49050    0.61460    0.05400    1.000
    C10      C        0.98900    0.64400    0.02350    1.000
    O15      O        0.70230    0.51220    0.07080    1.000
    O16      O        0.48640    0.65940    0.07700    1.000
    O17      O        0.84240    0.89170    0.31600    1.000
    O18      O        0.73320    0.80530    0.39360    1.000
    O19      O        0.63710    0.62660    0.18420    1.000
    O20      O        0.73200    0.72080    0.10610    1.000
    C11      C        0.70260    0.69920    0.16490    1.000
    C12      C        0.76870    0.82330    0.33480    1.000
    C13      C        0.71500    0.75850    0.28030    1.000
    H5       H        0.65100    0.71370    0.29060    1.000
    C14      C        0.75580    0.76330    0.21900    1.000
    H6       H        0.81980    0.80810    0.20870    1.000
    O21      O        0.14600    0.99100    0.44380    1.000
    O22      O        0.99050    0.88540    0.44600    1.000
    C15      C        0.48900    0.85600    0.47650    1.000
    O23      O        0.20230    0.98780    0.42920    1.000
    O24      O        0.98640    0.84060    0.42300    1.000
    O25      O        0.15760    0.10830    0.31600    1.000
    O26      O        0.26680    0.19470    0.39360    1.000
    O27      O        0.36290    0.37340    0.18420    1.000
    O28      O        0.26800    0.27920    0.10610    1.000
    C16      C        0.29740    0.30080    0.16490    1.000
    C17      C        0.23130    0.17670    0.33480    1.000
    C18      C        0.28500    0.24150    0.28030    1.000
    H7       H        0.34900    0.28630    0.29060    1.000
    C19      C        0.24420    0.23670    0.21900    1.000
    H8       H        0.18020    0.19190    0.20870    1.000
    O29      O        0.85400    0.00900    0.44380    1.000
    O30      O        0.00950    0.11460    0.44600    1.000
    C20      C        0.51100    0.14400    0.47650    1.000
    O31      O        0.79770    0.01220    0.42920    1.000
    O32      O        0.01360    0.15940    0.42300    1.000
    O33      O        0.34240    0.60830    0.81600    1.000
    O34      O        0.23320    0.69470    0.89360    1.000
    O35      O        0.13710    0.87340    0.68420    1.000
    O36      O        0.23200    0.77920    0.60610    1.000
    C21      C        0.20260    0.80080    0.66490    1.000
    C22      C        0.26870    0.67670    0.83480    1.000
    C23      C        0.21500    0.74150    0.78030    1.000
    H9       H        0.15100    0.78630    0.79060    1.000
    C24      C        0.25580    0.73670    0.71900    1.000
    H10      H        0.31980    0.69190    0.70870    1.000
    O37      O        0.64600    0.50900    0.94380    1.000
    O38      O        0.49050    0.61460    0.94600    1.000
    C25      C        0.98900    0.64400    0.97650    1.000
    O39      O        0.70230    0.51220    0.92920    1.000
    O40      O        0.48640    0.65940    0.92300    1.000
    O41      O        0.65760    0.39170    0.81600    1.000
    O42      O        0.76680    0.30530    0.89360    1.000
    O43      O        0.86290    0.12660    0.68420    1.000
    O44      O        0.76800    0.22080    0.60610    1.000
    C26      C        0.79740    0.19920    0.66490    1.000
    C27      C        0.73130    0.32330    0.83480    1.000
    C28      C        0.78500    0.25850    0.78030    1.000
    H11      H        0.84900    0.21370    0.79060    1.000
    C29      C        0.74420    0.26330    0.71900    1.000
    H12      H        0.68020    0.30810    0.70870    1.000
    O45      O        0.35400    0.49100    0.94380    1.000
    O46      O        0.50950    0.38540    0.94600    1.000
    C30      C        0.01100    0.35600    0.97650    1.000
    O47      O        0.29770    0.48780    0.92920    1.000
    O48      O        0.51360    0.34060    0.92300    1.000
    O49      O        0.15760    0.10830    0.68400    1.000
    O50      O        0.26680    0.19470    0.60640    1.000
    O51      O        0.36290    0.37340    0.81580    1.000
    O52      O        0.26800    0.27920    0.89390    1.000
    C31      C        0.29740    0.30080    0.83510    1.000
    C32      C        0.23130    0.17670    0.66520    1.000
    C33      C        0.28500    0.24150    0.71970    1.000
    H13      H        0.34900    0.28630    0.70940    1.000
    C34      C        0.24420    0.23670    0.78100    1.000
    H14      H        0.18020    0.19190    0.79130    1.000
    O53      O        0.85400    0.00900    0.55620    1.000
    O54      O        0.00950    0.11460    0.55400    1.000
    C35      C        0.51100    0.14400    0.52350    1.000
    O55      O        0.79770    0.01220    0.57080    1.000
    O56      O        0.01360    0.15940    0.57700    1.000
    O57      O        0.84240    0.89170    0.68400    1.000
    O58      O        0.73320    0.80530    0.60640    1.000
    O59      O        0.63710    0.62660    0.81580    1.000
    O60      O        0.73200    0.72080    0.89390    1.000
    C36      C        0.70260    0.69920    0.83510    1.000
    C37      C        0.76870    0.82330    0.66520    1.000
    C38      C        0.71500    0.75850    0.71970    1.000
    H15      H        0.65100    0.71370    0.70940    1.000
    C39      C        0.75580    0.76330    0.78100    1.000
    H16      H        0.81980    0.80810    0.79130    1.000
    O61      O        0.14600    0.99100    0.55620    1.000
    O62      O        0.99050    0.88540    0.55400    1.000
    C40      C        0.48900    0.85600    0.52350    1.000
    O63      O        0.20230    0.98780    0.57080    1.000
    O64      O        0.98640    0.84060    0.57700    1.000
    U1       U        0.50000    0.50000    0.13779    1.000
    U2       U        0.00000    0.00000    0.36221    1.000
    U3       U        0.50000    0.50000    0.86221    1.000
    U4       U        0.00000    0.00000    0.63779    1.000
    U5       U        0.33732    0.34711    0.00000    1.000
    U6       U        0.68772    0.36737    0.00000    1.000
    O65      O        0.63270    0.19250    0.00000    1.000
    O66      O        0.42500    0.17840    0.00000    1.000
    C41      C        0.54860    0.03100    0.00000    1.000
    H17      H        0.62920    0.00430    0.00000    1.000
    C42      C        0.53280    0.14300    0.00000    1.000
    O67      O        0.91190    0.38460    0.00000    1.000
    O68      O        0.11360    0.35890    0.00000    1.000
    U7       U        0.66268    0.65289    0.00000    1.000
    U8       U        0.31228    0.63263    0.00000    1.000
    O69      O        0.36730    0.80750    0.00000    1.000
    O70      O        0.57500    0.82160    0.00000    1.000
    C43      C        0.45140    0.96900    0.00000    1.000
    H18      H        0.37080    0.99570    0.00000    1.000
    C44      C        0.46720    0.85700    0.00000    1.000
    O71      O        0.08810    0.61540    0.00000    1.000
    O72      O        0.88640    0.64110    0.00000    1.000
    U9       U        0.16268    0.84711    0.50000    1.000
    U10      U        0.81228    0.86737    0.50000    1.000
    O73      O        0.86730    0.69250    0.50000    1.000
    O74      O        0.07500    0.67840    0.50000    1.000
    C45      C        0.95140    0.53100    0.50000    1.000
    H19      H        0.87080    0.50430    0.50000    1.000
    C46      C        0.96720    0.64300    0.50000    1.000
    O75      O        0.58810    0.88460    0.50000    1.000
    O76      O        0.38640    0.85890    0.50000    1.000
    U11      U        0.83732    0.15289    0.50000    1.000
    U12      U        0.18772    0.13263    0.50000    1.000
    O77      O        0.13270    0.30750    0.50000    1.000
    O78      O        0.92500    0.32160    0.50000    1.000
    C47      C        0.04860    0.46900    0.50000    1.000
    H20      H        0.12920    0.49570    0.50000    1.000
    C48      C        0.03280    0.35700    0.50000    1.000
    O79      O        0.41190    0.11540    0.50000    1.000
    O80      O        0.61360    0.14110    0.50000    1.000
