data_functionalizedCrystal
_audit_creation_method	'EQeq! by Chris Wilmer'
_symmetry_space_group_name_H-M	'P1'
_symmetry_Int_Tables_number	1
_symmetry_cell_setting	triclinic
loop_
_symmetry_equiv_pos_as_xyz
  x,y,z
_cell_length_a	10.7031
_cell_length_b	23.0805
_cell_length_c	7.2343
_cell_angle_alpha	90
_cell_angle_beta	90
_cell_angle_gamma	90
loop_
_atom_site_label
_atom_site_type_symbol
_atom_site_fract_x
_atom_site_fract_y
_atom_site_fract_z
_atom_site_charge
Mof_Sb	Sb	0.2744	0.2586	0.79884	0.553
Mof_O 	O 	0.3358	0.3593	0.9168	-0.32
Mof_O 	O 	0.4634	0.43182	0.8436	-0.551
Mof_O 	O 	0.0917	0.27814	0.7054	-0.305
Mof_O 	O 	0.9668	0.34121	0.5674	-0.195
Mof_O 	O 	0.4691	0.23955	0.7175	-0.306
Mof_O 	O 	0.595	0.17154	0.6036	-0.272
Mof_O 	O 	0.1804	0.16422	0.8615	-0.329
Mof_O 	O 	0.5716	0.40784	0.2375	-0.554
Mof_O 	O 	0.3102	0.43886	0.2078	-0.168
Mof_O 	O 	0.3148	0.4703	0.289	-0.289
Mof_N 	N 	0.3057	0.32507	0.5631	-0.043
Mof_N 	N 	0.2655	0.20215	0.5358	-0.048
Mof_C 	C 	0.407	0.36664	0.6075	-0.338
Mof_H 	H 	0.4018	0.3995	0.5242	0.146
Mof_H 	H 	0.4872	0.348	0.588	0.156
Mof_C 	C 	0.3997	0.3881	0.8054	0.465
Mof_C 	C 	0.1846	0.357	0.5387	-0.253
Mof_H 	H 	0.1738	0.3659	0.4087	0.133
Mof_H 	H 	0.1894	0.3934	0.6052	0.112
Mof_C 	C 	0.0718	0.32414	0.6052	0.269
Mof_C 	C 	0.3412	0.29279	0.392	-0.087
Mof_H 	H 	0.4283	0.2814	0.3996	0.084
Mof_H 	H 	0.3315	0.3179	0.2855	0.081
Mof_C 	C 	0.261	0.23946	0.3674	-0.072
Mof_H 	H 	0.1753	0.251	0.3438	0.07
Mof_H 	H 	0.2903	0.2176	0.2615	0.066
Mof_C 	C 	0.3789	0.16447	0.5366	-0.282
Mof_H 	H 	0.3993	0.1538	0.4104	0.131
Mof_H 	H 	0.3605	0.1291	0.6039	0.114
Mof_C 	C 	0.491	0.19369	0.6237	0.374
Mof_C 	C 	0.1528	0.16439	0.5373	-0.312
Mof_H 	H 	0.1622	0.1341	0.4454	0.098
Mof_H 	H 	0.0798	0.1872	0.5053	0.121
Mof_C 	C 	0.6343	0.36271	0.2257	0.484
Mof_Sb	Sb	0.7256	0.7414	0.79884	0.57
Mof_O 	O 	0.6642	0.6407	0.9168	-0.32
Mof_O 	O 	0.5366	0.56818	0.8436	-0.552
Mof_O 	O 	0.9083	0.72186	0.7054	-0.304
Mof_O 	O 	0.0332	0.65879	0.5674	-0.36
Mof_O 	O 	0.5309	0.76045	0.7175	-0.31
Mof_O 	O 	0.405	0.82846	0.6036	-0.266
Mof_O 	O 	0.8196	0.83578	0.8615	-0.287
Mof_O 	O 	0.4284	0.59216	0.2375	-0.556
Mof_O 	O 	0.6898	0.56114	0.2078	-0.163
Mof_O 	O 	0.6852	0.5297	0.289	-0.278
Mof_N 	N 	0.6943	0.67493	0.5631	-0.033
Mof_N 	N 	0.7345	0.79785	0.5358	-0.037
Mof_C 	C 	0.593	0.63336	0.6075	-0.342
Mof_H 	H 	0.5982	0.6005	0.5242	0.148
Mof_H 	H 	0.5128	0.652	0.588	0.156
Mof_C 	C 	0.6003	0.6119	0.8054	0.468
Mof_C 	C 	0.8154	0.643	0.5387	-0.363
Mof_H 	H 	0.8262	0.6341	0.4087	0.186
Mof_H 	H 	0.8106	0.6066	0.6052	0.164
Mof_C 	C 	0.9282	0.67586	0.6052	0.486
Mof_C 	C 	0.6588	0.70721	0.392	-0.077
Mof_H 	H 	0.5717	0.7186	0.3996	0.08
Mof_H 	H 	0.6685	0.6821	0.2855	0.077
Mof_C 	C 	0.739	0.76054	0.3674	-0.096
Mof_H 	H 	0.8247	0.749	0.3438	0.099
Mof_H 	H 	0.7097	0.7824	0.2615	0.083
Mof_C 	C 	0.6211	0.83553	0.5366	-0.303
Mof_H 	H 	0.6007	0.8462	0.4104	0.15
Mof_H 	H 	0.6395	0.8709	0.6039	0.142
Mof_C 	C 	0.509	0.80631	0.6237	0.384
Mof_C 	C 	0.8472	0.83561	0.5373	-0.341
Mof_H 	H 	0.8378	0.8659	0.4454	0.147
Mof_H 	H 	0.9202	0.8128	0.5053	0.175
Mof_C 	C 	0.3657	0.63729	0.2257	0.481
Mof_Sb	Sb	0.7744	0.2414	0.29884	0.564
Mof_O 	O 	0.8358	0.1407	0.4168	-0.308
Mof_O 	O 	0.9634	0.06818	0.3436	-0.481
Mof_O 	O 	0.5917	0.22186	0.2054	-0.309
Mof_O 	O 	0.4668	0.15879	0.0674	-0.292
Mof_O 	O 	0.9691	0.26045	0.2175	-0.312
Mof_O 	O 	0.095	0.32846	0.1036	-0.356
Mof_O 	O 	0.6804	0.33578	0.3615	-0.322
Mof_O 	O 	0.0716	0.09216	0.7375	-0.539
Mof_O 	O 	0.8102	0.06114	0.7078	-0.131
Mof_O 	O 	0.8148	0.0297	0.789	-0.261
Mof_N 	N 	0.8057	0.17493	0.0631	-0.036
Mof_N 	N 	0.7655	0.29785	0.0358	-0.036
Mof_C 	C 	0.907	0.13336	0.1075	-0.348
Mof_H 	H 	0.9018	0.1005	0.0242	0.158
Mof_H 	H 	0.9872	0.152	0.088	0.179
Mof_C 	C 	0.8997	0.1119	0.3054	0.457
Mof_C 	C 	0.6846	0.143	0.0387	-0.331
Mof_H 	H 	0.6738	0.1341	0.9087	0.171
Mof_H 	H 	0.6894	0.1066	0.1052	0.137
Mof_C 	C 	0.5718	0.17586	0.1052	0.383
Mof_C 	C 	0.8412	0.20721	0.892	-0.092
Mof_H 	H 	0.9283	0.2186	0.8996	0.107
Mof_H 	H 	0.8315	0.1821	0.7855	0.095
Mof_C 	C 	0.761	0.26054	0.8674	-0.067
Mof_H 	H 	0.6753	0.249	0.8438	0.084
Mof_H 	H 	0.7903	0.2824	0.7615	0.075
Mof_C 	C 	0.8789	0.33553	0.0366	-0.377
Mof_H 	H 	0.8993	0.3462	0.9104	0.187
Mof_H 	H 	0.8605	0.3709	0.1039	0.154
Mof_C 	C 	0.991	0.30631	0.1237	0.492
Mof_C 	C 	0.6528	0.33561	0.0373	-0.369
Mof_H 	H 	0.6622	0.3659	0.9454	0.138
Mof_H 	H 	0.5798	0.3128	0.0053	0.154
Mof_C 	C 	0.1343	0.13729	0.7257	0.444
Mof_Sb	Sb	0.2256	0.7586	0.29884	0.547
Mof_O 	O 	0.1642	0.8593	0.4168	-0.317
Mof_O 	O 	0.0366	0.93182	0.3436	-0.497
Mof_O 	O 	0.4083	0.77814	0.2054	-0.307
Mof_O 	O 	0.5332	0.84121	0.0674	-0.275
Mof_O 	O 	0.0309	0.73955	0.2175	-0.313
Mof_O 	O 	0.905	0.67154	0.1036	-0.203
Mof_O 	O 	0.3196	0.66422	0.3615	-0.323
Mof_O 	O 	0.9284	0.90784	0.7375	-0.428
Mof_O 	O 	0.1898	0.93886	0.7078	-0.145
Mof_O 	O 	0.1852	0.9703	0.789	-0.209
Mof_N 	N 	0.1943	0.82507	0.0631	-0.042
Mof_N 	N 	0.2345	0.70215	0.0358	-0.046
Mof_C 	C 	0.093	0.86664	0.1075	-0.319
Mof_H 	H 	0.0982	0.8995	0.0242	0.139
Mof_H 	H 	0.0128	0.848	0.088	0.127
Mof_C 	C 	0.1003	0.8881	0.3054	0.437
Mof_C 	C 	0.3154	0.857	0.0387	-0.339
Mof_H 	H 	0.3262	0.8659	0.9087	0.18
Mof_H 	H 	0.3106	0.8934	0.1052	0.157
Mof_C 	C 	0.4282	0.82414	0.1052	0.387
Mof_C 	C 	0.1588	0.79279	0.892	-0.065
Mof_H 	H 	0.0717	0.7814	0.8996	0.065
Mof_H 	H 	0.1685	0.8179	0.7855	0.071
Mof_C 	C 	0.239	0.73946	0.8674	-0.082
Mof_H 	H 	0.3247	0.751	0.8438	0.088
Mof_H 	H 	0.2097	0.7176	0.7615	0.073
Mof_C 	C 	0.1211	0.66447	0.0366	-0.266
Mof_H 	H 	0.1007	0.6538	0.9104	0.125
Mof_H 	H 	0.1395	0.6291	0.1039	0.102
Mof_C 	C 	0.009	0.69369	0.1237	0.28
Mof_C 	C 	0.3472	0.66439	0.0373	-0.363
Mof_H 	H 	0.3378	0.6341	0.9454	0.133
Mof_H 	H 	0.4202	0.6872	0.0053	0.152
Mof_C 	C 	0.8657	0.86271	0.7257	0.462
Mof_Pr	Pr	0.5	0.5	0.103	2.356
Mof_Pr	Pr	1.52815e-33	0	0.603	1.905
_end
