# CIF file generated by openbabel 3.1.0, see https://openbabel.org
data_I
_chemical_name_common 'image0'
_cell_length_a 19.8943
_cell_length_b 26.2204
_cell_length_c 17.9454
_cell_angle_alpha 90
_cell_angle_beta 119.636
_cell_angle_gamma 90
_space_group_name_H-M_alt 'P 1'
_space_group_name_Hall 'P 1'
loop_
    _symmetry_equiv_pos_as_xyz
    x,y,z
loop_
    _atom_site_label
    _atom_site_type_symbol
    _atom_site_fract_x
    _atom_site_fract_y
    _atom_site_fract_z
    _atom_site_occupancy
    Ag1      Ag       0.13908    0.05477    0.20142    1.000
    Ag2      Ag       0.85293    0.06247    0.06745    1.000
    Ag3      Ag       0.88510    0.96419    0.13011    1.000
    Ag4      Ag       0.04091    0.93599    0.15269    1.000
    Ag5      Ag       0.08234    0.00443    0.04173    1.000
    Ag6      Ag       0.00439    0.10996    0.07575    1.000
    C1       C        0.96140    0.01740    0.11810    1.000
    C2       C        0.02240    0.02560    0.11700    1.000
    C3       C        0.13470    0.15250    0.29830    1.000
    C4       C        0.15960    0.20760    0.33230    1.000
    C5       C        0.74270    0.97940    0.14340    1.000
    C6       C        0.65610    0.97090    0.11740    1.000
    C7       C        0.25030    0.03790    0.11990    1.000
    C8       C        0.33200    0.03970    0.12840    1.000
    C9       C        0.67940    0.11300    0.99020    1.000
    C10      C        0.60450    0.13660    0.94460    1.000
    C11      C        0.54170    0.10770    0.89090    1.000
    H1       H        0.54710    0.07300    0.88440    1.000
    C12      C        0.46990    0.13110    0.84610    1.000
    H2       H        0.42690    0.11170    0.80970    1.000
    C13      C        0.46130    0.18120    0.85460    1.000
    H3       H        0.41270    0.19610    0.82430    1.000
    C14      C        0.52590    0.21140    0.90930    1.000
    C15      C        0.59810    0.18840    0.95450    1.000
    H4       H        0.64150    0.20760    0.99070    1.000
    C16      C        0.51750    0.26470    0.91520    1.000
    F1       F        0.20780    0.22610    0.31370    1.000
    F2       F        0.10010    0.23923    0.30140    1.000
    F3       F        0.18690    0.20970    0.41580    1.000
    F4       F        0.62670    0.92860    0.07770    1.000
    F5       F        0.64580    0.97420    0.18280    1.000
    F6       F        0.61130    0.00980    0.06270    1.000
    F7       F        0.33860    0.01160    0.07180    1.000
    F8       F        0.38450    0.02670    0.20280    1.000
    F9       F        0.34670    0.08470    0.11240    1.000
    N1       N        0.73880    0.09490    0.02460    1.000
    N2       N        0.51000    0.30790    0.91740    1.000
    O1       O        0.16440    0.13583    0.25800    1.000
    O2       O        0.08800    0.13267    0.31700    1.000
    O3       O        0.76500    0.02228    0.16870    1.000
    O4       O        0.77570    0.94282    0.13080    1.000
    O5       O        0.20410    0.00790    0.06370    1.000
    O6       O        0.24080    0.06580    0.16850    1.000
    F10      F        0.36890    0.99360    0.16180    1.000
    F11      F        0.37740    0.07180    0.17830    1.000
    F12      F        0.33050    0.04330    0.05710    1.000
    Ag7      Ag       0.63908    0.55477    0.20142    1.000
    Ag8      Ag       0.35293    0.56247    0.06745    1.000
    Ag9      Ag       0.38510    0.46419    0.13011    1.000
    Ag10     Ag       0.54091    0.43599    0.15269    1.000
    Ag11     Ag       0.58234    0.50443    0.04173    1.000
    Ag12     Ag       0.50439    0.60996    0.07575    1.000
    C17      C        0.46140    0.51740    0.11810    1.000
    C18      C        0.52240    0.52560    0.11700    1.000
    C19      C        0.63470    0.65250    0.29830    1.000
    C20      C        0.65960    0.70760    0.33230    1.000
    C21      C        0.24270    0.47940    0.14340    1.000
    C22      C        0.15610    0.47090    0.11740    1.000
    C23      C        0.75030    0.53790    0.11990    1.000
    C24      C        0.83200    0.53970    0.12840    1.000
    C25      C        0.17940    0.61300    0.99020    1.000
    C26      C        0.10450    0.63660    0.94460    1.000
    C27      C        0.04170    0.60770    0.89090    1.000
    H5       H        0.04710    0.57300    0.88440    1.000
    C28      C        0.96990    0.63110    0.84610    1.000
    H6       H        0.92690    0.61170    0.80970    1.000
    C29      C        0.96130    0.68120    0.85460    1.000
    H7       H        0.91270    0.69610    0.82430    1.000
    C30      C        0.02590    0.71140    0.90930    1.000
    C31      C        0.09810    0.68840    0.95450    1.000
    H8       H        0.14150    0.70760    0.99070    1.000
    C32      C        0.01750    0.76470    0.91520    1.000
    F13      F        0.70780    0.72610    0.31370    1.000
    F14      F        0.60010    0.73923    0.30140    1.000
    F15      F        0.68690    0.70970    0.41580    1.000
    F16      F        0.12670    0.42860    0.07770    1.000
    F17      F        0.14580    0.47420    0.18280    1.000
    F18      F        0.11130    0.50980    0.06270    1.000
    F19      F        0.83860    0.51160    0.07180    1.000
    F20      F        0.88450    0.52670    0.20280    1.000
    F21      F        0.84670    0.58470    0.11240    1.000
    N3       N        0.23880    0.59490    0.02460    1.000
    N4       N        0.01000    0.80790    0.91740    1.000
    O7       O        0.66440    0.63583    0.25800    1.000
    O8       O        0.58800    0.63267    0.31700    1.000
    O9       O        0.26500    0.52228    0.16870    1.000
    O10      O        0.27570    0.44282    0.13080    1.000
    O11      O        0.70410    0.50790    0.06370    1.000
    O12      O        0.74080    0.56580    0.16850    1.000
    F22      F        0.86890    0.49360    0.16180    1.000
    F23      F        0.87740    0.57180    0.17830    1.000
    F24      F        0.83050    0.54330    0.05710    1.000
    Ag13     Ag       0.86092    0.05477    0.29858    1.000
    Ag14     Ag       0.14707    0.06247    0.43255    1.000
    Ag15     Ag       0.11490    0.96419    0.36989    1.000
    Ag16     Ag       0.95909    0.93599    0.34731    1.000
    Ag17     Ag       0.91766    0.00443    0.45827    1.000
    Ag18     Ag       0.99561    0.10996    0.42425    1.000
    C33      C        0.03860    0.01740    0.38190    1.000
    C34      C        0.97760    0.02560    0.38300    1.000
    C35      C        0.86530    0.15250    0.20170    1.000
    C36      C        0.84040    0.20760    0.16770    1.000
    C37      C        0.25730    0.97940    0.35660    1.000
    C38      C        0.34390    0.97090    0.38260    1.000
    C39      C        0.74970    0.03790    0.38010    1.000
    C40      C        0.66800    0.03970    0.37160    1.000
    C41      C        0.32060    0.11300    0.50980    1.000
    C42      C        0.39550    0.13660    0.55540    1.000
    C43      C        0.45830    0.10770    0.60910    1.000
    H9       H        0.45290    0.07300    0.61560    1.000
    C44      C        0.53010    0.13110    0.65390    1.000
    H10      H        0.57310    0.11170    0.69030    1.000
    C45      C        0.53870    0.18120    0.64540    1.000
    H11      H        0.58730    0.19610    0.67570    1.000
    C46      C        0.47410    0.21140    0.59070    1.000
    C47      C        0.40190    0.18840    0.54550    1.000
    H12      H        0.35850    0.20760    0.50930    1.000
    C48      C        0.48250    0.26470    0.58480    1.000
    F25      F        0.79220    0.22610    0.18630    1.000
    F26      F        0.89990    0.23923    0.19860    1.000
    F27      F        0.81310    0.20970    0.08420    1.000
    F28      F        0.37330    0.92860    0.42230    1.000
    F29      F        0.35420    0.97420    0.31720    1.000
    F30      F        0.38870    0.00980    0.43730    1.000
    F31      F        0.66140    0.01160    0.42820    1.000
    F32      F        0.61550    0.02670    0.29720    1.000
    F33      F        0.65330    0.08470    0.38760    1.000
    N5       N        0.26120    0.09490    0.47540    1.000
    N6       N        0.49000    0.30790    0.58260    1.000
    O13      O        0.83560    0.13583    0.24200    1.000
    O14      O        0.91200    0.13267    0.18300    1.000
    O15      O        0.23500    0.02228    0.33130    1.000
    O16      O        0.22430    0.94282    0.36920    1.000
    O17      O        0.79590    0.00790    0.43630    1.000
    O18      O        0.75920    0.06580    0.33150    1.000
    F34      F        0.63110    0.99360    0.33820    1.000
    F35      F        0.62260    0.07180    0.32170    1.000
    F36      F        0.66950    0.04330    0.44290    1.000
    Ag19     Ag       0.36092    0.55477    0.29858    1.000
    Ag20     Ag       0.64707    0.56247    0.43255    1.000
    Ag21     Ag       0.61490    0.46419    0.36989    1.000
    Ag22     Ag       0.45909    0.43599    0.34731    1.000
    Ag23     Ag       0.41766    0.50443    0.45827    1.000
    Ag24     Ag       0.49561    0.60996    0.42425    1.000
    C49      C        0.53860    0.51740    0.38190    1.000
    C50      C        0.47760    0.52560    0.38300    1.000
    C51      C        0.36530    0.65250    0.20170    1.000
    C52      C        0.34040    0.70760    0.16770    1.000
    C53      C        0.75730    0.47940    0.35660    1.000
    C54      C        0.84390    0.47090    0.38260    1.000
    C55      C        0.24970    0.53790    0.38010    1.000
    C56      C        0.16800    0.53970    0.37160    1.000
    C57      C        0.82060    0.61300    0.50980    1.000
    C58      C        0.89550    0.63660    0.55540    1.000
    C59      C        0.95830    0.60770    0.60910    1.000
    H13      H        0.95290    0.57300    0.61560    1.000
    C60      C        0.03010    0.63110    0.65390    1.000
    H14      H        0.07310    0.61170    0.69030    1.000
    C61      C        0.03870    0.68120    0.64540    1.000
    H15      H        0.08730    0.69610    0.67570    1.000
    C62      C        0.97410    0.71140    0.59070    1.000
    C63      C        0.90190    0.68840    0.54550    1.000
    H16      H        0.85850    0.70760    0.50930    1.000
    C64      C        0.98250    0.76470    0.58480    1.000
    F37      F        0.29220    0.72610    0.18630    1.000
    F38      F        0.39990    0.73923    0.19860    1.000
    F39      F        0.31310    0.70970    0.08420    1.000
    F40      F        0.87330    0.42860    0.42230    1.000
    F41      F        0.85420    0.47420    0.31720    1.000
    F42      F        0.88870    0.50980    0.43730    1.000
    F43      F        0.16140    0.51160    0.42820    1.000
    F44      F        0.11550    0.52670    0.29720    1.000
    F45      F        0.15330    0.58470    0.38760    1.000
    N7       N        0.76120    0.59490    0.47540    1.000
    N8       N        0.99000    0.80790    0.58260    1.000
    O19      O        0.33560    0.63583    0.24200    1.000
    O20      O        0.41200    0.63267    0.18300    1.000
    O21      O        0.73500    0.52228    0.33130    1.000
    O22      O        0.72430    0.44282    0.36920    1.000
    O23      O        0.29590    0.50790    0.43630    1.000
    O24      O        0.25920    0.56580    0.33150    1.000
    F46      F        0.13110    0.49360    0.33820    1.000
    F47      F        0.12260    0.57180    0.32170    1.000
    F48      F        0.16950    0.54330    0.44290    1.000
    Ag25     Ag       0.86092    0.94522    0.79858    1.000
    Ag26     Ag       0.14707    0.93753    0.93255    1.000
    Ag27     Ag       0.11490    0.03581    0.86989    1.000
    Ag28     Ag       0.95909    0.06401    0.84731    1.000
    Ag29     Ag       0.91766    0.99557    0.95827    1.000
    Ag30     Ag       0.99561    0.89004    0.92425    1.000
    C65      C        0.03860    0.98260    0.88190    1.000
    C66      C        0.97760    0.97440    0.88300    1.000
    C67      C        0.86530    0.84750    0.70170    1.000
    C68      C        0.84040    0.79240    0.66770    1.000
    C69      C        0.25730    0.02060    0.85660    1.000
    C70      C        0.34390    0.02910    0.88260    1.000
    C71      C        0.74970    0.96210    0.88010    1.000
    C72      C        0.66800    0.96030    0.87160    1.000
    C73      C        0.32060    0.88700    0.00980    1.000
    C74      C        0.39550    0.86340    0.05540    1.000
    C75      C        0.45830    0.89230    0.10910    1.000
    H17      H        0.45290    0.92700    0.11560    1.000
    C76      C        0.53010    0.86890    0.15390    1.000
    H18      H        0.57310    0.88830    0.19030    1.000
    C77      C        0.53870    0.81880    0.14540    1.000
    H19      H        0.58730    0.80390    0.17570    1.000
    C78      C        0.47410    0.78860    0.09070    1.000
    C79      C        0.40190    0.81160    0.04550    1.000
    H20      H        0.35850    0.79240    0.00930    1.000
    C80      C        0.48250    0.73530    0.08480    1.000
    F49      F        0.79220    0.77390    0.68630    1.000
    F50      F        0.89990    0.76077    0.69860    1.000
    F51      F        0.81310    0.79030    0.58420    1.000
    F52      F        0.37330    0.07140    0.92230    1.000
    F53      F        0.35420    0.02580    0.81720    1.000
    F54      F        0.38870    0.99020    0.93730    1.000
    F55      F        0.66140    0.98840    0.92820    1.000
    F56      F        0.61550    0.97330    0.79720    1.000
    F57      F        0.65330    0.91530    0.88760    1.000
    N9       N        0.26120    0.90510    0.97540    1.000
    N10      N        0.49000    0.69210    0.08260    1.000
    O25      O        0.83560    0.86417    0.74200    1.000
    O26      O        0.91200    0.86733    0.68300    1.000
    O27      O        0.23500    0.97772    0.83130    1.000
    O28      O        0.22430    0.05718    0.86920    1.000
    O29      O        0.79590    0.99210    0.93630    1.000
    O30      O        0.75920    0.93420    0.83150    1.000
    F58      F        0.63110    0.00640    0.83820    1.000
    F59      F        0.62260    0.92820    0.82170    1.000
    F60      F        0.66950    0.95670    0.94290    1.000
    Ag31     Ag       0.36092    0.44523    0.79858    1.000
    Ag32     Ag       0.64707    0.43753    0.93255    1.000
    Ag33     Ag       0.61490    0.53581    0.86989    1.000
    Ag34     Ag       0.45909    0.56401    0.84731    1.000
    Ag35     Ag       0.41766    0.49557    0.95827    1.000
    Ag36     Ag       0.49561    0.39004    0.92425    1.000
    C81      C        0.53860    0.48260    0.88190    1.000
    C82      C        0.47760    0.47440    0.88300    1.000
    C83      C        0.36530    0.34750    0.70170    1.000
    C84      C        0.34040    0.29240    0.66770    1.000
    C85      C        0.75730    0.52060    0.85660    1.000
    C86      C        0.84390    0.52910    0.88260    1.000
    C87      C        0.24970    0.46210    0.88010    1.000
    C88      C        0.16800    0.46030    0.87160    1.000
    C89      C        0.82060    0.38700    0.00980    1.000
    C90      C        0.89550    0.36340    0.05540    1.000
    C91      C        0.95830    0.39230    0.10910    1.000
    H21      H        0.95290    0.42700    0.11560    1.000
    C92      C        0.03010    0.36890    0.15390    1.000
    H22      H        0.07310    0.38830    0.19030    1.000
    C93      C        0.03870    0.31880    0.14540    1.000
    H23      H        0.08730    0.30390    0.17570    1.000
    C94      C        0.97410    0.28860    0.09070    1.000
    C95      C        0.90190    0.31160    0.04550    1.000
    H24      H        0.85850    0.29240    0.00930    1.000
    C96      C        0.98250    0.23530    0.08480    1.000
    F61      F        0.29220    0.27390    0.68630    1.000
    F62      F        0.39990    0.26077    0.69860    1.000
    F63      F        0.31310    0.29030    0.58420    1.000
    F64      F        0.87330    0.57140    0.92230    1.000
    F65      F        0.85420    0.52580    0.81720    1.000
    F66      F        0.88870    0.49020    0.93730    1.000
    F67      F        0.16140    0.48840    0.92820    1.000
    F68      F        0.11550    0.47330    0.79720    1.000
    F69      F        0.15330    0.41530    0.88760    1.000
    N11      N        0.76120    0.40510    0.97540    1.000
    N12      N        0.99000    0.19210    0.08260    1.000
    O31      O        0.33560    0.36417    0.74200    1.000
    O32      O        0.41200    0.36733    0.68300    1.000
    O33      O        0.73500    0.47772    0.83130    1.000
    O34      O        0.72430    0.55718    0.86920    1.000
    O35      O        0.29590    0.49210    0.93630    1.000
    O36      O        0.25920    0.43420    0.83150    1.000
    F70      F        0.13110    0.50640    0.83820    1.000
    F71      F        0.12260    0.42820    0.82170    1.000
    F72      F        0.16950    0.45670    0.94290    1.000
    Ag37     Ag       0.13908    0.94522    0.70142    1.000
    Ag38     Ag       0.85293    0.93753    0.56745    1.000
    Ag39     Ag       0.88510    0.03581    0.63011    1.000
    Ag40     Ag       0.04091    0.06401    0.65269    1.000
    Ag41     Ag       0.08234    0.99557    0.54173    1.000
    Ag42     Ag       0.00439    0.89004    0.57575    1.000
    C97      C        0.96140    0.98260    0.61810    1.000
    C98      C        0.02240    0.97440    0.61700    1.000
    C99      C        0.13470    0.84750    0.79830    1.000
    C100     C        0.15960    0.79240    0.83230    1.000
    C101     C        0.74270    0.02060    0.64340    1.000
    C102     C        0.65610    0.02910    0.61740    1.000
    C103     C        0.25030    0.96210    0.61990    1.000
    C104     C        0.33200    0.96030    0.62840    1.000
    C105     C        0.67940    0.88700    0.49020    1.000
    C106     C        0.60450    0.86340    0.44460    1.000
    C107     C        0.54170    0.89230    0.39090    1.000
    H25      H        0.54710    0.92700    0.38440    1.000
    C108     C        0.46990    0.86890    0.34610    1.000
    H26      H        0.42690    0.88830    0.30970    1.000
    C109     C        0.46130    0.81880    0.35460    1.000
    H27      H        0.41270    0.80390    0.32430    1.000
    C110     C        0.52590    0.78860    0.40930    1.000
    C111     C        0.59810    0.81160    0.45450    1.000
    H28      H        0.64150    0.79240    0.49070    1.000
    C112     C        0.51750    0.73530    0.41520    1.000
    F73      F        0.20780    0.77390    0.81370    1.000
    F74      F        0.10010    0.76077    0.80140    1.000
    F75      F        0.18690    0.79030    0.91580    1.000
    F76      F        0.62670    0.07140    0.57770    1.000
    F77      F        0.64580    0.02580    0.68280    1.000
    F78      F        0.61130    0.99020    0.56270    1.000
    F79      F        0.33860    0.98840    0.57180    1.000
    F80      F        0.38450    0.97330    0.70280    1.000
    F81      F        0.34670    0.91530    0.61240    1.000
    N13      N        0.73880    0.90510    0.52460    1.000
    N14      N        0.51000    0.69210    0.41740    1.000
    O37      O        0.16440    0.86417    0.75800    1.000
    O38      O        0.08800    0.86733    0.81700    1.000
    O39      O        0.76500    0.97772    0.66870    1.000
    O40      O        0.77570    0.05718    0.63080    1.000
    O41      O        0.20410    0.99210    0.56370    1.000
    O42      O        0.24080    0.93420    0.66850    1.000
    F82      F        0.36890    0.00640    0.66180    1.000
    F83      F        0.37740    0.92820    0.67830    1.000
    F84      F        0.33050    0.95670    0.55710    1.000
    Ag43     Ag       0.63908    0.44523    0.70142    1.000
    Ag44     Ag       0.35293    0.43753    0.56745    1.000
    Ag45     Ag       0.38510    0.53581    0.63011    1.000
    Ag46     Ag       0.54091    0.56401    0.65269    1.000
    Ag47     Ag       0.58234    0.49557    0.54173    1.000
    Ag48     Ag       0.50439    0.39004    0.57575    1.000
    C113     C        0.46140    0.48260    0.61810    1.000
    C114     C        0.52240    0.47440    0.61700    1.000
    C115     C        0.63470    0.34750    0.79830    1.000
    C116     C        0.65960    0.29240    0.83230    1.000
    C117     C        0.24270    0.52060    0.64340    1.000
    C118     C        0.15610    0.52910    0.61740    1.000
    C119     C        0.75030    0.46210    0.61990    1.000
    C120     C        0.83200    0.46030    0.62840    1.000
    C121     C        0.17940    0.38700    0.49020    1.000
    C122     C        0.10450    0.36340    0.44460    1.000
    C123     C        0.04170    0.39230    0.39090    1.000
    H29      H        0.04710    0.42700    0.38440    1.000
    C124     C        0.96990    0.36890    0.34610    1.000
    H30      H        0.92690    0.38830    0.30970    1.000
    C125     C        0.96130    0.31880    0.35460    1.000
    H31      H        0.91270    0.30390    0.32430    1.000
    C126     C        0.02590    0.28860    0.40930    1.000
    C127     C        0.09810    0.31160    0.45450    1.000
    H32      H        0.14150    0.29240    0.49070    1.000
    C128     C        0.01750    0.23530    0.41520    1.000
    F85      F        0.70780    0.27390    0.81370    1.000
    F86      F        0.60010    0.26077    0.80140    1.000
    F87      F        0.68690    0.29030    0.91580    1.000
    F88      F        0.12670    0.57140    0.57770    1.000
    F89      F        0.14580    0.52580    0.68280    1.000
    F90      F        0.11130    0.49020    0.56270    1.000
    F91      F        0.83860    0.48840    0.57180    1.000
    F92      F        0.88450    0.47330    0.70280    1.000
    F93      F        0.84670    0.41530    0.61240    1.000
    N15      N        0.23880    0.40510    0.52460    1.000
    N16      N        0.01000    0.19210    0.41740    1.000
    O43      O        0.66440    0.36417    0.75800    1.000
    O44      O        0.58800    0.36733    0.81700    1.000
    O45      O        0.26500    0.47772    0.66870    1.000
    O46      O        0.27570    0.55718    0.63080    1.000
    O47      O        0.70410    0.49210    0.56370    1.000
    O48      O        0.74080    0.43420    0.66850    1.000
    F94      F        0.86890    0.50640    0.66180    1.000
    F95      F        0.87740    0.42820    0.67830    1.000
    F96      F        0.83050    0.45670    0.55710    1.000
    Ag49     Ag       0.00000    0.06328    0.25000    1.000
    Ag50     Ag       0.50000    0.56328    0.25000    1.000
    Ag51     Ag       0.00000    0.93672    0.75000    1.000
    Ag52     Ag       0.50000    0.43672    0.75000    1.000
