# CIF file generated by openbabel 3.1.0, see https://openbabel.org
data_I
_chemical_name_common 'GESFAN_clean'
_cell_length_a 7.948
_cell_length_b 13.41
_cell_length_c 19.5
_cell_angle_alpha 110.111
_cell_angle_beta 99.3452
_cell_angle_gamma 90
_space_group_name_H-M_alt 'P 1'
_space_group_name_Hall 'P 1'
loop_
    _symmetry_equiv_pos_as_xyz
    x,y,z
loop_
    _atom_site_label
    _atom_site_type_symbol
    _atom_site_fract_x
    _atom_site_fract_y
    _atom_site_fract_z
    _atom_site_occupancy
    Ni1      Ni       0.00000    0.00000    0.00000    1.000
    Ni2      Ni       0.50000    0.00000    0.00000    1.000
    H1       H        0.04850    0.10980    0.75440    1.000
    H2       H        0.89860    0.09320    0.63920    1.000
    H3       H        0.51000    0.94180    0.67700    1.000
    H4       H        0.66040    0.95800    0.79240    1.000
    H5       H        0.64440    0.21050    0.65720    1.000
    H6       H        0.65560    0.81360    0.57280    1.000
    H7       H        0.75720    0.65680    0.56960    1.000
    H8       H        0.57750    0.65970    0.59340    1.000
    H9       H        0.65530    0.55030    0.55760    1.000
    H10      H        0.35610    0.61380    0.25820    1.000
    H11      H        0.25570    0.51780    0.26480    1.000
    H12      H        0.19680    0.63360    0.29820    1.000
    H13      H        0.45150    0.35540    0.24560    1.000
    H14      H        0.60140    0.45400    0.36080    1.000
    H15      H        0.99000    0.26480    0.32300    1.000
    H16      H        0.83960    0.16560    0.20760    1.000
    H17      H        0.85560    0.55330    0.34280    1.000
    H18      H        0.84440    0.24080    0.42720    1.000
    H19      H        0.74280    0.08720    0.43040    1.000
    H20      H        0.92250    0.06630    0.40660    1.000
    H21      H        0.84470    0.99270    0.44240    1.000
    H22      H        0.14390    0.35560    0.74180    1.000
    H23      H        0.24430    0.25300    0.73520    1.000
    H24      H        0.30320    0.33540    0.70180    1.000
    H25      H        0.95150    0.89020    0.24560    1.000
    H26      H        0.10140    0.90680    0.36080    1.000
    H27      H        0.49000    0.05820    0.32300    1.000
    H28      H        0.33960    0.04200    0.20760    1.000
    H29      H        0.35560    0.78950    0.34280    1.000
    H30      H        0.34440    0.18640    0.42720    1.000
    H31      H        0.24280    0.34320    0.43040    1.000
    H32      H        0.42250    0.34030    0.40660    1.000
    H33      H        0.34470    0.44970    0.44240    1.000
    H34      H        0.64390    0.38620    0.74180    1.000
    H35      H        0.74430    0.48220    0.73520    1.000
    H36      H        0.80320    0.36640    0.70180    1.000
    H37      H        0.54850    0.64460    0.75440    1.000
    H38      H        0.39860    0.54600    0.63920    1.000
    H39      H        0.01000    0.73520    0.67700    1.000
    H40      H        0.16040    0.83440    0.79240    1.000
    H41      H        0.14440    0.44670    0.65720    1.000
    H42      H        0.15560    0.75920    0.57280    1.000
    H43      H        0.25720    0.91280    0.56960    1.000
    H44      H        0.07750    0.93370    0.59340    1.000
    H45      H        0.15530    0.00730    0.55760    1.000
    H46      H        0.85610    0.64440    0.25820    1.000
    H47      H        0.75570    0.74700    0.26480    1.000
    H48      H        0.69680    0.66460    0.29820    1.000
    C1       C        0.96920    0.04939    0.86098    1.000
    C2       C        0.87010    0.03689    0.78598    1.000
    C3       C        0.93960    0.07617    0.73914    1.000
    C4       C        0.84940    0.06618    0.66976    1.000
    C5       C        0.68670    0.01635    0.64550    1.000
    C6       C        0.61850    0.97610    0.69240    1.000
    C7       C        0.70860    0.98579    0.76198    1.000
    C8       C        0.58910    0.20448    0.60996    1.000
    C9       C        0.54420    0.10098    0.55596    1.000
    C10      C        0.59060    0.00785    0.57070    1.000
    C11      C        0.54700    0.90730    0.51540    1.000
    C12      C        0.58980    0.80995    0.52790    1.000
    C13      C        0.64550    0.62163    0.55746    1.000
    C14      C        0.53780    0.71354    0.47668    1.000
    C15      C        0.44590    0.70640    0.40500    1.000
    C16      C        0.29380    0.59139    0.28918    1.000
    C17      C        0.53080    0.18841    0.13902    1.000
    C18      C        0.62990    0.25091    0.21402    1.000
    C19      C        0.56040    0.33703    0.26086    1.000
    C20      C        0.65060    0.39642    0.33024    1.000
    C21      C        0.81330    0.37085    0.35450    1.000
    C22      C        0.88150    0.28370    0.30760    1.000
    C23      C        0.79140    0.22381    0.23802    1.000
    C24      C        0.91090    0.59452    0.39004    1.000
    C25      C        0.95580    0.54502    0.44404    1.000
    C26      C        0.90940    0.43715    0.42930    1.000
    C27      C        0.95300    0.39190    0.48460    1.000
    C28      C        0.91020    0.28205    0.47210    1.000
    C29      C        0.85450    0.06417    0.44254    1.000
    C30      C        0.96220    0.23686    0.52332    1.000
    C31      C        0.05410    0.30140    0.59500    1.000
    C32      C        0.20620    0.30221    0.71082    1.000
    C33      C        0.03080    0.95061    0.13902    1.000
    C34      C        0.12990    0.96311    0.21402    1.000
    C35      C        0.06040    0.92383    0.26086    1.000
    C36      C        0.15060    0.93382    0.33024    1.000
    C37      C        0.31330    0.98365    0.35450    1.000
    C38      C        0.38150    0.02390    0.30760    1.000
    C39      C        0.29140    0.01421    0.23802    1.000
    C40      C        0.41090    0.79552    0.39004    1.000
    C41      C        0.45580    0.89902    0.44404    1.000
    C42      C        0.40940    0.99215    0.42930    1.000
    C43      C        0.45300    0.09270    0.48460    1.000
    C44      C        0.41020    0.19005    0.47210    1.000
    C45      C        0.35450    0.37837    0.44254    1.000
    C46      C        0.46220    0.28646    0.52332    1.000
    C47      C        0.55410    0.29360    0.59500    1.000
    C48      C        0.70620    0.40861    0.71082    1.000
    C49      C        0.46920    0.81159    0.86098    1.000
    C50      C        0.37010    0.74909    0.78598    1.000
    C51      C        0.43960    0.66297    0.73914    1.000
    C52      C        0.34940    0.60358    0.66976    1.000
    C53      C        0.18670    0.62915    0.64550    1.000
    C54      C        0.11850    0.71630    0.69240    1.000
    C55      C        0.20860    0.77619    0.76198    1.000
    C56      C        0.08910    0.40548    0.60996    1.000
    C57      C        0.04420    0.45498    0.55596    1.000
    C58      C        0.09060    0.56285    0.57070    1.000
    C59      C        0.04700    0.60810    0.51540    1.000
    C60      C        0.08980    0.71795    0.52790    1.000
    C61      C        0.14550    0.93583    0.55746    1.000
    C62      C        0.03780    0.76314    0.47668    1.000
    C63      C        0.94590    0.69860    0.40500    1.000
    C64      C        0.79380    0.69779    0.28918    1.000
    O1       O        0.56600    0.61854    0.48566    1.000
    O2       O        0.40180    0.60448    0.35778    1.000
    O3       O        0.89290    0.02125    0.90464    1.000
    O4       O        0.11930    0.08548    0.87724    1.000
    O5       O        0.93400    0.13288    0.51434    1.000
    O6       O        0.09820    0.24670    0.64222    1.000
    O7       O        0.60710    0.11661    0.09536    1.000
    O8       O        0.38070    0.20824    0.12276    1.000
    O9       O        0.43400    0.38146    0.51434    1.000
    O10      O        0.59820    0.39552    0.64222    1.000
    O11      O        0.10710    0.97875    0.09536    1.000
    O12      O        0.88070    0.91452    0.12276    1.000
    O13      O        0.06600    0.86712    0.48566    1.000
    O14      O        0.90180    0.75330    0.35778    1.000
    O15      O        0.39290    0.88339    0.90464    1.000
    O16      O        0.61930    0.79176    0.87724    1.000
    O17      O        0.25000    0.06255    0.00000    1.000
    O18      O        0.75000    0.93745    0.00000    1.000
