data_functionalizedCrystal
_audit_creation_method	'EQeq! by Chris Wilmer'
_symmetry_space_group_name_H-M	'P1'
_symmetry_Int_Tables_number	1
_symmetry_cell_setting	triclinic
loop_
_symmetry_equiv_pos_as_xyz
  x,y,z
_cell_length_a	29.2063
_cell_length_b	13.6607
_cell_length_c	13.9294
_cell_angle_alpha	90
_cell_angle_beta	98.291
_cell_angle_gamma	90
loop_
_atom_site_label
_atom_site_type_symbol
_atom_site_fract_x
_atom_site_fract_y
_atom_site_fract_z
_atom_site_charge
Mof_Eu	Eu	0.31733	0.29166	0.5368	2.192
Mof_C 	C 	0.70769	0.1047	0.2381	-0.264
Mof_C 	C 	0.73551	0.0384	0.2928	0.197
Mof_H 	H 	0.7666	0.0319	0.2859	-0.033
Mof_C 	C 	0.71631	0.9821	0.3576	-0.289
Mof_C 	C 	0.67007	0.992	0.3694	0.155
Mof_H 	H 	0.6579	0.9511	0.4128	-0.037
Mof_C 	C 	0.64184	0.0604	0.3187	-0.197
Mof_C 	C 	0.66148	0.1152	0.2519	0.145
Mof_H 	H 	0.6432	0.1609	0.2145	-0.01
Mof_C 	C 	0.72727	0.1645	0.164	0.548
Mof_C 	C 	0.74668	0.9109	0.4154	0.554
Mof_C 	C 	0.59359	0.0779	0.3389	0.243
Mof_C 	C 	0.5644	0.0054	0.3615	-0.262
Mof_H 	H 	0.5746	0.9409	0.3611	0.12
Mof_C 	C 	0.52081	0.0227	0.3849	0.15
Mof_H 	H 	0.5025	0.9697	0.3973	-0.023
Mof_C 	C 	0.50397	0.1137	0.3904	-0.2
Mof_C 	C 	0.46123	0.1351	0.4237	0.157
Mof_H 	H 	0.4429	0.0835	0.4394	-0.013
Mof_C 	C 	0.44705	0.2239	0.4329	-0.254
Mof_C 	C 	0.47534	0.2968	0.4067	0.188
Mof_H 	H 	0.4659	0.3615	0.411	-0.035
Mof_C 	C 	0.51716	0.2787	0.3744	-0.306
Mof_H 	H 	0.5347	0.3309	0.357	0.126
Mof_C 	C 	0.53287	0.187	0.3678	0.265
Mof_C 	C 	0.57685	0.1663	0.3405	-0.325
Mof_H 	H 	0.5945	0.2181	0.3229	0.141
Mof_C 	C 	0.40306	0.2457	0.4732	0.475
Mof_O 	O 	0.70051	0.22611	0.1227	-0.541
Mof_O 	O 	0.76824	0.14942	0.14994	-0.582
Mof_O 	O 	0.78994	0.92405	0.4327	-0.545
Mof_O 	O 	0.72807	0.84039	0.44739	-0.698
Mof_O 	O 	0.38757	0.32693	0.466	-0.525
Mof_O 	O 	0.38272	0.184	0.5142	-0.517
Mof_Eu	Eu	0.81733	0.79166	0.5368	2.19
Mof_C 	C 	0.20769	0.6047	0.2381	-0.265
Mof_C 	C 	0.23551	0.5384	0.2928	0.197
Mof_H 	H 	0.2666	0.5319	0.2859	-0.034
Mof_C 	C 	0.21631	0.4821	0.3576	-0.29
Mof_C 	C 	0.17007	0.492	0.3694	0.154
Mof_H 	H 	0.1579	0.4511	0.4128	-0.036
Mof_C 	C 	0.14184	0.5604	0.3187	-0.196
Mof_C 	C 	0.16148	0.6152	0.2519	0.145
Mof_H 	H 	0.1432	0.6609	0.2145	-0.009
Mof_C 	C 	0.22727	0.6645	0.164	0.548
Mof_C 	C 	0.24668	0.4109	0.4154	0.554
Mof_C 	C 	0.09359	0.5779	0.3389	0.242
Mof_C 	C 	0.0644	0.5054	0.3615	-0.259
Mof_H 	H 	0.0746	0.4409	0.3611	0.119
Mof_C 	C 	0.02081	0.5227	0.3849	0.15
Mof_H 	H 	0.0025	0.4697	0.3973	-0.023
Mof_C 	C 	0.00397	0.6137	0.3904	-0.2
Mof_C 	C 	0.96123	0.6351	0.4237	0.157
Mof_H 	H 	0.9429	0.5835	0.4394	-0.013
Mof_C 	C 	0.94705	0.7239	0.4329	-0.254
Mof_C 	C 	0.97534	0.7968	0.4067	0.188
Mof_H 	H 	0.9659	0.8615	0.411	-0.035
Mof_C 	C 	0.01716	0.7787	0.3744	-0.305
Mof_H 	H 	0.0347	0.8309	0.357	0.126
Mof_C 	C 	0.03287	0.687	0.3678	0.264
Mof_C 	C 	0.07685	0.6663	0.3405	-0.324
Mof_H 	H 	0.0945	0.7181	0.3229	0.141
Mof_C 	C 	0.90306	0.7457	0.4732	0.474
Mof_O 	O 	0.20051	0.72611	0.1227	-0.54
Mof_O 	O 	0.26824	0.64942	0.14994	-0.582
Mof_O 	O 	0.28994	0.42405	0.4327	-0.545
Mof_O 	O 	0.22807	0.34039	0.44739	-0.698
Mof_O 	O 	0.88757	0.82693	0.466	-0.525
Mof_O 	O 	0.88272	0.684	0.5142	-0.517
Mof_Eu	Eu	0.68267	0.29166	0.9632	2.194
Mof_C 	C 	0.29231	0.1047	0.2619	-0.265
Mof_C 	C 	0.26449	0.0384	0.2072	0.195
Mof_H 	H 	0.2334	0.0319	0.2141	-0.034
Mof_C 	C 	0.28369	0.9821	0.1424	-0.288
Mof_C 	C 	0.32993	0.992	0.1306	0.156
Mof_H 	H 	0.3421	0.9511	0.0872	-0.036
Mof_C 	C 	0.35816	0.0604	0.1813	-0.198
Mof_C 	C 	0.33852	0.1152	0.2481	0.145
Mof_H 	H 	0.3568	0.1609	0.2855	-0.01
Mof_C 	C 	0.27273	0.1645	0.336	0.548
Mof_C 	C 	0.25332	0.9109	0.0846	0.554
Mof_C 	C 	0.40641	0.0779	0.1611	0.243
Mof_C 	C 	0.4356	0.0054	0.1385	-0.261
Mof_H 	H 	0.4254	0.9409	0.1389	0.12
Mof_C 	C 	0.47919	0.0227	0.1151	0.146
Mof_H 	H 	0.4975	0.9697	0.1027	-0.021
Mof_C 	C 	0.49603	0.1137	0.1096	-0.198
Mof_C 	C 	0.53877	0.1351	0.0763	0.155
Mof_H 	H 	0.5571	0.0835	0.0606	-0.012
Mof_C 	C 	0.55295	0.2239	0.0671	-0.252
Mof_C 	C 	0.52466	0.2968	0.0933	0.186
Mof_H 	H 	0.5341	0.3615	0.089	-0.034
Mof_C 	C 	0.48284	0.2787	0.1256	-0.304
Mof_H 	H 	0.4653	0.3309	0.143	0.125
Mof_C 	C 	0.46713	0.187	0.1322	0.263
Mof_C 	C 	0.42315	0.1663	0.1595	-0.324
Mof_H 	H 	0.4055	0.2181	0.1771	0.141
Mof_C 	C 	0.59694	0.2457	0.0268	0.472
Mof_O 	O 	0.29949	0.22611	0.3773	-0.541
Mof_O 	O 	0.23176	0.14942	0.35006	-0.582
Mof_O 	O 	0.21006	0.92405	0.0673	-0.544
Mof_O 	O 	0.27193	0.84039	0.05261	-0.698
Mof_O 	O 	0.61243	0.32693	0.034	-0.525
Mof_O 	O 	0.61728	0.184	0.9858	-0.515
Mof_Eu	Eu	0.18267	0.79166	0.9632	2.187
Mof_C 	C 	0.79231	0.6047	0.2619	-0.265
Mof_C 	C 	0.76449	0.5384	0.2072	0.198
Mof_H 	H 	0.7334	0.5319	0.2141	-0.034
Mof_C 	C 	0.78369	0.4821	0.1424	-0.289
Mof_C 	C 	0.82993	0.492	0.1306	0.154
Mof_H 	H 	0.8421	0.4511	0.0872	-0.036
Mof_C 	C 	0.85816	0.5604	0.1813	-0.196
Mof_C 	C 	0.83852	0.6152	0.2481	0.145
Mof_H 	H 	0.8568	0.6609	0.2855	-0.01
Mof_C 	C 	0.77273	0.6645	0.336	0.548
Mof_C 	C 	0.75332	0.4109	0.0846	0.554
Mof_C 	C 	0.90641	0.5779	0.1611	0.243
Mof_C 	C 	0.9356	0.5054	0.1385	-0.26
Mof_H 	H 	0.9254	0.4409	0.1389	0.119
Mof_C 	C 	0.97919	0.5227	0.1151	0.152
Mof_H 	H 	0.9975	0.4697	0.1027	-0.024
Mof_C 	C 	0.99603	0.6137	0.1096	-0.201
Mof_C 	C 	0.03877	0.6351	0.0763	0.159
Mof_H 	H 	0.0571	0.5835	0.0606	-0.013
Mof_C 	C 	0.05295	0.7239	0.0671	-0.255
Mof_C 	C 	0.02466	0.7968	0.0933	0.19
Mof_H 	H 	0.0341	0.8615	0.089	-0.035
Mof_C 	C 	0.98284	0.7787	0.1256	-0.307
Mof_H 	H 	0.9653	0.8309	0.143	0.127
Mof_C 	C 	0.96713	0.687	0.1322	0.266
Mof_C 	C 	0.92315	0.6663	0.1595	-0.325
Mof_H 	H 	0.9055	0.7181	0.1771	0.142
Mof_C 	C 	0.09694	0.7457	0.0268	0.476
Mof_O 	O 	0.79949	0.72611	0.3773	-0.54
Mof_O 	O 	0.73176	0.64942	0.35006	-0.582
Mof_O 	O 	0.71006	0.42405	0.0673	-0.545
Mof_O 	O 	0.77193	0.34039	0.05261	-0.698
Mof_O 	O 	0.11243	0.82693	0.034	-0.525
Mof_O 	O 	0.11728	0.684	0.9858	-0.518
Mof_Eu	Eu	0.68267	0.70835	0.4632	2.191
Mof_C 	C 	0.29231	0.8953	0.7619	-0.265
Mof_C 	C 	0.26449	0.9616	0.7072	0.196
Mof_H 	H 	0.2334	0.9681	0.7141	-0.034
Mof_C 	C 	0.28369	0.0179	0.6424	-0.289
Mof_C 	C 	0.32993	0.008	0.6306	0.155
Mof_H 	H 	0.3421	0.0489	0.5872	-0.037
Mof_C 	C 	0.35816	0.9396	0.6813	-0.197
Mof_C 	C 	0.33852	0.8848	0.7481	0.145
Mof_H 	H 	0.3568	0.8391	0.7855	-0.01
Mof_C 	C 	0.27273	0.8355	0.836	0.548
Mof_C 	C 	0.25332	0.0891	0.5846	0.554
Mof_C 	C 	0.40641	0.9221	0.6611	0.243
Mof_C 	C 	0.4356	0.9946	0.6385	-0.262
Mof_H 	H 	0.4254	0.0591	0.6389	0.12
Mof_C 	C 	0.47919	0.9773	0.6151	0.15
Mof_H 	H 	0.4975	0.0303	0.6027	-0.023
Mof_C 	C 	0.49603	0.8863	0.6096	-0.2
Mof_C 	C 	0.53877	0.8649	0.5763	0.157
Mof_H 	H 	0.5571	0.9165	0.5606	-0.013
Mof_C 	C 	0.55295	0.7761	0.5671	-0.254
Mof_C 	C 	0.52466	0.7032	0.5933	0.188
Mof_H 	H 	0.5341	0.6385	0.589	-0.035
Mof_C 	C 	0.48284	0.7213	0.6256	-0.306
Mof_H 	H 	0.4653	0.6691	0.643	0.126
Mof_C 	C 	0.46713	0.813	0.6322	0.265
Mof_C 	C 	0.42315	0.8337	0.6595	-0.325
Mof_H 	H 	0.4055	0.7819	0.6771	0.141
Mof_C 	C 	0.59694	0.7543	0.5268	0.475
Mof_O 	O 	0.29949	0.77389	0.8773	-0.541
Mof_O 	O 	0.23176	0.85058	0.85006	-0.582
Mof_O 	O 	0.21006	0.07595	0.5673	-0.545
Mof_O 	O 	0.27193	0.15961	0.55261	-0.698
Mof_O 	O 	0.61243	0.67307	0.534	-0.525
Mof_O 	O 	0.61728	0.816	0.4858	-0.517
Mof_Eu	Eu	0.18267	0.20835	0.4632	2.19
Mof_C 	C 	0.79231	0.3953	0.7619	-0.265
Mof_C 	C 	0.76449	0.4616	0.7072	0.197
Mof_H 	H 	0.7334	0.4681	0.7141	-0.034
Mof_C 	C 	0.78369	0.5179	0.6424	-0.289
Mof_C 	C 	0.82993	0.508	0.6306	0.154
Mof_H 	H 	0.8421	0.5489	0.5872	-0.036
Mof_C 	C 	0.85816	0.4396	0.6813	-0.196
Mof_C 	C 	0.83852	0.3848	0.7481	0.145
Mof_H 	H 	0.8568	0.3391	0.7855	-0.009
Mof_C 	C 	0.77273	0.3355	0.836	0.548
Mof_C 	C 	0.75332	0.5891	0.5846	0.554
Mof_C 	C 	0.90641	0.4221	0.6611	0.242
Mof_C 	C 	0.9356	0.4946	0.6385	-0.259
Mof_H 	H 	0.9254	0.5591	0.6389	0.119
Mof_C 	C 	0.97919	0.4773	0.6151	0.15
Mof_H 	H 	0.9975	0.5303	0.6027	-0.023
Mof_C 	C 	0.99603	0.3863	0.6096	-0.2
Mof_C 	C 	0.03877	0.3649	0.5763	0.157
Mof_H 	H 	0.0571	0.4165	0.5606	-0.013
Mof_C 	C 	0.05295	0.2761	0.5671	-0.254
Mof_C 	C 	0.02466	0.2032	0.5933	0.188
Mof_H 	H 	0.0341	0.1385	0.589	-0.035
Mof_C 	C 	0.98284	0.2213	0.6256	-0.305
Mof_H 	H 	0.9653	0.1691	0.643	0.126
Mof_C 	C 	0.96713	0.313	0.6322	0.264
Mof_C 	C 	0.92315	0.3337	0.6595	-0.324
Mof_H 	H 	0.9055	0.2819	0.6771	0.141
Mof_C 	C 	0.09694	0.2543	0.5268	0.474
Mof_O 	O 	0.79949	0.27389	0.8773	-0.54
Mof_O 	O 	0.73176	0.35058	0.85006	-0.582
Mof_O 	O 	0.71006	0.57595	0.5673	-0.545
Mof_O 	O 	0.77193	0.65961	0.55261	-0.698
Mof_O 	O 	0.11243	0.17307	0.534	-0.525
Mof_O 	O 	0.11728	0.316	0.4858	-0.517
Mof_Eu	Eu	0.31733	0.70835	0.0368	2.194
Mof_C 	C 	0.70769	0.8953	0.7381	-0.265
Mof_C 	C 	0.73551	0.9616	0.7928	0.195
Mof_H 	H 	0.7666	0.9681	0.7859	-0.034
Mof_C 	C 	0.71631	0.0179	0.8576	-0.288
Mof_C 	C 	0.67007	0.008	0.8694	0.156
Mof_H 	H 	0.6579	0.0489	0.9128	-0.036
Mof_C 	C 	0.64184	0.9396	0.8187	-0.198
Mof_C 	C 	0.66148	0.8848	0.7519	0.145
Mof_H 	H 	0.6432	0.8391	0.7145	-0.01
Mof_C 	C 	0.72727	0.8355	0.664	0.548
Mof_C 	C 	0.74668	0.0891	0.9154	0.554
Mof_C 	C 	0.59359	0.9221	0.8389	0.243
Mof_C 	C 	0.5644	0.9946	0.8615	-0.261
Mof_H 	H 	0.5746	0.0591	0.8611	0.12
Mof_C 	C 	0.52081	0.9773	0.8849	0.146
Mof_H 	H 	0.5025	0.0303	0.8973	-0.021
Mof_C 	C 	0.50397	0.8863	0.8904	-0.198
Mof_C 	C 	0.46123	0.8649	0.9237	0.155
Mof_H 	H 	0.4429	0.9165	0.9394	-0.012
Mof_C 	C 	0.44705	0.7761	0.9329	-0.252
Mof_C 	C 	0.47534	0.7032	0.9067	0.186
Mof_H 	H 	0.4659	0.6385	0.911	-0.034
Mof_C 	C 	0.51716	0.7213	0.8744	-0.304
Mof_H 	H 	0.5347	0.6691	0.857	0.125
Mof_C 	C 	0.53287	0.813	0.8678	0.263
Mof_C 	C 	0.57685	0.8337	0.8405	-0.324
Mof_H 	H 	0.5945	0.7819	0.8229	0.141
Mof_C 	C 	0.40306	0.7543	0.9732	0.472
Mof_O 	O 	0.70051	0.77389	0.6227	-0.541
Mof_O 	O 	0.76824	0.85058	0.64994	-0.582
Mof_O 	O 	0.78994	0.07595	0.9327	-0.544
Mof_O 	O 	0.72807	0.15961	0.94739	-0.698
Mof_O 	O 	0.38757	0.67307	0.966	-0.525
Mof_O 	O 	0.38272	0.816	0.0142	-0.515
Mof_Eu	Eu	0.81733	0.20835	0.0368	2.187
Mof_C 	C 	0.20769	0.3953	0.7381	-0.265
Mof_C 	C 	0.23551	0.4616	0.7928	0.198
Mof_H 	H 	0.2666	0.4681	0.7859	-0.034
Mof_C 	C 	0.21631	0.5179	0.8576	-0.289
Mof_C 	C 	0.17007	0.508	0.8694	0.154
Mof_H 	H 	0.1579	0.5489	0.9128	-0.036
Mof_C 	C 	0.14184	0.4396	0.8187	-0.196
Mof_C 	C 	0.16148	0.3848	0.7519	0.145
Mof_H 	H 	0.1432	0.3391	0.7145	-0.01
Mof_C 	C 	0.22727	0.3355	0.664	0.548
Mof_C 	C 	0.24668	0.5891	0.9154	0.554
Mof_C 	C 	0.09359	0.4221	0.8389	0.243
Mof_C 	C 	0.0644	0.4946	0.8615	-0.26
Mof_H 	H 	0.0746	0.5591	0.8611	0.119
Mof_C 	C 	0.02081	0.4773	0.8849	0.152
Mof_H 	H 	0.0025	0.5303	0.8973	-0.024
Mof_C 	C 	0.00397	0.3863	0.8904	-0.201
Mof_C 	C 	0.96123	0.3649	0.9237	0.159
Mof_H 	H 	0.9429	0.4165	0.9394	-0.013
Mof_C 	C 	0.94705	0.2761	0.9329	-0.255
Mof_C 	C 	0.97534	0.2032	0.9067	0.19
Mof_H 	H 	0.9659	0.1385	0.911	-0.035
Mof_C 	C 	0.01716	0.2213	0.8744	-0.307
Mof_H 	H 	0.0347	0.1691	0.857	0.127
Mof_C 	C 	0.03287	0.313	0.8678	0.266
Mof_C 	C 	0.07685	0.3337	0.8405	-0.325
Mof_H 	H 	0.0945	0.2819	0.8229	0.142
Mof_C 	C 	0.90306	0.2543	0.9732	0.476
Mof_O 	O 	0.20051	0.27389	0.6227	-0.541
Mof_O 	O 	0.26824	0.35058	0.64994	-0.582
Mof_O 	O 	0.28994	0.57595	0.9327	-0.545
Mof_O 	O 	0.22807	0.65961	0.94739	-0.698
Mof_O 	O 	0.88757	0.17307	0.966	-0.525
Mof_O 	O 	0.88272	0.316	0.0142	-0.518
_end
