# CIF file generated by openbabel 3.1.0, see https://openbabel.org
data_I
_chemical_name_common 'image0'
_cell_length_a 15.1606
_cell_length_b 15.1606
_cell_length_c 12.0474
_cell_angle_alpha 90
_cell_angle_beta 90
_cell_angle_gamma 90
_space_group_name_H-M_alt 'P 1'
_space_group_name_Hall 'P 1'
loop_
    _symmetry_equiv_pos_as_xyz
    x,y,z
loop_
    _atom_site_label
    _atom_site_type_symbol
    _atom_site_fract_x
    _atom_site_fract_y
    _atom_site_fract_z
    _atom_site_occupancy
    O1       O        0.61900    0.38130    0.60780    1.000
    O2       O        0.59680    0.28830    0.74700    1.000
    C1       C        0.58820    0.36320    0.70240    1.000
    C2       C        0.54092    0.43124    0.76250    1.000
    C3       C        0.54092    0.43124    0.87880    1.000
    H1       H        0.57130    0.38020    0.92190    1.000
    O3       O        0.11900    0.88130    0.10780    1.000
    O4       O        0.09680    0.78830    0.24700    1.000
    C4       C        0.08820    0.86320    0.20240    1.000
    C5       C        0.04092    0.93124    0.26250    1.000
    C6       C        0.04092    0.93124    0.37880    1.000
    H2       H        0.07130    0.88020    0.42190    1.000
    O5       O        0.88100    0.11870    0.10780    1.000
    O6       O        0.90320    0.21170    0.24700    1.000
    C7       C        0.91180    0.13680    0.20240    1.000
    C8       C        0.95908    0.06876    0.26250    1.000
    C9       C        0.95908    0.06876    0.37880    1.000
    H3       H        0.92870    0.11980    0.42190    1.000
    O7       O        0.38100    0.61870    0.60780    1.000
    O8       O        0.40320    0.71170    0.74700    1.000
    C10      C        0.41180    0.63680    0.70240    1.000
    C11      C        0.45908    0.56876    0.76250    1.000
    C12      C        0.45908    0.56876    0.87880    1.000
    H4       H        0.42870    0.61980    0.92190    1.000
    O9       O        0.61870    0.11900    0.85780    1.000
    O10      O        0.71170    0.09680    0.99700    1.000
    C13      C        0.63680    0.08820    0.95240    1.000
    C14      C        0.56876    0.04092    0.01250    1.000
    C15      C        0.56876    0.04092    0.12880    1.000
    H5       H        0.61980    0.07130    0.17190    1.000
    O11      O        0.11870    0.61900    0.35780    1.000
    O12      O        0.21170    0.59680    0.49700    1.000
    C16      C        0.13680    0.58820    0.45240    1.000
    C17      C        0.06876    0.54092    0.51250    1.000
    C18      C        0.06876    0.54092    0.62880    1.000
    H6       H        0.11980    0.57130    0.67190    1.000
    O13      O        0.88130    0.38100    0.35780    1.000
    O14      O        0.78830    0.40320    0.49700    1.000
    C19      C        0.86320    0.41180    0.45240    1.000
    C20      C        0.93124    0.45908    0.51250    1.000
    C21      C        0.93124    0.45908    0.62880    1.000
    H7       H        0.88020    0.42870    0.67190    1.000
    O15      O        0.38130    0.88100    0.85780    1.000
    O16      O        0.28830    0.90320    0.99700    1.000
    C22      C        0.36320    0.91180    0.95240    1.000
    C23      C        0.43124    0.95908    0.01250    1.000
    C24      C        0.43124    0.95908    0.12880    1.000
    H8       H        0.38020    0.92870    0.17190    1.000
    O17      O        0.88100    0.38130    0.14220    1.000
    O18      O        0.90320    0.28830    0.00300    1.000
    C25      C        0.91180    0.36320    0.04760    1.000
    C26      C        0.95908    0.43124    0.98750    1.000
    C27      C        0.95908    0.43124    0.87120    1.000
    H9       H        0.92870    0.38020    0.82810    1.000
    O19      O        0.38100    0.88130    0.64220    1.000
    O20      O        0.40320    0.78830    0.50300    1.000
    C28      C        0.41180    0.86320    0.54760    1.000
    C29      C        0.45908    0.93124    0.48750    1.000
    C30      C        0.45908    0.93124    0.37120    1.000
    H10      H        0.42870    0.88020    0.32810    1.000
    O21      O        0.61900    0.11870    0.64220    1.000
    O22      O        0.59680    0.21170    0.50300    1.000
    C31      C        0.58820    0.13680    0.54760    1.000
    C32      C        0.54092    0.06876    0.48750    1.000
    C33      C        0.54092    0.06876    0.37120    1.000
    H11      H        0.57130    0.11980    0.32810    1.000
    O23      O        0.11900    0.61870    0.14220    1.000
    O24      O        0.09680    0.71170    0.00300    1.000
    C34      C        0.08820    0.63680    0.04760    1.000
    C35      C        0.04092    0.56876    0.98750    1.000
    C36      C        0.04092    0.56876    0.87120    1.000
    H12      H        0.07130    0.61980    0.82810    1.000
    O25      O        0.88130    0.11900    0.89220    1.000
    O26      O        0.78830    0.09680    0.75300    1.000
    C37      C        0.86320    0.08820    0.79760    1.000
    C38      C        0.93124    0.04092    0.73750    1.000
    C39      C        0.93124    0.04092    0.62120    1.000
    H13      H        0.88020    0.07130    0.57810    1.000
    O27      O        0.38130    0.61900    0.39220    1.000
    O28      O        0.28830    0.59680    0.25300    1.000
    C40      C        0.36320    0.58820    0.29760    1.000
    C41      C        0.43124    0.54092    0.23750    1.000
    C42      C        0.43124    0.54092    0.12120    1.000
    H14      H        0.38020    0.57130    0.07810    1.000
    O29      O        0.61870    0.38100    0.39220    1.000
    O30      O        0.71170    0.40320    0.25300    1.000
    C43      C        0.63680    0.41180    0.29760    1.000
    C44      C        0.56876    0.45908    0.23750    1.000
    C45      C        0.56876    0.45908    0.12120    1.000
    H15      H        0.61980    0.42870    0.07810    1.000
    O31      O        0.11870    0.88100    0.89220    1.000
    O32      O        0.21170    0.90320    0.75300    1.000
    C46      C        0.13680    0.91180    0.79760    1.000
    C47      C        0.06876    0.95908    0.73750    1.000
    C48      C        0.06876    0.95908    0.62120    1.000
    H16      H        0.11980    0.92870    0.57810    1.000
    V1       V        0.68671    0.31329    0.50000    1.000
    V2       V        0.18671    0.81329    0.00000    1.000
    V3       V        0.81329    0.18671    0.00000    1.000
    V4       V        0.31329    0.68671    0.50000    1.000
    V5       V        0.68671    0.18671    0.75000    1.000
    V6       V        0.18671    0.68671    0.25000    1.000
    V7       V        0.81329    0.31329    0.25000    1.000
    V8       V        0.31329    0.81329    0.75000    1.000
    O33      O        0.75140    0.25000    0.62500    1.000
    H17      H        0.82260    0.25000    0.62500    1.000
    O34      O        0.25140    0.75000    0.12500    1.000
    H18      H        0.32260    0.75000    0.12500    1.000
    O35      O        0.74860    0.25000    0.12500    1.000
    H19      H        0.67740    0.25000    0.12500    1.000
    O36      O        0.24860    0.75000    0.62500    1.000
    H20      H        0.17740    0.75000    0.62500    1.000
    O37      O        0.75000    0.25140    0.87500    1.000
    H21      H        0.75000    0.32260    0.87500    1.000
    O38      O        0.25000    0.75140    0.37500    1.000
    H22      H        0.25000    0.82260    0.37500    1.000
    O39      O        0.75000    0.24860    0.37500    1.000
    H23      H        0.75000    0.17740    0.37500    1.000
    O40      O        0.25000    0.74860    0.87500    1.000
    H24      H        0.25000    0.67740    0.87500    1.000
    C49      C        0.50000    0.50000    0.70440    1.000
    C50      C        0.50000    0.50000    0.93690    1.000
    H25      H        0.50000    0.50000    0.61810    1.000
    C51      C        0.00000    0.00000    0.20440    1.000
    C52      C        0.00000    0.00000    0.43690    1.000
    H26      H        0.00000    0.00000    0.11810    1.000
    C53      C        0.50000    0.00000    0.95440    1.000
    C54      C        0.50000    0.00000    0.18690    1.000
    H27      H        0.50000    0.00000    0.86810    1.000
    C55      C        0.00000    0.50000    0.45440    1.000
    C56      C        0.00000    0.50000    0.68690    1.000
    H28      H        0.00000    0.50000    0.36810    1.000
    C57      C        0.00000    0.50000    0.04560    1.000
    C58      C        0.00000    0.50000    0.81310    1.000
    H29      H        0.00000    0.50000    0.13190    1.000
    C59      C        0.50000    0.00000    0.54560    1.000
    C60      C        0.50000    0.00000    0.31310    1.000
    H30      H        0.50000    0.00000    0.63190    1.000
    C61      C        0.00000    0.00000    0.79560    1.000
    C62      C        0.00000    0.00000    0.56310    1.000
    H31      H        0.00000    0.00000    0.88190    1.000
    C63      C        0.50000    0.50000    0.29560    1.000
    C64      C        0.50000    0.50000    0.06310    1.000
    H32      H        0.50000    0.50000    0.38190    1.000
