data_functionalizedCrystal
_audit_creation_method	'EQeq! by Chris Wilmer'
_symmetry_space_group_name_H-M	'P1'
_symmetry_Int_Tables_number	1
_symmetry_cell_setting	triclinic
loop_
_symmetry_equiv_pos_as_xyz
  x,y,z
_cell_length_a	12.233
_cell_length_b	26.126
_cell_length_c	26.126
_cell_angle_alpha	90
_cell_angle_beta	90
_cell_angle_gamma	90
loop_
_atom_site_label
_atom_site_type_symbol
_atom_site_fract_x
_atom_site_fract_y
_atom_site_fract_z
_atom_site_charge
Mof_O 	O 	0.70262	0.26258	0.19545	-0.454
Mof_O 	O 	0.54369	0.19022	0.19704	-0.451
Mof_C 	C 	0.6577	0.30265	0.17974	0.346
Mof_C 	C 	0.7006	0.32792	0.13155	-0.02
Mof_O 	O 	0.57258	0.32396	0.19836	-0.462
Mof_O 	O 	0.41724	0.25137	0.1977	-0.468
Mof_C 	C 	0.6447	0.36941	0.11235	-0.035
Mof_C 	C 	0.7899	0.3063	0.10575	-0.132
Mof_H 	H 	0.5843	0.3828	0.1293	0.072
Mof_C 	C 	0.6824	0.39105	0.06588	-0.02
Mof_C 	C 	0.82399	0.32828	0.05909	0.192
Mof_H 	H 	0.8261	0.278	0.1192	0.094
Mof_C 	C 	0.769	0.3707	0.03894	-0.13
Mof_C 	C 	0.6165	0.43446	0.04307	0.344
Mof_O 	O 	0.90428	0.3097	0.0294	-0.229
Mof_H 	H 	0.7905	0.3849	0.0079	0.101
Mof_O 	O 	0.5289	0.44637	0.06441	-0.464
Mof_O 	O 	0.6569	0.45492	0.0026	-0.455
Mof_C 	C 	0.9631	0.26586	0.04428	0.001
Mof_O 	O 	0.37044	0.05929	0.00832	-0.469
Mof_Co	Co	0.42415	0.49493	0.03641	1.149
Mof_H 	H 	0.9131	0.2384	0.0531	0.051
Mof_H 	H 	0.0078	0.2734	0.074	0.048
Mof_O 	O 	0.49511	0.05111	0.0684	-0.467
Mof_C 	C 	0.1073	0.20521	0.01471	-0.01
Mof_H 	H 	0.0631	0.1754	0.0226	0.052
Mof_H 	H 	0.1559	0.1966	0.9867	0.054
Mof_O 	O 	0.16942	0.2204	0.05879	-0.225
Mof_C 	C 	0.2519	0.19132	0.07657	0.191
Mof_C 	C 	0.2844	0.14602	0.05313	-0.123
Mof_C 	C 	0.3042	0.21236	0.11754	-0.125
Mof_H 	H 	0.2482	0.1333	0.0245	0.091
Mof_C 	C 	0.373	0.12057	0.07417	-0.046
Mof_C 	C 	0.394	0.18586	0.13797	-0.043
Mof_H 	H 	0.2812	0.2433	0.1315	0.1
Mof_C 	C 	0.4316	0.14015	0.11608	-0.014
Mof_C 	C 	0.4163	0.07412	0.04833	0.38
Mof_C 	C 	0.4546	0.21084	0.17996	0.359
Mof_H 	H 	0.4929	0.1234	0.1288	0.06
Mof_O 	O 	0.29738	0.73742	0.69545	-0.455
Mof_O 	O 	0.45631	0.80978	0.69704	-0.452
Mof_C 	C 	0.3423	0.69735	0.67974	0.345
Mof_C 	C 	0.2994	0.67208	0.63155	-0.021
Mof_O 	O 	0.42742	0.67604	0.69836	-0.463
Mof_O 	O 	0.58276	0.74863	0.6977	-0.469
Mof_C 	C 	0.3553	0.63059	0.61235	-0.036
Mof_C 	C 	0.2101	0.6937	0.60575	-0.133
Mof_H 	H 	0.4157	0.6172	0.6293	0.071
Mof_C 	C 	0.3176	0.60895	0.56588	-0.021
Mof_C 	C 	0.17601	0.67172	0.55909	0.191
Mof_H 	H 	0.1739	0.722	0.6192	0.094
Mof_C 	C 	0.231	0.6293	0.53894	-0.13
Mof_C 	C 	0.3835	0.56554	0.54307	0.344
Mof_O 	O 	0.09572	0.6903	0.5294	-0.228
Mof_H 	H 	0.2095	0.6151	0.5079	0.101
Mof_O 	O 	0.4711	0.55363	0.56441	-0.463
Mof_O 	O 	0.3431	0.54508	0.5026	-0.455
Mof_C 	C 	0.0369	0.73414	0.54428	-0
Mof_O 	O 	0.62956	0.94071	0.50832	-0.47
Mof_Co	Co	0.57585	0.50507	0.53641	1.15
Mof_H 	H 	0.0869	0.7616	0.5531	0.051
Mof_H 	H 	0.9922	0.7266	0.574	0.048
Mof_O 	O 	0.50489	0.94889	0.5684	-0.468
Mof_C 	C 	0.8927	0.79479	0.51471	-0.01
Mof_H 	H 	0.9369	0.8246	0.5226	0.053
Mof_H 	H 	0.8441	0.8034	0.4867	0.054
Mof_O 	O 	0.83058	0.7796	0.55879	-0.225
Mof_C 	C 	0.7481	0.80868	0.57657	0.191
Mof_C 	C 	0.7156	0.85398	0.55313	-0.123
Mof_C 	C 	0.6958	0.78764	0.61754	-0.125
Mof_H 	H 	0.7518	0.8667	0.5245	0.091
Mof_C 	C 	0.627	0.87943	0.57417	-0.046
Mof_C 	C 	0.606	0.81414	0.63797	-0.043
Mof_H 	H 	0.7188	0.7567	0.6315	0.1
Mof_C 	C 	0.5684	0.85985	0.61608	-0.014
Mof_C 	C 	0.5837	0.92588	0.54833	0.38
Mof_C 	C 	0.5454	0.78916	0.67996	0.359
Mof_H 	H 	0.5071	0.8766	0.6288	0.06
Mof_O 	O 	0.29738	0.76258	0.30455	-0.455
Mof_O 	O 	0.45631	0.69022	0.30296	-0.452
Mof_C 	C 	0.3423	0.80265	0.32026	0.345
Mof_C 	C 	0.2994	0.82792	0.36845	-0.021
Mof_O 	O 	0.42742	0.82396	0.30164	-0.463
Mof_O 	O 	0.58276	0.75137	0.3023	-0.469
Mof_C 	C 	0.3553	0.86941	0.38765	-0.036
Mof_C 	C 	0.2101	0.8063	0.39425	-0.133
Mof_H 	H 	0.4157	0.8828	0.3707	0.071
Mof_C 	C 	0.3176	0.89105	0.43412	-0.021
Mof_C 	C 	0.17601	0.82828	0.44091	0.191
Mof_H 	H 	0.1739	0.778	0.3808	0.094
Mof_C 	C 	0.231	0.8707	0.46106	-0.13
Mof_C 	C 	0.3835	0.93446	0.45693	0.344
Mof_O 	O 	0.09572	0.8097	0.4706	-0.228
Mof_H 	H 	0.2095	0.8849	0.4921	0.102
Mof_O 	O 	0.4711	0.94637	0.43559	-0.463
Mof_O 	O 	0.3431	0.95492	0.4974	-0.454
Mof_C 	C 	0.0369	0.76586	0.45572	-0
Mof_O 	O 	0.62956	0.55929	0.49168	-0.47
Mof_Co	Co	0.57585	0.99493	0.46359	1.15
Mof_H 	H 	0.0869	0.7384	0.4469	0.051
Mof_H 	H 	0.9922	0.7734	0.426	0.048
Mof_O 	O 	0.50489	0.55111	0.4316	-0.468
Mof_C 	C 	0.8927	0.70521	0.48529	-0.01
Mof_H 	H 	0.9369	0.6754	0.4774	0.053
Mof_H 	H 	0.8441	0.6966	0.5133	0.054
Mof_O 	O 	0.83058	0.7204	0.44121	-0.225
Mof_C 	C 	0.7481	0.69132	0.42343	0.191
Mof_C 	C 	0.7156	0.64602	0.44687	-0.123
Mof_C 	C 	0.6958	0.71236	0.38246	-0.125
Mof_H 	H 	0.7518	0.6333	0.4755	0.091
Mof_C 	C 	0.627	0.62057	0.42583	-0.046
Mof_C 	C 	0.606	0.68586	0.36203	-0.043
Mof_H 	H 	0.7188	0.7433	0.3685	0.1
Mof_C 	C 	0.5684	0.64015	0.38392	-0.014
Mof_C 	C 	0.5837	0.57412	0.45167	0.38
Mof_C 	C 	0.5454	0.71084	0.32004	0.359
Mof_H 	H 	0.5071	0.6234	0.3712	0.06
Mof_O 	O 	0.70262	0.23742	0.80455	-0.455
Mof_O 	O 	0.54369	0.30978	0.80296	-0.452
Mof_C 	C 	0.6577	0.19735	0.82026	0.345
Mof_C 	C 	0.7006	0.17208	0.86845	-0.021
Mof_O 	O 	0.57258	0.17604	0.80164	-0.463
Mof_O 	O 	0.41724	0.24863	0.8023	-0.469
Mof_C 	C 	0.6447	0.13059	0.88765	-0.036
Mof_C 	C 	0.7899	0.1937	0.89425	-0.133
Mof_H 	H 	0.5843	0.1172	0.8707	0.071
Mof_C 	C 	0.6824	0.10895	0.93412	-0.021
Mof_C 	C 	0.82399	0.17172	0.94091	0.191
Mof_H 	H 	0.8261	0.222	0.8808	0.094
Mof_C 	C 	0.769	0.1293	0.96106	-0.13
Mof_C 	C 	0.6165	0.06554	0.95693	0.344
Mof_O 	O 	0.90428	0.1903	0.9706	-0.228
Mof_H 	H 	0.7905	0.1151	0.9921	0.102
Mof_O 	O 	0.5289	0.05363	0.93559	-0.463
Mof_O 	O 	0.6569	0.04508	0.9974	-0.455
Mof_C 	C 	0.9631	0.23414	0.95572	0.001
Mof_O 	O 	0.37044	0.44071	0.99168	-0.47
Mof_Co	Co	0.42415	0.00507	0.96359	1.15
Mof_H 	H 	0.9131	0.2616	0.9469	0.051
Mof_H 	H 	0.0078	0.2266	0.926	0.048
Mof_O 	O 	0.49511	0.44889	0.9316	-0.468
Mof_C 	C 	0.1073	0.29479	0.98529	-0.009
Mof_H 	H 	0.0631	0.3246	0.9774	0.052
Mof_H 	H 	0.1559	0.3034	0.0133	0.053
Mof_O 	O 	0.16942	0.2796	0.94121	-0.225
Mof_C 	C 	0.2519	0.30868	0.92343	0.191
Mof_C 	C 	0.2844	0.35398	0.94687	-0.123
Mof_C 	C 	0.3042	0.28764	0.88246	-0.125
Mof_H 	H 	0.2482	0.3667	0.9755	0.091
Mof_C 	C 	0.373	0.37943	0.92583	-0.046
Mof_C 	C 	0.394	0.31414	0.86203	-0.043
Mof_H 	H 	0.2812	0.2567	0.8685	0.1
Mof_C 	C 	0.4316	0.35985	0.88392	-0.014
Mof_C 	C 	0.4163	0.42588	0.95167	0.38
Mof_C 	C 	0.4546	0.28916	0.82004	0.359
Mof_H 	H 	0.4929	0.3766	0.8712	0.06
Mof_O 	O 	0.29738	0.73742	0.80455	-0.455
Mof_O 	O 	0.45631	0.80978	0.80296	-0.452
Mof_C 	C 	0.3423	0.69735	0.82026	0.345
Mof_C 	C 	0.2994	0.67208	0.86845	-0.021
Mof_O 	O 	0.42742	0.67604	0.80164	-0.463
Mof_O 	O 	0.58276	0.74863	0.8023	-0.469
Mof_C 	C 	0.3553	0.63059	0.88765	-0.036
Mof_C 	C 	0.2101	0.6937	0.89425	-0.133
Mof_H 	H 	0.4157	0.6172	0.8707	0.071
Mof_C 	C 	0.3176	0.60895	0.93412	-0.021
Mof_C 	C 	0.17601	0.67172	0.94091	0.191
Mof_H 	H 	0.1739	0.722	0.8808	0.094
Mof_C 	C 	0.231	0.6293	0.96106	-0.13
Mof_C 	C 	0.3835	0.56554	0.95693	0.344
Mof_O 	O 	0.09572	0.6903	0.9706	-0.228
Mof_H 	H 	0.2095	0.6151	0.9921	0.102
Mof_O 	O 	0.4711	0.55363	0.93559	-0.463
Mof_O 	O 	0.3431	0.54508	0.9974	-0.455
Mof_C 	C 	0.0369	0.73414	0.95572	0.003
Mof_O 	O 	0.62956	0.94071	0.99168	-0.469
Mof_Co	Co	0.57585	0.50507	0.96359	1.15
Mof_H 	H 	0.0869	0.7616	0.9469	0.051
Mof_H 	H 	0.9922	0.7266	0.926	0.047
Mof_O 	O 	0.50489	0.94889	0.9316	-0.467
Mof_C 	C 	0.8927	0.79479	0.98529	-0.005
Mof_H 	H 	0.9369	0.8246	0.9774	0.051
Mof_H 	H 	0.8441	0.8034	0.0133	0.051
Mof_O 	O 	0.83058	0.7796	0.94121	-0.226
Mof_C 	C 	0.7481	0.80868	0.92343	0.192
Mof_C 	C 	0.7156	0.85398	0.94687	-0.123
Mof_C 	C 	0.6958	0.78764	0.88246	-0.125
Mof_H 	H 	0.7518	0.8667	0.9755	0.092
Mof_C 	C 	0.627	0.87943	0.92583	-0.046
Mof_C 	C 	0.606	0.81414	0.86203	-0.042
Mof_H 	H 	0.7188	0.7567	0.8685	0.101
Mof_C 	C 	0.5684	0.85985	0.88392	-0.014
Mof_C 	C 	0.5837	0.92588	0.95167	0.379
Mof_C 	C 	0.5454	0.78916	0.82004	0.359
Mof_H 	H 	0.5071	0.8766	0.8712	0.061
Mof_O 	O 	0.70262	0.26258	0.30455	-0.455
Mof_O 	O 	0.54369	0.19022	0.30296	-0.452
Mof_C 	C 	0.6577	0.30265	0.32026	0.345
Mof_C 	C 	0.7006	0.32792	0.36845	-0.021
Mof_O 	O 	0.57258	0.32396	0.30164	-0.463
Mof_O 	O 	0.41724	0.25137	0.3023	-0.469
Mof_C 	C 	0.6447	0.36941	0.38765	-0.036
Mof_C 	C 	0.7899	0.3063	0.39425	-0.133
Mof_H 	H 	0.5843	0.3828	0.3707	0.071
Mof_C 	C 	0.6824	0.39105	0.43412	-0.021
Mof_C 	C 	0.82399	0.32828	0.44091	0.191
Mof_H 	H 	0.8261	0.278	0.3808	0.094
Mof_C 	C 	0.769	0.3707	0.46106	-0.13
Mof_C 	C 	0.6165	0.43446	0.45693	0.344
Mof_O 	O 	0.90428	0.3097	0.4706	-0.228
Mof_H 	H 	0.7905	0.3849	0.4921	0.101
Mof_O 	O 	0.5289	0.44637	0.43559	-0.463
Mof_O 	O 	0.6569	0.45492	0.4974	-0.455
Mof_C 	C 	0.9631	0.26586	0.45572	0
Mof_O 	O 	0.37044	0.05929	0.49168	-0.47
Mof_Co	Co	0.42415	0.49493	0.46359	1.15
Mof_H 	H 	0.9131	0.2384	0.4469	0.051
Mof_H 	H 	0.0078	0.2734	0.426	0.048
Mof_O 	O 	0.49511	0.05111	0.4316	-0.468
Mof_C 	C 	0.1073	0.20521	0.48529	-0.01
Mof_H 	H 	0.0631	0.1754	0.4774	0.053
Mof_H 	H 	0.1559	0.1966	0.5133	0.054
Mof_O 	O 	0.16942	0.2204	0.44121	-0.225
Mof_C 	C 	0.2519	0.19132	0.42343	0.191
Mof_C 	C 	0.2844	0.14602	0.44687	-0.123
Mof_C 	C 	0.3042	0.21236	0.38246	-0.125
Mof_H 	H 	0.2482	0.1333	0.4755	0.091
Mof_C 	C 	0.373	0.12057	0.42583	-0.046
Mof_C 	C 	0.394	0.18586	0.36203	-0.043
Mof_H 	H 	0.2812	0.2433	0.3685	0.1
Mof_C 	C 	0.4316	0.14015	0.38392	-0.014
Mof_C 	C 	0.4163	0.07412	0.45167	0.38
Mof_C 	C 	0.4546	0.21084	0.32004	0.359
Mof_H 	H 	0.4929	0.1234	0.3712	0.06
Mof_O 	O 	0.70262	0.23742	0.69545	-0.455
Mof_O 	O 	0.54369	0.30978	0.69704	-0.452
Mof_C 	C 	0.6577	0.19735	0.67974	0.345
Mof_C 	C 	0.7006	0.17208	0.63155	-0.021
Mof_O 	O 	0.57258	0.17604	0.69836	-0.463
Mof_O 	O 	0.41724	0.24863	0.6977	-0.469
Mof_C 	C 	0.6447	0.13059	0.61235	-0.036
Mof_C 	C 	0.7899	0.1937	0.60575	-0.133
Mof_H 	H 	0.5843	0.1172	0.6293	0.071
Mof_C 	C 	0.6824	0.10895	0.56588	-0.021
Mof_C 	C 	0.82399	0.17172	0.55909	0.191
Mof_H 	H 	0.8261	0.222	0.6192	0.094
Mof_C 	C 	0.769	0.1293	0.53894	-0.13
Mof_C 	C 	0.6165	0.06554	0.54307	0.344
Mof_O 	O 	0.90428	0.1903	0.5294	-0.228
Mof_H 	H 	0.7905	0.1151	0.5079	0.102
Mof_O 	O 	0.5289	0.05363	0.56441	-0.463
Mof_O 	O 	0.6569	0.04508	0.5026	-0.454
Mof_C 	C 	0.9631	0.23414	0.54428	0.001
Mof_O 	O 	0.37044	0.44071	0.50832	-0.47
Mof_Co	Co	0.42415	0.00507	0.53641	1.15
Mof_H 	H 	0.9131	0.2616	0.5531	0.051
Mof_H 	H 	0.0078	0.2266	0.574	0.048
Mof_O 	O 	0.49511	0.44889	0.5684	-0.468
Mof_C 	C 	0.1073	0.29479	0.51471	-0.01
Mof_H 	H 	0.0631	0.3246	0.5226	0.053
Mof_H 	H 	0.1559	0.3034	0.4867	0.054
Mof_O 	O 	0.16942	0.2796	0.55879	-0.225
Mof_C 	C 	0.2519	0.30868	0.57657	0.191
Mof_C 	C 	0.2844	0.35398	0.55313	-0.123
Mof_C 	C 	0.3042	0.28764	0.61754	-0.125
Mof_H 	H 	0.2482	0.3667	0.5245	0.091
Mof_C 	C 	0.373	0.37943	0.57417	-0.046
Mof_C 	C 	0.394	0.31414	0.63797	-0.043
Mof_H 	H 	0.2812	0.2567	0.6315	0.1
Mof_C 	C 	0.4316	0.35985	0.61608	-0.014
Mof_C 	C 	0.4163	0.42588	0.54833	0.38
Mof_C 	C 	0.4546	0.28916	0.67996	0.359
Mof_H 	H 	0.4929	0.3766	0.6288	0.06
Mof_O 	O 	0.29738	0.76258	0.19545	-0.455
Mof_O 	O 	0.45631	0.69022	0.19704	-0.452
Mof_C 	C 	0.3423	0.80265	0.17974	0.345
Mof_C 	C 	0.2994	0.82792	0.13155	-0.021
Mof_O 	O 	0.42742	0.82396	0.19836	-0.463
Mof_O 	O 	0.58276	0.75137	0.1977	-0.469
Mof_C 	C 	0.3553	0.86941	0.11235	-0.036
Mof_C 	C 	0.2101	0.8063	0.10575	-0.133
Mof_H 	H 	0.4157	0.8828	0.1293	0.071
Mof_C 	C 	0.3176	0.89105	0.06588	-0.021
Mof_C 	C 	0.17601	0.82828	0.05909	0.191
Mof_H 	H 	0.1739	0.778	0.1192	0.094
Mof_C 	C 	0.231	0.8707	0.03894	-0.13
Mof_C 	C 	0.3835	0.93446	0.04307	0.344
Mof_O 	O 	0.09572	0.8097	0.0294	-0.229
Mof_H 	H 	0.2095	0.8849	0.0079	0.101
Mof_O 	O 	0.4711	0.94637	0.06441	-0.464
Mof_O 	O 	0.3431	0.95492	0.0026	-0.455
Mof_C 	C 	0.0369	0.76586	0.04428	0.002
Mof_O 	O 	0.62956	0.55929	0.00832	-0.47
Mof_Co	Co	0.57585	0.99493	0.03641	1.149
Mof_H 	H 	0.0869	0.7384	0.0531	0.05
Mof_H 	H 	0.9922	0.7734	0.074	0.048
Mof_O 	O 	0.50489	0.55111	0.0684	-0.468
Mof_C 	C 	0.8927	0.70521	0.01471	-0.011
Mof_H 	H 	0.9369	0.6754	0.0226	0.052
Mof_H 	H 	0.8441	0.6966	0.9867	0.055
Mof_O 	O 	0.83058	0.7204	0.05879	-0.225
Mof_C 	C 	0.7481	0.69132	0.07657	0.191
Mof_C 	C 	0.7156	0.64602	0.05313	-0.123
Mof_C 	C 	0.6958	0.71236	0.11754	-0.124
Mof_H 	H 	0.7518	0.6333	0.0245	0.091
Mof_C 	C 	0.627	0.62057	0.07417	-0.047
Mof_C 	C 	0.606	0.68586	0.13797	-0.043
Mof_H 	H 	0.7188	0.7433	0.1315	0.1
Mof_C 	C 	0.5684	0.64015	0.11608	-0.014
Mof_C 	C 	0.5837	0.57412	0.04833	0.38
Mof_C 	C 	0.5454	0.71084	0.17996	0.359
Mof_H 	H 	0.5071	0.6234	0.1288	0.06
Mof_Co	Co	0.63617	0.22058	0.25	1.144
Mof_Co	Co	0.48268	0.29358	0.25	1.157
Mof_Co	Co	0.36383	0.77942	0.75	1.144
Mof_Co	Co	0.51732	0.70642	0.75	1.157
Mof_Co	Co	0.36383	0.72058	0.25	1.144
Mof_Co	Co	0.51732	0.79358	0.25	1.157
Mof_Co	Co	0.63617	0.27942	0.75	1.144
Mof_Co	Co	0.48268	0.20642	0.75	1.157
Mof_C 	C 	0.0346	0.25	-0	0.028
Mof_C 	C 	0.9654	0.75	0.5	0.029
Mof_C 	C 	0.9654	0.75	-0	0.025
Mof_C 	C 	0.0346	0.25	0.5	0.029
_end
