data_functionalizedCrystal
_audit_creation_method	'EQeq! by Chris Wilmer'
_symmetry_space_group_name_H-M	'P1'
_symmetry_Int_Tables_number	1
_symmetry_cell_setting	triclinic
loop_
_symmetry_equiv_pos_as_xyz
  x,y,z
_cell_length_a	18.6401
_cell_length_b	18.6401
_cell_length_c	39.748
_cell_angle_alpha	90
_cell_angle_beta	90
_cell_angle_gamma	120
loop_
_atom_site_label
_atom_site_type_symbol
_atom_site_fract_x
_atom_site_fract_y
_atom_site_fract_z
_atom_site_charge
Mof_O 	O 	0.51856	0.89021	0.00301	-0.403
Mof_O 	O 	0.55919	0.96967	0.95706	-0.398
Mof_C 	C 	0.54907	0.90821	0.97418	0.347
Mof_C 	C 	0.5756	0.85279	0.95832	-0.04
Mof_C 	C 	0.61849	0.87344	0.92776	-0.087
Mof_H 	H 	0.6319	0.9233	0.9174	0.089
Mof_H 	H 	0.9018	0.9088	0.9077	-0.227
Mof_O 	O 	0.18523	0.22354	0.33634	-0.402
Mof_O 	O 	0.22586	0.303	0.29039	-0.398
Mof_C 	C 	0.21574	0.24154	0.30751	0.347
Mof_C 	C 	0.24227	0.18612	0.29165	-0.038
Mof_C 	C 	0.28516	0.20677	0.26109	-0.086
Mof_H 	H 	0.29857	0.25663	0.25073	0.09
Mof_H 	H 	0.56847	0.24213	0.24103	-0.226
Mof_O 	O 	0.85189	0.55688	0.66968	-0.402
Mof_O 	O 	0.89252	0.63634	0.62373	-0.397
Mof_C 	C 	0.8824	0.57488	0.64085	0.348
Mof_C 	C 	0.90893	0.51946	0.62499	-0.039
Mof_C 	C 	0.95182	0.54011	0.59443	-0.086
Mof_H 	H 	0.96523	0.58997	0.58407	0.09
Mof_H 	H 	0.23513	0.57547	0.57437	-0.226
Mof_O 	O 	0.10979	0.62835	0.00301	-0.402
Mof_O 	O 	0.03033	0.58952	0.95706	-0.397
Mof_C 	C 	0.09179	0.64086	0.97418	0.348
Mof_C 	C 	0.14721	0.72281	0.95832	-0.039
Mof_C 	C 	0.12656	0.74505	0.92776	-0.086
Mof_H 	H 	0.0767	0.7086	0.9174	0.09
Mof_H 	H 	0.0912	0.993	0.9077	-0.226
Mof_O 	O 	0.77646	0.96168	0.33634	-0.401
Mof_O 	O 	0.697	0.92285	0.29039	-0.397
Mof_C 	C 	0.75846	0.97419	0.30751	0.348
Mof_C 	C 	0.81388	0.05614	0.29165	-0.038
Mof_C 	C 	0.79323	0.07838	0.26109	-0.086
Mof_H 	H 	0.74337	0.04193	0.25073	0.09
Mof_H 	H 	0.75787	0.32633	0.24103	-0.226
Mof_O 	O 	0.44312	0.29502	0.66968	-0.401
Mof_O 	O 	0.36366	0.25619	0.62373	-0.397
Mof_C 	C 	0.42512	0.30753	0.64085	0.348
Mof_C 	C 	0.48054	0.38948	0.62499	-0.039
Mof_C 	C 	0.45989	0.41172	0.59443	-0.086
Mof_H 	H 	0.41003	0.37527	0.58407	0.09
Mof_H 	H 	0.42453	0.65967	0.57437	-0.226
Mof_O 	O 	0.37165	0.48144	0.00301	-0.401
Mof_O 	O 	0.41048	0.44081	0.95706	-0.397
Mof_C 	C 	0.35914	0.45093	0.97418	0.348
Mof_C 	C 	0.27719	0.4244	0.95832	-0.039
Mof_C 	C 	0.25495	0.38151	0.92776	-0.086
Mof_H 	H 	0.2914	0.3681	0.9174	0.09
Mof_H 	H 	0.007	0.0982	0.9077	-0.226
Mof_O 	O 	0.03832	0.81477	0.33634	-0.401
Mof_O 	O 	0.07715	0.77414	0.29039	-0.397
Mof_C 	C 	0.02581	0.78426	0.30751	0.348
Mof_C 	C 	0.94386	0.75773	0.29165	-0.038
Mof_C 	C 	0.92162	0.71484	0.26109	-0.086
Mof_H 	H 	0.95807	0.70143	0.25073	0.09
Mof_H 	H 	0.67367	0.43153	0.24103	-0.226
Mof_O 	O 	0.70498	0.14811	0.66968	-0.401
Mof_O 	O 	0.74381	0.10748	0.62373	-0.397
Mof_C 	C 	0.69247	0.1176	0.64085	0.348
Mof_C 	C 	0.61052	0.09107	0.62499	-0.039
Mof_C 	C 	0.58828	0.04818	0.59443	-0.086
Mof_H 	H 	0.62473	0.03477	0.58407	0.09
Mof_H 	H 	0.34033	0.76487	0.57437	-0.226
Mof_O 	O 	0.89021	0.51856	0.99699	-0.402
Mof_O 	O 	0.96967	0.55919	0.04294	-0.397
Mof_C 	C 	0.90821	0.54907	0.02582	0.348
Mof_C 	C 	0.85279	0.5756	0.04168	-0.039
Mof_C 	C 	0.87344	0.61849	0.07224	-0.086
Mof_H 	H 	0.9233	0.6319	0.0826	0.09
Mof_H 	H 	0.9088	0.9018	0.0923	-0.226
Mof_O 	O 	0.55688	0.85189	0.33032	-0.402
Mof_O 	O 	0.63634	0.89252	0.37627	-0.397
Mof_C 	C 	0.57488	0.8824	0.35915	0.348
Mof_C 	C 	0.51946	0.90893	0.37501	-0.039
Mof_C 	C 	0.54011	0.95182	0.40557	-0.086
Mof_H 	H 	0.58997	0.96523	0.41593	0.09
Mof_H 	H 	0.57547	0.23513	0.42563	-0.226
Mof_O 	O 	0.22354	0.18523	0.66366	-0.401
Mof_O 	O 	0.303	0.22586	0.70961	-0.397
Mof_C 	C 	0.24154	0.21574	0.69249	0.348
Mof_C 	C 	0.18612	0.24227	0.70835	-0.038
Mof_C 	C 	0.20677	0.28516	0.73891	-0.086
Mof_H 	H 	0.25663	0.29857	0.74927	0.09
Mof_H 	H 	0.24213	0.56847	0.75897	-0.226
Mof_O 	O 	0.62835	0.10979	0.99699	-0.402
Mof_O 	O 	0.58952	0.03033	0.04294	-0.397
Mof_C 	C 	0.64086	0.09179	0.02582	0.348
Mof_C 	C 	0.72281	0.14721	0.04168	-0.039
Mof_C 	C 	0.74505	0.12656	0.07224	-0.086
Mof_H 	H 	0.7086	0.0767	0.0826	0.09
Mof_H 	H 	0.993	0.0912	0.0923	-0.226
Mof_O 	O 	0.29502	0.44312	0.33032	-0.401
Mof_O 	O 	0.25619	0.36366	0.37627	-0.397
Mof_C 	C 	0.30753	0.42512	0.35915	0.348
Mof_C 	C 	0.38948	0.48054	0.37501	-0.039
Mof_C 	C 	0.41172	0.45989	0.40557	-0.086
Mof_H 	H 	0.37527	0.41003	0.41593	0.09
Mof_H 	H 	0.65967	0.42453	0.42563	-0.226
Mof_O 	O 	0.96168	0.77646	0.66366	-0.401
Mof_O 	O 	0.92285	0.697	0.70961	-0.397
Mof_C 	C 	0.97419	0.75846	0.69249	0.348
Mof_C 	C 	0.05614	0.81388	0.70835	-0.038
Mof_C 	C 	0.07838	0.79323	0.73891	-0.086
Mof_H 	H 	0.04193	0.74337	0.74927	0.09
Mof_H 	H 	0.32633	0.75787	0.75897	-0.226
Mof_O 	O 	0.48144	0.37165	0.99699	-0.401
Mof_O 	O 	0.44081	0.41048	0.04294	-0.397
Mof_C 	C 	0.45093	0.35914	0.02582	0.348
Mof_C 	C 	0.4244	0.27719	0.04168	-0.039
Mof_C 	C 	0.38151	0.25495	0.07224	-0.086
Mof_H 	H 	0.3681	0.2914	0.0826	0.09
Mof_H 	H 	0.0982	0.007	0.0923	-0.226
Mof_O 	O 	0.14811	0.70498	0.33032	-0.401
Mof_O 	O 	0.10748	0.74381	0.37627	-0.397
Mof_C 	C 	0.1176	0.69247	0.35915	0.348
Mof_C 	C 	0.09107	0.61052	0.37501	-0.039
Mof_C 	C 	0.04818	0.58828	0.40557	-0.086
Mof_H 	H 	0.03477	0.62473	0.41593	0.09
Mof_H 	H 	0.76487	0.34033	0.42563	-0.226
Mof_O 	O 	0.81477	0.03832	0.66366	-0.401
Mof_O 	O 	0.77414	0.07715	0.70961	-0.397
Mof_C 	C 	0.78426	0.02581	0.69249	0.348
Mof_C 	C 	0.75773	0.94386	0.70835	-0.038
Mof_C 	C 	0.71484	0.92162	0.73891	-0.086
Mof_H 	H 	0.70143	0.95807	0.74927	0.09
Mof_H 	H 	0.43153	0.67367	0.75897	-0.226
Mof_O 	O 	0.48144	0.10979	0.99699	-0.402
Mof_O 	O 	0.44081	0.03033	0.04294	-0.397
Mof_C 	C 	0.45093	0.09179	0.02582	0.348
Mof_C 	C 	0.4244	0.14721	0.04168	-0.039
Mof_C 	C 	0.38151	0.12656	0.07224	-0.086
Mof_H 	H 	0.3681	0.0767	0.0826	0.09
Mof_H 	H 	0.0982	0.0912	0.0923	-0.226
Mof_O 	O 	0.14811	0.44312	0.33032	-0.402
Mof_O 	O 	0.10748	0.36366	0.37627	-0.397
Mof_C 	C 	0.1176	0.42512	0.35915	0.348
Mof_C 	C 	0.09107	0.48054	0.37501	-0.039
Mof_C 	C 	0.04818	0.45989	0.40557	-0.086
Mof_H 	H 	0.03477	0.41003	0.41593	0.09
Mof_H 	H 	0.76487	0.42453	0.42563	-0.226
Mof_O 	O 	0.81477	0.77646	0.66366	-0.401
Mof_O 	O 	0.77414	0.697	0.70961	-0.397
Mof_C 	C 	0.78426	0.75846	0.69249	0.348
Mof_C 	C 	0.75773	0.81388	0.70835	-0.038
Mof_C 	C 	0.71484	0.79323	0.73891	-0.086
Mof_H 	H 	0.70143	0.74337	0.74927	0.09
Mof_H 	H 	0.43153	0.75787	0.75897	-0.226
Mof_O 	O 	0.89021	0.37165	0.99699	-0.402
Mof_O 	O 	0.96967	0.41048	0.04294	-0.397
Mof_C 	C 	0.90821	0.35914	0.02582	0.348
Mof_C 	C 	0.85279	0.27719	0.04168	-0.039
Mof_C 	C 	0.87344	0.25495	0.07224	-0.086
Mof_H 	H 	0.9233	0.2914	0.0826	0.09
Mof_H 	H 	0.9088	0.007	0.0923	-0.226
Mof_O 	O 	0.55688	0.70498	0.33032	-0.401
Mof_O 	O 	0.63634	0.74381	0.37627	-0.397
Mof_C 	C 	0.57488	0.69247	0.35915	0.348
Mof_C 	C 	0.51946	0.61052	0.37501	-0.039
Mof_C 	C 	0.54011	0.58828	0.40557	-0.086
Mof_H 	H 	0.58997	0.62473	0.41593	0.09
Mof_H 	H 	0.57547	0.34033	0.42563	-0.226
Mof_O 	O 	0.22354	0.03832	0.66366	-0.401
Mof_O 	O 	0.303	0.07715	0.70961	-0.397
Mof_C 	C 	0.24154	0.02581	0.69249	0.348
Mof_C 	C 	0.18612	0.94386	0.70835	-0.038
Mof_C 	C 	0.20677	0.92162	0.73891	-0.086
Mof_H 	H 	0.25663	0.95807	0.74927	0.09
Mof_H 	H 	0.24213	0.67367	0.75897	-0.226
Mof_O 	O 	0.62835	0.51856	0.99699	-0.401
Mof_O 	O 	0.58952	0.55919	0.04294	-0.397
Mof_C 	C 	0.64086	0.54907	0.02582	0.348
Mof_C 	C 	0.72281	0.5756	0.04168	-0.039
Mof_C 	C 	0.74505	0.61849	0.07224	-0.086
Mof_H 	H 	0.7086	0.6319	0.0826	0.09
Mof_H 	H 	0.993	0.9018	0.0923	-0.226
Mof_O 	O 	0.29502	0.85189	0.33032	-0.401
Mof_O 	O 	0.25619	0.89252	0.37627	-0.397
Mof_C 	C 	0.30753	0.8824	0.35915	0.348
Mof_C 	C 	0.38948	0.90893	0.37501	-0.039
Mof_C 	C 	0.41172	0.95182	0.40557	-0.086
Mof_H 	H 	0.37527	0.96523	0.41593	0.09
Mof_H 	H 	0.65967	0.23513	0.42563	-0.226
Mof_O 	O 	0.96168	0.18523	0.66366	-0.401
Mof_O 	O 	0.92285	0.22586	0.70961	-0.397
Mof_C 	C 	0.97419	0.21574	0.69249	0.348
Mof_C 	C 	0.05614	0.24227	0.70835	-0.038
Mof_C 	C 	0.07838	0.28516	0.73891	-0.086
Mof_H 	H 	0.04193	0.29857	0.74927	0.09
Mof_H 	H 	0.32633	0.56847	0.75897	-0.226
Mof_O 	O 	0.10979	0.48144	0.00301	-0.402
Mof_O 	O 	0.03033	0.44081	0.95706	-0.397
Mof_C 	C 	0.09179	0.45093	0.97418	0.348
Mof_C 	C 	0.14721	0.4244	0.95832	-0.039
Mof_C 	C 	0.12656	0.38151	0.92776	-0.086
Mof_H 	H 	0.0767	0.3681	0.9174	0.09
Mof_H 	H 	0.0912	0.0982	0.9077	-0.226
Mof_O 	O 	0.77646	0.81477	0.33634	-0.401
Mof_O 	O 	0.697	0.77414	0.29039	-0.397
Mof_C 	C 	0.75846	0.78426	0.30751	0.348
Mof_C 	C 	0.81388	0.75773	0.29165	-0.038
Mof_C 	C 	0.79323	0.71484	0.26109	-0.086
Mof_H 	H 	0.74337	0.70143	0.25073	0.09
Mof_H 	H 	0.75787	0.43153	0.24103	-0.226
Mof_O 	O 	0.44312	0.14811	0.66968	-0.402
Mof_O 	O 	0.36366	0.10748	0.62373	-0.397
Mof_C 	C 	0.42512	0.1176	0.64085	0.348
Mof_C 	C 	0.48054	0.09107	0.62499	-0.039
Mof_C 	C 	0.45989	0.04818	0.59443	-0.086
Mof_H 	H 	0.41003	0.03477	0.58407	0.09
Mof_H 	H 	0.42453	0.76487	0.57437	-0.226
Mof_O 	O 	0.37165	0.89021	0.00301	-0.402
Mof_O 	O 	0.41048	0.96967	0.95706	-0.397
Mof_C 	C 	0.35914	0.90821	0.97418	0.348
Mof_C 	C 	0.27719	0.85279	0.95832	-0.039
Mof_C 	C 	0.25495	0.87344	0.92776	-0.086
Mof_H 	H 	0.2914	0.9233	0.9174	0.09
Mof_H 	H 	0.007	0.9088	0.9077	-0.226
Mof_O 	O 	0.03832	0.22354	0.33634	-0.401
Mof_O 	O 	0.07715	0.303	0.29039	-0.397
Mof_C 	C 	0.02581	0.24154	0.30751	0.348
Mof_C 	C 	0.94386	0.18612	0.29165	-0.038
Mof_C 	C 	0.92162	0.20677	0.26109	-0.086
Mof_H 	H 	0.95807	0.25663	0.25073	0.09
Mof_H 	H 	0.67367	0.24213	0.24103	-0.226
Mof_O 	O 	0.70498	0.55688	0.66968	-0.401
Mof_O 	O 	0.74381	0.63634	0.62373	-0.397
Mof_C 	C 	0.69247	0.57488	0.64085	0.348
Mof_C 	C 	0.61052	0.51946	0.62499	-0.039
Mof_C 	C 	0.58828	0.54011	0.59443	-0.086
Mof_H 	H 	0.62473	0.58997	0.58407	0.09
Mof_H 	H 	0.34033	0.57547	0.57437	-0.226
Mof_O 	O 	0.51856	0.62835	0.00301	-0.401
Mof_O 	O 	0.55919	0.58952	0.95706	-0.397
Mof_C 	C 	0.54907	0.64086	0.97418	0.348
Mof_C 	C 	0.5756	0.72281	0.95832	-0.039
Mof_C 	C 	0.61849	0.74505	0.92776	-0.086
Mof_H 	H 	0.6319	0.7086	0.9174	0.09
Mof_H 	H 	0.9018	0.993	0.9077	-0.226
Mof_O 	O 	0.18523	0.96168	0.33634	-0.401
Mof_O 	O 	0.22586	0.92285	0.29039	-0.397
Mof_C 	C 	0.21574	0.97419	0.30751	0.348
Mof_C 	C 	0.24227	0.05614	0.29165	-0.038
Mof_C 	C 	0.28516	0.07838	0.26109	-0.086
Mof_H 	H 	0.29857	0.04193	0.25073	0.09
Mof_H 	H 	0.56847	0.32633	0.24103	-0.226
Mof_O 	O 	0.85189	0.29502	0.66968	-0.401
Mof_O 	O 	0.89252	0.25619	0.62373	-0.397
Mof_C 	C 	0.8824	0.30753	0.64085	0.348
Mof_C 	C 	0.90893	0.38948	0.62499	-0.039
Mof_C 	C 	0.95182	0.41172	0.59443	-0.086
Mof_H 	H 	0.96523	0.37527	0.58407	0.09
Mof_H 	H 	0.23513	0.65967	0.57437	-0.226
Mof_Cu	Cu	0.47644	0.95287	0.02739	0.905
Mof_Cu	Cu	0.1431	0.2862	0.36072	0.905
Mof_Cu	Cu	0.80977	0.61954	0.69405	0.905
Mof_Cu	Cu	0.04713	0.52356	0.02739	0.905
Mof_Cu	Cu	0.7138	0.8569	0.36072	0.905
Mof_Cu	Cu	0.38046	0.19023	0.69405	0.905
Mof_Cu	Cu	0.47644	0.52356	0.02739	0.905
Mof_Cu	Cu	0.1431	0.8569	0.36072	0.905
Mof_Cu	Cu	0.80977	0.19023	0.69405	0.905
Mof_Cu	Cu	0.95287	0.47644	0.97261	0.905
Mof_Cu	Cu	0.61954	0.80977	0.30595	0.905
Mof_Cu	Cu	0.2862	0.1431	0.63928	0.905
Mof_Cu	Cu	0.52356	0.04713	0.97261	0.905
Mof_Cu	Cu	0.19023	0.38046	0.30595	0.905
Mof_Cu	Cu	0.8569	0.7138	0.63928	0.905
Mof_Cu	Cu	0.52356	0.47644	0.97261	0.905
Mof_Cu	Cu	0.19023	0.80977	0.30595	0.905
Mof_Cu	Cu	0.8569	0.1431	0.63928	0.905
Mof_O 	O 	0.809	0.9045	0.91	-0.759
Mof_C 	C 	0.5556	0.7778	0.97377	-0.01
Mof_H 	H 	0.5289	0.76445	0.9945	0.068
Mof_C 	C 	0.6413	0.82065	0.91267	0.135
Mof_C 	C 	0.5571	0.77855	0.84676	0.08
Mof_H 	H 	0.5262	0.7631	0.8665	0.012
Mof_C 	C 	0.6456	0.8228	0.84891	0.018
Mof_C 	C 	0.6869	0.84345	0.8799	-0.183
Mof_C 	C 	0.7706	0.8853	0.87973	0.452
Mof_C 	C 	0.8155	0.90775	0.84923	-0.313
Mof_H 	H 	0.8731	0.93655	0.8497	0.156
Mof_C 	C 	0.8692	0.9346	0.9183	1.157
Mof_H 	H 	0.8843	0.94215	0.9411	-0.295
Mof_O 	O 	0.47567	0.23783	0.24333	-0.758
Mof_C 	C 	0.22227	0.11113	0.3071	-0.01
Mof_H 	H 	0.19557	0.09778	0.32783	0.068
Mof_C 	C 	0.30797	0.15398	0.246	0.135
Mof_C 	C 	0.22377	0.11188	0.18009	0.08
Mof_H 	H 	0.19287	0.09643	0.19983	0.012
Mof_C 	C 	0.31227	0.15613	0.18224	0.018
Mof_C 	C 	0.35357	0.17678	0.21323	-0.183
Mof_C 	C 	0.43727	0.21863	0.21306	0.451
Mof_C 	C 	0.48217	0.24108	0.18256	-0.313
Mof_H 	H 	0.53977	0.26988	0.18303	0.156
Mof_C 	C 	0.53587	0.26793	0.25163	1.156
Mof_H 	H 	0.55097	0.27548	0.27443	-0.294
Mof_O 	O 	0.14233	0.57117	0.57667	-0.758
Mof_C 	C 	0.88893	0.44447	0.64044	-0.01
Mof_H 	H 	0.86223	0.43112	0.66117	0.068
Mof_C 	C 	0.97463	0.48732	0.57934	0.134
Mof_C 	C 	0.89043	0.44522	0.51343	0.08
Mof_H 	H 	0.85953	0.42977	0.53317	0.012
Mof_C 	C 	0.97893	0.48947	0.51558	0.018
Mof_C 	C 	0.02023	0.51012	0.54657	-0.183
Mof_C 	C 	0.10393	0.55197	0.5464	0.451
Mof_C 	C 	0.14883	0.57442	0.5159	-0.313
Mof_H 	H 	0.20643	0.60322	0.51637	0.156
Mof_C 	C 	0.20253	0.60127	0.58497	1.155
Mof_H 	H 	0.21763	0.60882	0.60777	-0.294
Mof_O 	O 	0.0955	0.9045	0.91	-0.758
Mof_C 	C 	0.2222	0.7778	0.97377	-0.01
Mof_H 	H 	0.23555	0.76445	0.9945	0.068
Mof_C 	C 	0.17935	0.82065	0.91267	0.135
Mof_C 	C 	0.22145	0.77855	0.84676	0.08
Mof_H 	H 	0.2369	0.7631	0.8665	0.012
Mof_C 	C 	0.1772	0.8228	0.84891	0.018
Mof_C 	C 	0.15655	0.84345	0.8799	-0.183
Mof_C 	C 	0.1147	0.8853	0.87973	0.451
Mof_C 	C 	0.09225	0.90775	0.84923	-0.313
Mof_H 	H 	0.06345	0.93655	0.8497	0.156
Mof_C 	C 	0.0654	0.9346	0.9183	1.156
Mof_H 	H 	0.05785	0.94215	0.9411	-0.294
Mof_O 	O 	0.76217	0.23783	0.24333	-0.758
Mof_C 	C 	0.88887	0.11113	0.3071	-0.01
Mof_H 	H 	0.90222	0.09778	0.32783	0.068
Mof_C 	C 	0.84602	0.15398	0.246	0.135
Mof_C 	C 	0.88812	0.11188	0.18009	0.08
Mof_H 	H 	0.90357	0.09643	0.19983	0.012
Mof_C 	C 	0.84387	0.15613	0.18224	0.018
Mof_C 	C 	0.82322	0.17678	0.21323	-0.184
Mof_C 	C 	0.78137	0.21863	0.21306	0.452
Mof_C 	C 	0.75892	0.24108	0.18256	-0.313
Mof_H 	H 	0.73012	0.26988	0.18303	0.156
Mof_C 	C 	0.73207	0.26793	0.25163	1.156
Mof_H 	H 	0.72452	0.27548	0.27443	-0.294
Mof_O 	O 	0.42883	0.57117	0.57667	-0.758
Mof_C 	C 	0.55553	0.44447	0.64044	-0.01
Mof_H 	H 	0.56888	0.43112	0.66117	0.068
Mof_C 	C 	0.51268	0.48732	0.57934	0.135
Mof_C 	C 	0.55478	0.44522	0.51343	0.08
Mof_H 	H 	0.57023	0.42977	0.53317	0.012
Mof_C 	C 	0.51053	0.48947	0.51558	0.018
Mof_C 	C 	0.48988	0.51012	0.54657	-0.183
Mof_C 	C 	0.44803	0.55197	0.5464	0.451
Mof_C 	C 	0.42558	0.57442	0.5159	-0.313
Mof_H 	H 	0.39678	0.60322	0.51637	0.156
Mof_C 	C 	0.39873	0.60127	0.58497	1.156
Mof_H 	H 	0.39118	0.60882	0.60777	-0.294
Mof_O 	O 	0.0955	0.191	0.91	-0.759
Mof_C 	C 	0.2222	0.4444	0.97377	-0.01
Mof_H 	H 	0.23555	0.4711	0.9945	0.068
Mof_C 	C 	0.17935	0.3587	0.91267	0.135
Mof_C 	C 	0.22145	0.4429	0.84676	0.08
Mof_H 	H 	0.2369	0.4738	0.8665	0.012
Mof_C 	C 	0.1772	0.3544	0.84891	0.018
Mof_C 	C 	0.15655	0.3131	0.8799	-0.183
Mof_C 	C 	0.1147	0.2294	0.87973	0.452
Mof_C 	C 	0.09225	0.1845	0.84923	-0.313
Mof_H 	H 	0.06345	0.1269	0.8497	0.156
Mof_C 	C 	0.0654	0.1308	0.9183	1.157
Mof_H 	H 	0.05785	0.1157	0.9411	-0.295
Mof_O 	O 	0.76217	0.52433	0.24333	-0.758
Mof_C 	C 	0.88887	0.77773	0.3071	-0.01
Mof_H 	H 	0.90222	0.80443	0.32783	0.068
Mof_C 	C 	0.84602	0.69203	0.246	0.135
Mof_C 	C 	0.88812	0.77623	0.18009	0.08
Mof_H 	H 	0.90357	0.80713	0.19983	0.012
Mof_C 	C 	0.84387	0.68773	0.18224	0.018
Mof_C 	C 	0.82322	0.64643	0.21323	-0.183
Mof_C 	C 	0.78137	0.56273	0.21306	0.451
Mof_C 	C 	0.75892	0.51783	0.18256	-0.313
Mof_H 	H 	0.73012	0.46023	0.18303	0.156
Mof_C 	C 	0.73207	0.46413	0.25163	1.156
Mof_H 	H 	0.72452	0.44903	0.27443	-0.294
Mof_O 	O 	0.42883	0.85767	0.57667	-0.758
Mof_C 	C 	0.55553	0.11107	0.64044	-0.01
Mof_H 	H 	0.56888	0.13777	0.66117	0.068
Mof_C 	C 	0.51268	0.02537	0.57934	0.134
Mof_C 	C 	0.55478	0.10957	0.51343	0.08
Mof_H 	H 	0.57023	0.14047	0.53317	0.012
Mof_C 	C 	0.51053	0.02107	0.51558	0.018
Mof_C 	C 	0.48988	0.97977	0.54657	-0.183
Mof_C 	C 	0.44803	0.89607	0.5464	0.451
Mof_C 	C 	0.42558	0.85117	0.5159	-0.313
Mof_H 	H 	0.39678	0.79357	0.51637	0.156
Mof_C 	C 	0.39873	0.79747	0.58497	1.155
Mof_H 	H 	0.39118	0.78237	0.60777	-0.294
Mof_O 	O 	0.9045	0.809	0.09	-0.759
Mof_C 	C 	0.7778	0.5556	0.02623	-0.01
Mof_H 	H 	0.76445	0.5289	0.0055	0.068
Mof_C 	C 	0.82065	0.6413	0.08733	0.135
Mof_C 	C 	0.77855	0.5571	0.15324	0.08
Mof_H 	H 	0.7631	0.5262	0.1335	0.012
Mof_C 	C 	0.8228	0.6456	0.15109	0.018
Mof_C 	C 	0.84345	0.6869	0.1201	-0.183
Mof_C 	C 	0.8853	0.7706	0.12027	0.452
Mof_C 	C 	0.90775	0.8155	0.15077	-0.313
Mof_H 	H 	0.93655	0.8731	0.1503	0.156
Mof_C 	C 	0.9346	0.8692	0.0817	1.157
Mof_H 	H 	0.94215	0.8843	0.0589	-0.295
Mof_O 	O 	0.57117	0.14233	0.42333	-0.758
Mof_C 	C 	0.44447	0.88893	0.35956	-0.01
Mof_H 	H 	0.43112	0.86223	0.33883	0.068
Mof_C 	C 	0.48732	0.97463	0.42066	0.134
Mof_C 	C 	0.44522	0.89043	0.48657	0.08
Mof_H 	H 	0.42977	0.85953	0.46683	0.012
Mof_C 	C 	0.48947	0.97893	0.48442	0.018
Mof_C 	C 	0.51012	0.02023	0.45343	-0.183
Mof_C 	C 	0.55197	0.10393	0.4536	0.451
Mof_C 	C 	0.57442	0.14883	0.4841	-0.313
Mof_H 	H 	0.60322	0.20643	0.48363	0.156
Mof_C 	C 	0.60127	0.20253	0.41503	1.155
Mof_H 	H 	0.60882	0.21763	0.39223	-0.294
Mof_O 	O 	0.23783	0.47567	0.75667	-0.758
Mof_C 	C 	0.11113	0.22227	0.6929	-0.01
Mof_H 	H 	0.09778	0.19557	0.67217	0.068
Mof_C 	C 	0.15398	0.30797	0.754	0.135
Mof_C 	C 	0.11188	0.22377	0.81991	0.08
Mof_H 	H 	0.09643	0.19287	0.80017	0.012
Mof_C 	C 	0.15613	0.31227	0.81776	0.018
Mof_C 	C 	0.17678	0.35357	0.78677	-0.183
Mof_C 	C 	0.21863	0.43727	0.78694	0.451
Mof_C 	C 	0.24108	0.48217	0.81744	-0.313
Mof_H 	H 	0.26988	0.53977	0.81697	0.156
Mof_C 	C 	0.26793	0.53587	0.74837	1.156
Mof_H 	H 	0.27548	0.55097	0.72557	-0.294
Mof_O 	O 	0.9045	0.0955	0.09	-0.758
Mof_C 	C 	0.7778	0.2222	0.02623	-0.01
Mof_H 	H 	0.76445	0.23555	0.0055	0.068
Mof_C 	C 	0.82065	0.17935	0.08733	0.135
Mof_C 	C 	0.77855	0.22145	0.15324	0.08
Mof_H 	H 	0.7631	0.2369	0.1335	0.012
Mof_C 	C 	0.8228	0.1772	0.15109	0.018
Mof_C 	C 	0.84345	0.15655	0.1201	-0.183
Mof_C 	C 	0.8853	0.1147	0.12027	0.451
Mof_C 	C 	0.90775	0.09225	0.15077	-0.313
Mof_H 	H 	0.93655	0.06345	0.1503	0.156
Mof_C 	C 	0.9346	0.0654	0.0817	1.156
Mof_H 	H 	0.94215	0.05785	0.0589	-0.294
Mof_O 	O 	0.57117	0.42883	0.42333	-0.758
Mof_C 	C 	0.44447	0.55553	0.35956	-0.01
Mof_H 	H 	0.43112	0.56888	0.33883	0.068
Mof_C 	C 	0.48732	0.51268	0.42066	0.135
Mof_C 	C 	0.44522	0.55478	0.48657	0.08
Mof_H 	H 	0.42977	0.57023	0.46683	0.012
Mof_C 	C 	0.48947	0.51053	0.48442	0.018
Mof_C 	C 	0.51012	0.48988	0.45343	-0.183
Mof_C 	C 	0.55197	0.44803	0.4536	0.451
Mof_C 	C 	0.57442	0.42558	0.4841	-0.313
Mof_H 	H 	0.60322	0.39678	0.48363	0.156
Mof_C 	C 	0.60127	0.39873	0.41503	1.156
Mof_H 	H 	0.60882	0.39118	0.39223	-0.294
Mof_O 	O 	0.23783	0.76217	0.75667	-0.758
Mof_C 	C 	0.11113	0.88887	0.6929	-0.01
Mof_H 	H 	0.09778	0.90222	0.67217	0.068
Mof_C 	C 	0.15398	0.84602	0.754	0.135
Mof_C 	C 	0.11188	0.88812	0.81991	0.08
Mof_H 	H 	0.09643	0.90357	0.80017	0.012
Mof_C 	C 	0.15613	0.84387	0.81776	0.018
Mof_C 	C 	0.17678	0.82322	0.78677	-0.184
Mof_C 	C 	0.21863	0.78137	0.78694	0.452
Mof_C 	C 	0.24108	0.75892	0.81744	-0.313
Mof_H 	H 	0.26988	0.73012	0.81697	0.156
Mof_C 	C 	0.26793	0.73207	0.74837	1.156
Mof_H 	H 	0.27548	0.72452	0.72557	-0.294
Mof_O 	O 	0.191	0.0955	0.09	-0.759
Mof_C 	C 	0.4444	0.2222	0.02623	-0.01
Mof_H 	H 	0.4711	0.23555	0.0055	0.068
Mof_C 	C 	0.3587	0.17935	0.08733	0.135
Mof_C 	C 	0.4429	0.22145	0.15324	0.08
Mof_H 	H 	0.4738	0.2369	0.1335	0.012
Mof_C 	C 	0.3544	0.1772	0.15109	0.018
Mof_C 	C 	0.3131	0.15655	0.1201	-0.183
Mof_C 	C 	0.2294	0.1147	0.12027	0.452
Mof_C 	C 	0.1845	0.09225	0.15077	-0.313
Mof_H 	H 	0.1269	0.06345	0.1503	0.156
Mof_C 	C 	0.1308	0.0654	0.0817	1.157
Mof_H 	H 	0.1157	0.05785	0.0589	-0.295
Mof_O 	O 	0.85767	0.42883	0.42333	-0.758
Mof_C 	C 	0.11107	0.55553	0.35956	-0.01
Mof_H 	H 	0.13777	0.56888	0.33883	0.068
Mof_C 	C 	0.02537	0.51268	0.42066	0.134
Mof_C 	C 	0.10957	0.55478	0.48657	0.08
Mof_H 	H 	0.14047	0.57023	0.46683	0.012
Mof_C 	C 	0.02107	0.51053	0.48442	0.018
Mof_C 	C 	0.97977	0.48988	0.45343	-0.183
Mof_C 	C 	0.89607	0.44803	0.4536	0.451
Mof_C 	C 	0.85117	0.42558	0.4841	-0.313
Mof_H 	H 	0.79357	0.39678	0.48363	0.156
Mof_C 	C 	0.79747	0.39873	0.41503	1.155
Mof_H 	H 	0.78237	0.39118	0.39223	-0.294
Mof_O 	O 	0.52433	0.76217	0.75667	-0.758
Mof_C 	C 	0.77773	0.88887	0.6929	-0.01
Mof_H 	H 	0.80443	0.90222	0.67217	0.068
Mof_C 	C 	0.69203	0.84602	0.754	0.135
Mof_C 	C 	0.77623	0.88812	0.81991	0.08
Mof_H 	H 	0.80713	0.90357	0.80017	0.012
Mof_C 	C 	0.68773	0.84387	0.81776	0.018
Mof_C 	C 	0.64643	0.82322	0.78677	-0.183
Mof_C 	C 	0.56273	0.78137	0.78694	0.451
Mof_C 	C 	0.51783	0.75892	0.81744	-0.313
Mof_H 	H 	0.46023	0.73012	0.81697	0.156
Mof_C 	C 	0.46413	0.73207	0.74837	1.156
Mof_H 	H 	0.44903	0.72452	0.72557	-0.294
_end
