# CIF file generated by openbabel 3.1.0, see https://openbabel.org
data_I
_chemical_name_common 'image0'
_cell_length_a 12.7827
_cell_length_b 12.7827
_cell_length_c 7.505
_cell_angle_alpha 90
_cell_angle_beta 90
_cell_angle_gamma 90
_space_group_name_H-M_alt 'P 1'
_space_group_name_Hall 'P 1'
loop_
    _symmetry_equiv_pos_as_xyz
    x,y,z
loop_
    _atom_site_label
    _atom_site_type_symbol
    _atom_site_fract_x
    _atom_site_fract_y
    _atom_site_fract_z
    _atom_site_occupancy
    O1       O        0.53590    0.77320    0.17500    1.000
    O2       O        0.35650    0.75430    0.18300    1.000
    C1       C        0.44660    0.75980    0.10600    1.000
    H1       H        0.65400    0.02700    0.09800    1.000
    H2       H        0.47100    0.00100    0.04000    1.000
    O3       O        0.03590    0.27320    0.67500    1.000
    O4       O        0.85650    0.25430    0.68300    1.000
    C2       C        0.94660    0.25980    0.60600    1.000
    H3       H        0.15400    0.52700    0.59800    1.000
    H4       H        0.97100    0.50100    0.54000    1.000
    O5       O        0.46410    0.22680    0.17500    1.000
    O6       O        0.64350    0.24570    0.18300    1.000
    C3       C        0.55340    0.24020    0.10600    1.000
    H5       H        0.34600    0.97300    0.09800    1.000
    H6       H        0.52900    0.99900    0.04000    1.000
    O7       O        0.96410    0.72680    0.67500    1.000
    O8       O        0.14350    0.74570    0.68300    1.000
    C4       C        0.05340    0.74020    0.60600    1.000
    H7       H        0.84600    0.47300    0.59800    1.000
    H8       H        0.02900    0.49900    0.54000    1.000
    O9       O        0.22680    0.53590    0.17500    1.000
    O10      O        0.24570    0.35650    0.18300    1.000
    C5       C        0.24020    0.44660    0.10600    1.000
    H9       H        0.97300    0.65400    0.09800    1.000
    H10      H        0.99900    0.47100    0.04000    1.000
    O11      O        0.72680    0.03590    0.67500    1.000
    O12      O        0.74570    0.85650    0.68300    1.000
    C6       C        0.74020    0.94660    0.60600    1.000
    H11      H        0.47300    0.15400    0.59800    1.000
    H12      H        0.49900    0.97100    0.54000    1.000
    O13      O        0.77320    0.46410    0.17500    1.000
    O14      O        0.75430    0.64350    0.18300    1.000
    C7       C        0.75980    0.55340    0.10600    1.000
    H13      H        0.02700    0.34600    0.09800    1.000
    H14      H        0.00100    0.52900    0.04000    1.000
    O15      O        0.27320    0.96410    0.67500    1.000
    O16      O        0.25430    0.14350    0.68300    1.000
    C8       C        0.25980    0.05340    0.60600    1.000
    H15      H        0.52700    0.84600    0.59800    1.000
    H16      H        0.50100    0.02900    0.54000    1.000
    O17      O        0.46410    0.22680    0.82500    1.000
    O18      O        0.64350    0.24570    0.81700    1.000
    C9       C        0.55340    0.24020    0.89400    1.000
    H17      H        0.34600    0.97300    0.90200    1.000
    H18      H        0.52900    0.99900    0.96000    1.000
    O19      O        0.96410    0.72680    0.32500    1.000
    O20      O        0.14350    0.74570    0.31700    1.000
    C10      C        0.05340    0.74020    0.39400    1.000
    H19      H        0.84600    0.47300    0.40200    1.000
    H20      H        0.02900    0.49900    0.46000    1.000
    O21      O        0.53590    0.77320    0.82500    1.000
    O22      O        0.35650    0.75430    0.81700    1.000
    C11      C        0.44660    0.75980    0.89400    1.000
    H21      H        0.65400    0.02700    0.90200    1.000
    H22      H        0.47100    0.00100    0.96000    1.000
    O23      O        0.03590    0.27320    0.32500    1.000
    O24      O        0.85650    0.25430    0.31700    1.000
    C12      C        0.94660    0.25980    0.39400    1.000
    H23      H        0.15400    0.52700    0.40200    1.000
    H24      H        0.97100    0.50100    0.46000    1.000
    O25      O        0.77320    0.46410    0.82500    1.000
    O26      O        0.75430    0.64350    0.81700    1.000
    C13      C        0.75980    0.55340    0.89400    1.000
    H25      H        0.02700    0.34600    0.90200    1.000
    H26      H        0.00100    0.52900    0.96000    1.000
    O27      O        0.27320    0.96410    0.32500    1.000
    O28      O        0.25430    0.14350    0.31700    1.000
    C14      C        0.25980    0.05340    0.39400    1.000
    H27      H        0.52700    0.84600    0.40200    1.000
    H28      H        0.50100    0.02900    0.46000    1.000
    O29      O        0.22680    0.53590    0.82500    1.000
    O30      O        0.24570    0.35650    0.81700    1.000
    C15      C        0.24020    0.44660    0.89400    1.000
    H29      H        0.97300    0.65400    0.90200    1.000
    H30      H        0.99900    0.47100    0.96000    1.000
    O31      O        0.72680    0.03590    0.32500    1.000
    O32      O        0.74570    0.85650    0.31700    1.000
    C16      C        0.74020    0.94660    0.39400    1.000
    H31      H        0.47300    0.15400    0.40200    1.000
    H32      H        0.49900    0.97100    0.46000    1.000
    O33      O        0.61400    0.98500    0.00000    1.000
    Sr1      Sr       0.69820    0.80450    0.00000    1.000
    O34      O        0.11400    0.48500    0.50000    1.000
    Sr2      Sr       0.19820    0.30450    0.50000    1.000
    O35      O        0.38600    0.01500    0.00000    1.000
    Sr3      Sr       0.30180    0.19550    0.00000    1.000
    O36      O        0.88600    0.51500    0.50000    1.000
    Sr4      Sr       0.80180    0.69550    0.50000    1.000
    O37      O        0.01500    0.61400    0.00000    1.000
    Sr5      Sr       0.19550    0.69820    0.00000    1.000
    O38      O        0.51500    0.11400    0.50000    1.000
    Sr6      Sr       0.69550    0.19820    0.50000    1.000
    O39      O        0.98500    0.38600    0.00000    1.000
    Sr7      Sr       0.80450    0.30180    0.00000    1.000
    O40      O        0.48500    0.88600    0.50000    1.000
    Sr8      Sr       0.30450    0.80180    0.50000    1.000
