data_functionalizedCrystal
_audit_creation_method	'EQeq! by Chris Wilmer'
_symmetry_space_group_name_H-M	'P1'
_symmetry_Int_Tables_number	1
_symmetry_cell_setting	triclinic
loop_
_symmetry_equiv_pos_as_xyz
  x,y,z
_cell_length_a	8.4552
_cell_length_b	10.0614
_cell_length_c	12.8218
_cell_angle_alpha	109.012
_cell_angle_beta	90.922
_cell_angle_gamma	91.298
loop_
_atom_site_label
_atom_site_type_symbol
_atom_site_fract_x
_atom_site_fract_y
_atom_site_fract_z
_atom_site_charge
Mof_Zn	Zn	0.05299	0.18217	0.15604	1.238
Mof_Zn	Zn	0.25982	0.99832	0.54517	1.233
Mof_Zn	Zn	0.18587	0.38327	0.48538	1.23
Mof_P 	P 	0.01905	0.48974	0.30993	0.509
Mof_P 	P 	0.06043	0.08686	0.37536	0.503
Mof_P 	P 	0.5083	0.74784	0.4489	0.555
Mof_P 	P 	0.22787	0.05194	0.92913	0.526
Mof_O 	O 	0.1708	0.4796	0.3752	-0.468
Mof_O 	O 	0.8715	0.4772	0.37356	-0.446
Mof_O 	O 	0.0263	0.6401	0.2939	-0.29
Mof_O 	O 	0.0137	0.3831	0.1941	-0.388
Mof_O 	O 	0.1739	0.9823	0.40046	-0.424
Mof_O 	O 	0.0493	0.2208	0.47667	-0.499
Mof_O 	O 	0.8929	0.0155	0.34531	-0.44
Mof_O 	O 	0.1257	0.1223	0.27649	-0.452
Mof_O 	O 	0.4009	0.6528	0.3483	-0.363
Mof_O 	O 	0.4042	0.8449	0.5354	-0.437
Mof_O 	O 	0.6145	0.827	0.3921	-0.436
Mof_O 	O 	0.5934	0.6547	0.5021	-0.436
Mof_O 	O 	0.219	0.1365	0.05098	-0.402
Mof_O 	O 	0.1564	0.9004	0.9012	-0.403
Mof_O 	O 	0.1228	0.131	0.8662	-0.378
Mof_O 	O 	0.3975	0.0412	0.8918	-0.185
Mof_H 	H 	0.3294	0.5965	0.3639	0.252
Mof_H 	H 	0.0091	0.7192	0.3614	0.16
Mof_H 	H 	0.1219	0.0825	0.7932	0.24
Mof_Zn	Zn	0.94701	0.81783	0.84396	1.239
Mof_Zn	Zn	0.74018	0.00168	0.45483	1.234
Mof_Zn	Zn	0.81413	0.61673	0.51462	1.23
Mof_P 	P 	0.98095	0.51026	0.69007	0.509
Mof_P 	P 	0.93957	0.91314	0.62464	0.503
Mof_P 	P 	0.4917	0.25216	0.5511	0.555
Mof_P 	P 	0.77213	0.94806	0.07087	0.526
Mof_O 	O 	0.8292	0.5204	0.6248	-0.468
Mof_O 	O 	0.1285	0.5228	0.62644	-0.446
Mof_O 	O 	0.9737	0.3599	0.7061	-0.29
Mof_O 	O 	0.9863	0.6169	0.8059	-0.388
Mof_O 	O 	0.8261	0.0177	0.59954	-0.424
Mof_O 	O 	0.9507	0.7792	0.52333	-0.499
Mof_O 	O 	0.1071	0.9845	0.65469	-0.44
Mof_O 	O 	0.8743	0.8777	0.72351	-0.452
Mof_O 	O 	0.5991	0.3472	0.6517	-0.363
Mof_O 	O 	0.5958	0.1551	0.4646	-0.437
Mof_O 	O 	0.3855	0.173	0.6079	-0.436
Mof_O 	O 	0.4066	0.3453	0.4979	-0.436
Mof_O 	O 	0.781	0.8635	0.94902	-0.402
Mof_O 	O 	0.8436	0.0996	0.0988	-0.403
Mof_O 	O 	0.8772	0.869	0.1338	-0.378
Mof_O 	O 	0.6025	0.9588	0.1082	-0.185
Mof_H 	H 	0.6706	0.4035	0.6361	0.252
Mof_H 	H 	0.9909	0.2808	0.6386	0.16
Mof_H 	H 	0.8781	0.9175	0.2068	0.24
_end
