data_functionalizedCrystal
_audit_creation_method	'EQeq! by Chris Wilmer'
_symmetry_space_group_name_H-M	'P1'
_symmetry_Int_Tables_number	1
_symmetry_cell_setting	triclinic
loop_
_symmetry_equiv_pos_as_xyz
  x,y,z
_cell_length_a	14.4681
_cell_length_b	17.8162
_cell_length_c	6.8047
_cell_angle_alpha	90
_cell_angle_beta	90.868
_cell_angle_gamma	90
loop_
_atom_site_label
_atom_site_type_symbol
_atom_site_fract_x
_atom_site_fract_y
_atom_site_fract_z
_atom_site_charge
Mof_C 	C 	0.25329	0.69968	0.3142	0.103
Mof_C 	C 	0.1864	0.64628	0.2611	-0.095
Mof_H 	H 	0.2002	0.5954	0.2693	0.087
Mof_C 	C 	0.09904	0.66949	0.1958	-0.012
Mof_C 	C 	0.07826	0.74507	0.1802	-0.037
Mof_H 	H 	0.0204	0.7603	0.1344	0.071
Mof_C 	C 	0.14436	0.79799	0.2334	-0.028
Mof_C 	C 	0.2309	0.77512	0.3011	-0.082
Mof_H 	H 	0.2745	0.811	0.3381	0.081
Mof_C 	C 	0.02712	0.61299	0.1444	0.237
Mof_C 	C 	0.1204	0.87984	0.2245	0.302
Mof_C 	C 	0.3604	0.6031	0.4385	0.345
Mof_H 	H 	0.3625	0.5715	0.3224	-0.07
Mof_H 	H 	0.3111	0.5847	0.5208	-0.047
Mof_C 	C 	0.4509	0.5974	0.5491	-0.351
Mof_C 	C 	0.5332	0.6058	0.4547	0.537
Mof_H 	H 	0.5328	0.6179	0.3217	-0.133
Mof_C 	C 	0.6167	0.5969	0.5534	0.099
Mof_H 	H 	0.6717	0.6	0.4847	-0.048
Mof_C 	C 	0.619	0.5833	0.752	-0.092
Mof_C 	C 	0.5365	0.5776	0.8473	-0.26
Mof_H 	H 	0.5366	0.5693	0.9823	0.125
Mof_C 	C 	0.4531	0.584	0.7465	0.213
Mof_H 	H 	0.3981	0.5791	0.814	-0.037
Mof_C 	C 	0.7087	0.57047	0.86	0.315
Mof_Cd	Cd	0.13579	0.03195	0.44281	0.446
Mof_N 	N 	0.34058	0.67842	0.3808	-0.054
Mof_H 	H 	0.3838	0.7115	0.3874	-0.295
Mof_O 	O 	0.17337	0.92524	0.3127	-0.282
Mof_O 	O 	0.04744	0.89685	0.1334	-0.286
Mof_O 	O 	0.95233	0.63451	0.0669	-0.228
Mof_O 	O 	0.04087	0.54314	0.181	-0.292
Mof_O 	O 	0.77977	0.55182	0.7673	-0.265
Mof_O 	O 	0.71111	0.57481	0.0427	-0.287
Mof_C 	C 	0.418	0.724	0.433	0.646
Mof_H 	H 	0.3982	0.7629	0.5223	-0.152
Mof_H 	H 	0.4408	0.7481	0.3153	-0.16
Mof_C 	C 	0.4929	0.6803	0.526	-0.024
Mof_C 	C 	0.565	0.648	0.421	-0.502
Mof_H 	H 	0.5649	0.6514	0.2848	0.249
Mof_C 	C 	0.636	0.611	0.521	-0.117
Mof_H 	H 	0.6836	0.5895	0.4507	0.133
Mof_C 	C 	0.6351	0.606	0.724	0.009
Mof_C 	C 	0.5634	0.6383	0.829	0.18
Mof_H 	H 	0.563	0.635	0.9652	-0.017
Mof_C 	C 	0.4923	0.6754	0.729	-0.147
Mof_H 	H 	0.4443	0.6969	0.7993	0.113
Mof_H 	H 	0.3431	0.6349	0.4359	-0.124
Mof_C 	C 	0.74671	0.19968	0.1858	0.083
Mof_C 	C 	0.8136	0.14628	0.2389	-0.073
Mof_H 	H 	0.7998	0.0954	0.2307	0.075
Mof_C 	C 	0.90096	0.16949	0.3042	-0.042
Mof_C 	C 	0.92174	0.24507	0.3198	-0.016
Mof_H 	H 	0.9796	0.2603	0.3656	0.082
Mof_C 	C 	0.85564	0.29799	0.2666	-0.038
Mof_C 	C 	0.7691	0.27512	0.1989	-0.068
Mof_H 	H 	0.7255	0.311	0.1619	0.074
Mof_C 	C 	0.97288	0.11299	0.3556	0.323
Mof_C 	C 	0.8796	0.37984	0.2755	0.307
Mof_C 	C 	0.6396	0.1031	0.0615	0.389
Mof_H 	H 	0.6375	0.0715	0.1776	-0.09
Mof_H 	H 	0.6889	0.0847	0.9792	-0.05
Mof_C 	C 	0.5491	0.0974	0.9509	-0.315
Mof_C 	C 	0.4668	0.1058	0.0453	0.453
Mof_H 	H 	0.4672	0.1179	0.1783	-0.106
Mof_C 	C 	0.3833	0.0969	0.9466	0.1
Mof_H 	H 	0.3283	0.1	0.0153	-0.025
Mof_C 	C 	0.381	0.0833	0.748	-0.095
Mof_C 	C 	0.4635	0.0776	0.6527	-0.239
Mof_H 	H 	0.4634	0.0693	0.5177	0.11
Mof_C 	C 	0.5469	0.084	0.7535	0.184
Mof_H 	H 	0.6019	0.0791	0.686	-0.032
Mof_C 	C 	0.2913	0.07047	0.64	0.307
Mof_Cd	Cd	0.86421	0.53195	0.05719	0.474
Mof_N 	N 	0.65942	0.17842	0.1192	-0.026
Mof_H 	H 	0.6162	0.2115	0.1126	-0.328
Mof_O 	O 	0.82663	0.42524	0.1873	-0.292
Mof_O 	O 	0.95256	0.39685	0.3666	-0.273
Mof_O 	O 	0.04767	0.13451	0.4331	-0.305
Mof_O 	O 	0.95913	0.04314	0.319	-0.29
Mof_O 	O 	0.22023	0.05182	0.7327	-0.273
Mof_O 	O 	0.28889	0.07481	0.4573	-0.283
Mof_C 	C 	0.582	0.224	0.067	0.678
Mof_H 	H 	0.6018	0.2629	0.9777	-0.153
Mof_H 	H 	0.5592	0.2481	0.1847	-0.168
Mof_C 	C 	0.5071	0.1803	0.974	-0.025
Mof_C 	C 	0.435	0.148	0.079	-0.463
Mof_H 	H 	0.4351	0.1514	0.2152	0.224
Mof_C 	C 	0.364	0.111	0.979	-0.092
Mof_H 	H 	0.3164	0.0895	0.0493	0.088
Mof_C 	C 	0.3649	0.106	0.776	0.005
Mof_C 	C 	0.4366	0.1383	0.671	0.169
Mof_H 	H 	0.437	0.135	0.5348	-0.017
Mof_C 	C 	0.5077	0.1754	0.771	-0.138
Mof_H 	H 	0.5557	0.1969	0.7007	0.11
Mof_H 	H 	0.6569	0.1349	0.0641	-0.169
Mof_C 	C 	0.74671	0.30032	0.6858	0.098
Mof_C 	C 	0.8136	0.35372	0.7389	-0.081
Mof_H 	H 	0.7998	0.4046	0.7307	0.084
Mof_C 	C 	0.90096	0.33051	0.8042	-0.031
Mof_C 	C 	0.92174	0.25493	0.8198	-0.021
Mof_H 	H 	0.9796	0.2397	0.8656	0.087
Mof_C 	C 	0.85564	0.20201	0.7666	-0.029
Mof_C 	C 	0.7691	0.22488	0.6989	-0.075
Mof_H 	H 	0.7255	0.189	0.6619	0.079
Mof_C 	C 	0.97288	0.38701	0.8556	0.32
Mof_C 	C 	0.8796	0.12016	0.7755	0.307
Mof_C 	C 	0.6396	0.3969	0.5615	0.343
Mof_H 	H 	0.6375	0.4285	0.6776	-0.067
Mof_H 	H 	0.6889	0.4153	0.4792	-0.046
Mof_C 	C 	0.5491	0.4026	0.4509	-0.353
Mof_C 	C 	0.4668	0.3942	0.5453	0.546
Mof_H 	H 	0.4672	0.3821	0.6783	-0.134
Mof_C 	C 	0.3833	0.4031	0.4466	0.103
Mof_H 	H 	0.3283	0.4	0.5153	-0.051
Mof_C 	C 	0.381	0.4167	0.248	-0.093
Mof_C 	C 	0.4635	0.4224	0.1527	-0.256
Mof_H 	H 	0.4634	0.4307	0.0177	0.116
Mof_C 	C 	0.5469	0.416	0.2535	0.212
Mof_H 	H 	0.6019	0.4209	0.186	-0.04
Mof_C 	C 	0.2913	0.42953	0.14	0.294
Mof_Cd	Cd	0.86421	0.96805	0.55719	0.495
Mof_N 	N 	0.65942	0.32158	0.6192	-0.052
Mof_H 	H 	0.6162	0.2885	0.6126	-0.297
Mof_O 	O 	0.82663	0.07476	0.6873	-0.296
Mof_O 	O 	0.95256	0.10315	0.8666	-0.266
Mof_O 	O 	0.04767	0.36549	0.9331	-0.299
Mof_O 	O 	0.95913	0.45686	0.819	-0.279
Mof_O 	O 	0.22023	0.44818	0.2327	-0.272
Mof_O 	O 	0.28889	0.42519	0.9573	-0.27
Mof_C 	C 	0.582	0.276	0.567	0.648
Mof_H 	H 	0.6018	0.2371	0.4777	-0.153
Mof_H 	H 	0.5592	0.2519	0.6847	-0.159
Mof_C 	C 	0.5071	0.3197	0.474	-0.022
Mof_C 	C 	0.435	0.352	0.579	-0.515
Mof_H 	H 	0.4351	0.3486	0.7152	0.255
Mof_C 	C 	0.364	0.389	0.479	-0.12
Mof_H 	H 	0.3164	0.4105	0.5493	0.134
Mof_C 	C 	0.3649	0.394	0.276	0.01
Mof_C 	C 	0.4366	0.3617	0.171	0.176
Mof_H 	H 	0.437	0.365	0.0348	-0.023
Mof_C 	C 	0.5077	0.3246	0.271	-0.149
Mof_H 	H 	0.5557	0.3031	0.2007	0.113
Mof_H 	H 	0.6569	0.3651	0.5641	-0.123
Mof_C 	C 	0.25329	0.80032	0.8142	0.11
Mof_C 	C 	0.1864	0.85372	0.7611	-0.101
Mof_H 	H 	0.2002	0.9046	0.7693	0.095
Mof_C 	C 	0.09904	0.83051	0.6958	-0.005
Mof_C 	C 	0.07826	0.75493	0.6802	-0.04
Mof_H 	H 	0.0204	0.7397	0.6344	0.074
Mof_C 	C 	0.14436	0.70201	0.7334	-0.024
Mof_C 	C 	0.2309	0.72488	0.8011	-0.085
Mof_H 	H 	0.2745	0.689	0.8381	0.083
Mof_C 	C 	0.02712	0.88701	0.6444	0.236
Mof_C 	C 	0.1204	0.62016	0.7245	0.306
Mof_C 	C 	0.3604	0.8969	0.9385	0.322
Mof_H 	H 	0.3625	0.9285	0.8224	-0.056
Mof_H 	H 	0.3111	0.9153	0.0208	-0.042
Mof_C 	C 	0.4509	0.9026	0.0491	-0.371
Mof_C 	C 	0.5332	0.8942	0.9547	0.594
Mof_H 	H 	0.5328	0.8821	0.8217	-0.149
Mof_C 	C 	0.6167	0.9031	0.0534	0.102
Mof_H 	H 	0.6717	0.9	0.9847	-0.059
Mof_C 	C 	0.619	0.9167	0.252	-0.091
Mof_C 	C 	0.5365	0.9224	0.3473	-0.265
Mof_H 	H 	0.5366	0.9307	0.4823	0.127
Mof_C 	C 	0.4531	0.916	0.2465	0.229
Mof_H 	H 	0.3981	0.9209	0.314	-0.04
Mof_C 	C 	0.7087	0.92953	0.36	0.305
Mof_Cd	Cd	0.13579	0.46805	0.94281	0.466
Mof_N 	N 	0.34058	0.82158	0.8808	-0.067
Mof_H 	H 	0.3838	0.7885	0.8874	-0.279
Mof_O 	O 	0.17337	0.57476	0.8127	-0.291
Mof_O 	O 	0.04744	0.60315	0.6334	-0.294
Mof_O 	O 	0.95233	0.86549	0.5669	-0.225
Mof_O 	O 	0.04087	0.95686	0.681	-0.273
Mof_O 	O 	0.77977	0.94818	0.2673	-0.26
Mof_O 	O 	0.71111	0.92519	0.5427	-0.276
Mof_C 	C 	0.418	0.776	0.933	0.631
Mof_H 	H 	0.3982	0.7371	0.0223	-0.153
Mof_H 	H 	0.4408	0.7519	0.8153	-0.155
Mof_C 	C 	0.4929	0.8197	0.026	-0.021
Mof_C 	C 	0.565	0.852	0.921	-0.537
Mof_H 	H 	0.5649	0.8486	0.7848	0.268
Mof_C 	C 	0.636	0.889	0.021	-0.132
Mof_H 	H 	0.6836	0.9105	0.9507	0.156
Mof_C 	C 	0.6351	0.894	0.224	0.013
Mof_C 	C 	0.5634	0.8617	0.329	0.181
Mof_H 	H 	0.563	0.865	0.4652	-0.02
Mof_C 	C 	0.4923	0.8246	0.229	-0.152
Mof_H 	H 	0.4443	0.8031	0.2993	0.115
Mof_H 	H 	0.3431	0.8651	0.9359	-0.102
Mof_Cd	Cd	-0	0	-0	0.377
Mof_Cd	Cd	8.95074e-34	0.5	0.5	0.409
_end
