data_functionalizedCrystal
_audit_creation_method	'EQeq! by Chris Wilmer'
_symmetry_space_group_name_H-M	'P1'
_symmetry_Int_Tables_number	1
_symmetry_cell_setting	triclinic
loop_
_symmetry_equiv_pos_as_xyz
  x,y,z
_cell_length_a	25.507
_cell_length_b	25.507
_cell_length_c	25.507
_cell_angle_alpha	90
_cell_angle_beta	90
_cell_angle_gamma	90
loop_
_atom_site_label
_atom_site_type_symbol
_atom_site_fract_x
_atom_site_fract_y
_atom_site_fract_z
_atom_site_charge
Mof_Zn	Zn	0.18679	0.82844	0.23266	1.209
Mof_O 	O 	0.20145	0.81828	0.15753	-0.49
Mof_O 	O 	0.18056	0.76601	0.88888	-0.505
Mof_O 	O 	0.24729	0.70916	0.89816	-0.514
Mof_O 	O 	0.26084	0.75335	0.16104	-0.51
Mof_C 	C 	0.22918	0.78255	0.13679	0.374
Mof_C 	C 	0.22461	0.77326	0.07947	-0.088
Mof_C 	C 	0.19482	0.80629	0.04748	-0.016
Mof_H 	H 	0.1776	0.8359	0.0621	0.047
Mof_C 	C 	0.19042	0.79559	0.99423	-0.015
Mof_H 	H 	0.1703	0.8179	0.9723	0.047
Mof_C 	C 	0.2484	0.7292	0.0584	-0.016
Mof_H 	H 	0.2676	0.7062	0.0805	0.048
Mof_C 	C 	0.2443	0.7186	0.00539	-0.014
Mof_H 	H 	0.2609	0.6886	0.991	0.047
Mof_C 	C 	0.2142	0.74171	0.91543	0.386
Mof_C 	C 	0.21574	0.75197	0.97318	-0.087
Mof_Zn	Zn	0.31321	0.17156	0.73266	1.21
Mof_O 	O 	0.29855	0.18172	0.65753	-0.489
Mof_O 	O 	0.31944	0.23399	0.38888	-0.504
Mof_O 	O 	0.25271	0.29084	0.39816	-0.513
Mof_O 	O 	0.23916	0.24665	0.66104	-0.509
Mof_C 	C 	0.27082	0.21745	0.63679	0.375
Mof_C 	C 	0.27539	0.22674	0.57947	-0.086
Mof_C 	C 	0.30518	0.19371	0.54748	-0.015
Mof_H 	H 	0.3224	0.1641	0.5621	0.048
Mof_C 	C 	0.30958	0.20441	0.49423	-0.014
Mof_H 	H 	0.3297	0.1821	0.4723	0.048
Mof_C 	C 	0.2516	0.2708	0.5584	-0.015
Mof_H 	H 	0.2324	0.2938	0.5805	0.048
Mof_C 	C 	0.2557	0.2814	0.50539	-0.013
Mof_H 	H 	0.2391	0.3114	0.491	0.047
Mof_C 	C 	0.2858	0.25829	0.41543	0.386
Mof_C 	C 	0.28426	0.24803	0.47318	-0.087
Mof_Zn	Zn	0.81321	0.32844	0.26734	1.21
Mof_O 	O 	0.79855	0.31828	0.34247	-0.489
Mof_O 	O 	0.81944	0.26601	0.61112	-0.504
Mof_O 	O 	0.75271	0.20916	0.60184	-0.513
Mof_O 	O 	0.73916	0.25335	0.33896	-0.509
Mof_C 	C 	0.77082	0.28255	0.36321	0.375
Mof_C 	C 	0.77539	0.27326	0.42053	-0.086
Mof_C 	C 	0.80518	0.30629	0.45252	-0.015
Mof_H 	H 	0.8224	0.3359	0.4379	0.048
Mof_C 	C 	0.80958	0.29559	0.50577	-0.014
Mof_H 	H 	0.8297	0.3179	0.5277	0.048
Mof_C 	C 	0.7516	0.2292	0.4416	-0.015
Mof_H 	H 	0.7324	0.2062	0.4195	0.048
Mof_C 	C 	0.7557	0.2186	0.49461	-0.013
Mof_H 	H 	0.7391	0.1886	0.509	0.047
Mof_C 	C 	0.7858	0.24171	0.58457	0.386
Mof_C 	C 	0.78426	0.25197	0.52682	-0.087
Mof_Zn	Zn	0.68679	0.67156	0.76734	1.21
Mof_O 	O 	0.70145	0.68172	0.84247	-0.489
Mof_O 	O 	0.68056	0.73399	0.11112	-0.504
Mof_O 	O 	0.74729	0.79084	0.10184	-0.513
Mof_O 	O 	0.76084	0.74665	0.83896	-0.509
Mof_C 	C 	0.72918	0.71745	0.86321	0.375
Mof_C 	C 	0.72461	0.72674	0.92053	-0.086
Mof_C 	C 	0.69482	0.69371	0.95252	-0.015
Mof_H 	H 	0.6776	0.6641	0.9379	0.048
Mof_C 	C 	0.69042	0.70441	0.00577	-0.014
Mof_H 	H 	0.6703	0.6821	0.0277	0.048
Mof_C 	C 	0.7484	0.7708	0.9416	-0.015
Mof_H 	H 	0.7676	0.7938	0.9195	0.048
Mof_C 	C 	0.7443	0.7814	0.99461	-0.013
Mof_H 	H 	0.7609	0.8114	0.009	0.047
Mof_C 	C 	0.7142	0.75829	0.08457	0.386
Mof_C 	C 	0.71574	0.74803	0.02682	-0.087
Mof_Zn	Zn	0.23266	0.18679	0.82844	1.21
Mof_O 	O 	0.15753	0.20145	0.81828	-0.489
Mof_O 	O 	0.88888	0.18056	0.76601	-0.504
Mof_O 	O 	0.89816	0.24729	0.70916	-0.513
Mof_O 	O 	0.16104	0.26084	0.75335	-0.509
Mof_C 	C 	0.13679	0.22918	0.78255	0.375
Mof_C 	C 	0.07947	0.22461	0.77326	-0.087
Mof_C 	C 	0.04748	0.19482	0.80629	-0.015
Mof_H 	H 	0.0621	0.1776	0.8359	0.048
Mof_C 	C 	0.99423	0.19042	0.79559	-0.014
Mof_H 	H 	0.9723	0.1703	0.8179	0.048
Mof_C 	C 	0.0584	0.2484	0.7292	-0.015
Mof_H 	H 	0.0805	0.2676	0.7062	0.048
Mof_C 	C 	0.00539	0.2443	0.7186	-0.014
Mof_H 	H 	0.991	0.2609	0.6886	0.047
Mof_C 	C 	0.91543	0.2142	0.74171	0.386
Mof_C 	C 	0.97318	0.21574	0.75197	-0.087
Mof_Zn	Zn	0.73266	0.31321	0.17156	1.21
Mof_O 	O 	0.65753	0.29855	0.18172	-0.489
Mof_O 	O 	0.38888	0.31944	0.23399	-0.504
Mof_O 	O 	0.39816	0.25271	0.29084	-0.513
Mof_O 	O 	0.66104	0.23916	0.24665	-0.509
Mof_C 	C 	0.63679	0.27082	0.21745	0.375
Mof_C 	C 	0.57947	0.27539	0.22674	-0.086
Mof_C 	C 	0.54748	0.30518	0.19371	-0.015
Mof_H 	H 	0.5621	0.3224	0.1641	0.048
Mof_C 	C 	0.49423	0.30958	0.20441	-0.014
Mof_H 	H 	0.4723	0.3297	0.1821	0.048
Mof_C 	C 	0.5584	0.2516	0.2708	-0.015
Mof_H 	H 	0.5805	0.2324	0.2938	0.048
Mof_C 	C 	0.50539	0.2557	0.2814	-0.013
Mof_H 	H 	0.491	0.2391	0.3114	0.047
Mof_C 	C 	0.41543	0.2858	0.25829	0.386
Mof_C 	C 	0.47318	0.28426	0.24803	-0.087
Mof_Zn	Zn	0.26734	0.81321	0.32844	1.21
Mof_O 	O 	0.34247	0.79855	0.31828	-0.489
Mof_O 	O 	0.61112	0.81944	0.26601	-0.504
Mof_O 	O 	0.60184	0.75271	0.20916	-0.513
Mof_O 	O 	0.33896	0.73916	0.25335	-0.509
Mof_C 	C 	0.36321	0.77082	0.28255	0.375
Mof_C 	C 	0.42053	0.77539	0.27326	-0.086
Mof_C 	C 	0.45252	0.80518	0.30629	-0.015
Mof_H 	H 	0.4379	0.8224	0.3359	0.048
Mof_C 	C 	0.50577	0.80958	0.29559	-0.014
Mof_H 	H 	0.5277	0.8297	0.3179	0.048
Mof_C 	C 	0.4416	0.7516	0.2292	-0.015
Mof_H 	H 	0.4195	0.7324	0.2062	0.048
Mof_C 	C 	0.49461	0.7557	0.2186	-0.013
Mof_H 	H 	0.509	0.7391	0.1886	0.047
Mof_C 	C 	0.58457	0.7858	0.24171	0.386
Mof_C 	C 	0.52682	0.78426	0.25197	-0.087
Mof_Zn	Zn	0.76734	0.68679	0.67156	1.21
Mof_O 	O 	0.84247	0.70145	0.68172	-0.489
Mof_O 	O 	0.11112	0.68056	0.73399	-0.504
Mof_O 	O 	0.10184	0.74729	0.79084	-0.513
Mof_O 	O 	0.83896	0.76084	0.74665	-0.509
Mof_C 	C 	0.86321	0.72918	0.71745	0.375
Mof_C 	C 	0.92053	0.72461	0.72674	-0.086
Mof_C 	C 	0.95252	0.69482	0.69371	-0.015
Mof_H 	H 	0.9379	0.6776	0.6641	0.048
Mof_C 	C 	0.00577	0.69042	0.70441	-0.014
Mof_H 	H 	0.0277	0.6703	0.6821	0.048
Mof_C 	C 	0.9416	0.7484	0.7708	-0.015
Mof_H 	H 	0.9195	0.7676	0.7938	0.048
Mof_C 	C 	0.99461	0.7443	0.7814	-0.013
Mof_H 	H 	0.009	0.7609	0.8114	0.047
Mof_C 	C 	0.08457	0.7142	0.75829	0.386
Mof_C 	C 	0.02682	0.71574	0.74803	-0.087
Mof_Zn	Zn	0.82844	0.23266	0.18679	1.21
Mof_O 	O 	0.81828	0.15753	0.20145	-0.489
Mof_O 	O 	0.76601	0.88888	0.18056	-0.504
Mof_O 	O 	0.70916	0.89816	0.24729	-0.513
Mof_O 	O 	0.75335	0.16104	0.26084	-0.509
Mof_C 	C 	0.78255	0.13679	0.22918	0.375
Mof_C 	C 	0.77326	0.07947	0.22461	-0.087
Mof_C 	C 	0.80629	0.04748	0.19482	-0.015
Mof_H 	H 	0.8359	0.0621	0.1776	0.048
Mof_C 	C 	0.79559	0.99423	0.19042	-0.014
Mof_H 	H 	0.8179	0.9723	0.1703	0.048
Mof_C 	C 	0.7292	0.0584	0.2484	-0.015
Mof_H 	H 	0.7062	0.0805	0.2676	0.048
Mof_C 	C 	0.7186	0.00539	0.2443	-0.014
Mof_H 	H 	0.6886	0.991	0.2609	0.047
Mof_C 	C 	0.74171	0.91543	0.2142	0.386
Mof_C 	C 	0.75197	0.97318	0.21574	-0.087
Mof_Zn	Zn	0.17156	0.73266	0.31321	1.21
Mof_O 	O 	0.18172	0.65753	0.29855	-0.489
Mof_O 	O 	0.23399	0.38888	0.31944	-0.504
Mof_O 	O 	0.29084	0.39816	0.25271	-0.513
Mof_O 	O 	0.24665	0.66104	0.23916	-0.509
Mof_C 	C 	0.21745	0.63679	0.27082	0.375
Mof_C 	C 	0.22674	0.57947	0.27539	-0.086
Mof_C 	C 	0.19371	0.54748	0.30518	-0.015
Mof_H 	H 	0.1641	0.5621	0.3224	0.048
Mof_C 	C 	0.20441	0.49423	0.30958	-0.014
Mof_H 	H 	0.1821	0.4723	0.3297	0.048
Mof_C 	C 	0.2708	0.5584	0.2516	-0.015
Mof_H 	H 	0.2938	0.5805	0.2324	0.048
Mof_C 	C 	0.2814	0.50539	0.2557	-0.013
Mof_H 	H 	0.3114	0.491	0.2391	0.047
Mof_C 	C 	0.25829	0.41543	0.2858	0.386
Mof_C 	C 	0.24803	0.47318	0.28426	-0.087
Mof_Zn	Zn	0.32844	0.26734	0.81321	1.21
Mof_O 	O 	0.31828	0.34247	0.79855	-0.489
Mof_O 	O 	0.26601	0.61112	0.81944	-0.504
Mof_O 	O 	0.20916	0.60184	0.75271	-0.513
Mof_O 	O 	0.25335	0.33896	0.73916	-0.509
Mof_C 	C 	0.28255	0.36321	0.77082	0.375
Mof_C 	C 	0.27326	0.42053	0.77539	-0.086
Mof_C 	C 	0.30629	0.45252	0.80518	-0.015
Mof_H 	H 	0.3359	0.4379	0.8224	0.048
Mof_C 	C 	0.29559	0.50577	0.80958	-0.014
Mof_H 	H 	0.3179	0.5277	0.8297	0.048
Mof_C 	C 	0.2292	0.4416	0.7516	-0.015
Mof_H 	H 	0.2062	0.4195	0.7324	0.048
Mof_C 	C 	0.2186	0.49461	0.7557	-0.013
Mof_H 	H 	0.1886	0.509	0.7391	0.047
Mof_C 	C 	0.24171	0.58457	0.7858	0.386
Mof_C 	C 	0.25197	0.52682	0.78426	-0.087
Mof_Zn	Zn	0.67156	0.76734	0.68679	1.21
Mof_O 	O 	0.68172	0.84247	0.70145	-0.489
Mof_O 	O 	0.73399	0.11112	0.68056	-0.504
Mof_O 	O 	0.79084	0.10184	0.74729	-0.513
Mof_O 	O 	0.74665	0.83896	0.76084	-0.509
Mof_C 	C 	0.71745	0.86321	0.72918	0.375
Mof_C 	C 	0.72674	0.92053	0.72461	-0.086
Mof_C 	C 	0.69371	0.95252	0.69482	-0.015
Mof_H 	H 	0.6641	0.9379	0.6776	0.048
Mof_C 	C 	0.70441	0.00577	0.69042	-0.014
Mof_H 	H 	0.6821	0.0277	0.6703	0.048
Mof_C 	C 	0.7708	0.9416	0.7484	-0.015
Mof_H 	H 	0.7938	0.9195	0.7676	0.048
Mof_C 	C 	0.7814	0.99461	0.7443	-0.013
Mof_H 	H 	0.8114	0.009	0.7609	0.047
Mof_C 	C 	0.75829	0.08457	0.7142	0.386
Mof_C 	C 	0.74803	0.02682	0.71574	-0.087
Mof_Zn	Zn	0.81321	0.17156	0.76734	1.21
Mof_O 	O 	0.79855	0.18172	0.84247	-0.489
Mof_O 	O 	0.81944	0.23399	0.11112	-0.504
Mof_O 	O 	0.75271	0.29084	0.10184	-0.513
Mof_O 	O 	0.73916	0.24665	0.83896	-0.509
Mof_C 	C 	0.77082	0.21745	0.86321	0.375
Mof_C 	C 	0.77539	0.22674	0.92053	-0.087
Mof_C 	C 	0.80518	0.19371	0.95252	-0.015
Mof_H 	H 	0.8224	0.1641	0.9379	0.048
Mof_C 	C 	0.80958	0.20441	0.00577	-0.014
Mof_H 	H 	0.8297	0.1821	0.0277	0.048
Mof_C 	C 	0.7516	0.2708	0.9416	-0.015
Mof_H 	H 	0.7324	0.2938	0.9195	0.048
Mof_C 	C 	0.7557	0.2814	0.99461	-0.014
Mof_H 	H 	0.7391	0.3114	0.009	0.047
Mof_C 	C 	0.7858	0.25829	0.08457	0.386
Mof_C 	C 	0.78426	0.24803	0.02682	-0.087
Mof_Zn	Zn	0.68679	0.82844	0.26734	1.21
Mof_O 	O 	0.70145	0.81828	0.34247	-0.489
Mof_O 	O 	0.68056	0.76601	0.61112	-0.504
Mof_O 	O 	0.74729	0.70916	0.60184	-0.513
Mof_O 	O 	0.76084	0.75335	0.33896	-0.509
Mof_C 	C 	0.72918	0.78255	0.36321	0.375
Mof_C 	C 	0.72461	0.77326	0.42053	-0.086
Mof_C 	C 	0.69482	0.80629	0.45252	-0.015
Mof_H 	H 	0.6776	0.8359	0.4379	0.048
Mof_C 	C 	0.69042	0.79559	0.50577	-0.014
Mof_H 	H 	0.6703	0.8179	0.5277	0.048
Mof_C 	C 	0.7484	0.7292	0.4416	-0.015
Mof_H 	H 	0.7676	0.7062	0.4195	0.048
Mof_C 	C 	0.7443	0.7186	0.49461	-0.013
Mof_H 	H 	0.7609	0.6886	0.509	0.047
Mof_C 	C 	0.7142	0.74171	0.58457	0.386
Mof_C 	C 	0.71574	0.75197	0.52682	-0.087
Mof_Zn	Zn	0.18679	0.67156	0.73266	1.21
Mof_O 	O 	0.20145	0.68172	0.65753	-0.489
Mof_O 	O 	0.18056	0.73399	0.38888	-0.504
Mof_O 	O 	0.24729	0.79084	0.39816	-0.513
Mof_O 	O 	0.26084	0.74665	0.66104	-0.509
Mof_C 	C 	0.22918	0.71745	0.63679	0.375
Mof_C 	C 	0.22461	0.72674	0.57947	-0.086
Mof_C 	C 	0.19482	0.69371	0.54748	-0.015
Mof_H 	H 	0.1776	0.6641	0.5621	0.048
Mof_C 	C 	0.19042	0.70441	0.49423	-0.014
Mof_H 	H 	0.1703	0.6821	0.4723	0.048
Mof_C 	C 	0.2484	0.7708	0.5584	-0.015
Mof_H 	H 	0.2676	0.7938	0.5805	0.048
Mof_C 	C 	0.2443	0.7814	0.50539	-0.013
Mof_H 	H 	0.2609	0.8114	0.491	0.047
Mof_C 	C 	0.2142	0.75829	0.41543	0.386
Mof_C 	C 	0.21574	0.74803	0.47318	-0.087
Mof_Zn	Zn	0.31321	0.32844	0.23266	1.21
Mof_O 	O 	0.29855	0.31828	0.15753	-0.489
Mof_O 	O 	0.31944	0.26601	0.88888	-0.504
Mof_O 	O 	0.25271	0.20916	0.89816	-0.513
Mof_O 	O 	0.23916	0.25335	0.16104	-0.509
Mof_C 	C 	0.27082	0.28255	0.13679	0.375
Mof_C 	C 	0.27539	0.27326	0.07947	-0.086
Mof_C 	C 	0.30518	0.30629	0.04748	-0.015
Mof_H 	H 	0.3224	0.3359	0.0621	0.048
Mof_C 	C 	0.30958	0.29559	0.99423	-0.014
Mof_H 	H 	0.3297	0.3179	0.9723	0.048
Mof_C 	C 	0.2516	0.2292	0.0584	-0.015
Mof_H 	H 	0.2324	0.2062	0.0805	0.048
Mof_C 	C 	0.2557	0.2186	0.00539	-0.013
Mof_H 	H 	0.2391	0.1886	0.991	0.047
Mof_C 	C 	0.2858	0.24171	0.91543	0.386
Mof_C 	C 	0.28426	0.25197	0.97318	-0.087
Mof_Zn	Zn	0.76734	0.81321	0.17156	1.21
Mof_O 	O 	0.84247	0.79855	0.18172	-0.489
Mof_O 	O 	0.11112	0.81944	0.23399	-0.504
Mof_O 	O 	0.10184	0.75271	0.29084	-0.513
Mof_O 	O 	0.83896	0.73916	0.24665	-0.509
Mof_C 	C 	0.86321	0.77082	0.21745	0.375
Mof_C 	C 	0.92053	0.77539	0.22674	-0.087
Mof_C 	C 	0.95252	0.80518	0.19371	-0.015
Mof_H 	H 	0.9379	0.8224	0.1641	0.048
Mof_C 	C 	0.00577	0.80958	0.20441	-0.014
Mof_H 	H 	0.0277	0.8297	0.1821	0.048
Mof_C 	C 	0.9416	0.7516	0.2708	-0.015
Mof_H 	H 	0.9195	0.7324	0.2938	0.048
Mof_C 	C 	0.99461	0.7557	0.2814	-0.014
Mof_H 	H 	0.009	0.7391	0.3114	0.047
Mof_C 	C 	0.08457	0.7858	0.25829	0.386
Mof_C 	C 	0.02682	0.78426	0.24803	-0.087
Mof_Zn	Zn	0.26734	0.68679	0.82844	1.21
Mof_O 	O 	0.34247	0.70145	0.81828	-0.489
Mof_O 	O 	0.61112	0.68056	0.76601	-0.504
Mof_O 	O 	0.60184	0.74729	0.70916	-0.513
Mof_O 	O 	0.33896	0.76084	0.75335	-0.509
Mof_C 	C 	0.36321	0.72918	0.78255	0.375
Mof_C 	C 	0.42053	0.72461	0.77326	-0.086
Mof_C 	C 	0.45252	0.69482	0.80629	-0.015
Mof_H 	H 	0.4379	0.6776	0.8359	0.048
Mof_C 	C 	0.50577	0.69042	0.79559	-0.014
Mof_H 	H 	0.5277	0.6703	0.8179	0.048
Mof_C 	C 	0.4416	0.7484	0.7292	-0.015
Mof_H 	H 	0.4195	0.7676	0.7062	0.048
Mof_C 	C 	0.49461	0.7443	0.7186	-0.013
Mof_H 	H 	0.509	0.7609	0.6886	0.047
Mof_C 	C 	0.58457	0.7142	0.74171	0.386
Mof_C 	C 	0.52682	0.71574	0.75197	-0.087
Mof_Zn	Zn	0.73266	0.18679	0.67156	1.21
Mof_O 	O 	0.65753	0.20145	0.68172	-0.489
Mof_O 	O 	0.38888	0.18056	0.73399	-0.504
Mof_O 	O 	0.39816	0.24729	0.79084	-0.513
Mof_O 	O 	0.66104	0.26084	0.74665	-0.509
Mof_C 	C 	0.63679	0.22918	0.71745	0.375
Mof_C 	C 	0.57947	0.22461	0.72674	-0.086
Mof_C 	C 	0.54748	0.19482	0.69371	-0.015
Mof_H 	H 	0.5621	0.1776	0.6641	0.048
Mof_C 	C 	0.49423	0.19042	0.70441	-0.014
Mof_H 	H 	0.4723	0.1703	0.6821	0.048
Mof_C 	C 	0.5584	0.2484	0.7708	-0.015
Mof_H 	H 	0.5805	0.2676	0.7938	0.048
Mof_C 	C 	0.50539	0.2443	0.7814	-0.013
Mof_H 	H 	0.491	0.2609	0.8114	0.047
Mof_C 	C 	0.41543	0.2142	0.75829	0.386
Mof_C 	C 	0.47318	0.21574	0.74803	-0.087
Mof_Zn	Zn	0.23266	0.31321	0.32844	1.21
Mof_O 	O 	0.15753	0.29855	0.31828	-0.489
Mof_O 	O 	0.88888	0.31944	0.26601	-0.504
Mof_O 	O 	0.89816	0.25271	0.20916	-0.513
Mof_O 	O 	0.16104	0.23916	0.25335	-0.509
Mof_C 	C 	0.13679	0.27082	0.28255	0.375
Mof_C 	C 	0.07947	0.27539	0.27326	-0.086
Mof_C 	C 	0.04748	0.30518	0.30629	-0.015
Mof_H 	H 	0.0621	0.3224	0.3359	0.048
Mof_C 	C 	0.99423	0.30958	0.29559	-0.014
Mof_H 	H 	0.9723	0.3297	0.3179	0.048
Mof_C 	C 	0.0584	0.2516	0.2292	-0.015
Mof_H 	H 	0.0805	0.2324	0.2062	0.048
Mof_C 	C 	0.00539	0.2557	0.2186	-0.013
Mof_H 	H 	0.991	0.2391	0.1886	0.047
Mof_C 	C 	0.91543	0.2858	0.24171	0.386
Mof_C 	C 	0.97318	0.28426	0.25197	-0.087
Mof_Zn	Zn	0.17156	0.76734	0.81321	1.21
Mof_O 	O 	0.18172	0.84247	0.79855	-0.489
Mof_O 	O 	0.23399	0.11112	0.81944	-0.504
Mof_O 	O 	0.29084	0.10184	0.75271	-0.513
Mof_O 	O 	0.24665	0.83896	0.73916	-0.509
Mof_C 	C 	0.21745	0.86321	0.77082	0.375
Mof_C 	C 	0.22674	0.92053	0.77539	-0.087
Mof_C 	C 	0.19371	0.95252	0.80518	-0.015
Mof_H 	H 	0.1641	0.9379	0.8224	0.048
Mof_C 	C 	0.20441	0.00577	0.80958	-0.014
Mof_H 	H 	0.1821	0.0277	0.8297	0.048
Mof_C 	C 	0.2708	0.9416	0.7516	-0.015
Mof_H 	H 	0.2938	0.9195	0.7324	0.048
Mof_C 	C 	0.2814	0.99461	0.7557	-0.014
Mof_H 	H 	0.3114	0.009	0.7391	0.047
Mof_C 	C 	0.25829	0.08457	0.7858	0.386
Mof_C 	C 	0.24803	0.02682	0.78426	-0.087
Mof_Zn	Zn	0.82844	0.26734	0.68679	1.21
Mof_O 	O 	0.81828	0.34247	0.70145	-0.489
Mof_O 	O 	0.76601	0.61112	0.68056	-0.504
Mof_O 	O 	0.70916	0.60184	0.74729	-0.513
Mof_O 	O 	0.75335	0.33896	0.76084	-0.509
Mof_C 	C 	0.78255	0.36321	0.72918	0.375
Mof_C 	C 	0.77326	0.42053	0.72461	-0.086
Mof_C 	C 	0.80629	0.45252	0.69482	-0.015
Mof_H 	H 	0.8359	0.4379	0.6776	0.048
Mof_C 	C 	0.79559	0.50577	0.69042	-0.014
Mof_H 	H 	0.8179	0.5277	0.6703	0.048
Mof_C 	C 	0.7292	0.4416	0.7484	-0.015
Mof_H 	H 	0.7062	0.4195	0.7676	0.048
Mof_C 	C 	0.7186	0.49461	0.7443	-0.013
Mof_H 	H 	0.6886	0.509	0.7609	0.047
Mof_C 	C 	0.74171	0.58457	0.7142	0.386
Mof_C 	C 	0.75197	0.52682	0.71574	-0.087
Mof_Zn	Zn	0.67156	0.73266	0.18679	1.21
Mof_O 	O 	0.68172	0.65753	0.20145	-0.489
Mof_O 	O 	0.73399	0.38888	0.18056	-0.504
Mof_O 	O 	0.79084	0.39816	0.24729	-0.513
Mof_O 	O 	0.74665	0.66104	0.26084	-0.509
Mof_C 	C 	0.71745	0.63679	0.22918	0.375
Mof_C 	C 	0.72674	0.57947	0.22461	-0.086
Mof_C 	C 	0.69371	0.54748	0.19482	-0.015
Mof_H 	H 	0.6641	0.5621	0.1776	0.048
Mof_C 	C 	0.70441	0.49423	0.19042	-0.014
Mof_H 	H 	0.6821	0.4723	0.1703	0.048
Mof_C 	C 	0.7708	0.5584	0.2484	-0.015
Mof_H 	H 	0.7938	0.5805	0.2676	0.048
Mof_C 	C 	0.7814	0.50539	0.2443	-0.013
Mof_H 	H 	0.8114	0.491	0.2609	0.047
Mof_C 	C 	0.75829	0.41543	0.2142	0.386
Mof_C 	C 	0.74803	0.47318	0.21574	-0.087
Mof_Zn	Zn	0.32844	0.23266	0.31321	1.21
Mof_O 	O 	0.31828	0.15753	0.29855	-0.489
Mof_O 	O 	0.26601	0.88888	0.31944	-0.504
Mof_O 	O 	0.20916	0.89816	0.25271	-0.513
Mof_O 	O 	0.25335	0.16104	0.23916	-0.509
Mof_C 	C 	0.28255	0.13679	0.27082	0.375
Mof_C 	C 	0.27326	0.07947	0.27539	-0.086
Mof_C 	C 	0.30629	0.04748	0.30518	-0.015
Mof_H 	H 	0.3359	0.0621	0.3224	0.048
Mof_C 	C 	0.29559	0.99423	0.30958	-0.014
Mof_H 	H 	0.3179	0.9723	0.3297	0.048
Mof_C 	C 	0.2292	0.0584	0.2516	-0.015
Mof_H 	H 	0.2062	0.0805	0.2324	0.048
Mof_C 	C 	0.2186	0.00539	0.2557	-0.013
Mof_H 	H 	0.1886	0.991	0.2391	0.047
Mof_C 	C 	0.24171	0.91543	0.2858	0.386
Mof_C 	C 	0.25197	0.97318	0.28426	-0.087
Mof_Zn	Zn	0.26611	0.73389	0.23389	1.211
Mof_O 	O 	0.2223	0.7777	0.2777	-0.959
Mof_Zn	Zn	0.23389	0.26611	0.73389	1.211
Mof_O 	O 	0.2777	0.2223	0.7777	-0.959
Mof_Zn	Zn	0.73389	0.23389	0.26611	1.211
Mof_O 	O 	0.7777	0.2777	0.2223	-0.959
Mof_Zn	Zn	0.76611	0.76611	0.76611	1.211
Mof_O 	O 	0.7223	0.7223	0.7223	-0.959
Mof_Zn	Zn	0.73389	0.26611	0.76611	1.211
Mof_O 	O 	0.7777	0.2223	0.7223	-0.959
Mof_Zn	Zn	0.76611	0.73389	0.26611	1.211
Mof_O 	O 	0.7223	0.7777	0.2223	-0.959
Mof_Zn	Zn	0.26611	0.76611	0.73389	1.211
Mof_O 	O 	0.2223	0.7223	0.7777	-0.959
Mof_Zn	Zn	0.23389	0.23389	0.23389	1.211
Mof_O 	O 	0.2777	0.2777	0.2777	-0.959
_end
