# CIF file generated by openbabel 3.1.0, see https://openbabel.org
data_I
_chemical_name_common 'MITGIF_clean'
_cell_length_a 5.7252
_cell_length_b 13.6337
_cell_length_c 13.6337
_cell_angle_alpha 99.5038
_cell_angle_beta 91.7736
_cell_angle_gamma 88.2264
_space_group_name_H-M_alt 'P 1'
_space_group_name_Hall 'P 1'
loop_
    _symmetry_equiv_pos_as_xyz
    x,y,z
loop_
    _atom_site_label
    _atom_site_type_symbol
    _atom_site_fract_x
    _atom_site_fract_y
    _atom_site_fract_z
    _atom_site_occupancy
    Yb1      Yb       0.58434    0.37595    0.10033    1.000
    Yb2      Yb       0.41566    0.10033    0.37595    1.000
    Yb3      Yb       0.41566    0.62405    0.89967    1.000
    Yb4      Yb       0.58434    0.89967    0.62405    1.000
    H1       H        0.78310    0.62200    0.37800    1.000
    H2       H        0.38290    0.76530    0.23470    1.000
    H3       H        0.21690    0.37800    0.62200    1.000
    H4       H        0.61710    0.23470    0.76530    1.000
    C1       C        0.99420    0.60260    0.26040    1.000
    C2       C        0.17170    0.64460    0.21800    1.000
    C3       C        0.87230    0.51190    0.20670    1.000
    C4       C        0.27960    0.60270    0.11890    1.000
    C5       C        0.78890    0.19030    0.08450    1.000
    C6       C        0.90060    0.09030    0.04810    1.000
    C7       C        0.00580    0.26040    0.60260    1.000
    C8       C        0.82830    0.21800    0.64460    1.000
    C9       C        0.12770    0.20670    0.51190    1.000
    C10      C        0.72040    0.11890    0.60270    1.000
    C11      C        0.21110    0.08450    0.19030    1.000
    C12      C        0.09940    0.04810    0.09030    1.000
    C13      C        0.00580    0.39740    0.73960    1.000
    C14      C        0.82830    0.35540    0.78200    1.000
    C15      C        0.12770    0.48810    0.79330    1.000
    C16      C        0.72040    0.39730    0.88110    1.000
    C17      C        0.21110    0.80970    0.91550    1.000
    C18      C        0.09940    0.90970    0.95190    1.000
    C19      C        0.99420    0.73960    0.39740    1.000
    C20      C        0.17170    0.78200    0.35540    1.000
    C21      C        0.87230    0.79330    0.48810    1.000
    C22      C        0.27960    0.88110    0.39730    1.000
    C23      C        0.78890    0.91550    0.80970    1.000
    C24      C        0.90060    0.95190    0.90970    1.000
    C25      C        0.90500    0.65030    0.34970    1.000
    C26      C        0.26400    0.73610    0.26390    1.000
    C27      C        0.09500    0.34970    0.65030    1.000
    C28      C        0.73600    0.26390    0.73610    1.000
    C29      C        0.80700    0.04160    0.95840    1.000
    C30      C        0.19300    0.95840    0.04160    1.000
    O1       O        0.75130    0.45970    0.25310    1.000
    O2       O        0.88670    0.49260    0.11300    1.000
    O3       O        0.39520    0.52190    0.11370    1.000
    O4       O        0.25220    0.65220    0.05160    1.000
    O5       O        0.90520    0.26390    0.12970    1.000
    O6       O        0.57860    0.20350    0.06210    1.000
    O7       O        0.24870    0.25310    0.45970    1.000
    O8       O        0.11330    0.11300    0.49260    1.000
    O9       O        0.60480    0.11370    0.52190    1.000
    O10      O        0.74780    0.05160    0.65220    1.000
    O11      O        0.09480    0.12970    0.26390    1.000
    O12      O        0.42140    0.06210    0.20350    1.000
    O13      O        0.24870    0.54030    0.74690    1.000
    O14      O        0.11330    0.50740    0.88700    1.000
    O15      O        0.60480    0.47810    0.88630    1.000
    O16      O        0.74780    0.34780    0.94840    1.000
    O17      O        0.09480    0.73610    0.87030    1.000
    O18      O        0.42140    0.79650    0.93790    1.000
    O19      O        0.75130    0.74690    0.54030    1.000
    O20      O        0.88670    0.88700    0.50740    1.000
    O21      O        0.39520    0.88630    0.47810    1.000
    O22      O        0.25220    0.94840    0.34780    1.000
    O23      O        0.90520    0.87030    0.73610    1.000
    O24      O        0.57860    0.93790    0.79650    1.000
