data_functionalizedCrystal
_audit_creation_method	'EQeq! by Chris Wilmer'
_symmetry_space_group_name_H-M	'P1'
_symmetry_Int_Tables_number	1
_symmetry_cell_setting	triclinic
loop_
_symmetry_equiv_pos_as_xyz
  x,y,z
_cell_length_a	21.01
_cell_length_b	15.988
_cell_length_c	21.963
_cell_angle_alpha	90
_cell_angle_beta	90.339
_cell_angle_gamma	90
loop_
_atom_site_label
_atom_site_type_symbol
_atom_site_fract_x
_atom_site_fract_y
_atom_site_fract_z
_atom_site_charge
Mof_Cr	Cr	0.12666	0.5067	0.24789	2.246
Mof_Cr	Cr	0.75273	0.76192	0.37722	2.205
Mof_Mn	Mn	0.86883	0.5154	0.24468	0.95
Mof_Mn	Mn	0.25869	0.7512	0.12613	0.97
Mof_O 	O 	0.1932	0.5181	0.1876	-0.531
Mof_O 	O 	0.1351	0.6323	0.2462	-0.521
Mof_O 	O 	0.1855	0.7283	0.1921	-0.309
Mof_O 	O 	0.2549	0.6141	0.1421	-0.293
Mof_O 	O 	0.1302	0.3843	0.2492	-0.58
Mof_O 	O 	0.1913	0.483	0.3156	-0.522
Mof_O 	O 	0.1678	0.2755	0.3034	-0.311
Mof_O 	O 	0.238	0.3874	0.3664	-0.297
Mof_O 	O 	0.0558	0.5153	0.3049	-0.504
Mof_O 	O 	0.0582	0.5141	0.1937	-0.555
Mof_O 	O 	0.9474	0.5133	0.3081	-0.28
Mof_O 	O 	0.9491	0.527	0.1816	-0.294
Mof_O 	O 	0.7518	0.6365	0.3709	-0.53
Mof_O 	O 	0.8161	0.7521	0.3108	-0.516
Mof_O 	O 	0.7991	0.5345	0.3173	-0.36
Mof_O 	O 	0.8574	0.6555	0.2472	-0.292
Mof_O 	O 	0.7464	0.3826	0.1269	-0.502
Mof_O 	O 	0.8163	0.2794	0.1838	-0.496
Mof_O 	O 	0.7974	0.4964	0.1695	-0.258
Mof_O 	O 	0.8617	0.3764	0.2393	-0.292
Mof_O 	O 	0.3143	0.7447	0.9439	-0.503
Mof_O 	O 	0.3209	0.7408	0.0456	-0.263
Mof_O 	O 	0.1951	0.7405	0.9442	-0.528
Mof_O 	O 	0.1919	0.7464	0.05	-0.278
Mof_C 	C 	0.1735	0.6549	0.2116	0.316
Mof_C 	C 	0.2126	0.5927	0.1759	0.28
Mof_C 	C 	0.1602	0.352	0.286	0.35
Mof_C 	C 	0.1984	0.4138	0.3266	0.309
Mof_C 	C 	0.001	0.514	0.2791	0.241
Mof_C 	C 	0.9972	0.5203	0.2125	0.282
Mof_C 	C 	0.7864	0.6011	0.332	0.381
Mof_C 	C 	0.8265	0.68	0.2915	0.289
Mof_C 	C 	0.7903	0.4173	0.1623	0.219
Mof_C 	C 	0.825	0.3558	0.199	0.283
Mof_C 	C 	0.2877	0.7421	0.9951	0.233
Mof_C 	C 	0.2201	0.7413	0.9979	0.26
Mof_Cr	Cr	0.37334	0.0067	0.25211	2.242
Mof_Cr	Cr	0.74727	0.26192	0.12278	2.204
Mof_Mn	Mn	0.63117	0.0154	0.25532	0.949
Mof_Mn	Mn	0.24131	0.2512	0.37387	0.97
Mof_O 	O 	0.3068	0.0181	0.3124	-0.531
Mof_O 	O 	0.3649	0.1323	0.2538	-0.521
Mof_O 	O 	0.3145	0.2283	0.3079	-0.309
Mof_O 	O 	0.2451	0.1141	0.3579	-0.293
Mof_O 	O 	0.3698	0.8843	0.2508	-0.578
Mof_O 	O 	0.3087	0.983	0.1844	-0.52
Mof_O 	O 	0.3322	0.7755	0.1966	-0.31
Mof_O 	O 	0.262	0.8874	0.1336	-0.296
Mof_O 	O 	0.4442	0.0153	0.1951	-0.504
Mof_O 	O 	0.4418	0.0141	0.3063	-0.555
Mof_O 	O 	0.5526	0.0133	0.1919	-0.28
Mof_O 	O 	0.5509	0.027	0.3184	-0.294
Mof_O 	O 	0.7482	0.1365	0.1291	-0.53
Mof_O 	O 	0.6839	0.2521	0.1892	-0.516
Mof_O 	O 	0.7009	0.0345	0.1827	-0.361
Mof_O 	O 	0.6426	0.1555	0.2528	-0.292
Mof_O 	O 	0.7536	0.8826	0.3731	-0.501
Mof_O 	O 	0.6837	0.7794	0.3162	-0.496
Mof_O 	O 	0.7026	0.9964	0.3305	-0.257
Mof_O 	O 	0.6383	0.8764	0.2607	-0.291
Mof_O 	O 	0.1857	0.2447	0.5561	-0.503
Mof_O 	O 	0.1791	0.2408	0.4544	-0.265
Mof_O 	O 	0.3049	0.2405	0.5558	-0.528
Mof_O 	O 	0.3081	0.2464	0.45	-0.279
Mof_C 	C 	0.3265	0.1549	0.2884	0.316
Mof_C 	C 	0.2874	0.0927	0.3241	0.28
Mof_C 	C 	0.3398	0.852	0.214	0.35
Mof_C 	C 	0.3016	0.9138	0.1734	0.309
Mof_C 	C 	0.499	0.014	0.2209	0.24
Mof_C 	C 	0.5028	0.0203	0.2875	0.283
Mof_C 	C 	0.7136	0.1011	0.168	0.381
Mof_C 	C 	0.6735	0.18	0.2085	0.289
Mof_C 	C 	0.7097	0.9173	0.3377	0.219
Mof_C 	C 	0.675	0.8558	0.301	0.283
Mof_C 	C 	0.2123	0.2421	0.5049	0.235
Mof_C 	C 	0.2799	0.2413	0.5021	0.262
Mof_Cr	Cr	0.87334	0.4933	0.75211	2.245
Mof_Cr	Cr	0.24727	0.23808	0.62278	2.204
Mof_Mn	Mn	0.13117	0.4846	0.75532	0.95
Mof_Mn	Mn	0.74131	0.2488	0.87387	0.97
Mof_O 	O 	0.8068	0.4819	0.8124	-0.531
Mof_O 	O 	0.8649	0.3677	0.7538	-0.521
Mof_O 	O 	0.8145	0.2717	0.8079	-0.309
Mof_O 	O 	0.7451	0.3859	0.8579	-0.293
Mof_O 	O 	0.8698	0.6157	0.7508	-0.58
Mof_O 	O 	0.8087	0.517	0.6844	-0.522
Mof_O 	O 	0.8322	0.7245	0.6966	-0.311
Mof_O 	O 	0.762	0.6126	0.6336	-0.297
Mof_O 	O 	0.9442	0.4847	0.6951	-0.504
Mof_O 	O 	0.9418	0.4859	0.8063	-0.555
Mof_O 	O 	0.0526	0.4867	0.6919	-0.28
Mof_O 	O 	0.0509	0.473	0.8184	-0.294
Mof_O 	O 	0.2482	0.3635	0.6291	-0.53
Mof_O 	O 	0.1839	0.2479	0.6892	-0.516
Mof_O 	O 	0.2009	0.4655	0.6827	-0.36
Mof_O 	O 	0.1426	0.3445	0.7528	-0.292
Mof_O 	O 	0.2536	0.6174	0.8731	-0.502
Mof_O 	O 	0.1837	0.7206	0.8162	-0.496
Mof_O 	O 	0.2026	0.5036	0.8305	-0.258
Mof_O 	O 	0.1383	0.6236	0.7607	-0.292
Mof_O 	O 	0.6857	0.2553	0.0561	-0.503
Mof_O 	O 	0.6791	0.2592	0.9544	-0.263
Mof_O 	O 	0.8049	0.2595	0.0558	-0.528
Mof_O 	O 	0.8081	0.2536	0.95	-0.278
Mof_C 	C 	0.8265	0.3451	0.7884	0.316
Mof_C 	C 	0.7874	0.4073	0.8241	0.28
Mof_C 	C 	0.8398	0.648	0.714	0.35
Mof_C 	C 	0.8016	0.5862	0.6734	0.309
Mof_C 	C 	0.999	0.486	0.7209	0.241
Mof_C 	C 	0.0028	0.4797	0.7875	0.282
Mof_C 	C 	0.2136	0.3989	0.668	0.381
Mof_C 	C 	0.1735	0.32	0.7085	0.289
Mof_C 	C 	0.2097	0.5827	0.8377	0.219
Mof_C 	C 	0.175	0.6442	0.801	0.283
Mof_C 	C 	0.7123	0.2579	0.0049	0.233
Mof_C 	C 	0.7799	0.2587	0.0021	0.26
Mof_Cr	Cr	0.62666	0.9933	0.74789	2.242
Mof_Cr	Cr	0.25273	0.73808	0.87722	2.204
Mof_Mn	Mn	0.36883	0.9846	0.74468	0.949
Mof_Mn	Mn	0.75869	0.7488	0.62613	0.97
Mof_O 	O 	0.6932	0.9819	0.6876	-0.531
Mof_O 	O 	0.6351	0.8677	0.7462	-0.521
Mof_O 	O 	0.6855	0.7717	0.6921	-0.309
Mof_O 	O 	0.7549	0.8859	0.6421	-0.293
Mof_O 	O 	0.6302	0.1157	0.7492	-0.578
Mof_O 	O 	0.6913	0.017	0.8156	-0.52
Mof_O 	O 	0.6678	0.2245	0.8034	-0.31
Mof_O 	O 	0.738	0.1126	0.8664	-0.296
Mof_O 	O 	0.5558	0.9847	0.8049	-0.504
Mof_O 	O 	0.5582	0.9859	0.6937	-0.555
Mof_O 	O 	0.4474	0.9867	0.8081	-0.28
Mof_O 	O 	0.4491	0.973	0.6816	-0.294
Mof_O 	O 	0.2518	0.8635	0.8709	-0.53
Mof_O 	O 	0.3161	0.7479	0.8108	-0.516
Mof_O 	O 	0.2991	0.9655	0.8173	-0.361
Mof_O 	O 	0.3574	0.8445	0.7472	-0.292
Mof_O 	O 	0.2464	0.1174	0.6269	-0.501
Mof_O 	O 	0.3163	0.2206	0.6838	-0.496
Mof_O 	O 	0.2974	0.0036	0.6695	-0.257
Mof_O 	O 	0.3617	0.1236	0.7393	-0.291
Mof_O 	O 	0.8143	0.7553	0.4439	-0.503
Mof_O 	O 	0.8209	0.7592	0.5456	-0.265
Mof_O 	O 	0.6951	0.7595	0.4442	-0.528
Mof_O 	O 	0.6919	0.7536	0.55	-0.279
Mof_C 	C 	0.6735	0.8451	0.7116	0.316
Mof_C 	C 	0.7126	0.9073	0.6759	0.28
Mof_C 	C 	0.6602	0.148	0.786	0.35
Mof_C 	C 	0.6984	0.0862	0.8266	0.309
Mof_C 	C 	0.501	0.986	0.7791	0.24
Mof_C 	C 	0.4972	0.9797	0.7125	0.283
Mof_C 	C 	0.2864	0.8989	0.832	0.381
Mof_C 	C 	0.3265	0.82	0.7915	0.289
Mof_C 	C 	0.2903	0.0827	0.6623	0.219
Mof_C 	C 	0.325	0.1442	0.699	0.283
Mof_C 	C 	0.7877	0.7579	0.4951	0.235
Mof_C 	C 	0.7201	0.7587	0.4979	0.262
_end
