data_functionalizedCrystal
_audit_creation_method	'EQeq! by Chris Wilmer'
_symmetry_space_group_name_H-M	'P1'
_symmetry_Int_Tables_number	1
_symmetry_cell_setting	triclinic
loop_
_symmetry_equiv_pos_as_xyz
  x,y,z
_cell_length_a	13.427
_cell_length_b	8.7318
_cell_length_c	15.083
_cell_angle_alpha	90
_cell_angle_beta	111.7
_cell_angle_gamma	90
loop_
_atom_site_label
_atom_site_type_symbol
_atom_site_fract_x
_atom_site_fract_y
_atom_site_fract_z
_atom_site_charge
Mof_C 	C 	0.6639	0.2354	0.5753	-0.256
Mof_C 	C 	0.8349	0.4004	0.5871	-0.221
Mof_C 	C 	0.8354	0.0876	0.5743	-0.226
Mof_N 	N 	0.6148	0.2226	0.6232	-0.298
Mof_N 	N 	0.8825	0.4921	0.641	-0.175
Mof_N 	N 	0.8821	0.9836	0.616	-0.181
Mof_C 	C 	0.1639	0.7354	0.5753	-0.304
Mof_C 	C 	0.3349	0.9004	0.5871	-0.27
Mof_C 	C 	0.3354	0.5876	0.5743	-0.271
Mof_N 	N 	0.1148	0.7226	0.6232	-0.279
Mof_N 	N 	0.3825	0.9921	0.641	-0.299
Mof_N 	N 	0.3821	0.4836	0.616	-0.308
Mof_C 	C 	0.3361	0.2354	0.9247	-0.201
Mof_C 	C 	0.1651	0.4004	0.9129	-0.23
Mof_C 	C 	0.1646	0.0876	0.9257	-0.236
Mof_N 	N 	0.3852	0.2226	0.8768	-0.308
Mof_N 	N 	0.1175	0.4921	0.859	-0.279
Mof_N 	N 	0.1179	0.9836	0.884	-0.275
Mof_C 	C 	0.8361	0.7354	0.9247	-0.152
Mof_C 	C 	0.6651	0.9004	0.9129	-0.181
Mof_C 	C 	0.6646	0.5876	0.9257	-0.182
Mof_N 	N 	0.8852	0.7226	0.8768	-0.18
Mof_N 	N 	0.6175	0.9921	0.859	-0.294
Mof_N 	N 	0.6179	0.4836	0.884	-0.299
Mof_C 	C 	0.3361	0.7646	0.4247	-0.276
Mof_C 	C 	0.1651	0.5996	0.4129	-0.306
Mof_C 	C 	0.1646	0.9124	0.4257	-0.305
Mof_N 	N 	0.3852	0.7774	0.3768	-0.298
Mof_N 	N 	0.1175	0.5079	0.359	-0.268
Mof_N 	N 	0.1179	0.0164	0.384	-0.273
Mof_C 	C 	0.8361	0.2646	0.4247	-0.228
Mof_C 	C 	0.6651	0.0996	0.4129	-0.258
Mof_C 	C 	0.6646	0.4124	0.4257	-0.259
Mof_N 	N 	0.8852	0.2774	0.3768	-0.17
Mof_N 	N 	0.6175	0.0079	0.359	-0.285
Mof_N 	N 	0.6179	0.5164	0.384	-0.291
Mof_C 	C 	0.6639	0.7646	0.0753	-0.309
Mof_C 	C 	0.8349	0.5996	0.0871	-0.273
Mof_C 	C 	0.8354	0.9124	0.0743	-0.276
Mof_N 	N 	0.6148	0.7774	0.1232	-0.294
Mof_N 	N 	0.8825	0.5079	0.141	-0.169
Mof_N 	N 	0.8821	0.0164	0.116	-0.18
Mof_C 	C 	0.1639	0.2646	0.0753	-0.355
Mof_C 	C 	0.3349	0.0996	0.0871	-0.32
Mof_C 	C 	0.3354	0.4124	0.0743	-0.323
Mof_N 	N 	0.1148	0.2774	0.1232	-0.275
Mof_N 	N 	0.3825	0.0079	0.141	-0.295
Mof_N 	N 	0.3821	0.5164	0.116	-0.307
Mof_Co	Co	0.75	0.25	0.5	1.147
Mof_Co	Co	0.25	0.25	-0	1.089
Mof_Co	Co	0.25	0.75	0.5	1.144
Mof_Co	Co	0.75	0.75	-0	1.089
Mof_K 	K 	0.5	0.25132	0.75	2.482
Mof_K 	K 	-1.03789e-16	0.75132	0.75	1.677
Mof_K 	K 	0.5	0.74868	0.25	2.342
Mof_K 	K 	1.44228e-33	0.24868	0.25	1.528
_end
