data_functionalizedCrystal
_audit_creation_method	'EQeq! by Chris Wilmer'
_symmetry_space_group_name_H-M	'P1'
_symmetry_Int_Tables_number	1
_symmetry_cell_setting	triclinic
loop_
_symmetry_equiv_pos_as_xyz
  x,y,z
_cell_length_a	10.567
_cell_length_b	16.97
_cell_length_c	8.413
_cell_angle_alpha	90
_cell_angle_beta	90
_cell_angle_gamma	90
loop_
_atom_site_label
_atom_site_type_symbol
_atom_site_fract_x
_atom_site_fract_y
_atom_site_fract_z
_atom_site_charge
Mof_V 	V 	0.1406	0.5643	0.7798	1.696
Mof_P 	P 	0.8707	0.5868	0.9709	0.54
Mof_O 	O 	0.0159	0.5853	0.9492	-0.561
Mof_O 	O 	0.8359	0.5454	0.1283	-0.54
Mof_O 	O 	0.806	0.5457	0.8296	-0.627
Mof_O 	O 	0.826	0.673	0.9892	-0.559
Mof_O 	O 	0.6592	0.8261	0.7586	-0.81
Mof_V 	V 	0.3594	0.4357	0.2798	1.697
Mof_P 	P 	0.6293	0.4132	0.4709	0.547
Mof_O 	O 	0.4841	0.4147	0.4492	-0.564
Mof_O 	O 	0.6641	0.4546	0.6283	-0.542
Mof_O 	O 	0.694	0.4543	0.3296	-0.627
Mof_O 	O 	0.674	0.327	0.4892	-0.557
Mof_O 	O 	0.8408	0.1739	0.2586	-0.809
Mof_V 	V 	0.8594	0.0643	0.2202	1.697
Mof_P 	P 	0.1293	0.0868	0.0291	0.539
Mof_O 	O 	0.9841	0.0853	0.0508	-0.561
Mof_O 	O 	0.1641	0.0454	0.8717	-0.536
Mof_O 	O 	0.194	0.0457	0.1704	-0.627
Mof_O 	O 	0.174	0.173	0.0108	-0.559
Mof_O 	O 	0.3408	0.3261	0.2414	-0.809
Mof_V 	V 	0.6406	0.9357	0.7202	1.697
Mof_P 	P 	0.3707	0.9132	0.5291	0.547
Mof_O 	O 	0.5159	0.9147	0.5508	-0.564
Mof_O 	O 	0.3359	0.9546	0.3717	-0.541
Mof_O 	O 	0.306	0.9543	0.6704	-0.627
Mof_O 	O 	0.326	0.827	0.5108	-0.557
Mof_O 	O 	0.1592	0.6739	0.7414	-0.809
Mof_V 	V 	0.8594	0.4357	0.2202	1.697
Mof_P 	P 	0.1293	0.4132	0.0291	0.541
Mof_O 	O 	0.9841	0.4147	0.0508	-0.56
Mof_O 	O 	0.1641	0.4546	0.8717	-0.539
Mof_O 	O 	0.194	0.4543	0.1704	-0.627
Mof_O 	O 	0.174	0.327	0.0108	-0.559
Mof_O 	O 	0.3408	0.1739	0.2414	-0.81
Mof_V 	V 	0.6406	0.5643	0.7202	1.697
Mof_P 	P 	0.3707	0.5868	0.5291	0.547
Mof_O 	O 	0.5159	0.5853	0.5508	-0.564
Mof_O 	O 	0.3359	0.5454	0.3717	-0.542
Mof_O 	O 	0.306	0.5457	0.6704	-0.627
Mof_O 	O 	0.326	0.673	0.5108	-0.557
Mof_O 	O 	0.1592	0.8261	0.7414	-0.809
Mof_V 	V 	0.1406	0.9357	0.7798	1.697
Mof_P 	P 	0.8707	0.9132	0.9709	0.539
Mof_O 	O 	0.0159	0.9147	0.9492	-0.561
Mof_O 	O 	0.8359	0.9546	0.1283	-0.536
Mof_O 	O 	0.806	0.9543	0.8296	-0.627
Mof_O 	O 	0.826	0.827	0.9892	-0.559
Mof_O 	O 	0.6592	0.6739	0.7586	-0.809
Mof_V 	V 	0.3594	0.0643	0.2798	1.697
Mof_P 	P 	0.6293	0.0868	0.4709	0.547
Mof_O 	O 	0.4841	0.0853	0.4492	-0.564
Mof_O 	O 	0.6641	0.0454	0.6283	-0.541
Mof_O 	O 	0.694	0.0457	0.3296	-0.627
Mof_O 	O 	0.674	0.173	0.4892	-0.557
Mof_O 	O 	0.8408	0.3261	0.2586	-0.809
Mof_V 	V 	0.7791	0.75	0.8261	1.712
Mof_V 	V 	0.7209	0.25	0.3261	1.712
Mof_V 	V 	0.2209	0.25	0.1739	1.712
Mof_V 	V 	0.2791	0.75	0.6739	1.712
_end
