# CIF file generated by openbabel 3.1.0, see https://openbabel.org
data_I
_chemical_name_common 'image0'
_cell_length_a 13.857
_cell_length_b 13.857
_cell_length_c 17.925
_cell_angle_alpha 90
_cell_angle_beta 90
_cell_angle_gamma 120
_space_group_name_H-M_alt 'P 1'
_space_group_name_Hall 'P 1'
loop_
    _symmetry_equiv_pos_as_xyz
    x,y,z
loop_
    _atom_site_label
    _atom_site_type_symbol
    _atom_site_fract_x
    _atom_site_fract_y
    _atom_site_fract_z
    _atom_site_occupancy
    O1       O        0.64970    0.50590    0.33240    1.000
    C1       C        0.59870    0.56980    0.46600    1.000
    H1       H        0.66610    0.61880    0.44330    1.000
    O2       O        0.49410    0.14380    0.33240    1.000
    C2       C        0.43020    0.02890    0.46600    1.000
    H2       H        0.38120    0.04730    0.44330    1.000
    O3       O        0.85620    0.35030    0.33240    1.000
    C3       C        0.97110    0.40130    0.46600    1.000
    H3       H        0.95270    0.33390    0.44330    1.000
    O4       O        0.35030    0.49410    0.83240    1.000
    C4       C        0.40130    0.43020    0.96600    1.000
    H4       H        0.33390    0.38120    0.94330    1.000
    O5       O        0.50590    0.85620    0.83240    1.000
    C5       C        0.56980    0.97110    0.96600    1.000
    H5       H        0.61880    0.95270    0.94330    1.000
    O6       O        0.14380    0.64970    0.83240    1.000
    C6       C        0.02890    0.59870    0.96600    1.000
    H6       H        0.04730    0.66610    0.94330    1.000
    O7       O        0.50590    0.64970    0.66760    1.000
    C7       C        0.56980    0.59870    0.53400    1.000
    H7       H        0.61880    0.66610    0.55670    1.000
    O8       O        0.14380    0.49410    0.66760    1.000
    C8       C        0.02890    0.43020    0.53400    1.000
    H8       H        0.04730    0.38120    0.55670    1.000
    O9       O        0.35030    0.85620    0.66760    1.000
    C9       C        0.40130    0.97110    0.53400    1.000
    H9       H        0.33390    0.95270    0.55670    1.000
    O10      O        0.49410    0.35030    0.16760    1.000
    C10      C        0.43020    0.40130    0.03400    1.000
    H10      H        0.38120    0.33390    0.05670    1.000
    O11      O        0.85620    0.50590    0.16760    1.000
    C11      C        0.97110    0.56980    0.03400    1.000
    H11      H        0.95270    0.61880    0.05670    1.000
    O12      O        0.64970    0.14380    0.16760    1.000
    C12      C        0.59870    0.02890    0.03400    1.000
    H12      H        0.66610    0.04730    0.05670    1.000
    O13      O        0.35030    0.49410    0.66760    1.000
    C13      C        0.40130    0.43020    0.53400    1.000
    H13      H        0.33390    0.38120    0.55670    1.000
    O14      O        0.50590    0.85620    0.66760    1.000
    C14      C        0.56980    0.97110    0.53400    1.000
    H14      H        0.61880    0.95270    0.55670    1.000
    O15      O        0.14380    0.64970    0.66760    1.000
    C15      C        0.02890    0.59870    0.53400    1.000
    H15      H        0.04730    0.66610    0.55670    1.000
    O16      O        0.64970    0.50590    0.16760    1.000
    C16      C        0.59870    0.56980    0.03400    1.000
    H16      H        0.66610    0.61880    0.05670    1.000
    O17      O        0.49410    0.14380    0.16760    1.000
    C17      C        0.43020    0.02890    0.03400    1.000
    H17      H        0.38120    0.04730    0.05670    1.000
    O18      O        0.85620    0.35030    0.16760    1.000
    C18      C        0.97110    0.40130    0.03400    1.000
    H18      H        0.95270    0.33390    0.05670    1.000
    O19      O        0.49410    0.35030    0.33240    1.000
    C19      C        0.43020    0.40130    0.46600    1.000
    H19      H        0.38120    0.33390    0.44330    1.000
    O20      O        0.85620    0.50590    0.33240    1.000
    C20      C        0.97110    0.56980    0.46600    1.000
    H20      H        0.95270    0.61880    0.44330    1.000
    O21      O        0.64970    0.14380    0.33240    1.000
    C21      C        0.59870    0.02890    0.46600    1.000
    H21      H        0.66610    0.04730    0.44330    1.000
    O22      O        0.50590    0.64970    0.83240    1.000
    C22      C        0.56980    0.59870    0.96600    1.000
    H22      H        0.61880    0.66610    0.94330    1.000
    O23      O        0.14380    0.49410    0.83240    1.000
    C23      C        0.02890    0.43020    0.96600    1.000
    H23      H        0.04730    0.38120    0.94330    1.000
    O24      O        0.35030    0.85620    0.83240    1.000
    C24      C        0.40130    0.97110    0.96600    1.000
    H24      H        0.33390    0.95270    0.94330    1.000
    Fe1      Fe       0.74670    0.49340    0.25000    1.000
    N1       N        0.83705    0.67410    0.25000    1.000
    Fe2      Fe       0.50660    0.25330    0.25000    1.000
    N2       N        0.32590    0.16295    0.25000    1.000
    Fe3      Fe       0.74670    0.25330    0.25000    1.000
    N3       N        0.83705    0.16295    0.25000    1.000
    Fe4      Fe       0.25330    0.50660    0.75000    1.000
    N4       N        0.16295    0.32590    0.75000    1.000
    Fe5      Fe       0.49340    0.74670    0.75000    1.000
    N5       N        0.67410    0.83705    0.75000    1.000
    Fe6      Fe       0.25330    0.74670    0.75000    1.000
    N6       N        0.16295    0.83705    0.75000    1.000
    O25      O        0.66667    0.33333    0.25000    1.000
    O26      O        0.33333    0.66667    0.75000    1.000
    C25      C        0.56160    0.43840    0.35910    1.000
    C26      C        0.52890    0.47110    0.43310    1.000
    C27      C        0.56160    0.12320    0.35910    1.000
    C28      C        0.52890    0.05780    0.43310    1.000
    C29      C        0.87680    0.43840    0.35910    1.000
    C30      C        0.94220    0.47110    0.43310    1.000
    C31      C        0.43840    0.56160    0.85910    1.000
    C32      C        0.47110    0.52890    0.93310    1.000
    C33      C        0.43840    0.87680    0.85910    1.000
    C34      C        0.47110    0.94220    0.93310    1.000
    C35      C        0.12320    0.56160    0.85910    1.000
    C36      C        0.05780    0.52890    0.93310    1.000
    C37      C        0.43840    0.56160    0.64090    1.000
    C38      C        0.47110    0.52890    0.56690    1.000
    C39      C        0.12320    0.56160    0.64090    1.000
    C40      C        0.05780    0.52890    0.56690    1.000
    C41      C        0.43840    0.87680    0.64090    1.000
    C42      C        0.47110    0.94220    0.56690    1.000
    C43      C        0.56160    0.43840    0.14090    1.000
    C44      C        0.52890    0.47110    0.06690    1.000
    C45      C        0.87680    0.43840    0.14090    1.000
    C46      C        0.94220    0.47110    0.06690    1.000
    C47      C        0.56160    0.12320    0.14090    1.000
    C48      C        0.52890    0.05780    0.06690    1.000
    C49      C        0.87060    0.74120    0.30610    1.000
    N7       N        0.92730    0.85460    0.29100    1.000
    H25      H        0.85735    0.71470    0.35490    1.000
    C50      C        0.25880    0.12940    0.30610    1.000
    N8       N        0.14540    0.07270    0.29100    1.000
    H26      H        0.28530    0.14265    0.35490    1.000
    C51      C        0.87060    0.12940    0.30610    1.000
    N9       N        0.92730    0.07270    0.29100    1.000
    H27      H        0.85735    0.14265    0.35490    1.000
    C52      C        0.12940    0.25880    0.80610    1.000
    N10      N        0.07270    0.14540    0.79100    1.000
    H28      H        0.14265    0.28530    0.85490    1.000
    C53      C        0.74120    0.87060    0.80610    1.000
    N11      N        0.85460    0.92730    0.79100    1.000
    H29      H        0.71470    0.85735    0.85490    1.000
    C54      C        0.12940    0.87060    0.80610    1.000
    N12      N        0.07270    0.92730    0.79100    1.000
    H30      H        0.14265    0.85735    0.85490    1.000
    C55      C        0.74120    0.87060    0.69390    1.000
    N13      N        0.85460    0.92730    0.70900    1.000
    H31      H        0.71470    0.85735    0.64510    1.000
    C56      C        0.12940    0.25880    0.69390    1.000
    N14      N        0.07270    0.14540    0.70900    1.000
    H32      H        0.14265    0.28530    0.64510    1.000
    C57      C        0.12940    0.87060    0.69390    1.000
    N15      N        0.07270    0.92730    0.70900    1.000
    H33      H        0.14265    0.85735    0.64510    1.000
    C58      C        0.25880    0.12940    0.19390    1.000
    N16      N        0.14540    0.07270    0.20900    1.000
    H34      H        0.28530    0.14265    0.14510    1.000
    C59      C        0.87060    0.74120    0.19390    1.000
    N17      N        0.92730    0.85460    0.20900    1.000
    H35      H        0.85735    0.71470    0.14510    1.000
    C60      C        0.87060    0.12940    0.19390    1.000
    N18      N        0.92730    0.07270    0.20900    1.000
    H36      H        0.85735    0.14265    0.14510    1.000
    Mg1      Mg       0.00000    0.00000    0.35520    1.000
    Mg2      Mg       0.00000    0.00000    0.85520    1.000
    Mg3      Mg       0.00000    0.00000    0.64480    1.000
    Mg4      Mg       0.00000    0.00000    0.14480    1.000
