# CIF file generated by openbabel 3.1.0, see https://openbabel.org
data_I
_chemical_name_common 'image0'
_cell_length_a 28.6457
_cell_length_b 12.544
_cell_length_c 21.6016
_cell_angle_alpha 90
_cell_angle_beta 103.195
_cell_angle_gamma 90
_space_group_name_H-M_alt 'P 1'
_space_group_name_Hall 'P 1'
loop_
    _symmetry_equiv_pos_as_xyz
    x,y,z
loop_
    _atom_site_label
    _atom_site_type_symbol
    _atom_site_fract_x
    _atom_site_fract_y
    _atom_site_fract_z
    _atom_site_occupancy
    C1       C        0.17737    0.44810    0.32255    1.000
    H1       H        0.20450    0.42170    0.35050    1.000
    C2       C        0.12864    0.55580    0.26967    1.000
    H2       H        0.11350    0.61760    0.25160    1.000
    C3       C        0.84515    0.87270    0.14047    1.000
    H3       H        0.83260    0.91660    0.16730    1.000
    C4       C        0.86076    0.74260    0.08852    1.000
    H4       H        0.86050    0.67380    0.07230    1.000
    C5       C        0.80284    0.66970    0.82590    1.000
    H5       H        0.80020    0.69500    0.78480    1.000
    C6       C        0.78788    0.64330    0.91382    1.000
    H6       H        0.77360    0.64290    0.94840    1.000
    C7       C        0.06892    0.42300    0.21416    1.000
    C8       C        0.03212    0.49350    0.19156    1.000
    H7       H        0.03480    0.56400    0.20520    1.000
    C9       C        0.99151    0.46010    0.14887    1.000
    H8       H        0.96720    0.50860    0.13310    1.000
    C10      C        0.98646    0.35380    0.12889    1.000
    C11      C        0.02392    0.28410    0.15175    1.000
    H9       H        0.02130    0.21330    0.13860    1.000
    C12      C        0.06522    0.31820    0.19393    1.000
    H10      H        0.09030    0.27080    0.20850    1.000
    C13      C        0.89490    0.00780    0.10235    1.000
    C14      C        0.90703    0.07080    0.15569    1.000
    H11      H        0.90420    0.04470    0.19500    1.000
    C15      C        0.92350    0.17340    0.15044    1.000
    H12      H        0.93160    0.21660    0.18630    1.000
    C16      C        0.92784    0.21160    0.09247    1.000
    C17      C        0.91533    0.14800    0.03897    1.000
    H13      H        0.91840    0.17390    0.99980    1.000
    C18      C        0.89834    0.04610    0.04368    1.000
    H14      H        0.88930    0.00360    0.00760    1.000
    C19      C        0.91498    0.38720    0.04284    1.000
    C20      C        0.86701    0.39600    0.04140    1.000
    H15      H        0.85400    0.35680    0.06990    1.000
    C21      C        0.83770    0.46260    0.99813    1.000
    H16      H        0.80520    0.46790    0.99740    1.000
    C22      C        0.85702    0.52040    0.95648    1.000
    C23      C        0.90468    0.51300    0.95740    1.000
    H17      H        0.91750    0.55280    0.92890    1.000
    C24      C        0.93374    0.44700    0.00020    1.000
    H18      H        0.96620    0.44230    0.00070    1.000
    C25      C        0.22478    0.69870    0.22225    1.000
    C26      C        0.23224    0.71320    0.15632    1.000
    C27      C        0.20353    0.78080    0.11428    1.000
    H19      H        0.17880    0.81670    0.12670    1.000
    C28      C        0.21074    0.79650    0.05360    1.000
    H20      H        0.19110    0.84380    0.02630    1.000
    C29      C        0.24668    0.74300    0.03296    1.000
    C30      C        0.27608    0.67730    0.07654    1.000
    H21      H        0.30150    0.64260    0.06490    1.000
    C31      C        0.26868    0.66210    0.13678    1.000
    H22      H        0.28880    0.61640    0.16470    1.000
    Co1      Co       0.21807    0.68328    0.33777    1.000
    N1       N        0.17036    0.55280    0.31125    1.000
    N2       N        0.11154    0.45772    0.25753    1.000
    N3       N        0.14329    0.38600    0.29150    1.000
    N4       N        0.83452    0.77090    0.12997    1.000
    N5       N        0.87632    0.90330    0.10716    1.000
    N6       N        0.88690    0.81970    0.07256    1.000
    N7       N        0.77212    0.69830    0.86134    1.000
    N8       N        0.83688    0.60380    0.85308    1.000
    N9       N        0.82701    0.58820    0.91089    1.000
    N10      N        0.94472    0.31760    0.08662    1.000
    O1       O        0.24990    0.63271    0.25978    1.000
    O2       O        0.19471    0.75593    0.24154    1.000
    C32      C        0.82263    0.44810    0.17745    1.000
    H23      H        0.79550    0.42170    0.14950    1.000
    C33      C        0.87136    0.55580    0.23033    1.000
    H24      H        0.88650    0.61760    0.24840    1.000
    C34      C        0.15485    0.87270    0.35953    1.000
    H25      H        0.16740    0.91660    0.33270    1.000
    C35      C        0.13924    0.74260    0.41148    1.000
    H26      H        0.13950    0.67380    0.42770    1.000
    C36      C        0.19716    0.66970    0.67410    1.000
    H27      H        0.19980    0.69500    0.71520    1.000
    C37      C        0.21212    0.64330    0.58618    1.000
    H28      H        0.22640    0.64290    0.55160    1.000
    C38      C        0.93108    0.42300    0.28584    1.000
    C39      C        0.96788    0.49350    0.30844    1.000
    H29      H        0.96520    0.56400    0.29480    1.000
    C40      C        0.00849    0.46010    0.35113    1.000
    H30      H        0.03280    0.50860    0.36690    1.000
    C41      C        0.01354    0.35380    0.37111    1.000
    C42      C        0.97608    0.28410    0.34825    1.000
    H31      H        0.97870    0.21330    0.36140    1.000
    C43      C        0.93478    0.31820    0.30607    1.000
    H32      H        0.90970    0.27080    0.29150    1.000
    C44      C        0.10510    0.00780    0.39765    1.000
    C45      C        0.09297    0.07080    0.34431    1.000
    H33      H        0.09580    0.04470    0.30500    1.000
    C46      C        0.07650    0.17340    0.34956    1.000
    H34      H        0.06840    0.21660    0.31370    1.000
    C47      C        0.07216    0.21160    0.40753    1.000
    C48      C        0.08467    0.14800    0.46103    1.000
    H35      H        0.08160    0.17390    0.50020    1.000
    C49      C        0.10166    0.04610    0.45632    1.000
    H36      H        0.11070    0.00360    0.49240    1.000
    C50      C        0.08502    0.38720    0.45716    1.000
    C51      C        0.13299    0.39600    0.45860    1.000
    H37      H        0.14600    0.35680    0.43010    1.000
    C52      C        0.16230    0.46260    0.50187    1.000
    H38      H        0.19480    0.46790    0.50260    1.000
    C53      C        0.14298    0.52040    0.54352    1.000
    C54      C        0.09532    0.51300    0.54260    1.000
    H39      H        0.08250    0.55280    0.57110    1.000
    C55      C        0.06626    0.44700    0.49980    1.000
    H40      H        0.03380    0.44230    0.49930    1.000
    C56      C        0.77522    0.69870    0.27775    1.000
    C57      C        0.76776    0.71320    0.34368    1.000
    C58      C        0.79647    0.78080    0.38572    1.000
    H41      H        0.82120    0.81670    0.37330    1.000
    C59      C        0.78926    0.79650    0.44640    1.000
    H42      H        0.80890    0.84380    0.47370    1.000
    C60      C        0.75332    0.74300    0.46704    1.000
    C61      C        0.72392    0.67730    0.42346    1.000
    H43      H        0.69850    0.64260    0.43510    1.000
    C62      C        0.73132    0.66210    0.36322    1.000
    H44      H        0.71120    0.61640    0.33530    1.000
    Co2      Co       0.78193    0.68328    0.16223    1.000
    N11      N        0.82964    0.55280    0.18875    1.000
    N12      N        0.88846    0.45772    0.24247    1.000
    N13      N        0.85671    0.38600    0.20850    1.000
    N14      N        0.16548    0.77090    0.37003    1.000
    N15      N        0.12368    0.90330    0.39284    1.000
    N16      N        0.11310    0.81970    0.42744    1.000
    N17      N        0.22788    0.69830    0.63866    1.000
    N18      N        0.16312    0.60380    0.64692    1.000
    N19      N        0.17299    0.58820    0.58911    1.000
    N20      N        0.05528    0.31760    0.41338    1.000
    O3       O        0.75010    0.63271    0.24022    1.000
    O4       O        0.80529    0.75593    0.25846    1.000
    C63      C        0.32263    0.05190    0.67745    1.000
    H45      H        0.29550    0.07830    0.64950    1.000
    C64      C        0.37136    0.94420    0.73033    1.000
    H46      H        0.38650    0.88240    0.74840    1.000
    C65      C        0.65485    0.62730    0.85953    1.000
    H47      H        0.66740    0.58340    0.83270    1.000
    C66      C        0.63924    0.75740    0.91148    1.000
    H48      H        0.63950    0.82620    0.92770    1.000
    C67      C        0.69716    0.83030    0.17410    1.000
    H49      H        0.69980    0.80500    0.21520    1.000
    C68      C        0.71212    0.85670    0.08618    1.000
    H50      H        0.72640    0.85710    0.05160    1.000
    C69      C        0.43108    0.07700    0.78584    1.000
    C70      C        0.46788    0.00650    0.80844    1.000
    H51      H        0.46520    0.93600    0.79480    1.000
    C71      C        0.50849    0.03990    0.85113    1.000
    H52      H        0.53280    0.99140    0.86690    1.000
    C72      C        0.51354    0.14620    0.87111    1.000
    C73      C        0.47608    0.21590    0.84825    1.000
    H53      H        0.47870    0.28670    0.86140    1.000
    C74      C        0.43478    0.18180    0.80607    1.000
    H54      H        0.40970    0.22920    0.79150    1.000
    C75      C        0.60510    0.49220    0.89765    1.000
    C76      C        0.59297    0.42920    0.84431    1.000
    H55      H        0.59580    0.45530    0.80500    1.000
    C77      C        0.57650    0.32660    0.84956    1.000
    H56      H        0.56840    0.28340    0.81370    1.000
    C78      C        0.57216    0.28840    0.90753    1.000
    C79      C        0.58467    0.35200    0.96103    1.000
    H57      H        0.58160    0.32610    0.00020    1.000
    C80      C        0.60166    0.45390    0.95632    1.000
    H58      H        0.61070    0.49640    0.99240    1.000
    C81      C        0.58502    0.11280    0.95716    1.000
    C82      C        0.63299    0.10400    0.95860    1.000
    H59      H        0.64600    0.14320    0.93010    1.000
    C83      C        0.66230    0.03740    0.00187    1.000
    H60      H        0.69480    0.03210    0.00260    1.000
    C84      C        0.64298    0.97960    0.04352    1.000
    C85      C        0.59532    0.98700    0.04260    1.000
    H61      H        0.58250    0.94720    0.07110    1.000
    C86      C        0.56626    0.05300    0.99980    1.000
    H62      H        0.53380    0.05770    0.99930    1.000
    C87      C        0.27522    0.80130    0.77775    1.000
    C88      C        0.26776    0.78680    0.84368    1.000
    C89      C        0.29647    0.71920    0.88572    1.000
    H63      H        0.32120    0.68330    0.87330    1.000
    C90      C        0.28926    0.70350    0.94640    1.000
    H64      H        0.30890    0.65620    0.97370    1.000
    C91      C        0.25332    0.75700    0.96704    1.000
    C92      C        0.22392    0.82270    0.92346    1.000
    H65      H        0.19850    0.85740    0.93510    1.000
    C93      C        0.23132    0.83790    0.86322    1.000
    H66      H        0.21120    0.88360    0.83530    1.000
    Co3      Co       0.28193    0.81672    0.66223    1.000
    N21      N        0.32964    0.94720    0.68875    1.000
    N22      N        0.38846    0.04228    0.74247    1.000
    N23      N        0.35671    0.11400    0.70850    1.000
    N24      N        0.66548    0.72910    0.87003    1.000
    N25      N        0.62368    0.59670    0.89284    1.000
    N26      N        0.61310    0.68030    0.92744    1.000
    N27      N        0.72788    0.80170    0.13866    1.000
    N28      N        0.66312    0.89620    0.14692    1.000
    N29      N        0.67299    0.91180    0.08911    1.000
    N30      N        0.55528    0.18240    0.91338    1.000
    O5       O        0.25010    0.86729    0.74022    1.000
    O6       O        0.30529    0.74407    0.75846    1.000
    C94      C        0.67737    0.05190    0.82255    1.000
    H67      H        0.70450    0.07830    0.85050    1.000
    C95      C        0.62864    0.94420    0.76967    1.000
    H68      H        0.61350    0.88240    0.75160    1.000
    C96      C        0.34515    0.62730    0.64047    1.000
    H69      H        0.33260    0.58340    0.66730    1.000
    C97      C        0.36076    0.75740    0.58852    1.000
    H70      H        0.36050    0.82620    0.57230    1.000
    C98      C        0.30284    0.83030    0.32590    1.000
    H71      H        0.30020    0.80500    0.28480    1.000
    C99      C        0.28788    0.85670    0.41382    1.000
    H72      H        0.27360    0.85710    0.44840    1.000
    C100     C        0.56892    0.07700    0.71416    1.000
    C101     C        0.53212    0.00650    0.69156    1.000
    H73      H        0.53480    0.93600    0.70520    1.000
    C102     C        0.49151    0.03990    0.64887    1.000
    H74      H        0.46720    0.99140    0.63310    1.000
    C103     C        0.48646    0.14620    0.62889    1.000
    C104     C        0.52392    0.21590    0.65175    1.000
    H75      H        0.52130    0.28670    0.63860    1.000
    C105     C        0.56522    0.18180    0.69393    1.000
    H76      H        0.59030    0.22920    0.70850    1.000
    C106     C        0.39490    0.49220    0.60235    1.000
    C107     C        0.40703    0.42920    0.65569    1.000
    H77      H        0.40420    0.45530    0.69500    1.000
    C108     C        0.42350    0.32660    0.65044    1.000
    H78      H        0.43160    0.28340    0.68630    1.000
    C109     C        0.42784    0.28840    0.59247    1.000
    C110     C        0.41533    0.35200    0.53897    1.000
    H79      H        0.41840    0.32610    0.49980    1.000
    C111     C        0.39834    0.45390    0.54368    1.000
    H80      H        0.38930    0.49640    0.50760    1.000
    C112     C        0.41498    0.11280    0.54284    1.000
    C113     C        0.36701    0.10400    0.54140    1.000
    H81      H        0.35400    0.14320    0.56990    1.000
    C114     C        0.33770    0.03740    0.49813    1.000
    H82      H        0.30520    0.03210    0.49740    1.000
    C115     C        0.35702    0.97960    0.45648    1.000
    C116     C        0.40468    0.98700    0.45740    1.000
    H83      H        0.41750    0.94720    0.42890    1.000
    C117     C        0.43374    0.05300    0.50020    1.000
    H84      H        0.46620    0.05770    0.50070    1.000
    C118     C        0.72478    0.80130    0.72225    1.000
    C119     C        0.73224    0.78680    0.65632    1.000
    C120     C        0.70353    0.71920    0.61428    1.000
    H85      H        0.67880    0.68330    0.62670    1.000
    C121     C        0.71074    0.70350    0.55360    1.000
    H86      H        0.69110    0.65620    0.52630    1.000
    C122     C        0.74668    0.75700    0.53296    1.000
    C123     C        0.77608    0.82270    0.57654    1.000
    H87      H        0.80150    0.85740    0.56490    1.000
    C124     C        0.76868    0.83790    0.63678    1.000
    H88      H        0.78880    0.88360    0.66470    1.000
    Co4      Co       0.71807    0.81672    0.83777    1.000
    N31      N        0.67036    0.94720    0.81125    1.000
    N32      N        0.61154    0.04228    0.75753    1.000
    N33      N        0.64329    0.11400    0.79150    1.000
    N34      N        0.33452    0.72910    0.62997    1.000
    N35      N        0.37632    0.59670    0.60716    1.000
    N36      N        0.38690    0.68030    0.57256    1.000
    N37      N        0.27212    0.80170    0.36134    1.000
    N38      N        0.33688    0.89620    0.35308    1.000
    N39      N        0.32701    0.91180    0.41089    1.000
    N40      N        0.44472    0.18240    0.58662    1.000
    O7       O        0.74990    0.86729    0.75978    1.000
    O8       O        0.69471    0.74407    0.74154    1.000
    C125     C        0.67737    0.94810    0.32255    1.000
    H89      H        0.70450    0.92170    0.35050    1.000
    C126     C        0.62864    0.05580    0.26967    1.000
    H90      H        0.61350    0.11760    0.25160    1.000
    C127     C        0.34515    0.37270    0.14047    1.000
    H91      H        0.33260    0.41660    0.16730    1.000
    C128     C        0.36076    0.24260    0.08852    1.000
    H92      H        0.36050    0.17380    0.07230    1.000
    C129     C        0.30284    0.16970    0.82590    1.000
    H93      H        0.30020    0.19500    0.78480    1.000
    C130     C        0.28788    0.14330    0.91382    1.000
    H94      H        0.27360    0.14290    0.94840    1.000
    C131     C        0.56892    0.92300    0.21416    1.000
    C132     C        0.53212    0.99350    0.19156    1.000
    H95      H        0.53480    0.06400    0.20520    1.000
    C133     C        0.49151    0.96010    0.14887    1.000
    H96      H        0.46720    0.00860    0.13310    1.000
    C134     C        0.48646    0.85380    0.12889    1.000
    C135     C        0.52392    0.78410    0.15175    1.000
    H97      H        0.52130    0.71330    0.13860    1.000
    C136     C        0.56522    0.81820    0.19393    1.000
    H98      H        0.59030    0.77080    0.20850    1.000
    C137     C        0.39490    0.50780    0.10235    1.000
    C138     C        0.40703    0.57080    0.15569    1.000
    H99      H        0.40420    0.54470    0.19500    1.000
    C139     C        0.42350    0.67340    0.15044    1.000
    H100     H        0.43160    0.71660    0.18630    1.000
    C140     C        0.42784    0.71160    0.09247    1.000
    C141     C        0.41533    0.64800    0.03897    1.000
    H101     H        0.41840    0.67390    0.99980    1.000
    C142     C        0.39834    0.54610    0.04368    1.000
    H102     H        0.38930    0.50360    0.00760    1.000
    C143     C        0.41498    0.88720    0.04284    1.000
    C144     C        0.36701    0.89600    0.04140    1.000
    H103     H        0.35400    0.85680    0.06990    1.000
    C145     C        0.33770    0.96260    0.99813    1.000
    H104     H        0.30520    0.96790    0.99740    1.000
    C146     C        0.35702    0.02040    0.95648    1.000
    C147     C        0.40468    0.01300    0.95740    1.000
    H105     H        0.41750    0.05280    0.92890    1.000
    C148     C        0.43374    0.94700    0.00020    1.000
    H106     H        0.46620    0.94230    0.00070    1.000
    C149     C        0.72478    0.19870    0.22225    1.000
    C150     C        0.73224    0.21320    0.15632    1.000
    C151     C        0.70353    0.28080    0.11428    1.000
    H107     H        0.67880    0.31670    0.12670    1.000
    C152     C        0.71074    0.29650    0.05360    1.000
    H108     H        0.69110    0.34380    0.02630    1.000
    C153     C        0.74668    0.24300    0.03296    1.000
    C154     C        0.77608    0.17730    0.07654    1.000
    H109     H        0.80150    0.14260    0.06490    1.000
    C155     C        0.76868    0.16210    0.13678    1.000
    H110     H        0.78880    0.11640    0.16470    1.000
    Co5      Co       0.71807    0.18328    0.33777    1.000
    N41      N        0.67036    0.05280    0.31125    1.000
    N42      N        0.61154    0.95772    0.25753    1.000
    N43      N        0.64329    0.88600    0.29150    1.000
    N44      N        0.33452    0.27090    0.12997    1.000
    N45      N        0.37632    0.40330    0.10716    1.000
    N46      N        0.38690    0.31970    0.07256    1.000
    N47      N        0.27212    0.19830    0.86134    1.000
    N48      N        0.33688    0.10380    0.85308    1.000
    N49      N        0.32701    0.08820    0.91089    1.000
    N50      N        0.44472    0.81760    0.08662    1.000
    O9       O        0.74990    0.13271    0.25978    1.000
    O10      O        0.69471    0.25593    0.24154    1.000
    C156     C        0.32263    0.94810    0.17745    1.000
    H111     H        0.29550    0.92170    0.14950    1.000
    C157     C        0.37136    0.05580    0.23033    1.000
    H112     H        0.38650    0.11760    0.24840    1.000
    C158     C        0.65485    0.37270    0.35953    1.000
    H113     H        0.66740    0.41660    0.33270    1.000
    C159     C        0.63924    0.24260    0.41148    1.000
    H114     H        0.63950    0.17380    0.42770    1.000
    C160     C        0.69716    0.16970    0.67410    1.000
    H115     H        0.69980    0.19500    0.71520    1.000
    C161     C        0.71212    0.14330    0.58618    1.000
    H116     H        0.72640    0.14290    0.55160    1.000
    C162     C        0.43108    0.92300    0.28584    1.000
    C163     C        0.46788    0.99350    0.30844    1.000
    H117     H        0.46520    0.06400    0.29480    1.000
    C164     C        0.50849    0.96010    0.35113    1.000
    H118     H        0.53280    0.00860    0.36690    1.000
    C165     C        0.51354    0.85380    0.37111    1.000
    C166     C        0.47608    0.78410    0.34825    1.000
    H119     H        0.47870    0.71330    0.36140    1.000
    C167     C        0.43478    0.81820    0.30607    1.000
    H120     H        0.40970    0.77080    0.29150    1.000
    C168     C        0.60510    0.50780    0.39765    1.000
    C169     C        0.59297    0.57080    0.34431    1.000
    H121     H        0.59580    0.54470    0.30500    1.000
    C170     C        0.57650    0.67340    0.34956    1.000
    H122     H        0.56840    0.71660    0.31370    1.000
    C171     C        0.57216    0.71160    0.40753    1.000
    C172     C        0.58467    0.64800    0.46103    1.000
    H123     H        0.58160    0.67390    0.50020    1.000
    C173     C        0.60166    0.54610    0.45632    1.000
    H124     H        0.61070    0.50360    0.49240    1.000
    C174     C        0.58502    0.88720    0.45716    1.000
    C175     C        0.63299    0.89600    0.45860    1.000
    H125     H        0.64600    0.85680    0.43010    1.000
    C176     C        0.66230    0.96260    0.50187    1.000
    H126     H        0.69480    0.96790    0.50260    1.000
    C177     C        0.64298    0.02040    0.54352    1.000
    C178     C        0.59532    0.01300    0.54260    1.000
    H127     H        0.58250    0.05280    0.57110    1.000
    C179     C        0.56626    0.94700    0.49980    1.000
    H128     H        0.53380    0.94230    0.49930    1.000
    C180     C        0.27522    0.19870    0.27775    1.000
    C181     C        0.26776    0.21320    0.34368    1.000
    C182     C        0.29647    0.28080    0.38572    1.000
    H129     H        0.32120    0.31670    0.37330    1.000
    C183     C        0.28926    0.29650    0.44640    1.000
    H130     H        0.30890    0.34380    0.47370    1.000
    C184     C        0.25332    0.24300    0.46704    1.000
    C185     C        0.22392    0.17730    0.42346    1.000
    H131     H        0.19850    0.14260    0.43510    1.000
    C186     C        0.23132    0.16210    0.36322    1.000
    H132     H        0.21120    0.11640    0.33530    1.000
    Co6      Co       0.28193    0.18328    0.16223    1.000
    N51      N        0.32964    0.05280    0.18875    1.000
    N52      N        0.38846    0.95772    0.24247    1.000
    N53      N        0.35671    0.88600    0.20850    1.000
    N54      N        0.66548    0.27090    0.37003    1.000
    N55      N        0.62368    0.40330    0.39284    1.000
    N56      N        0.61310    0.31970    0.42744    1.000
    N57      N        0.72788    0.19830    0.63866    1.000
    N58      N        0.66312    0.10380    0.64692    1.000
    N59      N        0.67299    0.08820    0.58911    1.000
    N60      N        0.55528    0.81760    0.41338    1.000
    O11      O        0.25010    0.13271    0.24022    1.000
    O12      O        0.30529    0.25593    0.25846    1.000
    C187     C        0.82263    0.55190    0.67745    1.000
    H133     H        0.79550    0.57830    0.64950    1.000
    C188     C        0.87136    0.44420    0.73033    1.000
    H134     H        0.88650    0.38240    0.74840    1.000
    C189     C        0.15485    0.12730    0.85953    1.000
    H135     H        0.16740    0.08340    0.83270    1.000
    C190     C        0.13924    0.25740    0.91148    1.000
    H136     H        0.13950    0.32620    0.92770    1.000
    C191     C        0.19716    0.33030    0.17410    1.000
    H137     H        0.19980    0.30500    0.21520    1.000
    C192     C        0.21212    0.35670    0.08618    1.000
    H138     H        0.22640    0.35710    0.05160    1.000
    C193     C        0.93108    0.57700    0.78584    1.000
    C194     C        0.96788    0.50650    0.80844    1.000
    H139     H        0.96520    0.43600    0.79480    1.000
    C195     C        0.00849    0.53990    0.85113    1.000
    H140     H        0.03280    0.49140    0.86690    1.000
    C196     C        0.01354    0.64620    0.87111    1.000
    C197     C        0.97608    0.71590    0.84825    1.000
    H141     H        0.97870    0.78670    0.86140    1.000
    C198     C        0.93478    0.68180    0.80607    1.000
    H142     H        0.90970    0.72920    0.79150    1.000
    C199     C        0.10510    0.99220    0.89765    1.000
    C200     C        0.09297    0.92920    0.84431    1.000
    H143     H        0.09580    0.95530    0.80500    1.000
    C201     C        0.07650    0.82660    0.84956    1.000
    H144     H        0.06840    0.78340    0.81370    1.000
    C202     C        0.07216    0.78840    0.90753    1.000
    C203     C        0.08467    0.85200    0.96103    1.000
    H145     H        0.08160    0.82610    0.00020    1.000
    C204     C        0.10166    0.95390    0.95632    1.000
    H146     H        0.11070    0.99640    0.99240    1.000
    C205     C        0.08502    0.61280    0.95716    1.000
    C206     C        0.13299    0.60400    0.95860    1.000
    H147     H        0.14600    0.64320    0.93010    1.000
    C207     C        0.16230    0.53740    0.00187    1.000
    H148     H        0.19480    0.53210    0.00260    1.000
    C208     C        0.14298    0.47960    0.04352    1.000
    C209     C        0.09532    0.48700    0.04260    1.000
    H149     H        0.08250    0.44720    0.07110    1.000
    C210     C        0.06626    0.55300    0.99980    1.000
    H150     H        0.03380    0.55770    0.99930    1.000
    C211     C        0.77522    0.30130    0.77775    1.000
    C212     C        0.76776    0.28680    0.84368    1.000
    C213     C        0.79647    0.21920    0.88572    1.000
    H151     H        0.82120    0.18330    0.87330    1.000
    C214     C        0.78926    0.20350    0.94640    1.000
    H152     H        0.80890    0.15620    0.97370    1.000
    C215     C        0.75332    0.25700    0.96704    1.000
    C216     C        0.72392    0.32270    0.92346    1.000
    H153     H        0.69850    0.35740    0.93510    1.000
    C217     C        0.73132    0.33790    0.86322    1.000
    H154     H        0.71120    0.38360    0.83530    1.000
    Co7      Co       0.78193    0.31672    0.66223    1.000
    N61      N        0.82964    0.44720    0.68875    1.000
    N62      N        0.88846    0.54228    0.74247    1.000
    N63      N        0.85671    0.61400    0.70850    1.000
    N64      N        0.16548    0.22910    0.87003    1.000
    N65      N        0.12368    0.09670    0.89284    1.000
    N66      N        0.11310    0.18030    0.92744    1.000
    N67      N        0.22788    0.30170    0.13866    1.000
    N68      N        0.16312    0.39620    0.14692    1.000
    N69      N        0.17299    0.41180    0.08911    1.000
    N70      N        0.05528    0.68240    0.91338    1.000
    O13      O        0.75010    0.36729    0.74022    1.000
    O14      O        0.80529    0.24407    0.75846    1.000
    C218     C        0.17737    0.55190    0.82255    1.000
    H155     H        0.20450    0.57830    0.85050    1.000
    C219     C        0.12864    0.44420    0.76967    1.000
    H156     H        0.11350    0.38240    0.75160    1.000
    C220     C        0.84515    0.12730    0.64047    1.000
    H157     H        0.83260    0.08340    0.66730    1.000
    C221     C        0.86076    0.25740    0.58852    1.000
    H158     H        0.86050    0.32620    0.57230    1.000
    C222     C        0.80284    0.33030    0.32590    1.000
    H159     H        0.80020    0.30500    0.28480    1.000
    C223     C        0.78788    0.35670    0.41382    1.000
    H160     H        0.77360    0.35710    0.44840    1.000
    C224     C        0.06892    0.57700    0.71416    1.000
    C225     C        0.03212    0.50650    0.69156    1.000
    H161     H        0.03480    0.43600    0.70520    1.000
    C226     C        0.99151    0.53990    0.64887    1.000
    H162     H        0.96720    0.49140    0.63310    1.000
    C227     C        0.98646    0.64620    0.62889    1.000
    C228     C        0.02392    0.71590    0.65175    1.000
    H163     H        0.02130    0.78670    0.63860    1.000
    C229     C        0.06522    0.68180    0.69393    1.000
    H164     H        0.09030    0.72920    0.70850    1.000
    C230     C        0.89490    0.99220    0.60235    1.000
    C231     C        0.90703    0.92920    0.65569    1.000
    H165     H        0.90420    0.95530    0.69500    1.000
    C232     C        0.92350    0.82660    0.65044    1.000
    H166     H        0.93160    0.78340    0.68630    1.000
    C233     C        0.92784    0.78840    0.59247    1.000
    C234     C        0.91533    0.85200    0.53897    1.000
    H167     H        0.91840    0.82610    0.49980    1.000
    C235     C        0.89834    0.95390    0.54368    1.000
    H168     H        0.88930    0.99640    0.50760    1.000
    C236     C        0.91498    0.61280    0.54284    1.000
    C237     C        0.86701    0.60400    0.54140    1.000
    H169     H        0.85400    0.64320    0.56990    1.000
    C238     C        0.83770    0.53740    0.49813    1.000
    H170     H        0.80520    0.53210    0.49740    1.000
    C239     C        0.85702    0.47960    0.45648    1.000
    C240     C        0.90468    0.48700    0.45740    1.000
    H171     H        0.91750    0.44720    0.42890    1.000
    C241     C        0.93374    0.55300    0.50020    1.000
    H172     H        0.96620    0.55770    0.50070    1.000
    C242     C        0.22478    0.30130    0.72225    1.000
    C243     C        0.23224    0.28680    0.65632    1.000
    C244     C        0.20353    0.21920    0.61428    1.000
    H173     H        0.17880    0.18330    0.62670    1.000
    C245     C        0.21074    0.20350    0.55360    1.000
    H174     H        0.19110    0.15620    0.52630    1.000
    C246     C        0.24668    0.25700    0.53296    1.000
    C247     C        0.27608    0.32270    0.57654    1.000
    H175     H        0.30150    0.35740    0.56490    1.000
    C248     C        0.26868    0.33790    0.63678    1.000
    H176     H        0.28880    0.38360    0.66470    1.000
    Co8      Co       0.21807    0.31672    0.83777    1.000
    N71      N        0.17036    0.44720    0.81125    1.000
    N72      N        0.11154    0.54228    0.75753    1.000
    N73      N        0.14329    0.61400    0.79150    1.000
    N74      N        0.83452    0.22910    0.62997    1.000
    N75      N        0.87632    0.09670    0.60716    1.000
    N76      N        0.88690    0.18030    0.57256    1.000
    N77      N        0.77212    0.30170    0.36134    1.000
    N78      N        0.83688    0.39620    0.35308    1.000
    N79      N        0.82701    0.41180    0.41089    1.000
    N80      N        0.94472    0.68240    0.58662    1.000
    O15      O        0.24990    0.36729    0.75978    1.000
    O16      O        0.19471    0.24407    0.74154    1.000
