data_functionalizedCrystal
_audit_creation_method	'EQeq! by Chris Wilmer'
_symmetry_space_group_name_H-M	'P1'
_symmetry_Int_Tables_number	1
_symmetry_cell_setting	triclinic
loop_
_symmetry_equiv_pos_as_xyz
  x,y,z
_cell_length_a	9.7763
_cell_length_b	11.1487
_cell_length_c	14.3643
_cell_angle_alpha	91.3883
_cell_angle_beta	90
_cell_angle_gamma	90
loop_
_atom_site_label
_atom_site_type_symbol
_atom_site_fract_x
_atom_site_fract_y
_atom_site_fract_z
_atom_site_charge
Mof_Ni	Ni	0.92361	0.24442	0.36491	1.183
Mof_Ni	Ni	0.61731	0.24096	0.30774	1.141
Mof_Ni	Ni	0.42361	0.25558	0.13509	1.134
Mof_Ni	Ni	0.11731	0.25904	0.19226	1.127
Mof_Ni	Ni	0.07639	0.75558	0.63509	1.093
Mof_Ni	Ni	0.38269	0.75904	0.69226	1.149
Mof_Ni	Ni	0.57639	0.74442	0.86491	1.141
Mof_Ni	Ni	0.88269	0.74096	0.80774	1.163
Mof_Ni	Ni	-8.19027e-33	0.5	0.5	1.107
Mof_Ni	Ni	0.5	0	-0	1.083
Mof_Ni	Ni	-1.26004e-34	0	0.5	1.081
Mof_Ni	Ni	0.5	0.5	-0	1.11
Mof_H 	H 	0.7071	0.0099	0.486	-0.109
Mof_H 	H 	0.6221	0.444	0.4518	-0.101
Mof_H 	H 	0.1941	0.0173	0.2708	-0.113
Mof_H 	H 	0.7644	0.1455	0.129	-0.133
Mof_H 	H 	0.1568	0.3032	0.5715	-0.122
Mof_H 	H 	0.0532	0.5225	0.2386	-0.141
Mof_H 	H 	0.2071	0.4901	0.014	-0.15
Mof_H 	H 	0.1221	0.056	0.0482	-0.185
Mof_H 	H 	0.6941	0.4827	0.2292	-0.112
Mof_H 	H 	0.2644	0.3545	0.371	-0.108
Mof_H 	H 	0.6568	0.1968	0.9285	-0.143
Mof_H 	H 	0.5532	0.9775	0.2614	0.02
Mof_H 	H 	0.2929	0.9901	0.514	-0.072
Mof_H 	H 	0.3779	0.556	0.5482	-0.102
Mof_H 	H 	0.8059	0.9827	0.7292	-0.123
Mof_H 	H 	0.2356	0.8545	0.871	-0.08
Mof_H 	H 	0.8432	0.6968	0.4285	-0.069
Mof_H 	H 	0.9468	0.4775	0.7614	-0.077
Mof_H 	H 	0.7929	0.5099	0.986	-0.034
Mof_H 	H 	0.8779	0.944	0.9518	-0.02
Mof_H 	H 	0.3059	0.5173	0.7708	-0.129
Mof_H 	H 	0.7356	0.6455	0.629	-0.106
Mof_H 	H 	0.3432	0.8032	0.0715	-0.048
Mof_H 	H 	0.4468	0.0225	0.7386	-0.227
Mof_C 	C 	0.725	0.0717	0.4454	0.479
Mof_C 	C 	0.7149	0.427	0.4462	0.503
Mof_C 	C 	0.133	0.04525	0.31605	0.405
Mof_C 	C 	0.8345	0.17281	0.16781	0.486
Mof_C 	C 	0.1021	0.25764	0.53124	0.51
Mof_C 	C 	0.0254	0.48155	0.29095	0.541
Mof_C 	C 	0.225	0.4283	0.0546	0.51
Mof_C 	C 	0.2149	0.073	0.0538	0.537
Mof_C 	C 	0.633	0.45475	0.18395	0.52
Mof_C 	C 	0.3345	0.32719	0.33219	0.487
Mof_C 	C 	0.6021	0.24236	0.96876	0.678
Mof_C 	C 	0.5254	0.01845	0.20905	0.263
Mof_C 	C 	0.275	0.9283	0.5546	0.488
Mof_C 	C 	0.2851	0.573	0.5538	0.5
Mof_C 	C 	0.867	0.95475	0.68395	0.606
Mof_C 	C 	0.1655	0.82719	0.83219	0.491
Mof_C 	C 	0.8979	0.74236	0.46876	0.472
Mof_C 	C 	0.9746	0.51845	0.70905	0.494
Mof_C 	C 	0.775	0.5717	0.9454	0.46
Mof_C 	C 	0.7851	0.927	0.9462	0.464
Mof_C 	C 	0.367	0.54525	0.81605	0.512
Mof_C 	C 	0.6655	0.67281	0.66781	0.491
Mof_C 	C 	0.3979	0.75764	0.03124	0.315
Mof_C 	C 	0.4746	0.98155	0.79095	0.746
Mof_O 	O 	0.8496	0.1029	0.43749	-0.503
Mof_O 	O 	0.62541	0.11439	0.40502	-0.436
Mof_O 	O 	0.80524	0.19005	0.25337	-0.529
Mof_O 	O 	0.74821	0.34635	0.38677	-0.524
Mof_O 	O 	0.08594	0.14973	0.30562	-0.567
Mof_O 	O 	0.01096	0.3693	0.28153	-0.61
Mof_O 	O 	0.02507	0.31521	0.47593	-0.591
Mof_O 	O 	0.94766	0.18895	0.13125	-0.379
Mof_O 	O 	0.0063	0.54204	0.36224	-0.485
Mof_O 	O 	0.79311	0.48532	0.49742	-0.393
Mof_O 	O 	0.1072	0.97662	0.379	-0.375
Mof_O 	O 	0.11095	0.1479	0.53654	-0.476
Mof_O 	O 	0.3496	0.3971	0.06251	-0.569
Mof_O 	O 	0.12541	0.38561	0.09498	-0.48
Mof_O 	O 	0.30524	0.30995	0.24663	-0.544
Mof_O 	O 	0.24821	0.15365	0.11323	-0.577
Mof_O 	O 	0.58594	0.35027	0.19438	-0.558
Mof_O 	O 	0.51096	0.1307	0.21847	-0.497
Mof_O 	O 	0.52507	0.18479	0.02407	-0.655
Mof_O 	O 	0.44766	0.31105	0.36875	-0.422
Mof_O 	O 	0.5063	0.95796	0.13776	-0.323
Mof_O 	O 	0.29311	0.01468	0.00258	-0.518
Mof_O 	O 	0.6072	0.52338	0.121	-0.452
Mof_O 	O 	0.61095	0.3521	0.96346	-0.426
Mof_O 	O 	0.1504	0.8971	0.56251	-0.545
Mof_O 	O 	0.37459	0.88561	0.59498	-0.406
Mof_O 	O 	0.19476	0.80995	0.74663	-0.556
Mof_O 	O 	0.25179	0.65365	0.61323	-0.562
Mof_O 	O 	0.91406	0.85027	0.69438	-0.527
Mof_O 	O 	0.98904	0.6307	0.71847	-0.497
Mof_O 	O 	0.97493	0.68479	0.52407	-0.463
Mof_O 	O 	0.05234	0.81105	0.86875	-0.456
Mof_O 	O 	0.9937	0.45796	0.63776	-0.36
Mof_O 	O 	0.20689	0.51468	0.50258	-0.438
Mof_O 	O 	0.8928	0.02338	0.621	-0.448
Mof_O 	O 	0.88905	0.8521	0.46346	-0.358
Mof_O 	O 	0.6504	0.6029	0.93749	-0.491
Mof_O 	O 	0.87459	0.61439	0.90502	-0.362
Mof_O 	O 	0.69476	0.69005	0.75337	-0.543
Mof_O 	O 	0.75179	0.84635	0.88677	-0.509
Mof_O 	O 	0.41406	0.64973	0.80562	-0.54
Mof_O 	O 	0.48904	0.8693	0.78153	-0.602
Mof_O 	O 	0.47493	0.81521	0.97593	-0.398
Mof_O 	O 	0.55234	0.68895	0.63125	-0.415
Mof_O 	O 	0.4937	0.04204	0.86224	-0.501
Mof_O 	O 	0.70689	0.98532	0.99742	-0.311
Mof_O 	O 	0.3928	0.47662	0.879	-0.394
Mof_O 	O 	0.38905	0.6479	0.03654	-0.415
_end
