data_functionalizedCrystal
_audit_creation_method	'EQeq! by Chris Wilmer'
_symmetry_space_group_name_H-M	'P1'
_symmetry_Int_Tables_number	1
_symmetry_cell_setting	triclinic
loop_
_symmetry_equiv_pos_as_xyz
  x,y,z
_cell_length_a	17.12
_cell_length_b	17.12
_cell_length_c	17.12
_cell_angle_alpha	90
_cell_angle_beta	90
_cell_angle_gamma	90
loop_
_atom_site_label
_atom_site_type_symbol
_atom_site_fract_x
_atom_site_fract_y
_atom_site_fract_z
_atom_site_charge
Mof_N 	N 	0.0321	0.6819	0.411	-0.401
Mof_C 	C 	0.1044	0.6755	0.3792	-0.026
Mof_H 	H 	0.1485	0.7058	0.394	-0.007
Mof_H 	H 	0.8971	0.6199	0.4462	0.215
Mof_N 	N 	0.5321	0.1819	0.911	-0.29
Mof_C 	C 	0.6044	0.1755	0.8792	-0.008
Mof_H 	H 	0.6485	0.2058	0.894	0.006
Mof_H 	H 	0.3971	0.1199	0.9462	0.167
Mof_N 	N 	0.9679	0.3181	0.411	-0.215
Mof_C 	C 	0.8956	0.3245	0.3792	-0.009
Mof_H 	H 	0.8515	0.2942	0.394	-0.007
Mof_H 	H 	0.1029	0.3801	0.4462	0.089
Mof_N 	N 	0.4679	0.8181	0.911	-0.296
Mof_C 	C 	0.3956	0.8245	0.8792	-0.003
Mof_H 	H 	0.3515	0.7942	0.894	0.01
Mof_H 	H 	0.6029	0.8801	0.9462	0.235
Mof_N 	N 	0.9679	0.6819	0.589	-0.214
Mof_C 	C 	0.8956	0.6755	0.6208	-0.004
Mof_H 	H 	0.8515	0.7058	0.606	-0.006
Mof_H 	H 	0.1029	0.6199	0.5538	0.09
Mof_N 	N 	0.4679	0.1819	0.089	-0.322
Mof_C 	C 	0.3956	0.1755	0.1208	-0.031
Mof_H 	H 	0.3515	0.2058	0.106	-0.028
Mof_H 	H 	0.6029	0.1199	0.0538	0.08
Mof_N 	N 	0.0321	0.3181	0.589	-0.402
Mof_C 	C 	0.1044	0.3245	0.6208	-0.026
Mof_H 	H 	0.1485	0.2942	0.606	-0.006
Mof_H 	H 	0.8971	0.3801	0.5538	0.215
Mof_N 	N 	0.5321	0.8181	0.089	-0.326
Mof_C 	C 	0.6044	0.8245	0.1208	-0.023
Mof_H 	H 	0.6485	0.7942	0.106	-0.013
Mof_H 	H 	0.3971	0.8801	0.0538	0.13
Mof_N 	N 	0.411	0.0321	0.6819	-0.401
Mof_C 	C 	0.3792	0.1044	0.6755	-0.026
Mof_H 	H 	0.394	0.1485	0.7058	-0.007
Mof_H 	H 	0.4462	0.8971	0.6199	0.215
Mof_N 	N 	0.911	0.5321	0.1819	-0.29
Mof_C 	C 	0.8792	0.6044	0.1755	-0.008
Mof_H 	H 	0.894	0.6485	0.2058	0.006
Mof_H 	H 	0.9462	0.3971	0.1199	0.167
Mof_N 	N 	0.411	0.9679	0.3181	-0.215
Mof_C 	C 	0.3792	0.8956	0.3245	-0.009
Mof_H 	H 	0.394	0.8515	0.2942	-0.007
Mof_H 	H 	0.4462	0.1029	0.3801	0.089
Mof_N 	N 	0.911	0.4679	0.8181	-0.296
Mof_C 	C 	0.8792	0.3956	0.8245	-0.003
Mof_H 	H 	0.894	0.3515	0.7942	0.01
Mof_H 	H 	0.9462	0.6029	0.8801	0.235
Mof_N 	N 	0.589	0.9679	0.6819	-0.214
Mof_C 	C 	0.6208	0.8956	0.6755	-0.004
Mof_H 	H 	0.606	0.8515	0.7058	-0.006
Mof_H 	H 	0.5538	0.1029	0.6199	0.09
Mof_N 	N 	0.089	0.4679	0.1819	-0.322
Mof_C 	C 	0.1208	0.3956	0.1755	-0.031
Mof_H 	H 	0.106	0.3515	0.2058	-0.028
Mof_H 	H 	0.0538	0.6029	0.1199	0.08
Mof_N 	N 	0.589	0.0321	0.3181	-0.402
Mof_C 	C 	0.6208	0.1044	0.3245	-0.026
Mof_H 	H 	0.606	0.1485	0.2942	-0.006
Mof_H 	H 	0.5538	0.8971	0.3801	0.215
Mof_N 	N 	0.089	0.5321	0.8181	-0.326
Mof_C 	C 	0.1208	0.6044	0.8245	-0.023
Mof_H 	H 	0.106	0.6485	0.7942	-0.013
Mof_H 	H 	0.0538	0.3971	0.8801	0.13
Mof_N 	N 	0.6819	0.411	0.0321	-0.401
Mof_C 	C 	0.6755	0.3792	0.1044	-0.026
Mof_H 	H 	0.7058	0.394	0.1485	-0.007
Mof_H 	H 	0.6199	0.4462	0.8971	0.215
Mof_N 	N 	0.1819	0.911	0.5321	-0.29
Mof_C 	C 	0.1755	0.8792	0.6044	-0.008
Mof_H 	H 	0.2058	0.894	0.6485	0.006
Mof_H 	H 	0.1199	0.9462	0.3971	0.167
Mof_N 	N 	0.3181	0.411	0.9679	-0.215
Mof_C 	C 	0.3245	0.3792	0.8956	-0.009
Mof_H 	H 	0.2942	0.394	0.8515	-0.007
Mof_H 	H 	0.3801	0.4462	0.1029	0.089
Mof_N 	N 	0.8181	0.911	0.4679	-0.296
Mof_C 	C 	0.8245	0.8792	0.3956	-0.003
Mof_H 	H 	0.7942	0.894	0.3515	0.01
Mof_H 	H 	0.8801	0.9462	0.6029	0.235
Mof_N 	N 	0.6819	0.589	0.9679	-0.214
Mof_C 	C 	0.6755	0.6208	0.8956	-0.004
Mof_H 	H 	0.7058	0.606	0.8515	-0.006
Mof_H 	H 	0.6199	0.5538	0.1029	0.09
Mof_N 	N 	0.1819	0.089	0.4679	-0.322
Mof_C 	C 	0.1755	0.1208	0.3956	-0.031
Mof_H 	H 	0.2058	0.106	0.3515	-0.028
Mof_H 	H 	0.1199	0.0538	0.6029	0.08
Mof_N 	N 	0.3181	0.589	0.0321	-0.402
Mof_C 	C 	0.3245	0.6208	0.1044	-0.026
Mof_H 	H 	0.2942	0.606	0.1485	-0.006
Mof_H 	H 	0.3801	0.5538	0.8971	0.215
Mof_N 	N 	0.8181	0.089	0.5321	-0.326
Mof_C 	C 	0.8245	0.1208	0.6044	-0.023
Mof_H 	H 	0.7942	0.106	0.6485	-0.013
Mof_H 	H 	0.8801	0.0538	0.3971	0.13
Mof_N 	N 	0.6819	0.0321	0.411	-0.401
Mof_C 	C 	0.6755	0.1044	0.3792	-0.026
Mof_H 	H 	0.7058	0.1485	0.394	-0.007
Mof_H 	H 	0.6199	0.8971	0.4462	0.215
Mof_N 	N 	0.1819	0.5321	0.911	-0.29
Mof_C 	C 	0.1755	0.6044	0.8792	-0.008
Mof_H 	H 	0.2058	0.6485	0.894	0.006
Mof_H 	H 	0.1199	0.3971	0.9462	0.167
Mof_N 	N 	0.3181	0.9679	0.411	-0.215
Mof_C 	C 	0.3245	0.8956	0.3792	-0.009
Mof_H 	H 	0.2942	0.8515	0.394	-0.007
Mof_H 	H 	0.3801	0.1029	0.4462	0.089
Mof_N 	N 	0.8181	0.4679	0.911	-0.296
Mof_C 	C 	0.8245	0.3956	0.8792	-0.003
Mof_H 	H 	0.7942	0.3515	0.894	0.01
Mof_H 	H 	0.8801	0.6029	0.9462	0.235
Mof_N 	N 	0.6819	0.9679	0.589	-0.214
Mof_C 	C 	0.6755	0.8956	0.6208	-0.004
Mof_H 	H 	0.7058	0.8515	0.606	-0.006
Mof_H 	H 	0.6199	0.1029	0.5538	0.09
Mof_N 	N 	0.1819	0.4679	0.089	-0.322
Mof_C 	C 	0.1755	0.3956	0.1208	-0.031
Mof_H 	H 	0.2058	0.3515	0.106	-0.028
Mof_H 	H 	0.1199	0.6029	0.0538	0.08
Mof_N 	N 	0.3181	0.0321	0.589	-0.402
Mof_C 	C 	0.3245	0.1044	0.6208	-0.026
Mof_H 	H 	0.2942	0.1485	0.606	-0.006
Mof_H 	H 	0.3801	0.8971	0.5538	0.215
Mof_N 	N 	0.8181	0.5321	0.089	-0.326
Mof_C 	C 	0.8245	0.6044	0.1208	-0.023
Mof_H 	H 	0.7942	0.6485	0.106	-0.013
Mof_H 	H 	0.8801	0.3971	0.0538	0.13
Mof_N 	N 	0.0321	0.411	0.6819	-0.401
Mof_C 	C 	0.1044	0.3792	0.6755	-0.026
Mof_H 	H 	0.1485	0.394	0.7058	-0.007
Mof_H 	H 	0.8971	0.4462	0.6199	0.215
Mof_N 	N 	0.5321	0.911	0.1819	-0.29
Mof_C 	C 	0.6044	0.8792	0.1755	-0.008
Mof_H 	H 	0.6485	0.894	0.2058	0.006
Mof_H 	H 	0.3971	0.9462	0.1199	0.167
Mof_N 	N 	0.9679	0.411	0.3181	-0.215
Mof_C 	C 	0.8956	0.3792	0.3245	-0.009
Mof_H 	H 	0.8515	0.394	0.2942	-0.007
Mof_H 	H 	0.1029	0.4462	0.3801	0.089
Mof_N 	N 	0.4679	0.911	0.8181	-0.296
Mof_C 	C 	0.3956	0.8792	0.8245	-0.003
Mof_H 	H 	0.3515	0.894	0.7942	0.01
Mof_H 	H 	0.6029	0.9462	0.8801	0.235
Mof_N 	N 	0.9679	0.589	0.6819	-0.214
Mof_C 	C 	0.8956	0.6208	0.6755	-0.004
Mof_H 	H 	0.8515	0.606	0.7058	-0.006
Mof_H 	H 	0.1029	0.5538	0.6199	0.09
Mof_N 	N 	0.4679	0.089	0.1819	-0.322
Mof_C 	C 	0.3956	0.1208	0.1755	-0.031
Mof_H 	H 	0.3515	0.106	0.2058	-0.028
Mof_H 	H 	0.6029	0.0538	0.1199	0.08
Mof_N 	N 	0.0321	0.589	0.3181	-0.402
Mof_C 	C 	0.1044	0.6208	0.3245	-0.026
Mof_H 	H 	0.1485	0.606	0.2942	-0.006
Mof_H 	H 	0.8971	0.5538	0.3801	0.215
Mof_N 	N 	0.5321	0.089	0.8181	-0.326
Mof_C 	C 	0.6044	0.1208	0.8245	-0.023
Mof_H 	H 	0.6485	0.106	0.7942	-0.013
Mof_H 	H 	0.3971	0.0538	0.8801	0.13
Mof_N 	N 	0.411	0.6819	0.0321	-0.401
Mof_C 	C 	0.3792	0.6755	0.1044	-0.026
Mof_H 	H 	0.394	0.7058	0.1485	-0.007
Mof_H 	H 	0.4462	0.6199	0.8971	0.215
Mof_N 	N 	0.911	0.1819	0.5321	-0.29
Mof_C 	C 	0.8792	0.1755	0.6044	-0.008
Mof_H 	H 	0.894	0.2058	0.6485	0.006
Mof_H 	H 	0.9462	0.1199	0.3971	0.167
Mof_N 	N 	0.411	0.3181	0.9679	-0.215
Mof_C 	C 	0.3792	0.3245	0.8956	-0.009
Mof_H 	H 	0.394	0.2942	0.8515	-0.007
Mof_H 	H 	0.4462	0.3801	0.1029	0.089
Mof_N 	N 	0.911	0.8181	0.4679	-0.296
Mof_C 	C 	0.8792	0.8245	0.3956	-0.003
Mof_H 	H 	0.894	0.7942	0.3515	0.01
Mof_H 	H 	0.9462	0.8801	0.6029	0.235
Mof_N 	N 	0.589	0.6819	0.9679	-0.214
Mof_C 	C 	0.6208	0.6755	0.8956	-0.004
Mof_H 	H 	0.606	0.7058	0.8515	-0.006
Mof_H 	H 	0.5538	0.6199	0.1029	0.09
Mof_N 	N 	0.089	0.1819	0.4679	-0.322
Mof_C 	C 	0.1208	0.1755	0.3956	-0.031
Mof_H 	H 	0.106	0.2058	0.3515	-0.028
Mof_H 	H 	0.0538	0.1199	0.6029	0.08
Mof_N 	N 	0.589	0.3181	0.0321	-0.402
Mof_C 	C 	0.6208	0.3245	0.1044	-0.026
Mof_H 	H 	0.606	0.2942	0.1485	-0.006
Mof_H 	H 	0.5538	0.3801	0.8971	0.215
Mof_N 	N 	0.089	0.8181	0.5321	-0.326
Mof_C 	C 	0.1208	0.8245	0.6044	-0.023
Mof_H 	H 	0.106	0.7942	0.6485	-0.013
Mof_H 	H 	0.0538	0.8801	0.3971	0.13
Mof_Zn	Zn	-3.15612e-33	0.75	0.5	1.137
Mof_Zn	Zn	-3.15612e-33	0.25	0.5	1.135
Mof_Zn	Zn	0.5	0	0.75	1.137
Mof_Zn	Zn	0.5	-2.51541e-33	0.25	1.135
Mof_Zn	Zn	0.75	0.5	-0	1.137
Mof_Zn	Zn	0.25	0.5	-0	1.135
Mof_Zn	Zn	0.75	-5.03082e-33	0.5	1.137
Mof_Zn	Zn	0.25	-5.03082e-33	0.5	1.135
Mof_Zn	Zn	-7.2496e-33	0.5	0.75	1.137
Mof_Zn	Zn	3.45276e-33	0.5	0.25	1.135
Mof_Zn	Zn	0.5	0.75	-0	1.137
Mof_Zn	Zn	0.5	0.25	-0	1.135
Mof_C 	C 	0.9907	0.627	0.373	0.433
Mof_C 	C 	0.9075	0.6091	0.3909	-0.77
Mof_H 	H 	0.8735	0.6416	0.3584	0.223
Mof_C 	C 	0.4907	0.127	0.873	0.211
Mof_C 	C 	0.4075	0.1091	0.8909	-0.585
Mof_H 	H 	0.3735	0.1416	0.8584	0.163
Mof_C 	C 	0.0093	0.373	0.373	-0.01
Mof_C 	C 	0.0925	0.3909	0.3909	-0.412
Mof_H 	H 	0.1265	0.3584	0.3584	0.111
Mof_C 	C 	0.5093	0.873	0.873	0.269
Mof_C 	C 	0.5925	0.8909	0.8909	-0.709
Mof_H 	H 	0.6265	0.8584	0.8584	0.22
Mof_C 	C 	0.0093	0.627	0.627	-0.006
Mof_C 	C 	0.0925	0.6091	0.6091	-0.415
Mof_H 	H 	0.1265	0.6416	0.6416	0.114
Mof_C 	C 	0.5093	0.127	0.127	0.161
Mof_C 	C 	0.5925	0.1091	0.1091	-0.491
Mof_H 	H 	0.6265	0.1416	0.1416	0.126
Mof_C 	C 	0.9907	0.373	0.627	0.433
Mof_C 	C 	0.9075	0.3909	0.6091	-0.77
Mof_H 	H 	0.8735	0.3584	0.6416	0.223
Mof_C 	C 	0.4907	0.873	0.127	0.211
Mof_C 	C 	0.4075	0.8909	0.1091	-0.585
Mof_H 	H 	0.3735	0.8584	0.1416	0.163
Mof_C 	C 	0.373	0.9907	0.627	0.433
Mof_C 	C 	0.3909	0.9075	0.6091	-0.77
Mof_H 	H 	0.3584	0.8735	0.6416	0.223
Mof_C 	C 	0.873	0.4907	0.127	0.211
Mof_C 	C 	0.8909	0.4075	0.1091	-0.585
Mof_H 	H 	0.8584	0.3735	0.1416	0.163
Mof_C 	C 	0.373	0.0093	0.373	-0.01
Mof_C 	C 	0.3909	0.0925	0.3909	-0.412
Mof_H 	H 	0.3584	0.1265	0.3584	0.111
Mof_C 	C 	0.873	0.5093	0.873	0.269
Mof_C 	C 	0.8909	0.5925	0.8909	-0.709
Mof_H 	H 	0.8584	0.6265	0.8584	0.22
Mof_C 	C 	0.627	0.0093	0.627	-0.006
Mof_C 	C 	0.6091	0.0925	0.6091	-0.415
Mof_H 	H 	0.6416	0.1265	0.6416	0.114
Mof_C 	C 	0.127	0.5093	0.127	0.161
Mof_C 	C 	0.1091	0.5925	0.1091	-0.491
Mof_H 	H 	0.1416	0.6265	0.1416	0.126
Mof_C 	C 	0.627	0.9907	0.373	0.433
Mof_C 	C 	0.6091	0.9075	0.3909	-0.77
Mof_H 	H 	0.6416	0.8735	0.3584	0.223
Mof_C 	C 	0.127	0.4907	0.873	0.211
Mof_C 	C 	0.1091	0.4075	0.8909	-0.585
Mof_H 	H 	0.1416	0.3735	0.8584	0.163
Mof_C 	C 	0.627	0.373	0.9907	0.433
Mof_C 	C 	0.6091	0.3909	0.9075	-0.77
Mof_H 	H 	0.6416	0.3584	0.8735	0.223
Mof_C 	C 	0.127	0.873	0.4907	0.211
Mof_C 	C 	0.1091	0.8909	0.4075	-0.585
Mof_H 	H 	0.1416	0.8584	0.3735	0.163
Mof_C 	C 	0.373	0.373	0.0093	-0.01
Mof_C 	C 	0.3909	0.3909	0.0925	-0.412
Mof_H 	H 	0.3584	0.3584	0.1265	0.111
Mof_C 	C 	0.873	0.873	0.5093	0.269
Mof_C 	C 	0.8909	0.8909	0.5925	-0.709
Mof_H 	H 	0.8584	0.8584	0.6265	0.22
Mof_C 	C 	0.627	0.627	0.0093	-0.006
Mof_C 	C 	0.6091	0.6091	0.0925	-0.415
Mof_H 	H 	0.6416	0.6416	0.1265	0.114
Mof_C 	C 	0.127	0.127	0.5093	0.161
Mof_C 	C 	0.1091	0.1091	0.5925	-0.491
Mof_H 	H 	0.1416	0.1416	0.6265	0.126
Mof_C 	C 	0.373	0.627	0.9907	0.433
Mof_C 	C 	0.3909	0.6091	0.9075	-0.77
Mof_H 	H 	0.3584	0.6416	0.8735	0.223
Mof_C 	C 	0.873	0.127	0.4907	0.211
Mof_C 	C 	0.8909	0.1091	0.4075	-0.585
Mof_H 	H 	0.8584	0.1416	0.3735	0.163
_end
