data_functionalizedCrystal
_audit_creation_method	'EQeq! by Chris Wilmer'
_symmetry_space_group_name_H-M	'P1'
_symmetry_Int_Tables_number	1
_symmetry_cell_setting	triclinic
loop_
_symmetry_equiv_pos_as_xyz
  x,y,z
_cell_length_a	12.9064
_cell_length_b	12.9064
_cell_length_c	17.6614
_cell_angle_alpha	111.431
_cell_angle_beta	111.431
_cell_angle_gamma	90
loop_
_atom_site_label
_atom_site_type_symbol
_atom_site_fract_x
_atom_site_fract_y
_atom_site_fract_z
_atom_site_charge
Mof_K 	K 	0.625	0.71041	0.75	3.21
Mof_K 	K 	0.125	0.03959	0.75	3.138
Mof_K 	K 	0.28959	0.875	0.25	3.239
Mof_K 	K 	0.96041	0.375	0.25	3.109
Mof_Co	Co	0.85501	0.91019	0.91934	1.139
Mof_Co	Co	0.06433	0.00915	0.91934	1.129
Mof_Co	Co	0.08981	0.93567	0.08066	1.146
Mof_Co	Co	0.99085	0.14499	0.08066	1.125
Mof_Co	Co	0.18567	0.83981	0.58066	1.144
Mof_Co	Co	0.39499	0.74085	0.58066	1.14
Mof_Co	Co	0.25915	0.81433	0.41934	1.141
Mof_Co	Co	0.16019	0.60501	0.41934	1.143
Mof_Co	Co	0.44213	0.94213	0.88426	1.151
Mof_Co	Co	0.05787	0.55787	0.11574	1.153
Mof_Co	Co	0.80787	0.80787	0.61574	1.14
Mof_Co	Co	0.19213	0.19213	0.38426	1.14
Mof_H 	H 	0.7191	0.8709	0.0842	0.161
Mof_H 	H 	0.7785	0.8082	0.021	0.115
Mof_H 	H 	0.9368	0.8641	0.1626	0.164
Mof_H 	H 	0.8802	0.9492	0.2186	0.172
Mof_H 	H 	0.3651	0.2133	0.0842	0.155
Mof_H 	H 	0.2425	0.2128	0.021	0.114
Mof_H 	H 	0.2258	0.2985	0.1626	0.175
Mof_H 	H 	0.3384	0.2694	0.2186	0.173
Mof_H 	H 	0.1291	0.6349	0.9158	0.161
Mof_H 	H 	0.1918	0.7575	0.979	0.116
Mof_H 	H 	0.1359	0.7742	0.8374	0.161
Mof_H 	H 	0.0508	0.6616	0.7814	0.167
Mof_H 	H 	0.7867	0.2809	0.9158	0.156
Mof_H 	H 	0.7872	0.2215	0.979	0.113
Mof_H 	H 	0.7015	0.0632	0.8374	0.175
Mof_H 	H 	0.7306	0.1198	0.7814	0.177
Mof_H 	H 	0.8849	0.8791	0.4158	0.195
Mof_H 	H 	0.0075	0.9418	0.479	0.176
Mof_H 	H 	0.0242	0.8859	0.3374	0.248
Mof_H 	H 	0.9116	0.8008	0.2814	0.228
Mof_H 	H 	0.5309	0.5367	0.4158	0.157
Mof_H 	H 	0.4715	0.5372	0.479	0.115
Mof_H 	H 	0.3132	0.4515	0.3374	0.174
Mof_H 	H 	0.3698	0.4806	0.2814	0.174
Mof_H 	H 	0.4633	0.1151	0.5842	0.184
Mof_H 	H 	0.4628	0.9925	0.521	0.159
Mof_H 	H 	0.5485	0.9758	0.6626	0.233
Mof_H 	H 	0.5194	0.0884	0.7186	0.218
Mof_H 	H 	0.1209	0.4691	0.5842	0.164
Mof_H 	H 	0.0582	0.5285	0.521	0.126
Mof_H 	H 	0.1141	0.6868	0.6626	0.18
Mof_H 	H 	0.1992	0.6302	0.7186	0.178
Mof_C 	C 	0.66914	0.90376	0.9733	0.45
Mof_C 	C 	0.75451	0.87938	0.04648	-0.533
Mof_C 	C 	0.8597	0.97169	0.10402	0.3
Mof_C 	C 	0.92563	0.9422	0.1842	-0.594
Mof_C 	C 	0.03824	0.01433	0.24384	0.534
Mof_C 	C 	0.82318	0.08701	0.13594	0.222
Mof_C 	C 	0.30416	0.06954	0.9733	0.411
Mof_C 	C 	0.29197	0.1671	0.04648	-0.511
Mof_C 	C 	0.24432	0.13233	0.10402	0.284
Mof_C 	C 	0.25857	0.242	0.1842	-0.594
Mof_C 	C 	0.2056	0.22951	0.24384	0.551
Mof_C 	C 	0.31276	0.04893	0.13594	0.221
Mof_C 	C 	0.09624	0.69584	0.0267	0.45
Mof_C 	C 	0.12062	0.70803	0.95352	-0.529
Mof_C 	C 	0.02831	0.75568	0.89598	0.292
Mof_C 	C 	0.0578	0.74143	0.8158	-0.549
Mof_C 	C 	0.98567	0.7944	0.75616	0.494
Mof_C 	C 	0.91299	0.68724	0.86406	0.225
Mof_C 	C 	0.93046	0.33086	0.0267	0.416
Mof_C 	C 	0.8329	0.24549	0.95352	-0.52
Mof_C 	C 	0.86767	0.1403	0.89598	0.294
Mof_C 	C 	0.758	0.07437	0.8158	-0.628
Mof_C 	C 	0.77049	0.96176	0.75616	0.579
Mof_C 	C 	0.95107	0.17682	0.86406	0.214
Mof_C 	C 	0.94584	0.84624	0.5267	0.456
Mof_C 	C 	0.95803	0.87062	0.45352	-0.659
Mof_C 	C 	0.00568	0.77831	0.39598	0.409
Mof_C 	C 	0.99143	0.8078	0.3158	-0.791
Mof_C 	C 	0.0444	0.73567	0.25616	0.664
Mof_C 	C 	0.93724	0.66299	0.36406	0.191
Mof_C 	C 	0.58086	0.68046	0.5267	0.446
Mof_C 	C 	0.49549	0.5829	0.45352	-0.527
Mof_C 	C 	0.3903	0.61767	0.39598	0.284
Mof_C 	C 	0.32437	0.508	0.3158	-0.594
Mof_C 	C 	0.21176	0.52049	0.25616	0.553
Mof_C 	C 	0.42682	0.70107	0.36406	0.244
Mof_C 	C 	0.31954	0.05416	0.4733	0.45
Mof_C 	C 	0.4171	0.04197	0.54648	-0.635
Mof_C 	C 	0.38233	0.99432	0.60402	0.39
Mof_C 	C 	0.492	0.00857	0.6842	-0.761
Mof_C 	C 	0.47951	0.9556	0.74384	0.647
Mof_C 	C 	0.29893	0.06276	0.63594	0.198
Mof_C 	C 	0.15376	0.41914	0.4733	0.451
Mof_C 	C 	0.12938	0.50451	0.54648	-0.536
Mof_C 	C 	0.22169	0.6097	0.60402	0.289
Mof_C 	C 	0.1922	0.67563	0.6842	-0.601
Mof_C 	C 	0.26433	0.78824	0.74384	0.557
Mof_C 	C 	0.33701	0.57318	0.63594	0.242
Mof_O 	O 	0.69431	0.91855	0.91524	-0.689
Mof_O 	O 	0.5686	0.90487	0.9708	-0.529
Mof_O 	O 	0.1183	0.99939	0.21804	-0.781
Mof_O 	O 	0.04836	0.08785	0.31778	-0.59
Mof_O 	O 	0.86224	0.16703	0.12332	-0.73
Mof_O 	O 	0.75153	0.09633	0.17022	-0.362
Mof_O 	O 	0.92894	0.97387	0.05734	-0.624
Mof_O 	O 	0.22093	0.99669	0.91524	-0.66
Mof_O 	O 	0.4022	0.06593	0.9708	-0.534
Mof_O 	O 	0.09974	0.21865	0.21804	-0.787
Mof_O 	O 	0.26942	0.22993	0.31778	-0.596
Mof_O 	O 	0.26108	0.95629	0.12332	-0.723
Mof_O 	O 	0.41869	0.07389	0.17022	-0.362
Mof_O 	O 	0.1284	0.08347	0.05734	-0.618
Mof_O 	O 	0.08145	0.77907	0.08476	-0.69
Mof_O 	O 	0.09513	0.5978	0.0292	-0.527
Mof_O 	O 	0.00061	0.90026	0.78196	-0.755
Mof_O 	O 	0.91215	0.73058	0.68222	-0.586
Mof_O 	O 	0.83297	0.73892	0.87668	-0.738
Mof_O 	O 	0.90367	0.58131	0.82978	-0.365
Mof_O 	O 	0.02613	0.8716	0.94266	-0.603
Mof_O 	O 	0.00331	0.30569	0.08476	-0.657
Mof_O 	O 	0.93407	0.4314	0.0292	-0.535
Mof_O 	O 	0.78135	0.8817	0.78196	-0.81
Mof_O 	O 	0.77007	0.95164	0.68222	-0.598
Mof_O 	O 	0.04371	0.13776	0.87668	-0.716
Mof_O 	O 	0.92611	0.24847	0.82978	-0.36
Mof_O 	O 	0.91653	0.07106	0.94266	-0.636
Mof_O 	O 	0.02907	0.83145	0.58476	-0.674
Mof_O 	O 	0.8478	0.84513	0.5292	-0.538
Mof_O 	O 	0.15026	0.75061	0.28196	-0.833
Mof_O 	O 	0.98058	0.66215	0.18222	-0.643
Mof_O 	O 	0.98892	0.58297	0.37668	-0.729
Mof_O 	O 	0.83131	0.65367	0.32978	-0.346
Mof_O 	O 	0.1216	0.77613	0.44266	-0.635
Mof_O 	O 	0.55569	0.75331	0.58476	-0.696
Mof_O 	O 	0.6814	0.68407	0.5292	-0.536
Mof_O 	O 	0.1317	0.53135	0.28196	-0.787
Mof_O 	O 	0.20164	0.52007	0.18222	-0.59
Mof_O 	O 	0.38776	0.79371	0.37668	-0.739
Mof_O 	O 	0.49847	0.67611	0.32978	-0.36
Mof_O 	O 	0.32106	0.66653	0.44266	-0.617
Mof_O 	O 	0.24669	0.97093	0.41524	-0.685
Mof_O 	O 	0.31593	0.1522	0.4708	-0.541
Mof_O 	O 	0.46865	0.84974	0.71804	-0.827
Mof_O 	O 	0.47993	0.01942	0.81778	-0.636
Mof_O 	O 	0.20629	0.01108	0.62332	-0.732
Mof_O 	O 	0.32389	0.16869	0.67022	-0.348
Mof_O 	O 	0.33347	0.8784	0.55734	-0.633
Mof_O 	O 	0.16855	0.44431	0.41524	-0.686
Mof_O 	O 	0.15487	0.3186	0.4708	-0.532
Mof_O 	O 	0.24939	0.8683	0.71804	-0.79
Mof_O 	O 	0.33785	0.79836	0.81778	-0.591
Mof_O 	O 	0.41703	0.61224	0.62332	-0.737
Mof_O 	O 	0.34633	0.50153	0.67022	-0.359
Mof_O 	O 	0.22387	0.67894	0.55734	-0.616
_end
