data_functionalizedCrystal
_audit_creation_method	'EQeq! by Chris Wilmer'
_symmetry_space_group_name_H-M	'P1'
_symmetry_Int_Tables_number	1
_symmetry_cell_setting	triclinic
loop_
_symmetry_equiv_pos_as_xyz
  x,y,z
_cell_length_a	9.5774
_cell_length_b	9.7182
_cell_length_c	25.396
_cell_angle_alpha	90
_cell_angle_beta	90
_cell_angle_gamma	119.522
loop_
_atom_site_label
_atom_site_type_symbol
_atom_site_fract_x
_atom_site_fract_y
_atom_site_fract_z
_atom_site_charge
Mof_Cd	Cd	0.93551	0.8287	0.39211	0.474
Mof_Cd	Cd	0.06449	0.1713	0.89211	0.451
Mof_Cd	Cd	0.89319	0.8287	0.10789	0.477
Mof_Cd	Cd	0.10681	0.1713	0.60789	0.452
Mof_Cd	Cd	0.2322	0	0.5	0.477
Mof_Cd	Cd	0.7678	0	-0	0.466
Mof_H 	H 	0.1906	0.581	0.4796	0.092
Mof_H 	H 	0.0928	0.4062	0.3822	0.055
Mof_H 	H 	0.9892	0.3534	0.4338	0.036
Mof_H 	H 	0.1754	0.3098	0.4756	0.123
Mof_H 	H 	0.3643	0.4222	0.3807	0.021
Mof_H 	H 	0.4163	0.3604	0.4294	0.02
Mof_H 	H 	0.4579	0.5748	0.4766	0.137
Mof_H 	H 	0.3593	0.6796	0.3845	0.043
Mof_H 	H 	0.4114	0.7742	0.4375	0.056
Mof_H 	H 	0.1133	0.0334	0.2862	0.017
Mof_H 	H 	0.1647	0.9042	0.2948	0.044
Mof_H 	H 	0.8526	0.9926	0.2999	0.093
Mof_H 	H 	0.7078	0.8224	0.2897	0.079
Mof_H 	H 	0.8989	0.6004	0.2873	0.068
Mof_H 	H 	0.7351	0.5966	0.2965	0.071
Mof_H 	H 	0.8094	0.419	0.9796	0.095
Mof_H 	H 	0.9072	0.5938	0.8822	0.062
Mof_H 	H 	0.0108	0.6466	0.9338	0.053
Mof_H 	H 	0.8246	0.6902	0.9756	0.125
Mof_H 	H 	0.6357	0.5778	0.8807	0.024
Mof_H 	H 	0.5837	0.6396	0.9294	0.026
Mof_H 	H 	0.5421	0.4252	0.9766	0.141
Mof_H 	H 	0.6407	0.3204	0.8845	0.037
Mof_H 	H 	0.5886	0.2258	0.9375	0.047
Mof_H 	H 	0.8867	0.9666	0.7862	0.097
Mof_H 	H 	0.8353	0.0958	0.7948	0.073
Mof_H 	H 	0.1474	0.0074	0.7999	0.055
Mof_H 	H 	0.2922	0.1776	0.7897	0.059
Mof_H 	H 	0.1011	0.3996	0.7873	0.074
Mof_H 	H 	0.2649	0.4034	0.7965	0.074
Mof_H 	H 	0.3904	0.581	0.0204	0.085
Mof_H 	H 	0.3134	0.4062	0.1178	0.06
Mof_H 	H 	0.3642	0.3534	0.0662	0.043
Mof_H 	H 	0.1344	0.3098	0.0244	0.115
Mof_H 	H 	0.0579	0.4222	0.1193	0.024
Mof_H 	H 	0.9441	0.3604	0.0706	0.021
Mof_H 	H 	0.1169	0.5748	0.0234	0.131
Mof_H 	H 	0.3203	0.6796	0.1155	0.045
Mof_H 	H 	0.3628	0.7742	0.0625	0.057
Mof_H 	H 	0.9201	0.0334	0.2138	0.023
Mof_H 	H 	0.7395	0.9042	0.2052	0.048
Mof_H 	H 	0.14	0.9926	0.2001	0.096
Mof_H 	H 	0.1146	0.8224	0.2103	0.081
Mof_H 	H 	0.7015	0.6004	0.2127	0.07
Mof_H 	H 	0.8615	0.5966	0.2035	0.071
Mof_H 	H 	0.6096	0.419	0.5204	0.088
Mof_H 	H 	0.6866	0.5938	0.6178	0.065
Mof_H 	H 	0.6358	0.6466	0.5662	0.053
Mof_H 	H 	0.8656	0.6902	0.5244	0.114
Mof_H 	H 	0.9421	0.5778	0.6193	0.031
Mof_H 	H 	0.0559	0.6396	0.5706	0.037
Mof_H 	H 	0.8831	0.4252	0.5234	0.129
Mof_H 	H 	0.6797	0.3204	0.6155	0.04
Mof_H 	H 	0.6372	0.2258	0.5625	0.048
Mof_H 	H 	0.0799	0.9666	0.7138	0.104
Mof_H 	H 	0.2605	0.0958	0.7052	0.076
Mof_H 	H 	0.86	0.0074	0.7001	0.057
Mof_H 	H 	0.8854	0.1776	0.7103	0.06
Mof_H 	H 	0.2985	0.3996	0.7127	0.074
Mof_H 	H 	0.1385	0.4034	0.7035	0.074
Mof_C 	C 	0.0852	0.667	0.4222	0.31
Mof_C 	C 	0.1899	0.5832	0.441	-0.148
Mof_C 	C 	0.0982	0.4062	0.4203	0.022
Mof_C 	C 	0.18	0.3192	0.4371	-0.236
Mof_C 	C 	0.3628	0.4186	0.4189	0.097
Mof_C 	C 	0.4587	0.5808	0.438	-0.316
Mof_C 	C 	0.3585	0.6688	0.4225	0.028
Mof_C 	C 	0.0918	0.158	0.4133	0.422
Mof_C 	C 	0.6163	0.6604	0.4231	0.502
Mof_C 	C 	0.0841	0.9244	0.2792	0.021
Mof_C 	C 	0.8198	0.8936	0.2816	-0.111
Mof_C 	C 	0.8391	0.6546	0.2796	-0.065
Mof_C 	C 	0.9148	0.333	0.9222	0.31
Mof_C 	C 	0.8101	0.4168	0.941	-0.147
Mof_C 	C 	0.9018	0.5938	0.9203	0.002
Mof_C 	C 	0.82	0.6808	0.9371	-0.222
Mof_C 	C 	0.6372	0.5814	0.9189	0.092
Mof_C 	C 	0.5413	0.4192	0.938	-0.318
Mof_C 	C 	0.6415	0.3312	0.9225	0.033
Mof_C 	C 	0.9082	0.842	0.9133	0.411
Mof_C 	C 	0.3837	0.3396	0.9231	0.506
Mof_C 	C 	0.9159	0.0756	0.7792	-0.115
Mof_C 	C 	0.1802	0.1064	0.7816	-0.056
Mof_C 	C 	0.1609	0.3454	0.7796	-0.068
Mof_C 	C 	0.5818	0.667	0.0778	0.305
Mof_C 	C 	0.3933	0.5832	0.059	-0.14
Mof_C 	C 	0.308	0.4062	0.0797	0.002
Mof_C 	C 	0.1392	0.3192	0.0629	-0.224
Mof_C 	C 	0.0558	0.4186	0.0811	0.087
Mof_C 	C 	0.1221	0.5808	0.062	-0.309
Mof_C 	C 	0.3103	0.6688	0.0775	0.021
Mof_C 	C 	0.0662	0.158	0.0867	0.414
Mof_C 	C 	0.0441	0.6604	0.0769	0.499
Mof_C 	C 	0.8403	0.9244	0.2208	0.005
Mof_C 	C 	0.0738	0.8936	0.2184	-0.113
Mof_C 	C 	0.8155	0.6546	0.2204	-0.067
Mof_C 	C 	0.4182	0.333	0.5778	0.307
Mof_C 	C 	0.6067	0.4168	0.559	-0.139
Mof_C 	C 	0.692	0.5938	0.5797	-0.01
Mof_C 	C 	0.8608	0.6808	0.5629	-0.205
Mof_C 	C 	0.9442	0.5814	0.5811	0.062
Mof_C 	C 	0.8779	0.4192	0.562	-0.298
Mof_C 	C 	0.6897	0.3312	0.5775	0.022
Mof_C 	C 	0.9338	0.842	0.5867	0.394
Mof_C 	C 	0.9559	0.3396	0.5769	0.488
Mof_C 	C 	0.1597	0.0756	0.7208	-0.126
Mof_C 	C 	0.9262	0.1064	0.7184	-0.062
Mof_C 	C 	0.1845	0.3454	0.7204	-0.068
Mof_N 	N 	0.9265	0.8178	0.3016	-0.103
Mof_N 	N 	0.0735	0.1822	0.8016	-0.092
Mof_N 	N 	0.8913	0.8178	0.1984	-0.1
Mof_N 	N 	0.1087	0.1822	0.6984	-0.09
Mof_O 	O 	0.0872	0.7594	0.4617	-0.274
Mof_O 	O 	0.0664	0.6786	0.377	-0.289
Mof_O 	O 	0.1093	0.045	0.4332	-0.346
Mof_O 	O 	0.0053	0.1464	0.3808	-0.33
Mof_O 	O 	0.711	0.7844	0.438	-0.342
Mof_O 	O 	0.6674	0.6068	0.3909	-0.341
Mof_O 	O 	0.3804	0.9068	0.5428	-0.141
Mof_O 	O 	0.9128	0.2406	0.9617	-0.28
Mof_O 	O 	0.9336	0.3214	0.877	-0.295
Mof_O 	O 	0.8907	0.955	0.9332	-0.309
Mof_O 	O 	0.9947	0.8536	0.8808	-0.307
Mof_O 	O 	0.289	0.2156	0.938	-0.351
Mof_O 	O 	0.3326	0.3932	0.8909	-0.339
Mof_O 	O 	0.6196	0.0932	0.0428	-0.173
Mof_O 	O 	0.6722	0.7594	0.0383	-0.282
Mof_O 	O 	0.6122	0.6786	0.123	-0.292
Mof_O 	O 	0.9357	0.045	0.0668	-0.345
Mof_O 	O 	0.1411	0.1464	0.1192	-0.331
Mof_O 	O 	0.0734	0.7844	0.062	-0.343
Mof_O 	O 	0.9394	0.6068	0.1091	-0.342
Mof_O 	O 	0.5264	0.9068	0.9572	-0.133
Mof_O 	O 	0.3278	0.2406	0.5383	-0.289
Mof_O 	O 	0.3878	0.3214	0.623	-0.295
Mof_O 	O 	0.0643	0.955	0.5668	-0.303
Mof_O 	O 	0.8589	0.8536	0.6192	-0.304
Mof_O 	O 	0.9266	0.2156	0.562	-0.351
Mof_O 	O 	0.0606	0.3932	0.6091	-0.332
Mof_O 	O 	0.4736	0.0932	0.4572	-0.169
_end
