# CIF file generated by openbabel 3.1.0, see https://openbabel.org
data_I
_chemical_name_common 'QEVKOS_clean'
_cell_length_a 11.0317
_cell_length_b 13.8934
_cell_length_c 18.2911
_cell_angle_alpha 73.6588
_cell_angle_beta 72.4487
_cell_angle_gamma 66.6084
_space_group_name_H-M_alt 'P 1'
_space_group_name_Hall 'P 1'
loop_
    _symmetry_equiv_pos_as_xyz
    x,y,z
loop_
    _atom_site_label
    _atom_site_type_symbol
    _atom_site_fract_x
    _atom_site_fract_y
    _atom_site_fract_z
    _atom_site_occupancy
    Cu1      Cu       0.40765    0.73701    0.60499    1.000
    Cu2      Cu       0.59333    0.74092    0.74686    1.000
    Cu3      Cu       0.74965    0.76299    0.89501    1.000
    Cu4      Cu       0.08111    0.75908    0.75314    1.000
    Cu5      Cu       0.59235    0.26299    0.39501    1.000
    Cu6      Cu       0.40667    0.25908    0.25314    1.000
    Cu7      Cu       0.25035    0.23701    0.10499    1.000
    Cu8      Cu       0.91889    0.24092    0.24686    1.000
    H1       H        0.94770    0.76580    0.98760    1.000
    H2       H        0.76660    0.55460    0.03780    1.000
    H3       H        0.90100    0.50660    0.13560    1.000
    H4       H        0.10620    0.56790    0.13550    1.000
    H5       H        0.11100    0.67830    0.07930    1.000
    H6       H        0.00250    0.56500    0.27020    1.000
    H7       H        0.93260    0.84840    0.12460    1.000
    H8       H        0.48320    0.78020    0.02760    1.000
    H9       H        0.55330    0.01040    0.85580    1.000
    H10      H        0.32240    0.08450    0.93230    1.000
    H11      H        0.25020    0.86760    0.09700    1.000
    H12      H        0.22370    0.99030    0.09490    1.000
    H13      H        0.20010    0.87460    0.94960    1.000
    H14      H        0.99030    0.07840    0.09940    1.000
    H15      H        0.70110    0.73420    0.51240    1.000
    H16      H        0.35900    0.94540    0.46220    1.000
    H17      H        0.54320    0.99340    0.36440    1.000
    H18      H        0.80960    0.93210    0.36450    1.000
    H19      H        0.86860    0.82170    0.42070    1.000
    H20      H        0.83770    0.93500    0.22980    1.000
    H21      H        0.90560    0.65160    0.37540    1.000
    H22      H        0.29100    0.71980    0.47240    1.000
    H23      H        0.41950    0.48960    0.64420    1.000
    H24      H        0.33920    0.41550    0.56770    1.000
    H25      H        0.21480    0.63240    0.40300    1.000
    H26      H        0.30890    0.50970    0.40510    1.000
    H27      H        0.02430    0.62540    0.55040    1.000
    H28      H        0.16810    0.42160    0.40060    1.000
    H29      H        0.05230    0.23420    0.01240    1.000
    H30      H        0.23340    0.44540    0.96220    1.000
    H31      H        0.09900    0.49340    0.86440    1.000
    H32      H        0.89380    0.43210    0.86450    1.000
    H33      H        0.88900    0.32170    0.92070    1.000
    H34      H        0.99750    0.43500    0.72980    1.000
    H35      H        0.06740    0.15160    0.87540    1.000
    H36      H        0.51680    0.21980    0.97240    1.000
    H37      H        0.44670    0.98960    0.14420    1.000
    H38      H        0.67760    0.91550    0.06770    1.000
    H39      H        0.74980    0.13240    0.90300    1.000
    H40      H        0.77630    0.00970    0.90510    1.000
    H41      H        0.79990    0.12540    0.05040    1.000
    H42      H        0.00970    0.92160    0.90060    1.000
    H43      H        0.29890    0.26580    0.48760    1.000
    H44      H        0.64100    0.05460    0.53780    1.000
    H45      H        0.45680    0.00660    0.63560    1.000
    H46      H        0.19040    0.06790    0.63550    1.000
    H47      H        0.13140    0.17830    0.57930    1.000
    H48      H        0.16230    0.06500    0.77020    1.000
    H49      H        0.09440    0.34840    0.62460    1.000
    H50      H        0.70900    0.28020    0.52760    1.000
    H51      H        0.58050    0.51040    0.35580    1.000
    H52      H        0.66080    0.58450    0.43230    1.000
    H53      H        0.78520    0.36760    0.59700    1.000
    H54      H        0.69110    0.49030    0.59490    1.000
    H55      H        0.97570    0.37460    0.44960    1.000
    H56      H        0.83190    0.57840    0.59940    1.000
    W1       W        0.84438    0.74198    0.74474    1.000
    W2       W        0.33110    0.75802    0.75526    1.000
    W3       W        0.15562    0.25802    0.25526    1.000
    W4       W        0.66890    0.24198    0.24474    1.000
    C1       C        0.91770    0.70680    0.01240    1.000
    C2       C        0.82020    0.59250    0.03990    1.000
    C3       C        0.89410    0.56550    0.09330    1.000
    C4       C        0.04980    0.64190    0.11670    1.000
    C5       C        0.97900    0.69900    0.18580    1.000
    C6       C        0.96930    0.64080    0.26160    1.000
    C7       C        0.92850    0.80740    0.17600    1.000
    C8       C        0.47220    0.84740    0.99380    1.000
    C9       C        0.50980    0.97250    0.90070    1.000
    C10      C        0.38330    0.01350    0.94230    1.000
    C11      C        0.23800    0.93850    0.06270    1.000
    C12      C        0.11480    0.97150    0.02910    1.000
    C13      C        0.11830    0.92610    0.97030    1.000
    C14      C        0.99460    0.04620    0.05880    1.000
    C15      C        0.63690    0.79320    0.48760    1.000
    C16      C        0.45260    0.90750    0.46010    1.000
    C17      C        0.55290    0.93450    0.40670    1.000
    C18      C        0.80840    0.85810    0.38330    1.000
    C19      C        0.86380    0.80100    0.31420    1.000
    C20      C        0.87170    0.85920    0.23840    1.000
    C21      C        0.91190    0.69260    0.32400    1.000
    C22      C        0.31340    0.65260    0.50620    1.000
    C23      C        0.38300    0.52750    0.59930    1.000
    C24      C        0.33910    0.48650    0.55770    1.000
    C25      C        0.23920    0.56150    0.43730    1.000
    C26      C        0.11540    0.52850    0.47090    1.000
    C27      C        0.01470    0.57390    0.52970    1.000
    C28      C        0.09960    0.45380    0.44120    1.000
    C29      C        0.08230    0.29320    0.98760    1.000
    C30      C        0.17980    0.40750    0.96010    1.000
    C31      C        0.10590    0.43450    0.90670    1.000
    C32      C        0.95020    0.35810    0.88330    1.000
    C33      C        0.02100    0.30100    0.81420    1.000
    C34      C        0.03070    0.35920    0.73840    1.000
    C35      C        0.07150    0.19260    0.82400    1.000
    C36      C        0.52780    0.15260    0.00620    1.000
    C37      C        0.49020    0.02750    0.09930    1.000
    C38      C        0.61670    0.98650    0.05770    1.000
    C39      C        0.76200    0.06150    0.93730    1.000
    C40      C        0.88520    0.02850    0.97090    1.000
    C41      C        0.88170    0.07390    0.02970    1.000
    C42      C        0.00540    0.95380    0.94120    1.000
    C43      C        0.36310    0.20680    0.51240    1.000
    C44      C        0.54740    0.09250    0.53990    1.000
    C45      C        0.44710    0.06550    0.59330    1.000
    C46      C        0.19160    0.14190    0.61670    1.000
    C47      C        0.13620    0.19900    0.68580    1.000
    C48      C        0.12830    0.14080    0.76160    1.000
    C49      C        0.08810    0.30740    0.67600    1.000
    C50      C        0.68660    0.34740    0.49380    1.000
    C51      C        0.61700    0.47250    0.40070    1.000
    C52      C        0.66090    0.51350    0.44230    1.000
    C53      C        0.76080    0.43850    0.56270    1.000
    C54      C        0.88460    0.47150    0.52910    1.000
    C55      C        0.98530    0.42610    0.47030    1.000
    C56      C        0.90040    0.54620    0.55880    1.000
    S1       S        0.38784    0.86163    0.79921    1.000
    S2       S        0.73161    0.64441    0.83679    1.000
    S3       S        0.52133    0.63670    0.70284    1.000
    S4       S        0.20534    0.67824    0.84922    1.000
    S5       S        0.04868    0.63837    0.70079    1.000
    S6       S        0.21281    0.85559    0.66321    1.000
    S7       S        0.86087    0.86330    0.79716    1.000
    S8       S        0.73280    0.82176    0.65078    1.000
    S9       S        0.61216    0.13837    0.20079    1.000
    S10      S        0.26839    0.35559    0.16321    1.000
    S11      S        0.47867    0.36330    0.29716    1.000
    S12      S        0.79466    0.32176    0.15078    1.000
    S13      S        0.95132    0.36163    0.29921    1.000
    S14      S        0.78719    0.14441    0.33679    1.000
    S15      S        0.13913    0.13670    0.20284    1.000
    S16      S        0.26720    0.17824    0.34922    1.000
    N1       N        0.83320    0.68370    0.98830    1.000
    N2       N        0.95690    0.63780    0.07600    1.000
    N3       N        0.56500    0.86860    0.93320    1.000
    N4       N        0.36010    0.93380    0.00120    1.000
    N5       N        0.50520    0.81630    0.51170    1.000
    N6       N        0.67070    0.86220    0.42400    1.000
    N7       N        0.36680    0.63140    0.56680    1.000
    N8       N        0.29510    0.56620    0.49880    1.000
    N9       N        0.16680    0.31630    0.01170    1.000
    N10      N        0.04310    0.36220    0.92400    1.000
    N11      N        0.43500    0.13140    0.06680    1.000
    N12      N        0.63990    0.06620    0.99880    1.000
    N13      N        0.49480    0.18370    0.48830    1.000
    N14      N        0.32930    0.13780    0.57600    1.000
    N15      N        0.63320    0.36860    0.43320    1.000
    N16      N        0.70490    0.43380    0.50120    1.000
