data_functionalizedCrystal
_audit_creation_method	'EQeq! by Chris Wilmer'
_symmetry_space_group_name_H-M	'P1'
_symmetry_Int_Tables_number	1
_symmetry_cell_setting	triclinic
loop_
_symmetry_equiv_pos_as_xyz
  x,y,z
_cell_length_a	25.334
_cell_length_b	25.334
_cell_length_c	25.334
_cell_angle_alpha	90
_cell_angle_beta	90
_cell_angle_gamma	90
loop_
_atom_site_label
_atom_site_type_symbol
_atom_site_fract_x
_atom_site_fract_y
_atom_site_fract_z
_atom_site_charge
Mof_C 	C 	0.52621	0.97785	0.33534	-0.077
Mof_C 	C 	0.47214	0.97755	0.33505	-0.075
Mof_C 	C 	0.45568	0.98677	0.38658	0.112
Mof_N 	N 	0.4986	0.99404	0.41782	-0.155
Mof_C 	C 	0.54173	0.98832	0.3867	0.112
Mof_C 	C 	0.40208	0.99337	0.40285	-0.171
Mof_C 	C 	0.38743	0.00174	0.4568	0.235
Mof_C 	C 	0.33694	0.01461	0.47418	-0.084
Mof_C 	C 	0.33818	0.01539	0.52833	-0.088
Mof_C 	C 	0.38893	0.00179	0.54344	0.242
Mof_N 	N 	0.41859	0.99331	0.49969	-0.268
Mof_C 	C 	0.40508	0.99484	0.59677	-0.172
Mof_C 	C 	0.45837	0.98821	0.61293	0.111
Mof_C 	C 	0.47391	0.97774	0.66428	-0.078
Mof_C 	C 	0.52798	0.97752	0.66457	-0.077
Mof_C 	C 	0.54442	0.9868	0.61304	0.111
Mof_N 	N 	0.50149	0.99402	0.58181	-0.156
Mof_C 	C 	0.598	0.99352	0.59678	-0.172
Mof_C 	C 	0.61264	0.00196	0.54284	0.236
Mof_C 	C 	0.66309	0.01495	0.52547	-0.085
Mof_C 	C 	0.66186	0.01573	0.47132	-0.088
Mof_C 	C 	0.61114	0.00201	0.45619	0.243
Mof_N 	N 	0.58149	0.99345	0.49994	-0.269
Mof_C 	C 	0.59501	0.99502	0.40286	-0.172
Mof_H 	H 	0.55115	0.97193	0.30118	0.041
Mof_H 	H 	0.44817	0.97249	0.30013	0.044
Mof_H 	H 	0.54413	0.97687	0.50015	0.106
Mof_H 	H 	0.30186	0.02141	0.45093	0.069
Mof_H 	H 	0.30485	0.0239	0.55366	0.076
Mof_H 	H 	0.44898	0.97175	0.69844	0.037
Mof_H 	H 	0.55197	0.97247	0.69948	0.04
Mof_H 	H 	0.69517	0.02433	0.44599	0.077
Mof_H 	H 	0.456	0.97683	0.49948	0.106
Mof_H 	H 	0.69814	0.02185	0.54873	0.069
Mof_C 	C 	0.47266	0.33038	0.02139	-0.059
Mof_C 	C 	0.52673	0.3312	0.02232	-0.05
Mof_C 	C 	0.54193	0.3823	0.01039	0.085
Mof_N 	N 	0.49867	0.41284	0.00295	-0.121
Mof_C 	C 	0.45589	0.38146	0.01028	0.097
Mof_C 	C 	0.5949	0.39862	0.00242	-0.02
Mof_C 	C 	0.60958	0.45178	0.99264	-0
Mof_C 	C 	0.65745	0.46676	0.97085	-0.039
Mof_C 	C 	0.65778	0.52093	0.96914	-0.079
Mof_C 	C 	0.61038	0.53809	0.99071	0.078
Mof_N 	N 	0.58094	0.49547	0.00459	-0.118
Mof_C 	C 	0.59613	0.59216	0.99756	-0.145
Mof_C 	C 	0.5426	0.60789	0.00489	0.194
Mof_C 	C 	0.52635	0.65763	0.02115	-0.088
Mof_C 	C 	0.4723	0.65738	0.02104	-0.057
Mof_C 	C 	0.45673	0.60708	0.00627	0.128
Mof_N 	N 	0.4998	0.57693	0.99611	-0.199
Mof_C 	C 	0.40341	0.59093	0.00017	-0.051
Mof_C 	C 	0.38751	0.53759	0.9929	0.057
Mof_C 	C 	0.33613	0.52187	0.98279	-0.062
Mof_C 	C 	0.33565	0.4677	0.98349	-0.061
Mof_C 	C 	0.38697	0.4509	0.99357	0.055
Mof_N 	N 	0.41809	0.49418	0.99981	-0.195
Mof_C 	C 	0.40228	0.39714	0.00217	-0.055
Mof_H 	H 	0.44901	0.29533	0.02691	0.057
Mof_H 	H 	0.55188	0.29746	0.02959	0.058
Mof_H 	H 	0.4565	0.49456	0.01368	0.137
Mof_H 	H 	0.68877	0.44125	0.95695	0.027
Mof_H 	H 	0.68935	0.5449	0.95323	0.042
Mof_H 	H 	0.55074	0.69079	0.03247	0.068
Mof_H 	H 	0.44752	0.69061	0.03123	0.051
Mof_H 	H 	0.30046	0.44395	0.97938	0.036
Mof_H 	H 	0.54583	0.49617	0.02587	0.103
Mof_H 	H 	0.30178	0.54667	0.97749	0.035
Mof_C 	C 	0.0351	0.5225	0.65701	-0.066
Mof_C 	C 	0.03624	0.46842	0.6569	-0.065
Mof_C 	C 	0.0113	0.45214	0.61098	0.096
Mof_N 	N 	0.99572	0.49474	0.58249	-0.135
Mof_C 	C 	0.00961	0.53788	0.61108	0.099
Mof_C 	C 	0.00167	0.39871	0.5967	-0.088
Mof_C 	C 	0.99066	0.38487	0.54336	0.105
Mof_C 	C 	0.96427	0.33956	0.52754	-0.065
Mof_C 	C 	0.96432	0.33929	0.47331	-0.065
Mof_C 	C 	0.99075	0.38443	0.45704	0.104
Mof_N 	N 	0.00582	0.4126	0.5001	-0.174
Mof_C 	C 	0.00129	0.39796	0.40347	-0.085
Mof_C 	C 	0.0116	0.45118	0.38887	0.097
Mof_C 	C 	0.03405	0.46738	0.34158	-0.064
Mof_C 	C 	0.03373	0.52154	0.3418	-0.064
Mof_C 	C 	0.01188	0.53681	0.38949	0.097
Mof_N 	N 	0.99863	0.49382	0.41843	-0.135
Mof_C 	C 	0.00106	0.58957	0.4042	-0.085
Mof_C 	C 	0.98892	0.60362	0.45689	0.103
Mof_C 	C 	0.96463	0.65024	0.47192	-0.066
Mof_C 	C 	0.96355	0.65058	0.52621	-0.067
Mof_C 	C 	0.98808	0.60452	0.54308	0.105
Mof_N 	N 	0.00263	0.57568	0.50041	-0.174
Mof_C 	C 	0.99864	0.59103	0.59661	-0.091
Mof_H 	H 	0.05205	0.54765	0.68709	0.047
Mof_H 	H 	0.05417	0.44391	0.68694	0.047
Mof_H 	H 	0.02569	0.54162	0.50094	0.1
Mof_H 	H 	0.94635	0.30989	0.55251	0.05
Mof_H 	H 	0.94632	0.3094	0.44866	0.051
Mof_H 	H 	0.04931	0.44282	0.31015	0.05
Mof_H 	H 	0.04816	0.54679	0.31051	0.05
Mof_H 	H 	0.9467	0.68145	0.55044	0.046
Mof_H 	H 	0.02957	0.44621	0.5001	0.099
Mof_H 	H 	0.94926	0.68086	0.44639	0.046
Mof_O 	O 	0.92893	0.99398	0.86325	-0.673
Mof_O 	O 	0.92778	0.99604	0.13548	-0.668
Mof_O 	O 	0.86382	0.92312	0.99742	-0.662
Mof_O 	O 	0.86406	0.06671	0.00045	-0.578
Mof_O 	O 	0.92856	0.13095	0.00146	-0.611
Mof_O 	O 	0.92815	0.85876	0.99744	-0.658
Mof_O 	O 	0.86365	0.99688	0.07087	-0.659
Mof_O 	O 	0.86423	0.99273	0.92732	-0.676
Mof_Zr	Zr	0.90689	0.99486	0.99929	3.223
Mof_O 	O 	0.95198	0.04271	0.04747	-1.225
Mof_O 	O 	0.9522	0.94691	0.9515	-1.296
Mof_C 	C 	0.87989	0.99267	0.87842	0.491
Mof_C 	C 	0.87889	0.99718	0.1199	0.489
Mof_C 	C 	0.87917	0.87412	0.99652	0.477
Mof_C 	C 	0.87954	0.11566	0.00162	0.457
Mof_H 	H 	0.92943	0.92456	0.06951	0.329
Mof_O 	O 	0.95208	0.94711	0.04713	-1.502
Mof_H 	H 	0.93028	0.06514	0.92934	0.321
Mof_O 	O 	0.95267	0.04256	0.95196	-1.495
Mof_O 	O 	0.07107	0.99357	0.1364	-0.67
Mof_O 	O 	0.07233	0.99615	0.86415	-0.666
Mof_O 	O 	0.00118	0.85859	0.07136	-0.621
Mof_O 	O 	0.99863	0.13083	0.07165	-0.622
Mof_O 	O 	0.00233	0.13094	0.92809	-0.647
Mof_O 	O 	0.99855	0.85876	0.92784	-0.65
Mof_O 	O 	0.13597	0.92264	0.00269	-0.62
Mof_O 	O 	0.13642	0.06615	0.99982	-0.64
Mof_O 	O 	0.07139	0.85841	0.00074	-0.608
Mof_O 	O 	0.07215	0.13066	0.99801	-0.658
Mof_O 	O 	0.00122	0.92289	0.13577	-0.64
Mof_O 	O 	0.9986	0.92318	0.86357	-0.645
Mof_O 	O 	0.00236	0.06659	0.86373	-0.609
Mof_O 	O 	0.99759	0.06637	0.13589	-0.607
Mof_O 	O 	0.13581	0.99219	0.07238	-0.653
Mof_O 	O 	0.13646	0.99653	0.92879	-0.687
Mof_Zr	Zr	0.99963	0.99467	0.09286	3.229
Mof_Zr	Zr	0.00043	0.99487	0.90669	3.231
Mof_Zr	Zr	0.99987	0.90165	0.99962	3.23
Mof_Zr	Zr	0.00026	0.08788	0.99983	3.229
Mof_Zr	Zr	0.09321	0.99453	0.00039	3.237
Mof_O 	O 	0.04835	0.04259	0.95217	-1.252
Mof_O 	O 	0.04767	0.9466	0.04796	-1.273
Mof_C 	C 	0.12012	0.99216	0.12127	0.486
Mof_C 	C 	0.12123	0.99705	0.87975	0.493
Mof_C 	C 	0.00184	0.8739	0.12038	0.473
Mof_C 	C 	0.99737	0.1154	0.12062	0.468
Mof_C 	C 	0.00313	0.11558	0.87909	0.472
Mof_C 	C 	0.99791	0.87417	0.87887	0.478
Mof_C 	C 	0.12034	0.87373	0.00243	0.463
Mof_C 	C 	0.12109	0.11513	0.99835	0.485
Mof_H 	H 	0.07044	0.9246	0.92986	0.316
Mof_O 	O 	0.04785	0.94712	0.95234	-1.537
Mof_H 	H 	0.07001	0.06476	0.07041	0.333
Mof_O 	O 	0.04758	0.0423	0.04773	-1.463
Mof_C 	C 	0.28239	0.99188	0.28417	-0.073
Mof_C 	C 	0.29067	0.03694	0.31549	0.038
Mof_C 	C 	0.33021	0.03763	0.35422	-0.013
Mof_C 	C 	0.36189	0.99285	0.3635	0.008
Mof_C 	C 	0.35331	0.94769	0.33216	-0.069
Mof_C 	C 	0.31438	0.94736	0.2928	-0.019
Mof_C 	C 	0.24068	0.99142	0.24255	-0.01
Mof_C 	C 	0.25163	0.97233	0.19158	-0.085
Mof_C 	C 	0.21268	0.97278	0.15222	0.056
Mof_C 	C 	0.16148	0.9914	0.16311	-0.208
Mof_C 	C 	0.15039	0.00986	0.21434	0.115
Mof_C 	C 	0.18963	0.01031	0.25339	-0.026
Mof_H 	H 	0.33652	0.07352	0.37661	0.046
Mof_H 	H 	0.3766	0.91237	0.33846	0.045
Mof_H 	H 	0.22259	0.95819	0.11328	0.029
Mof_H 	H 	0.1115	0.02471	0.22408	0.036
Mof_H 	H 	0.30868	0.91191	0.2696	0.031
Mof_H 	H 	0.29067	0.95785	0.18192	0.045
Mof_H 	H 	0.26715	0.07209	0.30929	0.032
Mof_H 	H 	0.17989	0.02493	0.29237	0.052
Mof_C 	C 	0.71603	0.99716	0.28213	-0.072
Mof_C 	C 	0.67734	0.03698	0.28416	0.038
Mof_C 	C 	0.63835	0.03647	0.3234	-0.003
Mof_C 	C 	0.63678	0.9958	0.36107	-0.003
Mof_C 	C 	0.6752	0.9559	0.35904	-0.07
Mof_C 	C 	0.71453	0.95669	0.32017	-0.021
Mof_C 	C 	0.7578	0.9978	0.24059	-0.011
Mof_C 	C 	0.81052	0.98601	0.2533	-0.085
Mof_C 	C 	0.84976	0.98633	0.21434	0.055
Mof_C 	C 	0.83724	0.99794	0.16145	-0.211
Mof_C 	C 	0.78445	0.00974	0.14875	0.122
Mof_C 	C 	0.7453	0.00994	0.18787	-0.022
Mof_H 	H 	0.60928	0.0678	0.32444	0.054
Mof_H 	H 	0.67465	0.92411	0.38762	0.038
Mof_H 	H 	0.8899	0.97697	0.22566	0.022
Mof_H 	H 	0.77331	0.01899	0.10853	0.049
Mof_H 	H 	0.74338	0.92516	0.31938	0.03
Mof_H 	H 	0.82157	0.97705	0.29361	0.04
Mof_H 	H 	0.67773	0.06899	0.25584	0.036
Mof_H 	H 	0.705	0.01876	0.17669	0.06
Mof_C 	C 	0.71763	0.99227	0.71552	-0.075
Mof_C 	C 	0.70921	0.03735	0.68426	0.039
Mof_C 	C 	0.6697	0.03795	0.64549	-0.014
Mof_C 	C 	0.63818	0.99308	0.63612	0.007
Mof_C 	C 	0.6469	0.9479	0.66741	-0.07
Mof_C 	C 	0.68581	0.94764	0.70679	-0.019
Mof_C 	C 	0.75933	0.99189	0.75717	-0.012
Mof_C 	C 	0.74854	0.97235	0.80801	-0.087
Mof_C 	C 	0.78749	0.97281	0.84737	0.056
Mof_C 	C 	0.83852	0.99195	0.83661	-0.217
Mof_C 	C 	0.84947	0.01089	0.78553	0.119
Mof_C 	C 	0.81023	0.01129	0.74647	-0.026
Mof_H 	H 	0.66329	0.07385	0.62315	0.046
Mof_H 	H 	0.62373	0.91251	0.66104	0.043
Mof_H 	H 	0.77774	0.95776	0.88619	0.023
Mof_H 	H 	0.88824	0.02612	0.77591	0.034
Mof_H 	H 	0.69163	0.91217	0.72992	0.029
Mof_H 	H 	0.70962	0.95746	0.81756	0.041
Mof_H 	H 	0.73258	0.07259	0.69054	0.03
Mof_H 	H 	0.81987	0.02625	0.70761	0.052
Mof_C 	C 	0.28409	0.99692	0.71753	-0.073
Mof_C 	C 	0.28562	0.95642	0.67953	-0.022
Mof_C 	C 	0.32494	0.95565	0.64065	-0.071
Mof_C 	C 	0.36333	0.99559	0.63857	-0.002
Mof_C 	C 	0.36173	0.03627	0.67622	-0.006
Mof_C 	C 	0.32274	0.03677	0.71547	0.035
Mof_C 	C 	0.24233	0.99756	0.75907	-0.011
Mof_C 	C 	0.25482	0.00974	0.81179	-0.029
Mof_C 	C 	0.21568	0.00957	0.85091	0.117
Mof_C 	C 	0.16288	0.99776	0.83821	-0.215
Mof_C 	C 	0.15037	0.9861	0.78533	0.055
Mof_C 	C 	0.18961	0.98574	0.74637	-0.087
Mof_H 	H 	0.32552	0.92384	0.61208	0.037
Mof_H 	H 	0.39077	0.06764	0.67516	0.052
Mof_H 	H 	0.22681	0.01885	0.89112	0.034
Mof_H 	H 	0.11023	0.97671	0.77402	0.023
Mof_H 	H 	0.32233	0.0688	0.74377	0.031
Mof_H 	H 	0.29512	0.01857	0.82296	0.051
Mof_H 	H 	0.2568	0.92487	0.68034	0.027
Mof_H 	H 	0.17857	0.97675	0.70607	0.04
Mof_C 	C 	0.28327	0.2779	0.99995	-0.087
Mof_C 	C 	0.29219	0.30989	0.95551	0.018
Mof_C 	C 	0.33153	0.34879	0.95613	-0.147
Mof_C 	C 	0.36249	0.35742	0.00155	0.127
Mof_C 	C 	0.35304	0.32561	0.0462	-0.104
Mof_C 	C 	0.31429	0.28611	0.04524	0.062
Mof_C 	C 	0.2418	0.23609	0.99908	0.013
Mof_C 	C 	0.25263	0.18509	0.01811	-0.041
Mof_C 	C 	0.21375	0.14571	0.01717	0.103
Mof_C 	C 	0.16275	0.15661	0.99803	-0.19
Mof_C 	C 	0.15186	0.20774	0.97921	0.056
Mof_C 	C 	0.19105	0.24684	0.9793	-0.088
Mof_H 	H 	0.33822	0.37192	0.92078	0.061
Mof_H 	H 	0.37544	0.33169	0.08212	0.062
Mof_H 	H 	0.22345	0.10687	0.03216	0.046
Mof_H 	H 	0.1131	0.21744	0.96402	0.028
Mof_H 	H 	0.30792	0.26249	0.08029	0.025
Mof_H 	H 	0.29146	0.1755	0.0332	0.059
Mof_H 	H 	0.26931	0.30414	0.91986	0.023
Mof_H 	H 	0.18144	0.28584	0.96466	0.046
Mof_C 	C 	0.28227	0.71133	0.00246	0.031
Mof_C 	C 	0.29659	0.68646	0.95495	-0.07
Mof_C 	C 	0.33622	0.64787	0.9542	-0.108
Mof_C 	C 	0.36151	0.63253	0.0011	0.094
Mof_C 	C 	0.34673	0.6568	0.04873	-0.065
Mof_C 	C 	0.30795	0.69629	0.04931	-0.026
Mof_C 	C 	0.24063	0.75278	0.00306	0.08
Mof_C 	C 	0.24983	0.80184	0.0273	-0.078
Mof_C 	C 	0.21098	0.84127	0.02678	0.037
Mof_C 	C 	0.16161	0.83204	0.0031	-0.076
Mof_C 	C 	0.15219	0.78264	0.97956	-0.011
Mof_C 	C 	0.19146	0.74369	0.97902	-0.121
Mof_H 	H 	0.34704	0.62966	0.91707	0.048
Mof_H 	H 	0.36559	0.64539	0.08536	0.05
Mof_H 	H 	0.21937	0.87883	0.04538	0.038
Mof_H 	H 	0.11468	0.77441	0.96075	0.032
Mof_H 	H 	0.29741	0.71458	0.08649	0.038
Mof_H 	H 	0.28747	0.80995	0.04588	0.051
Mof_H 	H 	0.27763	0.69751	0.91827	0.036
Mof_H 	H 	0.18327	0.70614	0.96028	0.048
Mof_C 	C 	0.71672	0.71065	0.99421	-0.072
Mof_C 	C 	0.6699	0.71689	0.96503	-0.015
Mof_C 	C 	0.63056	0.67799	0.96578	-0.076
Mof_C 	C 	0.63658	0.63152	0.99591	0.017
Mof_C 	C 	0.68395	0.62512	0.02451	-0.023
Mof_C 	C 	0.72326	0.66407	0.02376	0.032
Mof_C 	C 	0.75838	0.75259	0.99407	0.05
Mof_C 	C 	0.8123	0.73922	0.99427	-0.095
Mof_C 	C 	0.8513	0.77848	0.99479	0.046
Mof_C 	C 	0.83757	0.83235	0.99514	-0.146
Mof_C 	C 	0.78363	0.84573	0.99462	0.044
Mof_C 	C 	0.74464	0.80644	0.99409	-0.094
Mof_H 	H 	0.59568	0.68386	0.94174	0.037
Mof_H 	H 	0.68999	0.59053	0.04891	0.052
Mof_H 	H 	0.89232	0.76645	0.99495	0.027
Mof_H 	H 	0.77136	0.88667	0.99495	0.02
Mof_H 	H 	0.75837	0.65814	0.04737	0.036
Mof_H 	H 	0.82448	0.69827	0.99346	0.04
Mof_H 	H 	0.66391	0.75162	0.94086	0.025
Mof_H 	H 	0.7036	0.81833	0.99464	0.039
Mof_C 	C 	0.71725	0.27894	0.00158	0.036
Mof_C 	C 	0.6764	0.27801	0.9639	-0.072
Mof_C 	C 	0.63713	0.31699	0.96377	-0.104
Mof_C 	C 	0.63737	0.35746	0.0017	0.082
Mof_C 	C 	0.67833	0.3588	0.03905	-0.054
Mof_C 	C 	0.71787	0.32007	0.03895	-0.028
Mof_C 	C 	0.75885	0.23709	0.00199	0.079
Mof_C 	C 	0.81213	0.24996	0.01096	-0.072
Mof_C 	C 	0.85116	0.21071	0.01091	0.035
Mof_C 	C 	0.83796	0.15741	0.00228	-0.066
Mof_C 	C 	0.78456	0.14454	0.99375	-0.012
Mof_C 	C 	0.74562	0.18385	0.9934	-0.116
Mof_H 	H 	0.60632	0.31552	0.93417	0.045
Mof_H 	H 	0.67939	0.38967	0.0686	0.053
Mof_H 	H 	0.89176	0.22224	0.01769	0.049
Mof_H 	H 	0.77276	0.10402	0.98697	0.046
Mof_H 	H 	0.74844	0.32176	0.06877	0.041
Mof_H 	H 	0.82379	0.29059	0.01722	0.056
Mof_H 	H 	0.67516	0.24743	0.93407	0.041
Mof_H 	H 	0.70493	0.17243	0.98702	0.051
Mof_C 	C 	0.99755	0.27784	0.2843	-0.01
Mof_C 	C 	0.02212	0.26872	0.33329	-0.023
Mof_C 	C 	0.02308	0.3079	0.37239	-0.06
Mof_C 	C 	0.99981	0.35779	0.36377	0.049
Mof_C 	C 	0.97487	0.36653	0.3147	-0.061
Mof_C 	C 	0.97375	0.32727	0.27574	-0.024
Mof_C 	C 	0.99692	0.23616	0.24229	0.039
Mof_C 	C 	0.00166	0.24972	0.18859	-0.074
Mof_C 	C 	0.0014	0.21076	0.14927	0.043
Mof_C 	C 	0.99659	0.15699	0.16243	-0.123
Mof_C 	C 	0.99169	0.14341	0.21611	0.044
Mof_C 	C 	0.99178	0.1824	0.25541	-0.074
Mof_H 	H 	0.04362	0.29961	0.40896	0.048
Mof_H 	H 	0.95477	0.40343	0.30682	0.048
Mof_H 	H 	0.00552	0.22289	0.10849	0.045
Mof_H 	H 	0.98764	0.10253	0.22792	0.05
Mof_H 	H 	0.95333	0.33545	0.23911	0.037
Mof_H 	H 	0.00652	0.29051	0.17685	0.053
Mof_H 	H 	0.04169	0.23157	0.34115	0.038
Mof_H 	H 	0.98717	0.17035	0.29615	0.054
Mof_C 	C 	0.00327	0.27858	0.71601	-0.011
Mof_C 	C 	0.02598	0.26959	0.66613	-0.024
Mof_C 	C 	0.02527	0.30877	0.62703	-0.063
Mof_C 	C 	0.00203	0.35854	0.63648	0.053
Mof_C 	C 	0.97912	0.36721	0.68656	-0.065
Mof_C 	C 	0.97972	0.32796	0.72555	-0.025
Mof_C 	C 	0.00393	0.2367	0.75781	0.04
Mof_C 	C 	0.01056	0.24992	0.8114	-0.079
Mof_C 	C 	0.01054	0.2108	0.85057	0.042
Mof_C 	C 	0.00404	0.15722	0.83734	-0.129
Mof_C 	C 	0.99778	0.14394	0.78373	0.045
Mof_C 	C 	0.99765	0.18309	0.74459	-0.077
Mof_H 	H 	0.04451	0.30055	0.58974	0.048
Mof_H 	H 	0.95919	0.40402	0.69526	0.046
Mof_H 	H 	0.01583	0.22264	0.8913	0.031
Mof_H 	H 	0.99234	0.10323	0.77189	0.047
Mof_H 	H 	0.96073	0.33604	0.76296	0.032
Mof_H 	H 	0.01639	0.29058	0.82314	0.046
Mof_H 	H 	0.04533	0.23248	0.65751	0.039
Mof_H 	H 	0.99165	0.17132	0.70395	0.054
Mof_C 	C 	0.99727	0.71117	0.71581	-0.016
Mof_C 	C 	0.97385	0.66164	0.7249	-0.025
Mof_C 	C 	0.97435	0.62234	0.68595	-0.065
Mof_C 	C 	0.99809	0.63122	0.63631	0.05
Mof_C 	C 	0.02138	0.68104	0.62736	-0.064
Mof_C 	C 	0.02105	0.72024	0.66643	-0.022
Mof_C 	C 	0.99708	0.75301	0.75764	0.037
Mof_C 	C 	0.99134	0.80668	0.74438	-0.083
Mof_C 	C 	0.99149	0.84583	0.78353	0.045
Mof_C 	C 	0.99721	0.83249	0.83717	-0.141
Mof_C 	C 	0.00273	0.77881	0.85047	0.047
Mof_C 	C 	0.00276	0.7397	0.81131	-0.08
Mof_H 	H 	0.95466	0.58531	0.69427	0.046
Mof_H 	H 	0.04147	0.6893	0.59054	0.044
Mof_H 	H 	0.98687	0.88663	0.77165	0.029
Mof_H 	H 	0.00758	0.76687	0.89123	0.03
Mof_H 	H 	0.04047	0.75741	0.65823	0.03
Mof_H 	H 	0.98603	0.81852	0.70367	0.044
Mof_H 	H 	0.9542	0.65341	0.76193	0.032
Mof_H 	H 	0.00813	0.69899	0.82312	0.046
Mof_C 	C 	0.00183	0.71108	0.28345	-0.009
Mof_C 	C 	0.9692	0.66632	0.27862	-0.027
Mof_C 	C 	0.96878	0.6272	0.31775	-0.063
Mof_C 	C 	0.00114	0.63163	0.36259	0.048
Mof_C 	C 	0.03364	0.6763	0.36763	-0.062
Mof_C 	C 	0.03395	0.71556	0.32861	-0.026
Mof_C 	C 	0.0023	0.75281	0.24163	0.041
Mof_C 	C 	0.00538	0.80662	0.25509	-0.079
Mof_C 	C 	0.00539	0.84574	0.21593	0.042
Mof_C 	C 	0.0025	0.8322	0.16208	-0.127
Mof_C 	C 	0.99971	0.77834	0.14863	0.042
Mof_C 	C 	0.99953	0.73926	0.18782	-0.079
Mof_H 	H 	0.94299	0.59341	0.31315	0.048
Mof_H 	H 	0.05912	0.68055	0.40169	0.045
Mof_H 	H 	0.00748	0.88669	0.22799	0.032
Mof_H 	H 	0.99752	0.76621	0.1077	0.046
Mof_H 	H 	0.06003	0.74907	0.33341	0.033
Mof_H 	H 	0.00691	0.81862	0.29608	0.045
Mof_H 	H 	0.94336	0.66188	0.24488	0.037
Mof_H 	H 	0.99784	0.69825	0.17589	0.054
_end
