data_functionalizedCrystal
_audit_creation_method	'EQeq! by Chris Wilmer'
_symmetry_space_group_name_H-M	'P1'
_symmetry_Int_Tables_number	1
_symmetry_cell_setting	triclinic
loop_
_symmetry_equiv_pos_as_xyz
  x,y,z
_cell_length_a	10.0049
_cell_length_b	8.2745
_cell_length_c	11.8304
_cell_angle_alpha	90
_cell_angle_beta	103.093
_cell_angle_gamma	90
loop_
_atom_site_label
_atom_site_type_symbol
_atom_site_fract_x
_atom_site_fract_y
_atom_site_fract_z
_atom_site_charge
Mof_Zn	Zn	0.32276	0.6757	0.02965	1.222
Mof_Zn	Zn	0.62163	0.65398	0.92951	1.227
Mof_Zn	Zn	0.07314	0.88043	0.33641	1.223
Mof_Zn	Zn	0.33633	0.26391	0.71462	1.23
Mof_P 	P 	0.583	0.4498	0.1255	0.521
Mof_P 	P 	0.3542	0.8613	0.2593	0.508
Mof_P 	P 	0.0735	0.111	0.5457	0.571
Mof_P 	P 	0.1733	0.3771	0.8974	0.555
Mof_O 	O 	0.5095	0.5845	0.0398	-0.654
Mof_O 	O 	0.689	0.3653	0.0701	-0.476
Mof_O 	O 	0.1692	0.53	0.9686	-0.425
Mof_O 	O 	0.2965	0.7173	0.183	-0.467
Mof_O 	O 	0.4765	0.3358	0.1548	-0.455
Mof_O 	O 	0.2059	0.2309	0.9769	-0.426
Mof_O 	O 	0.3501	0.0147	0.1884	-0.427
Mof_O 	O 	0.2688	0.8888	0.3504	-0.424
Mof_O 	O 	0.0266	0.0727	0.4171	-0.374
Mof_O 	O 	0.0321	0.3499	0.8188	-0.434
Mof_O 	O 	0.9536	0.1651	0.5957	-0.386
Mof_O 	O 	0.127	0.9448	0.6058	-0.291
Mof_O 	O 	0.1906	0.2318	0.5682	-0.418
Mof_O 	O 	0.2854	0.4022	0.8286	-0.526
Mof_O 	O 	0.4989	0.8239	0.3288	-0.455
Mof_O 	O 	0.6582	0.5329	0.2386	-0.397
Mof_Zn	Zn	0.67724	0.1757	0.97035	1.228
Mof_Zn	Zn	0.37837	0.15398	0.07049	1.236
Mof_Zn	Zn	0.92686	0.38043	0.66359	1.239
Mof_Zn	Zn	0.66367	0.76391	0.28538	1.225
Mof_P 	P 	0.417	0.9498	0.8745	0.414
Mof_P 	P 	0.6458	0.3613	0.7407	0.565
Mof_P 	P 	0.9265	0.611	0.4543	0.523
Mof_P 	P 	0.8267	0.8771	0.1026	0.5
Mof_O 	O 	0.4905	0.0845	0.9602	-0.595
Mof_O 	O 	0.311	0.8653	0.9299	-0.497
Mof_O 	O 	0.8308	0.03	0.0314	-0.358
Mof_O 	O 	0.7035	0.2173	0.817	-0.454
Mof_O 	O 	0.5235	0.8358	0.8452	-0.471
Mof_O 	O 	0.7941	0.7309	0.0231	-0.442
Mof_O 	O 	0.6499	0.5147	0.8116	-0.502
Mof_O 	O 	0.7312	0.3888	0.6496	-0.399
Mof_O 	O 	0.9734	0.5727	0.5829	-0.415
Mof_O 	O 	0.9679	0.8499	0.1812	-0.449
Mof_O 	O 	0.0464	0.6651	0.4043	-0.405
Mof_O 	O 	0.873	0.4448	0.3942	-0.217
Mof_O 	O 	0.8094	0.7318	0.4318	-0.436
Mof_O 	O 	0.7146	0.9022	0.1714	-0.549
Mof_O 	O 	0.5011	0.3239	0.6712	-0.437
Mof_O 	O 	0.3418	0.0329	0.7614	-0.326
_end
