# CIF file generated by openbabel 3.1.0, see https://openbabel.org
data_I
_chemical_name_common 'SEMFEX_charged'
_cell_length_a 12.4853
_cell_length_b 12.4853
_cell_length_c 23.9367
_cell_angle_alpha 104.354
_cell_angle_beta 104.354
_cell_angle_gamma 92.833
_space_group_name_H-M_alt 'P 1'
_space_group_name_Hall 'P 1'
loop_
    _symmetry_equiv_pos_as_xyz
    x,y,z
loop_
    _atom_site_label
    _atom_site_type_symbol
    _atom_site_fract_x
    _atom_site_fract_y
    _atom_site_fract_z
    _atom_site_occupancy
    Co1      Co       0.50000    0.00000    0.00000    1.000
    Co2      Co       0.50000    0.50000    0.00000    1.000
    Co3      Co       0.00000    0.50000    0.50000    1.000
    Co4      Co       0.50000    0.50000    0.50000    1.000
    P1       P        0.75882    0.00882    0.75000    1.000
    P2       P        0.99118    0.24118    0.75000    1.000
    P3       P        0.24118    0.99118    0.25000    1.000
    P4       P        0.00882    0.75882    0.25000    1.000
    P5       P        0.76358    0.23642    0.75000    1.000
    P6       P        0.98642    0.01358    0.75000    1.000
    P7       P        0.23642    0.76358    0.25000    1.000
    P8       P        0.01358    0.98642    0.25000    1.000
    H1       H        0.81470    0.89730    0.80560    1.000
    H2       H        0.58180    0.04000    0.80900    1.000
    H3       H        0.48940    0.05160    0.88080    1.000
    H4       H        0.58200    0.28680    0.92700    1.000
    H5       H        0.68770    0.87230    0.96000    1.000
    H6       H        0.67510    0.22930    0.85700    1.000
    H7       H        0.78810    0.85470    0.89160    1.000
    H8       H        0.73390    0.54870    0.85860    1.000
    H9       H        0.64030    0.59510    0.92900    1.000
    H10      H        0.80110    0.40570    0.79680    1.000
    H11      H        0.99090    0.40830    0.80560    1.000
    H12      H        0.22720    0.26900    0.80900    1.000
    H13      H        0.39140    0.32920    0.88080    1.000
    H14      H        0.34500    0.14020    0.92700    1.000
    H15      H        0.27230    0.58770    0.96000    1.000
    H16      H        0.18190    0.12770    0.85700    1.000
    H17      H        0.10350    0.53690    0.89160    1.000
    H18      H        0.12470    0.80990    0.85860    1.000
    H19      H        0.28870    0.83390    0.92900    1.000
    H20      H        0.99570    0.89110    0.79680    1.000
    H21      H        0.10270    0.18530    0.69440    1.000
    H22      H        0.96000    0.41820    0.69100    1.000
    H23      H        0.94840    0.51060    0.61920    1.000
    H24      H        0.71320    0.41800    0.57300    1.000
    H25      H        0.12770    0.31230    0.54000    1.000
    H26      H        0.77070    0.32490    0.64300    1.000
    H27      H        0.14530    0.21190    0.60840    1.000
    H28      H        0.45130    0.26610    0.64140    1.000
    H29      H        0.40490    0.35970    0.57100    1.000
    H30      H        0.59430    0.19890    0.70320    1.000
    H31      H        0.59170    0.00910    0.69440    1.000
    H32      H        0.73100    0.77280    0.69100    1.000
    H33      H        0.67080    0.60860    0.61920    1.000
    H34      H        0.85980    0.65500    0.57300    1.000
    H35      H        0.41230    0.72770    0.54000    1.000
    H36      H        0.87230    0.81810    0.64300    1.000
    H37      H        0.46310    0.89650    0.60840    1.000
    H38      H        0.19010    0.87530    0.64140    1.000
    H39      H        0.16610    0.71130    0.57100    1.000
    H40      H        0.10890    0.00430    0.70320    1.000
    H41      H        0.18530    0.10270    0.19440    1.000
    H42      H        0.41820    0.96000    0.19100    1.000
    H43      H        0.51060    0.94840    0.11920    1.000
    H44      H        0.41800    0.71320    0.07300    1.000
    H45      H        0.31230    0.12770    0.04000    1.000
    H46      H        0.32490    0.77070    0.14300    1.000
    H47      H        0.21190    0.14530    0.10840    1.000
    H48      H        0.26610    0.45130    0.14140    1.000
    H49      H        0.35970    0.40490    0.07100    1.000
    H50      H        0.19890    0.59430    0.20320    1.000
    H51      H        0.00910    0.59170    0.19440    1.000
    H52      H        0.77280    0.73100    0.19100    1.000
    H53      H        0.60860    0.67080    0.11920    1.000
    H54      H        0.65500    0.85980    0.07300    1.000
    H55      H        0.72770    0.41230    0.04000    1.000
    H56      H        0.81810    0.87230    0.14300    1.000
    H57      H        0.89650    0.46310    0.10840    1.000
    H58      H        0.87530    0.19010    0.14140    1.000
    H59      H        0.71130    0.16610    0.07100    1.000
    H60      H        0.00430    0.10890    0.20320    1.000
    H61      H        0.89730    0.81470    0.30560    1.000
    H62      H        0.04000    0.58180    0.30900    1.000
    H63      H        0.05160    0.48940    0.38080    1.000
    H64      H        0.28680    0.58200    0.42700    1.000
    H65      H        0.87230    0.68770    0.46000    1.000
    H66      H        0.22930    0.67510    0.35700    1.000
    H67      H        0.85470    0.78810    0.39160    1.000
    H68      H        0.54870    0.73390    0.35860    1.000
    H69      H        0.59510    0.64030    0.42900    1.000
    H70      H        0.40570    0.80110    0.29680    1.000
    H71      H        0.40830    0.99090    0.30560    1.000
    H72      H        0.26900    0.22720    0.30900    1.000
    H73      H        0.32920    0.39140    0.38080    1.000
    H74      H        0.14020    0.34500    0.42700    1.000
    H75      H        0.58770    0.27230    0.46000    1.000
    H76      H        0.12770    0.18190    0.35700    1.000
    H77      H        0.53690    0.10350    0.39160    1.000
    H78      H        0.80990    0.12470    0.35860    1.000
    H79      H        0.83390    0.28870    0.42900    1.000
    H80      H        0.89110    0.99570    0.29680    1.000
    H81      H        0.53520    0.28520    0.07040    1.000
    H82      H        0.71480    0.46480    0.42960    1.000
    H83      H        0.46480    0.71480    0.92960    1.000
    H84      H        0.28520    0.53520    0.57040    1.000
    C1       C        0.71338    0.38192    0.84654    1.000
    C2       C        0.69966    0.94870    0.84248    1.000
    C3       C        0.60628    0.00648    0.83976    1.000
    C4       C        0.55122    0.01282    0.88324    1.000
    C5       C        0.61241    0.34041    0.91262    1.000
    C6       C        0.66749    0.90789    0.92978    1.000
    C7       C        0.66775    0.30455    0.87010    1.000
    C8       C        0.72848    0.89648    0.88876    1.000
    C9       C        0.70260    0.49300    0.87120    1.000
    C10      C        0.64610    0.52010    0.91380    1.000
    C11      C        0.13316    0.96462    0.84654    1.000
    C12      C        0.14282    0.39378    0.84248    1.000
    C13      C        0.23348    0.33328    0.83976    1.000
    C14      C        0.33202    0.37042    0.88324    1.000
    C15      C        0.30021    0.07221    0.91262    1.000
    C16      C        0.26229    0.52189    0.92978    1.000
    C17      C        0.20235    0.06555    0.87010    1.000
    C18      C        0.16028    0.49228    0.88876    1.000
    C19      C        0.16860    0.87820    0.87120    1.000
    C20      C        0.26770    0.89370    0.91380    1.000
    C21      C        0.61808    0.28662    0.65346    1.000
    C22      C        0.05130    0.30034    0.65752    1.000
    C23      C        0.99352    0.39372    0.66024    1.000
    C24      C        0.98718    0.44878    0.61676    1.000
    C25      C        0.65959    0.38759    0.58738    1.000
    C26      C        0.09211    0.33251    0.57022    1.000
    C27      C        0.69545    0.33225    0.62990    1.000
    C28      C        0.10352    0.27152    0.61124    1.000
    C29      C        0.50700    0.29740    0.62880    1.000
    C30      C        0.47990    0.35390    0.58620    1.000
    C31      C        0.03538    0.86684    0.65346    1.000
    C32      C        0.60622    0.85718    0.65752    1.000
    C33      C        0.66672    0.76652    0.66024    1.000
    C34      C        0.62958    0.66798    0.61676    1.000
    C35      C        0.92779    0.69979    0.58738    1.000
    C36      C        0.47811    0.73771    0.57022    1.000
    C37      C        0.93445    0.79765    0.62990    1.000
    C38      C        0.50772    0.83972    0.61124    1.000
    C39      C        0.12180    0.83140    0.62880    1.000
    C40      C        0.10630    0.73230    0.58620    1.000
    C41      C        0.28662    0.61808    0.15346    1.000
    C42      C        0.30034    0.05130    0.15752    1.000
    C43      C        0.39372    0.99352    0.16024    1.000
    C44      C        0.44878    0.98718    0.11676    1.000
    C45      C        0.38759    0.65959    0.08738    1.000
    C46      C        0.33251    0.09211    0.07022    1.000
    C47      C        0.33225    0.69545    0.12990    1.000
    C48      C        0.27152    0.10352    0.11124    1.000
    C49      C        0.29740    0.50700    0.12880    1.000
    C50      C        0.35390    0.47990    0.08620    1.000
    C51      C        0.86684    0.03538    0.15346    1.000
    C52      C        0.85718    0.60622    0.15752    1.000
    C53      C        0.76652    0.66672    0.16024    1.000
    C54      C        0.66798    0.62958    0.11676    1.000
    C55      C        0.69979    0.92779    0.08738    1.000
    C56      C        0.73771    0.47811    0.07022    1.000
    C57      C        0.79765    0.93445    0.12990    1.000
    C58      C        0.83972    0.50772    0.11124    1.000
    C59      C        0.83140    0.12180    0.12880    1.000
    C60      C        0.73230    0.10630    0.08620    1.000
    C61      C        0.38192    0.71338    0.34654    1.000
    C62      C        0.94870    0.69966    0.34248    1.000
    C63      C        0.00648    0.60628    0.33976    1.000
    C64      C        0.01282    0.55122    0.38324    1.000
    C65      C        0.34041    0.61241    0.41262    1.000
    C66      C        0.90789    0.66749    0.42978    1.000
    C67      C        0.30455    0.66775    0.37010    1.000
    C68      C        0.89648    0.72848    0.38876    1.000
    C69      C        0.49300    0.70260    0.37120    1.000
    C70      C        0.52010    0.64610    0.41380    1.000
    C71      C        0.96462    0.13316    0.34654    1.000
    C72      C        0.39378    0.14282    0.34248    1.000
    C73      C        0.33328    0.23348    0.33976    1.000
    C74      C        0.37042    0.33202    0.38324    1.000
    C75      C        0.07221    0.30021    0.41262    1.000
    C76      C        0.52189    0.26229    0.42978    1.000
    C77      C        0.06555    0.20235    0.37010    1.000
    C78      C        0.49228    0.16028    0.38876    1.000
    C79      C        0.87820    0.16860    0.37120    1.000
    C80      C        0.89370    0.26770    0.41380    1.000
    C81      C        0.51438    0.26438    0.02876    1.000
    C82      C        0.73562    0.48562    0.47124    1.000
    C83      C        0.48562    0.73562    0.97124    1.000
    C84      C        0.26438    0.51438    0.52876    1.000
    N1       N        0.74981    0.13587    0.77794    1.000
    N2       N        0.76456    0.94204    0.80266    1.000
    N3       N        0.77228    0.35470    0.80370    1.000
    N4       N        0.58040    0.96706    0.92910    1.000
    N5       N        0.59848    0.44684    0.93514    1.000
    N6       N        0.02813    0.14207    0.77794    1.000
    N7       N        0.03810    0.36062    0.80266    1.000
    N8       N        0.03142    0.94900    0.80370    1.000
    N9       N        0.34870    0.46204    0.92910    1.000
    N10      N        0.33666    0.98830    0.93514    1.000
    N11      N        0.86413    0.25019    0.72206    1.000
    N12      N        0.05796    0.23544    0.69734    1.000
    N13      N        0.64530    0.22772    0.69630    1.000
    N14      N        0.03294    0.41960    0.57090    1.000
    N15      N        0.55316    0.40152    0.56486    1.000
    N16      N        0.85793    0.97187    0.72206    1.000
    N17      N        0.63938    0.96190    0.69734    1.000
    N18      N        0.05100    0.96858    0.69630    1.000
    N19      N        0.53796    0.65130    0.57090    1.000
    N20      N        0.01170    0.66334    0.56486    1.000
    N21      N        0.25019    0.86413    0.22206    1.000
    N22      N        0.23544    0.05796    0.19734    1.000
    N23      N        0.22772    0.64530    0.19630    1.000
    N24      N        0.41960    0.03294    0.07090    1.000
    N25      N        0.40152    0.55316    0.06486    1.000
    N26      N        0.97187    0.85793    0.22206    1.000
    N27      N        0.96190    0.63938    0.19734    1.000
    N28      N        0.96858    0.05100    0.19630    1.000
    N29      N        0.65130    0.53796    0.07090    1.000
    N30      N        0.66334    0.01170    0.06486    1.000
    N31      N        0.13587    0.74981    0.27794    1.000
    N32      N        0.94204    0.76456    0.30266    1.000
    N33      N        0.35470    0.77228    0.30370    1.000
    N34      N        0.96706    0.58040    0.42910    1.000
    N35      N        0.44684    0.59848    0.43514    1.000
    N36      N        0.14207    0.02813    0.27794    1.000
    N37      N        0.36062    0.03810    0.30266    1.000
    N38      N        0.94900    0.03142    0.30370    1.000
    N39      N        0.46204    0.34870    0.42910    1.000
    N40      N        0.98830    0.33666    0.43514    1.000
    O1       O        0.52398    0.16648    0.00248    1.000
    O2       O        0.47850    0.33600    0.00248    1.000
    O3       O        0.83352    0.47602    0.49752    1.000
    O4       O        0.66400    0.52150    0.49752    1.000
    O5       O        0.47602    0.83352    0.99752    1.000
    O6       O        0.52150    0.66400    0.99752    1.000
    O7       O        0.16648    0.52398    0.50248    1.000
    O8       O        0.33600    0.47850    0.50248    1.000
    Cl1      Cl       0.36306    0.11306    0.72612    1.000
    O9       O        0.39120    0.23460    0.73740    1.000
    O10      O        0.43690    0.07050    0.69420    1.000
    O11      O        0.34620    0.00280    0.73740    1.000
    O12      O        0.25730    0.12370    0.69420    1.000
    Cl2      Cl       0.88694    0.63694    0.77388    1.000
    O13      O        0.76540    0.60880    0.76260    1.000
    O14      O        0.92950    0.56310    0.80580    1.000
    O15      O        0.99720    0.65380    0.76260    1.000
    O16      O        0.87630    0.74270    0.80580    1.000
    Cl3      Cl       0.63694    0.88694    0.27388    1.000
    O17      O        0.60880    0.76540    0.26260    1.000
    O18      O        0.56310    0.92950    0.30580    1.000
    O19      O        0.65380    0.99720    0.26260    1.000
    O20      O        0.74270    0.87630    0.30580    1.000
    Cl4      Cl       0.11306    0.36306    0.22612    1.000
    O21      O        0.23460    0.39120    0.23740    1.000
    O22      O        0.07050    0.43690    0.19420    1.000
    O23      O        0.00280    0.34620    0.23740    1.000
    O24      O        0.12370    0.25730    0.19420    1.000
