data_functionalizedCrystal
_audit_creation_method	'EQeq! by Chris Wilmer'
_symmetry_space_group_name_H-M	'P1'
_symmetry_Int_Tables_number	1
_symmetry_cell_setting	triclinic
loop_
_symmetry_equiv_pos_as_xyz
  x,y,z
_cell_length_a	16.1369
_cell_length_b	12.8809
_cell_length_c	22.4044
_cell_angle_alpha	90
_cell_angle_beta	106.294
_cell_angle_gamma	90
loop_
_atom_site_label
_atom_site_type_symbol
_atom_site_fract_x
_atom_site_fract_y
_atom_site_fract_z
_atom_site_charge
Mof_Mn	Mn	0.80005	0.85022	0.3591	1.002
Mof_Mn	Mn	0.57817	0.93468	0.28664	0.808
Mof_C 	C 	0.78042	0.78621	0.48724	0.373
Mof_C 	C 	0.83244	0.78363	0.5547	-0.147
Mof_C 	C 	0.79464	0.77978	0.60343	0.085
Mof_H 	H 	0.7349	0.7766	0.5954	0.01
Mof_C 	C 	0.84714	0.78083	0.66373	-0.165
Mof_H 	H 	0.8235	0.7792	0.6971	0.1
Mof_C 	C 	0.93562	0.78429	0.67353	0.106
Mof_N 	N 	0.97391	0.78765	0.62794	-0.14
Mof_C 	C 	0.2539	0.37023	0.70403	0.373
Mof_C 	C 	0.218	0.47257	0.71702	-0.157
Mof_C 	C 	0.12962	0.48663	0.70462	0.091
Mof_H 	H 	0.0924	0.4314	0.69	0.016
Mof_C 	C 	0.09686	0.5814	0.71384	-0.166
Mof_H 	H 	0.0376	0.5917	0.7053	0.103
Mof_C 	C 	0.15431	0.66137	0.73611	0.11
Mof_C 	C 	0.26963	0.5577	0.73809	0.1
Mof_H 	H 	0.329	0.5497	0.7458	0.004
Mof_C 	C 	0.72662	0.0718	0.37241	0.408
Mof_C 	C 	0.75334	0.18157	0.3914	-0.167
Mof_C 	C 	0.83929	0.2101	0.4096	0.1
Mof_H 	H 	0.882	0.1607	0.4117	0.013
Mof_C 	C 	0.86152	0.3119	0.42456	-0.169
Mof_H 	H 	0.919	0.3328	0.4352	0.101
Mof_C 	C 	0.79687	0.38215	0.42339	0.108
Mof_N 	N 	0.71299	0.35725	0.40647	-0.145
Mof_C 	C 	0.72739	0.55451	0.72464	0.43
Mof_C 	C 	0.76389	0.52965	0.67134	-0.179
Mof_C 	C 	0.71411	0.5096	0.61169	0.106
Mof_H 	H 	0.6545	0.503	0.6032	0.001
Mof_C 	C 	0.7535	0.4995	0.56455	-0.181
Mof_H 	H 	0.7212	0.4859	0.5239	0.098
Mof_C 	C 	0.8415	0.51004	0.57946	0.117
Mof_N 	N 	0.89219	0.52238	0.63711	-0.144
Mof_C 	C 	0.99016	0.7759	0.40289	0.181
Mof_H 	H 	0.9622	0.7179	0.4126	-0.023
Mof_C 	C 	0.07841	0.7734	0.41596	-0.301
Mof_H 	H 	0.1085	0.7144	0.4339	0.139
Mof_C 	C 	0.12263	0.8577	0.40268	0.291
Mof_C 	C 	0.07308	0.9406	0.37463	-0.3
Mof_H 	H 	0.0995	0.9987	0.3635	0.146
Mof_C 	C 	0.98481	0.9382	0.36294	0.18
Mof_H 	H 	0.9532	0.9958	0.3444	-0.024
Mof_C 	C 	0.22005	0.8595	0.42005	-0.442
Mof_H 	H 	0.2387	0.8612	0.3825	0.169
Mof_H 	H 	0.2425	0.7965	0.4425	0.161
Mof_C 	C 	0.25658	0.9528	0.45997	0.225
Mof_H 	H 	0.2279	0.9588	0.4925	-0.026
Mof_H 	H 	0.243	0.0147	0.4345	-0.034
Mof_C 	C 	0.35373	0.9492	0.49001	-0.436
Mof_H 	H 	0.3708	0.0099	0.5163	0.168
Mof_H 	H 	0.3676	0.8882	0.5163	0.158
Mof_C 	C 	0.40451	0.9463	0.44289	0.284
Mof_C 	C 	0.43552	0.8549	0.42618	-0.303
Mof_H 	H 	0.4269	0.7931	0.445	0.132
Mof_C 	C 	0.47961	0.8546	0.38134	0.168
Mof_H 	H 	0.4997	0.7916	0.3707	-0.044
Mof_C 	C 	0.46523	0.0287	0.36975	0.171
Mof_H 	H 	0.4756	0.0898	0.3509	-0.035
Mof_C 	C 	0.42034	0.0351	0.4136	-0.304
Mof_H 	H 	0.4008	0.099	0.4234	0.141
Mof_N 	N 	0.94244	0.85718	0.37702	-0.228
Mof_N 	N 	0.49465	0.94015	0.35279	-0.235
Mof_C 	C 	0.92115	0.7879	0.57006	0.09
Mof_H 	H 	0.9464	0.7913	0.5376	0.019
Mof_N 	N 	0.23996	0.65155	0.74821	-0.142
Mof_C 	C 	0.69293	0.2581	0.3898	0.095
Mof_H 	H 	0.6348	0.2401	0.3764	0.004
Mof_C 	C 	0.85234	0.53256	0.68151	0.107
Mof_H 	H 	0.8865	0.5423	0.7221	0.013
Mof_S 	S 	0.00087	0.77986	0.75221	-0.023
Mof_S 	S 	0.12468	0.79048	0.74895	-0.011
Mof_S 	S 	0.81891	0.51657	0.4407	-0.015
Mof_S 	S 	0.90559	0.51093	0.52614	-0.029
Mof_O 	O 	0.70009	0.79141	0.47379	-0.318
Mof_O 	O 	0.82376	0.78344	0.44863	-0.38
Mof_O 	O 	0.77978	0.0019	0.39438	-0.381
Mof_O 	O 	0.65214	0.0599	0.3361	-0.388
Mof_O 	O 	0.20144	0.29716	0.6884	-0.378
Mof_O 	O 	0.33326	0.36377	0.70911	-0.328
Mof_O 	O 	0.78116	0.569	0.77523	-0.411
Mof_O 	O 	0.64759	0.5608	0.71501	-0.392
Mof_O 	O 	0.65753	0.81455	0.34887	-0.871
Mof_H 	H 	0.6522	0.8111	0.3855	0.381
Mof_H 	H 	0.652	0.7545	0.3325	0.377
Mof_Mn	Mn	0.19995	0.35022	0.1409	1.002
Mof_Mn	Mn	0.42183	0.43468	0.21336	0.809
Mof_C 	C 	0.21958	0.28621	0.01276	0.373
Mof_C 	C 	0.16756	0.28363	0.9453	-0.147
Mof_C 	C 	0.20536	0.27978	0.89657	0.085
Mof_H 	H 	0.2651	0.2766	0.9046	0.01
Mof_C 	C 	0.15286	0.28083	0.83627	-0.165
Mof_H 	H 	0.1765	0.2792	0.8029	0.1
Mof_C 	C 	0.06438	0.28429	0.82647	0.107
Mof_N 	N 	0.02609	0.28765	0.87206	-0.14
Mof_C 	C 	0.7461	0.87023	0.79597	0.373
Mof_C 	C 	0.782	0.97257	0.78298	-0.157
Mof_C 	C 	0.87038	0.98663	0.79538	0.089
Mof_H 	H 	0.9076	0.9314	0.81	0.016
Mof_C 	C 	0.90314	0.0814	0.78616	-0.165
Mof_H 	H 	0.9624	0.0917	0.7947	0.103
Mof_C 	C 	0.84569	0.16137	0.76389	0.109
Mof_C 	C 	0.73037	0.0577	0.76191	0.1
Mof_H 	H 	0.671	0.0497	0.7542	0.004
Mof_C 	C 	0.27338	0.5718	0.12759	0.408
Mof_C 	C 	0.24666	0.68157	0.1086	-0.167
Mof_C 	C 	0.16071	0.7101	0.0904	0.1
Mof_H 	H 	0.118	0.6607	0.0883	0.013
Mof_C 	C 	0.13848	0.8119	0.07544	-0.17
Mof_H 	H 	0.081	0.8328	0.0648	0.101
Mof_C 	C 	0.20313	0.88215	0.07661	0.108
Mof_N 	N 	0.28701	0.85725	0.09353	-0.145
Mof_C 	C 	0.27261	0.05451	0.77536	0.429
Mof_C 	C 	0.23611	0.02965	0.82866	-0.175
Mof_C 	C 	0.28589	0.0096	0.88831	0.098
Mof_H 	H 	0.3455	0.003	0.8968	0.003
Mof_C 	C 	0.2465	0.9995	0.93545	-0.171
Mof_H 	H 	0.2788	0.9859	0.9761	0.096
Mof_C 	C 	0.1585	0.01004	0.92054	0.112
Mof_N 	N 	0.10781	0.02238	0.86289	-0.143
Mof_C 	C 	0.00984	0.2759	0.09711	0.18
Mof_H 	H 	0.0378	0.2179	0.0874	-0.023
Mof_C 	C 	0.92159	0.2734	0.08404	-0.298
Mof_H 	H 	0.8915	0.2144	0.0661	0.14
Mof_C 	C 	0.87737	0.3577	0.09732	0.29
Mof_C 	C 	0.92692	0.4406	0.12537	-0.299
Mof_H 	H 	0.9005	0.4987	0.1365	0.145
Mof_C 	C 	0.01519	0.4382	0.13706	0.18
Mof_H 	H 	0.0468	0.4958	0.1556	-0.023
Mof_C 	C 	0.77995	0.3595	0.07995	-0.439
Mof_H 	H 	0.7613	0.3612	0.1175	0.168
Mof_H 	H 	0.7575	0.2965	0.0575	0.161
Mof_C 	C 	0.74342	0.4528	0.04003	0.221
Mof_H 	H 	0.7721	0.4588	0.0075	-0.024
Mof_H 	H 	0.757	0.5147	0.0655	-0.032
Mof_C 	C 	0.64627	0.4492	0.00999	-0.433
Mof_H 	H 	0.6292	0.5099	0.9837	0.167
Mof_H 	H 	0.6324	0.3882	0.9837	0.157
Mof_C 	C 	0.59549	0.4463	0.05711	0.282
Mof_C 	C 	0.56448	0.3549	0.07382	-0.301
Mof_H 	H 	0.5731	0.2931	0.055	0.132
Mof_C 	C 	0.52039	0.3546	0.11866	0.167
Mof_H 	H 	0.5003	0.2916	0.1293	-0.044
Mof_C 	C 	0.53477	0.5287	0.13025	0.17
Mof_H 	H 	0.5244	0.5898	0.1491	-0.035
Mof_C 	C 	0.57966	0.5351	0.0864	-0.302
Mof_H 	H 	0.5992	0.599	0.0766	0.14
Mof_N 	N 	0.05756	0.35718	0.12298	-0.228
Mof_N 	N 	0.50535	0.44015	0.14721	-0.234
Mof_C 	C 	0.07885	0.2879	0.92994	0.09
Mof_H 	H 	0.0536	0.2913	0.9624	0.02
Mof_N 	N 	0.76004	0.15155	0.75179	-0.142
Mof_C 	C 	0.30707	0.7581	0.1102	0.095
Mof_H 	H 	0.3652	0.7401	0.1236	0.004
Mof_C 	C 	0.14766	0.03256	0.81849	0.105
Mof_H 	H 	0.1135	0.0423	0.7779	0.013
Mof_S 	S 	0.99913	0.27986	0.74779	-0.026
Mof_S 	S 	0.87532	0.29048	0.75105	-0.012
Mof_S 	S 	0.18109	0.01657	0.0593	-0.015
Mof_S 	S 	0.09441	0.01093	0.97386	-0.029
Mof_O 	O 	0.29991	0.29141	0.02621	-0.318
Mof_O 	O 	0.17624	0.28344	0.05137	-0.38
Mof_O 	O 	0.22022	0.5019	0.10562	-0.383
Mof_O 	O 	0.34786	0.5599	0.1639	-0.389
Mof_O 	O 	0.79856	0.79716	0.8116	-0.378
Mof_O 	O 	0.66674	0.86377	0.79089	-0.328
Mof_O 	O 	0.21884	0.069	0.72477	-0.411
Mof_O 	O 	0.35241	0.0608	0.78499	-0.392
Mof_O 	O 	0.34247	0.31455	0.15113	-0.871
Mof_H 	H 	0.3478	0.3111	0.1145	0.381
Mof_H 	H 	0.348	0.2545	0.1675	0.377
Mof_Mn	Mn	0.19995	0.14978	0.6409	1.002
Mof_Mn	Mn	0.42183	0.06532	0.71336	0.808
Mof_C 	C 	0.21958	0.21379	0.51276	0.373
Mof_C 	C 	0.16756	0.21637	0.4453	-0.147
Mof_C 	C 	0.20536	0.22022	0.39657	0.085
Mof_H 	H 	0.2651	0.2234	0.4046	0.01
Mof_C 	C 	0.15286	0.21917	0.33627	-0.165
Mof_H 	H 	0.1765	0.2208	0.3029	0.1
Mof_C 	C 	0.06438	0.21571	0.32647	0.106
Mof_N 	N 	0.02609	0.21235	0.37206	-0.14
Mof_C 	C 	0.7461	0.62977	0.29597	0.373
Mof_C 	C 	0.782	0.52743	0.28298	-0.157
Mof_C 	C 	0.87038	0.51337	0.29538	0.091
Mof_H 	H 	0.9076	0.5686	0.31	0.016
Mof_C 	C 	0.90314	0.4186	0.28616	-0.166
Mof_H 	H 	0.9624	0.4083	0.2947	0.103
Mof_C 	C 	0.84569	0.33863	0.26389	0.11
Mof_C 	C 	0.73037	0.4423	0.26191	0.1
Mof_H 	H 	0.671	0.4503	0.2542	0.004
Mof_C 	C 	0.27338	0.9282	0.62759	0.408
Mof_C 	C 	0.24666	0.81843	0.6086	-0.167
Mof_C 	C 	0.16071	0.7899	0.5904	0.1
Mof_H 	H 	0.118	0.8393	0.5883	0.013
Mof_C 	C 	0.13848	0.6881	0.57544	-0.169
Mof_H 	H 	0.081	0.6672	0.5648	0.101
Mof_C 	C 	0.20313	0.61785	0.57661	0.108
Mof_N 	N 	0.28701	0.64275	0.59353	-0.145
Mof_C 	C 	0.27261	0.44549	0.27536	0.43
Mof_C 	C 	0.23611	0.47035	0.32866	-0.179
Mof_C 	C 	0.28589	0.4904	0.38831	0.106
Mof_H 	H 	0.3455	0.497	0.3968	0.001
Mof_C 	C 	0.2465	0.5005	0.43545	-0.181
Mof_H 	H 	0.2788	0.5141	0.4761	0.098
Mof_C 	C 	0.1585	0.48996	0.42054	0.117
Mof_N 	N 	0.10781	0.47762	0.36289	-0.144
Mof_C 	C 	0.00984	0.2241	0.59711	0.181
Mof_H 	H 	0.0378	0.2821	0.5874	-0.023
Mof_C 	C 	0.92159	0.2266	0.58404	-0.301
Mof_H 	H 	0.8915	0.2856	0.5661	0.139
Mof_C 	C 	0.87737	0.1423	0.59732	0.291
Mof_C 	C 	0.92692	0.0594	0.62537	-0.3
Mof_H 	H 	0.9005	0.0013	0.6365	0.146
Mof_C 	C 	0.01519	0.0618	0.63706	0.18
Mof_H 	H 	0.0468	0.0042	0.6556	-0.024
Mof_C 	C 	0.77995	0.1405	0.57995	-0.442
Mof_H 	H 	0.7613	0.1388	0.6175	0.169
Mof_H 	H 	0.7575	0.2035	0.5575	0.161
Mof_C 	C 	0.74342	0.0472	0.54003	0.225
Mof_H 	H 	0.7721	0.0412	0.5075	-0.026
Mof_H 	H 	0.757	0.9853	0.5655	-0.034
Mof_C 	C 	0.64627	0.0508	0.50999	-0.436
Mof_H 	H 	0.6292	0.9901	0.4837	0.168
Mof_H 	H 	0.6324	0.1118	0.4837	0.158
Mof_C 	C 	0.59549	0.0537	0.55711	0.284
Mof_C 	C 	0.56448	0.1451	0.57382	-0.303
Mof_H 	H 	0.5731	0.2069	0.555	0.132
Mof_C 	C 	0.52039	0.1454	0.61866	0.168
Mof_H 	H 	0.5003	0.2084	0.6293	-0.044
Mof_C 	C 	0.53477	0.9713	0.63025	0.171
Mof_H 	H 	0.5244	0.9102	0.6491	-0.035
Mof_C 	C 	0.57966	0.9649	0.5864	-0.304
Mof_H 	H 	0.5992	0.901	0.5766	0.141
Mof_N 	N 	0.05756	0.14282	0.62298	-0.228
Mof_N 	N 	0.50535	0.05985	0.64721	-0.235
Mof_C 	C 	0.07885	0.2121	0.42994	0.09
Mof_H 	H 	0.0536	0.2087	0.4624	0.019
Mof_N 	N 	0.76004	0.34845	0.25179	-0.142
Mof_C 	C 	0.30707	0.7419	0.6102	0.095
Mof_H 	H 	0.3652	0.7599	0.6236	0.004
Mof_C 	C 	0.14766	0.46744	0.31849	0.107
Mof_H 	H 	0.1135	0.4577	0.2779	0.013
Mof_S 	S 	0.99913	0.22014	0.24779	-0.023
Mof_S 	S 	0.87532	0.20952	0.25105	-0.011
Mof_S 	S 	0.18109	0.48343	0.5593	-0.015
Mof_S 	S 	0.09441	0.48907	0.47386	-0.029
Mof_O 	O 	0.29991	0.20859	0.52621	-0.318
Mof_O 	O 	0.17624	0.21656	0.55137	-0.38
Mof_O 	O 	0.22022	0.9981	0.60562	-0.381
Mof_O 	O 	0.34786	0.9401	0.6639	-0.388
Mof_O 	O 	0.79856	0.70284	0.3116	-0.378
Mof_O 	O 	0.66674	0.63623	0.29089	-0.328
Mof_O 	O 	0.21884	0.431	0.22477	-0.411
Mof_O 	O 	0.35241	0.4392	0.28499	-0.392
Mof_O 	O 	0.34247	0.18545	0.65113	-0.871
Mof_H 	H 	0.3478	0.1889	0.6145	0.381
Mof_H 	H 	0.348	0.2455	0.6675	0.377
Mof_Mn	Mn	0.80005	0.64978	0.8591	1.002
Mof_Mn	Mn	0.57817	0.56532	0.78664	0.809
Mof_C 	C 	0.78042	0.71379	0.98724	0.373
Mof_C 	C 	0.83244	0.71637	0.0547	-0.147
Mof_C 	C 	0.79464	0.72022	0.10343	0.085
Mof_H 	H 	0.7349	0.7234	0.0954	0.01
Mof_C 	C 	0.84714	0.71917	0.16373	-0.165
Mof_H 	H 	0.8235	0.7208	0.1971	0.1
Mof_C 	C 	0.93562	0.71571	0.17353	0.107
Mof_N 	N 	0.97391	0.71235	0.12794	-0.14
Mof_C 	C 	0.2539	0.12977	0.20403	0.373
Mof_C 	C 	0.218	0.02743	0.21702	-0.157
Mof_C 	C 	0.12962	0.01337	0.20462	0.089
Mof_H 	H 	0.0924	0.0686	0.19	0.016
Mof_C 	C 	0.09686	0.9186	0.21384	-0.165
Mof_H 	H 	0.0376	0.9083	0.2053	0.103
Mof_C 	C 	0.15431	0.83863	0.23611	0.109
Mof_C 	C 	0.26963	0.9423	0.23809	0.1
Mof_H 	H 	0.329	0.9503	0.2458	0.004
Mof_C 	C 	0.72662	0.4282	0.87241	0.408
Mof_C 	C 	0.75334	0.31843	0.8914	-0.167
Mof_C 	C 	0.83929	0.2899	0.9096	0.1
Mof_H 	H 	0.882	0.3393	0.9117	0.013
Mof_C 	C 	0.86152	0.1881	0.92456	-0.17
Mof_H 	H 	0.919	0.1672	0.9352	0.101
Mof_C 	C 	0.79687	0.11785	0.92339	0.108
Mof_N 	N 	0.71299	0.14275	0.90647	-0.145
Mof_C 	C 	0.72739	0.94549	0.22464	0.429
Mof_C 	C 	0.76389	0.97035	0.17134	-0.175
Mof_C 	C 	0.71411	0.9904	0.11169	0.098
Mof_H 	H 	0.6545	0.997	0.1032	0.003
Mof_C 	C 	0.7535	0.0005	0.06455	-0.171
Mof_H 	H 	0.7212	0.0141	0.0239	0.096
Mof_C 	C 	0.8415	0.98996	0.07946	0.112
Mof_N 	N 	0.89219	0.97762	0.13711	-0.143
Mof_C 	C 	0.99016	0.7241	0.90289	0.18
Mof_H 	H 	0.9622	0.7821	0.9126	-0.023
Mof_C 	C 	0.07841	0.7266	0.91596	-0.298
Mof_H 	H 	0.1085	0.7856	0.9339	0.14
Mof_C 	C 	0.12263	0.6423	0.90268	0.29
Mof_C 	C 	0.07308	0.5594	0.87463	-0.299
Mof_H 	H 	0.0995	0.5013	0.8635	0.145
Mof_C 	C 	0.98481	0.5618	0.86294	0.18
Mof_H 	H 	0.9532	0.5042	0.8444	-0.023
Mof_C 	C 	0.22005	0.6405	0.92005	-0.439
Mof_H 	H 	0.2387	0.6388	0.8825	0.168
Mof_H 	H 	0.2425	0.7035	0.9425	0.161
Mof_C 	C 	0.25658	0.5472	0.95997	0.221
Mof_H 	H 	0.2279	0.5412	0.9925	-0.024
Mof_H 	H 	0.243	0.4853	0.9345	-0.032
Mof_C 	C 	0.35373	0.5508	0.99001	-0.433
Mof_H 	H 	0.3708	0.4901	0.0163	0.167
Mof_H 	H 	0.3676	0.6118	0.0163	0.157
Mof_C 	C 	0.40451	0.5537	0.94289	0.282
Mof_C 	C 	0.43552	0.6451	0.92618	-0.301
Mof_H 	H 	0.4269	0.7069	0.945	0.132
Mof_C 	C 	0.47961	0.6454	0.88134	0.167
Mof_H 	H 	0.4997	0.7084	0.8707	-0.044
Mof_C 	C 	0.46523	0.4713	0.86975	0.17
Mof_H 	H 	0.4756	0.4102	0.8509	-0.035
Mof_C 	C 	0.42034	0.4649	0.9136	-0.302
Mof_H 	H 	0.4008	0.401	0.9234	0.14
Mof_N 	N 	0.94244	0.64282	0.87702	-0.228
Mof_N 	N 	0.49465	0.55985	0.85279	-0.234
Mof_C 	C 	0.92115	0.7121	0.07006	0.09
Mof_H 	H 	0.9464	0.7087	0.0376	0.02
Mof_N 	N 	0.23996	0.84845	0.24821	-0.142
Mof_C 	C 	0.69293	0.2419	0.8898	0.095
Mof_H 	H 	0.6348	0.2599	0.8764	0.004
Mof_C 	C 	0.85234	0.96744	0.18151	0.105
Mof_H 	H 	0.8865	0.9577	0.2221	0.013
Mof_S 	S 	0.00087	0.72014	0.25221	-0.026
Mof_S 	S 	0.12468	0.70952	0.24895	-0.012
Mof_S 	S 	0.81891	0.98343	0.9407	-0.015
Mof_S 	S 	0.90559	0.98907	0.02614	-0.029
Mof_O 	O 	0.70009	0.70859	0.97379	-0.318
Mof_O 	O 	0.82376	0.71656	0.94863	-0.38
Mof_O 	O 	0.77978	0.4981	0.89438	-0.383
Mof_O 	O 	0.65214	0.4401	0.8361	-0.389
Mof_O 	O 	0.20144	0.20284	0.1884	-0.378
Mof_O 	O 	0.33326	0.13623	0.20911	-0.328
Mof_O 	O 	0.78116	0.931	0.27523	-0.411
Mof_O 	O 	0.64759	0.9392	0.21501	-0.392
Mof_O 	O 	0.65753	0.68545	0.84887	-0.871
Mof_H 	H 	0.6522	0.6889	0.8855	0.381
Mof_H 	H 	0.652	0.7455	0.8325	0.377
_end
