data_functionalizedCrystal
_audit_creation_method	'EQeq! by Chris Wilmer'
_symmetry_space_group_name_H-M	'P1'
_symmetry_Int_Tables_number	1
_symmetry_cell_setting	triclinic
loop_
_symmetry_equiv_pos_as_xyz
  x,y,z
_cell_length_a	26.901
_cell_length_b	26.901
_cell_length_c	9.7742
_cell_angle_alpha	90
_cell_angle_beta	90
_cell_angle_gamma	120
loop_
_atom_site_label
_atom_site_type_symbol
_atom_site_fract_x
_atom_site_fract_y
_atom_site_fract_z
_atom_site_charge
Mof_N 	N 	0.558	0.9992	0.1521	-0.17
Mof_C 	C 	0.6044	0.124	0.9998	0.134
Mof_H 	H 	0.6242	0.1039	0.9997	-0.012
Mof_C 	C 	0.6356	0.1835	0.9997	-0.177
Mof_H 	H 	0.6755	0.2027	0.9997	0.102
Mof_C 	C 	0.5971	0.0103	0.2178	0.028
Mof_N 	N 	0.22467	0.33253	0.48543	-0.177
Mof_C 	C 	0.27107	0.45733	0.33313	0.091
Mof_H 	H 	0.29087	0.43723	0.33303	-0.005
Mof_C 	C 	0.30227	0.51683	0.33303	-0.148
Mof_H 	H 	0.34217	0.53603	0.33303	0.091
Mof_C 	C 	0.26377	0.34363	0.55113	0.046
Mof_N 	N 	0.89133	0.66587	0.81877	-0.183
Mof_C 	C 	0.93773	0.79067	0.66647	0.083
Mof_H 	H 	0.95753	0.77057	0.66637	0.002
Mof_C 	C 	0.96893	0.85017	0.66637	-0.126
Mof_H 	H 	0.00883	0.86937	0.66637	0.081
Mof_C 	C 	0.93043	0.67697	0.88447	0.081
Mof_N 	N 	0.0008	0.5588	0.1521	-0.185
Mof_C 	C 	0.876	0.4804	0.9998	0.135
Mof_H 	H 	0.8961	0.5203	0.9997	-0.01
Mof_C 	C 	0.8165	0.4521	0.9997	-0.175
Mof_H 	H 	0.7973	0.4728	0.9997	0.103
Mof_C 	C 	0.9897	0.5868	0.2178	0.049
Mof_N 	N 	0.66747	0.89213	0.48543	-0.176
Mof_C 	C 	0.54267	0.81373	0.33313	0.091
Mof_H 	H 	0.56277	0.85363	0.33303	-0.004
Mof_C 	C 	0.48317	0.78543	0.33303	-0.148
Mof_H 	H 	0.46397	0.80613	0.33303	0.092
Mof_C 	C 	0.65637	0.92013	0.55113	0.048
Mof_N 	N 	0.33413	0.22547	0.81877	-0.182
Mof_C 	C 	0.20933	0.14707	0.66647	0.098
Mof_H 	H 	0.22943	0.18697	0.66637	-0.005
Mof_C 	C 	0.14983	0.11877	0.66637	-0.157
Mof_H 	H 	0.13063	0.13947	0.66637	0.096
Mof_C 	C 	0.32303	0.25347	0.88447	0.074
Mof_N 	N 	0.4412	0.442	0.1521	-0.179
Mof_C 	C 	0.5196	0.3956	0.9998	0.136
Mof_H 	H 	0.4797	0.3758	0.9997	-0.011
Mof_C 	C 	0.5479	0.3644	0.9997	-0.176
Mof_H 	H 	0.5272	0.3245	0.9997	0.103
Mof_C 	C 	0.4132	0.4029	0.2178	0.04
Mof_N 	N 	0.10787	0.77533	0.48543	-0.177
Mof_C 	C 	0.18627	0.72893	0.33313	0.092
Mof_H 	H 	0.14637	0.70913	0.33303	-0.006
Mof_C 	C 	0.21457	0.69773	0.33303	-0.148
Mof_H 	H 	0.19387	0.65783	0.33303	0.091
Mof_C 	C 	0.07987	0.73623	0.55113	0.045
Mof_N 	N 	0.77453	0.10867	0.81877	-0.183
Mof_C 	C 	0.85293	0.06227	0.66647	0.101
Mof_H 	H 	0.81303	0.04247	0.66637	-0.008
Mof_C 	C 	0.88123	0.03107	0.66637	-0.167
Mof_H 	H 	0.86053	0.99117	0.66637	0.105
Mof_C 	C 	0.74653	0.06957	0.88447	0.075
Mof_N 	N 	0.9992	0.558	0.8479	-0.158
Mof_C 	C 	0.124	0.6044	0.0002	0.042
Mof_H 	H 	0.1039	0.6242	0.0003	0.005
Mof_C 	C 	0.1835	0.6356	0.0003	-0.118
Mof_H 	H 	0.2027	0.6755	0.0003	0.076
Mof_C 	C 	0.0103	0.5971	0.7822	0.041
Mof_N 	N 	0.66587	0.89133	0.18123	-0.182
Mof_C 	C 	0.79067	0.93773	0.33353	0.077
Mof_H 	H 	0.77057	0.95753	0.33363	0.002
Mof_C 	C 	0.85017	0.96893	0.33363	-0.122
Mof_H 	H 	0.86937	0.00883	0.33363	0.074
Mof_C 	C 	0.67697	0.93043	0.11553	0.057
Mof_N 	N 	0.33253	0.22467	0.51457	-0.179
Mof_C 	C 	0.45733	0.27107	0.66687	0.09
Mof_H 	H 	0.43723	0.29087	0.66697	-0.005
Mof_C 	C 	0.51683	0.30227	0.66697	-0.15
Mof_H 	H 	0.53603	0.34217	0.66697	0.089
Mof_C 	C 	0.34363	0.26377	0.44887	0.043
Mof_N 	N 	0.5588	0.0008	0.8479	-0.173
Mof_C 	C 	0.4804	0.876	0.0002	0.043
Mof_H 	H 	0.5203	0.8961	0.0003	0.007
Mof_C 	C 	0.4521	0.8165	0.0003	-0.118
Mof_H 	H 	0.4728	0.7973	0.0003	0.077
Mof_C 	C 	0.5868	0.9897	0.7822	0.06
Mof_N 	N 	0.22547	0.33413	0.18123	-0.181
Mof_C 	C 	0.14707	0.20933	0.33353	0.093
Mof_H 	H 	0.18697	0.22943	0.33363	-0.007
Mof_C 	C 	0.11877	0.14983	0.33363	-0.157
Mof_H 	H 	0.13947	0.13063	0.33363	0.091
Mof_C 	C 	0.25347	0.32303	0.11553	0.048
Mof_N 	N 	0.89213	0.66747	0.51457	-0.179
Mof_C 	C 	0.81373	0.54267	0.66687	0.09
Mof_H 	H 	0.85363	0.56277	0.66697	-0.004
Mof_C 	C 	0.78543	0.48317	0.66697	-0.149
Mof_H 	H 	0.80613	0.46397	0.66697	0.09
Mof_C 	C 	0.92013	0.65637	0.44887	0.044
Mof_N 	N 	0.442	0.4412	0.8479	-0.166
Mof_C 	C 	0.3956	0.5196	0.0002	0.042
Mof_H 	H 	0.3758	0.4797	0.0003	0.006
Mof_C 	C 	0.3644	0.5479	0.0003	-0.119
Mof_H 	H 	0.3245	0.5272	0.0003	0.076
Mof_C 	C 	0.4029	0.4132	0.7822	0.05
Mof_N 	N 	0.10867	0.77453	0.18123	-0.181
Mof_C 	C 	0.06227	0.85293	0.33353	0.095
Mof_H 	H 	0.04247	0.81303	0.33363	-0.009
Mof_C 	C 	0.03107	0.88123	0.33363	-0.162
Mof_H 	H 	0.99117	0.86053	0.33363	0.098
Mof_C 	C 	0.06957	0.74653	0.11553	0.048
Mof_N 	N 	0.77533	0.10787	0.51457	-0.179
Mof_C 	C 	0.72893	0.18627	0.66687	0.09
Mof_H 	H 	0.70913	0.14637	0.66697	-0.005
Mof_C 	C 	0.69773	0.21457	0.66697	-0.15
Mof_H 	H 	0.65783	0.19387	0.66697	0.089
Mof_C 	C 	0.73623	0.07987	0.44887	0.041
Mof_N 	N 	0.442	0.0008	0.8479	-0.173
Mof_C 	C 	0.3956	0.876	0.0002	0.043
Mof_H 	H 	0.3758	0.8961	0.0003	0.007
Mof_C 	C 	0.3644	0.8165	0.0003	-0.118
Mof_H 	H 	0.3245	0.7973	0.0003	0.077
Mof_C 	C 	0.4029	0.9897	0.7822	0.06
Mof_N 	N 	0.10867	0.33413	0.18123	-0.181
Mof_C 	C 	0.06227	0.20933	0.33353	0.099
Mof_H 	H 	0.04247	0.22943	0.33363	-0.01
Mof_C 	C 	0.03107	0.14983	0.33363	-0.172
Mof_H 	H 	0.99117	0.13063	0.33363	0.101
Mof_C 	C 	0.06957	0.32303	0.11553	0.048
Mof_N 	N 	0.77533	0.66747	0.51457	-0.179
Mof_C 	C 	0.72893	0.54267	0.66687	0.09
Mof_H 	H 	0.70913	0.56277	0.66697	-0.005
Mof_C 	C 	0.69773	0.48317	0.66697	-0.149
Mof_H 	H 	0.65783	0.46397	0.66697	0.089
Mof_C 	C 	0.73623	0.65637	0.44887	0.043
Mof_N 	N 	0.9992	0.4412	0.8479	-0.158
Mof_C 	C 	0.124	0.5196	0.0002	0.042
Mof_H 	H 	0.1039	0.4797	0.0003	0.005
Mof_C 	C 	0.1835	0.5479	0.0003	-0.118
Mof_H 	H 	0.2027	0.5272	0.0003	0.076
Mof_C 	C 	0.0103	0.4132	0.7822	0.041
Mof_N 	N 	0.66587	0.77453	0.18123	-0.181
Mof_C 	C 	0.79067	0.85293	0.33353	0.084
Mof_H 	H 	0.77057	0.81303	0.33363	-0.003
Mof_C 	C 	0.85017	0.88123	0.33363	-0.14
Mof_H 	H 	0.86937	0.86053	0.33363	0.086
Mof_C 	C 	0.67697	0.74653	0.11553	0.048
Mof_N 	N 	0.33253	0.10787	0.51457	-0.179
Mof_C 	C 	0.45733	0.18627	0.66687	0.09
Mof_H 	H 	0.43723	0.14637	0.66697	-0.005
Mof_C 	C 	0.51683	0.21457	0.66697	-0.15
Mof_H 	H 	0.53603	0.19387	0.66697	0.089
Mof_C 	C 	0.34363	0.07987	0.44887	0.041
Mof_N 	N 	0.5588	0.558	0.8479	-0.166
Mof_C 	C 	0.4804	0.6044	0.0002	0.042
Mof_H 	H 	0.5203	0.6242	0.0003	0.006
Mof_C 	C 	0.4521	0.6356	0.0003	-0.119
Mof_H 	H 	0.4728	0.6755	0.0003	0.077
Mof_C 	C 	0.5868	0.5971	0.7822	0.05
Mof_N 	N 	0.22547	0.89133	0.18123	-0.182
Mof_C 	C 	0.14707	0.93773	0.33353	0.081
Mof_H 	H 	0.18697	0.95753	0.33363	0
Mof_C 	C 	0.11877	0.96893	0.33363	-0.129
Mof_H 	H 	0.13947	0.00883	0.33363	0.076
Mof_C 	C 	0.25347	0.93043	0.11553	0.057
Mof_N 	N 	0.89213	0.22467	0.51457	-0.179
Mof_C 	C 	0.81373	0.27107	0.66687	0.09
Mof_H 	H 	0.85363	0.29087	0.66697	-0.004
Mof_C 	C 	0.78543	0.30227	0.66697	-0.149
Mof_H 	H 	0.80613	0.34217	0.66697	0.09
Mof_C 	C 	0.92013	0.26377	0.44887	0.044
Mof_N 	N 	0.0008	0.442	0.1521	-0.185
Mof_C 	C 	0.876	0.3956	0.9998	0.135
Mof_H 	H 	0.8961	0.3758	0.9997	-0.009
Mof_C 	C 	0.8165	0.3644	0.9997	-0.175
Mof_H 	H 	0.7973	0.3245	0.9997	0.103
Mof_C 	C 	0.9897	0.4029	0.2178	0.049
Mof_N 	N 	0.66747	0.77533	0.48543	-0.177
Mof_C 	C 	0.54267	0.72893	0.33313	0.091
Mof_H 	H 	0.56277	0.70913	0.33303	-0.005
Mof_C 	C 	0.48317	0.69773	0.33303	-0.148
Mof_H 	H 	0.46397	0.65783	0.33303	0.091
Mof_C 	C 	0.65637	0.73623	0.55113	0.046
Mof_N 	N 	0.33413	0.10867	0.81877	-0.183
Mof_C 	C 	0.20933	0.06227	0.66647	0.105
Mof_H 	H 	0.22943	0.04247	0.66637	-0.01
Mof_C 	C 	0.14983	0.03107	0.66637	-0.174
Mof_H 	H 	0.13063	0.99117	0.66637	0.107
Mof_C 	C 	0.32303	0.06957	0.88447	0.075
Mof_N 	N 	0.4412	0.9992	0.1521	-0.169
Mof_C 	C 	0.5196	0.124	0.9998	0.135
Mof_H 	H 	0.4797	0.1039	0.9997	-0.011
Mof_C 	C 	0.5479	0.1835	0.9997	-0.176
Mof_H 	H 	0.5272	0.2027	0.9997	0.103
Mof_C 	C 	0.4132	0.0103	0.2178	0.029
Mof_N 	N 	0.10787	0.33253	0.48543	-0.177
Mof_C 	C 	0.18627	0.45733	0.33313	0.092
Mof_H 	H 	0.14637	0.43723	0.33303	-0.006
Mof_C 	C 	0.21457	0.51683	0.33303	-0.148
Mof_H 	H 	0.19387	0.53603	0.33303	0.091
Mof_C 	C 	0.07987	0.34363	0.55113	0.045
Mof_N 	N 	0.77453	0.66587	0.81877	-0.182
Mof_C 	C 	0.85293	0.79067	0.66647	0.089
Mof_H 	H 	0.81303	0.77057	0.66637	-0.002
Mof_C 	C 	0.88123	0.85017	0.66637	-0.141
Mof_H 	H 	0.86053	0.86937	0.66637	0.091
Mof_C 	C 	0.74653	0.67697	0.88447	0.074
Mof_N 	N 	0.558	0.5588	0.1521	-0.179
Mof_C 	C 	0.6044	0.4804	0.9998	0.136
Mof_H 	H 	0.6242	0.5203	0.9997	-0.011
Mof_C 	C 	0.6356	0.4521	0.9997	-0.176
Mof_H 	H 	0.6755	0.4728	0.9997	0.103
Mof_C 	C 	0.5971	0.5868	0.2178	0.04
Mof_N 	N 	0.22467	0.89213	0.48543	-0.176
Mof_C 	C 	0.27107	0.81373	0.33313	0.091
Mof_H 	H 	0.29087	0.85363	0.33303	-0.004
Mof_C 	C 	0.30227	0.78543	0.33303	-0.148
Mof_H 	H 	0.34217	0.80613	0.33303	0.092
Mof_C 	C 	0.26377	0.92013	0.55113	0.048
Mof_N 	N 	0.89133	0.22547	0.81877	-0.183
Mof_C 	C 	0.93773	0.14707	0.66647	0.088
Mof_H 	H 	0.95753	0.18697	0.66637	0
Mof_C 	C 	0.96893	0.11877	0.66637	-0.135
Mof_H 	H 	0.00883	0.13947	0.66637	0.084
Mof_C 	C 	0.93043	0.25347	0.88447	0.081
Mof_Au	Au	0.66667	0.03991	0.33333	0.034
Mof_Au	Au	0.96009	0.62675	0.33333	0.041
Mof_Au	Au	0.37325	0.33333	0.33333	0.037
Mof_Au	Au	0.03991	0.66667	0.66667	0.055
Mof_Au	Au	0.70658	0	-0	-0.017
Mof_Au	Au	0.62675	0.96009	0.66667	0.063
Mof_Au	Au	0.29342	0.29342	-0	-0.004
Mof_Au	Au	0.33333	0.37325	0.66667	0.057
Mof_Au	Au	-0	0.70658	-0	-0.014
Mof_Au	Au	0.33333	0.96009	0.66667	0.063
Mof_Au	Au	1.85593e-17	0.29342	-0	-0.015
Mof_Au	Au	0.03991	0.37325	0.66667	0.055
Mof_Au	Au	0.70658	0.70658	-0	-0.002
Mof_Au	Au	0.62675	0.66667	0.66667	0.057
Mof_Au	Au	0.29342	0	-0	-0.017
Mof_Au	Au	0.96009	0.33333	0.33333	0.041
Mof_Au	Au	0.37325	0.03991	0.33333	0.034
Mof_Au	Au	0.66667	0.62675	0.33333	0.037
Mof_Fe	Fe	0.5	0	-0	0.603
Mof_Fe	Fe	0.16667	0.33333	0.33333	0.65
Mof_Fe	Fe	0.83333	0.66667	0.66667	0.654
Mof_Fe	Fe	-0	0.5	-0	0.605
Mof_Fe	Fe	0.66667	0.83333	0.33333	0.651
Mof_Fe	Fe	0.33333	0.16667	0.66667	0.653
Mof_Fe	Fe	0.5	0.5	-0	0.614
Mof_Fe	Fe	0.16667	0.83333	0.33333	0.651
Mof_Fe	Fe	0.83333	0.16667	0.66667	0.654
Mof_N 	N 	0.54715	0.0943	0.0002	-0.226
Mof_C 	C 	0.6068	0.2136	0.9995	0.099
Mof_C 	C 	0.6386	0.2772	0.9985	0.093
Mof_N 	N 	0.21382	0.42763	0.33353	-0.189
Mof_C 	C 	0.27347	0.54693	0.33283	0.076
Mof_C 	C 	0.30527	0.61053	0.33183	0.099
Mof_N 	N 	0.88048	0.76097	0.66687	-0.185
Mof_C 	C 	0.94013	0.88027	0.66617	0.067
Mof_C 	C 	0.97193	0.94387	0.66517	0.11
Mof_N 	N 	0.9057	0.45285	0.0002	-0.224
Mof_C 	C 	0.7864	0.3932	0.9995	0.098
Mof_C 	C 	0.7228	0.3614	0.9985	0.093
Mof_N 	N 	0.57237	0.78618	0.33353	-0.188
Mof_C 	C 	0.45307	0.72653	0.33283	0.076
Mof_C 	C 	0.38947	0.69473	0.33183	0.099
Mof_N 	N 	0.23903	0.11952	0.66687	-0.191
Mof_C 	C 	0.11973	0.05987	0.66617	0.089
Mof_C 	C 	0.05613	0.02807	0.66517	0.087
Mof_N 	N 	0.54715	0.45285	0.0002	-0.226
Mof_C 	C 	0.6068	0.3932	0.9995	0.099
Mof_C 	C 	0.6386	0.3614	0.9985	0.093
Mof_N 	N 	0.21382	0.78618	0.33353	-0.188
Mof_C 	C 	0.27347	0.72653	0.33283	0.076
Mof_C 	C 	0.30527	0.69473	0.33183	0.099
Mof_N 	N 	0.88048	0.11952	0.66687	-0.189
Mof_C 	C 	0.94013	0.05987	0.66617	0.079
Mof_C 	C 	0.97193	0.02807	0.66517	0.097
Mof_N 	N 	0.0943	0.54715	0.9998	-0.141
Mof_C 	C 	0.2136	0.6068	0.0005	0.048
Mof_C 	C 	0.2772	0.6386	0.0015	0.102
Mof_N 	N 	0.76097	0.88048	0.33313	-0.185
Mof_C 	C 	0.88027	0.94013	0.33383	0.06
Mof_C 	C 	0.94387	0.97193	0.33483	0.107
Mof_N 	N 	0.42763	0.21382	0.66647	-0.188
Mof_C 	C 	0.54693	0.27347	0.66717	0.073
Mof_C 	C 	0.61053	0.30527	0.66817	0.095
Mof_N 	N 	0.45285	0.9057	0.9998	-0.139
Mof_C 	C 	0.3932	0.7864	0.0005	0.048
Mof_C 	C 	0.3614	0.7228	0.0015	0.102
Mof_N 	N 	0.11952	0.23903	0.33313	-0.191
Mof_C 	C 	0.05987	0.11973	0.33383	0.083
Mof_C 	C 	0.02807	0.05613	0.33483	0.084
Mof_N 	N 	0.78618	0.57237	0.66647	-0.188
Mof_C 	C 	0.72653	0.45307	0.66717	0.073
Mof_C 	C 	0.69473	0.38947	0.66817	0.095
Mof_N 	N 	0.45285	0.54715	0.9998	-0.141
Mof_C 	C 	0.3932	0.6068	0.0005	0.048
Mof_C 	C 	0.3614	0.6386	0.0015	0.102
Mof_N 	N 	0.11952	0.88048	0.33313	-0.188
Mof_C 	C 	0.05987	0.94013	0.33383	0.07
Mof_C 	C 	0.02807	0.97193	0.33483	0.097
Mof_N 	N 	0.78618	0.21382	0.66647	-0.188
Mof_C 	C 	0.72653	0.27347	0.66717	0.073
Mof_C 	C 	0.69473	0.30527	0.66817	0.095
Mof_N 	N 	0.69609	0.30391	0.9996	-0.133
Mof_N 	N 	0.36276	0.63724	0.33293	-0.136
Mof_N 	N 	0.02942	0.97058	0.66627	-0.134
Mof_N 	N 	0.69609	0.39218	0.9996	-0.133
Mof_N 	N 	0.36276	0.72551	0.33293	-0.135
Mof_N 	N 	0.02942	0.05885	0.66627	-0.137
Mof_N 	N 	0.60782	0.30391	0.9996	-0.133
Mof_N 	N 	0.27449	0.63724	0.33293	-0.136
Mof_N 	N 	0.94115	0.97058	0.66627	-0.132
Mof_N 	N 	0.30391	0.69609	0.0004	-0.14
Mof_N 	N 	0.97058	0.02942	0.33373	-0.138
Mof_N 	N 	0.63724	0.36276	0.66707	-0.137
Mof_N 	N 	0.39218	0.69609	0.0004	-0.14
Mof_N 	N 	0.05885	0.02942	0.33373	-0.141
Mof_N 	N 	0.72551	0.36276	0.66707	-0.137
Mof_N 	N 	0.30391	0.60782	0.0004	-0.14
Mof_N 	N 	0.97058	0.94115	0.33373	-0.136
Mof_N 	N 	0.63724	0.27449	0.66707	-0.137
_end
