data_functionalizedCrystal
_audit_creation_method	'EQeq! by Chris Wilmer'
_symmetry_space_group_name_H-M	'P1'
_symmetry_Int_Tables_number	1
_symmetry_cell_setting	triclinic
loop_
_symmetry_equiv_pos_as_xyz
  x,y,z
_cell_length_a	7.6458
_cell_length_b	13.5219
_cell_length_c	16.3845
_cell_angle_alpha	90
_cell_angle_beta	90
_cell_angle_gamma	90
loop_
_atom_site_label
_atom_site_type_symbol
_atom_site_fract_x
_atom_site_fract_y
_atom_site_fract_z
_atom_site_charge
Mof_Cu	Cu	0.12656	0.78522	0.09884	0.782
Mof_N 	N 	0.9603	0.78238	0.00533	-0.2
Mof_C 	C 	0.8689	0.78622	0.94969	-0.341
Mof_N 	N 	0.1811	0.92266	0.12754	-0.228
Mof_C 	C 	0.2055	0.00484	0.14329	-0.23
Mof_Cu	Cu	0.80189	0.64927	0.34101	0.783
Mof_N 	N 	0.9538	0.68322	0.24806	-0.205
Mof_C 	C 	0.0457	0.70325	0.19483	-0.359
Mof_Cu	Cu	0.37344	0.21478	0.59884	0.782
Mof_N 	N 	0.5397	0.21762	0.50533	-0.203
Mof_C 	C 	0.6311	0.21378	0.44969	-0.341
Mof_N 	N 	0.3189	0.07734	0.62754	-0.227
Mof_C 	C 	0.2945	0.99516	0.64329	-0.232
Mof_Cu	Cu	0.69811	0.35073	0.84101	0.783
Mof_N 	N 	0.5462	0.31678	0.74806	-0.206
Mof_C 	C 	0.4543	0.29675	0.69483	-0.357
Mof_Cu	Cu	0.87344	0.28522	0.40116	0.782
Mof_N 	N 	0.0397	0.28238	0.49467	-0.202
Mof_C 	C 	0.1311	0.28622	0.55031	-0.34
Mof_N 	N 	0.8189	0.42266	0.37246	-0.228
Mof_C 	C 	0.7945	0.50484	0.35671	-0.231
Mof_Cu	Cu	0.19811	0.14927	0.15899	0.783
Mof_N 	N 	0.0462	0.18322	0.25194	-0.205
Mof_C 	C 	0.9543	0.20325	0.30517	-0.358
Mof_Cu	Cu	0.62656	0.71478	0.90116	0.782
Mof_N 	N 	0.4603	0.71762	0.99467	-0.202
Mof_C 	C 	0.3689	0.71378	0.05031	-0.341
Mof_N 	N 	0.6811	0.57734	0.87246	-0.228
Mof_C 	C 	0.7055	0.49516	0.85671	-0.231
Mof_Cu	Cu	0.30189	0.85073	0.65899	0.783
Mof_N 	N 	0.4538	0.81678	0.75194	-0.206
Mof_C 	C 	0.5457	0.79675	0.80517	-0.357
Mof_Cu	Cu	0.87344	0.21478	0.90116	0.781
Mof_N 	N 	0.0397	0.21762	0.99467	-0.201
Mof_C 	C 	0.1311	0.21378	0.05031	-0.342
Mof_N 	N 	0.8189	0.07734	0.87246	-0.229
Mof_C 	C 	0.7945	0.99516	0.85671	-0.23
Mof_Cu	Cu	0.19811	0.35073	0.65899	0.783
Mof_N 	N 	0.0462	0.31678	0.75194	-0.205
Mof_C 	C 	0.9543	0.29675	0.80517	-0.359
Mof_Cu	Cu	0.62656	0.78522	0.40116	0.782
Mof_N 	N 	0.4603	0.78238	0.49467	-0.203
Mof_C 	C 	0.3689	0.78622	0.55031	-0.341
Mof_N 	N 	0.6811	0.92266	0.37246	-0.227
Mof_C 	C 	0.7055	0.00484	0.35671	-0.232
Mof_Cu	Cu	0.30189	0.64927	0.15899	0.783
Mof_N 	N 	0.4538	0.68322	0.25194	-0.206
Mof_C 	C 	0.5457	0.70325	0.30517	-0.357
Mof_Cu	Cu	0.12656	0.71478	0.59884	0.782
Mof_N 	N 	0.9603	0.71762	0.50533	-0.202
Mof_C 	C 	0.8689	0.71378	0.44969	-0.34
Mof_N 	N 	0.1811	0.57734	0.62754	-0.228
Mof_C 	C 	0.2055	0.49516	0.64329	-0.231
Mof_Cu	Cu	0.80189	0.85073	0.84101	0.783
Mof_N 	N 	0.9538	0.81678	0.74806	-0.205
Mof_C 	C 	0.0457	0.79675	0.69483	-0.358
Mof_Cu	Cu	0.37344	0.28522	0.09884	0.782
Mof_N 	N 	0.5397	0.28238	0.00533	-0.202
Mof_C 	C 	0.6311	0.28622	0.94969	-0.341
Mof_N 	N 	0.3189	0.42266	0.12754	-0.228
Mof_C 	C 	0.2945	0.50484	0.14329	-0.231
Mof_Cu	Cu	0.69811	0.14927	0.34101	0.783
Mof_N 	N 	0.5462	0.18322	0.24806	-0.206
Mof_C 	C 	0.4543	0.20325	0.19483	-0.357
_end
