# CIF file generated by openbabel 3.1.0, see https://openbabel.org
data_I
_chemical_name_common 'image0'
_cell_length_a 9.8905
_cell_length_b 16.8809
_cell_length_c 7.2031
_cell_angle_alpha 90
_cell_angle_beta 70.7143
_cell_angle_gamma 90
_space_group_name_H-M_alt 'P 1'
_space_group_name_Hall 'P 1'
loop_
    _symmetry_equiv_pos_as_xyz
    x,y,z
loop_
    _atom_site_label
    _atom_site_type_symbol
    _atom_site_fract_x
    _atom_site_fract_y
    _atom_site_fract_z
    _atom_site_occupancy
    C1       C        0.83987    0.76513    0.81967    1.000
    C2       C        0.73530    0.71677    0.95103    1.000
    C3       C        0.61125    0.75388    0.08209    1.000
    C4       C        0.60072    0.83778    0.09181    1.000
    C5       C        0.71526    0.88287    0.97879    1.000
    C6       C        0.82991    0.84854    0.83229    1.000
    C7       C        0.93762    0.89754    0.69235    1.000
    C8       C        0.47403    0.87717    0.23077    1.000
    C9       C        0.74533    0.62811    0.94078    1.000
    O1       O        0.06650    0.87480    0.69070    1.000
    O2       O        0.89690    0.97800    0.69410    1.000
    O3       O        0.84780    0.58170    0.84450    1.000
    O4       O        0.65200    0.58400    0.06670    1.000
    O5       O        0.38700    0.84200    0.37970    1.000
    O6       O        0.45760    0.95360    0.21110    1.000
    Bi1      Bi       0.22158    0.95928    0.47356    1.000
    C10      C        0.16013    0.26513    0.68033    1.000
    C11      C        0.26470    0.21677    0.54897    1.000
    C12      C        0.38875    0.25388    0.41791    1.000
    C13      C        0.39928    0.33778    0.40819    1.000
    C14      C        0.28474    0.38287    0.52121    1.000
    C15      C        0.17009    0.34854    0.66771    1.000
    C16      C        0.06238    0.39754    0.80765    1.000
    C17      C        0.52597    0.37717    0.26923    1.000
    C18      C        0.25467    0.12811    0.55922    1.000
    O7       O        0.93350    0.37480    0.80930    1.000
    O8       O        0.10310    0.47800    0.80590    1.000
    O9       O        0.15220    0.08170    0.65550    1.000
    O10      O        0.34800    0.08400    0.43330    1.000
    O11      O        0.61300    0.34200    0.12030    1.000
    O12      O        0.54240    0.45360    0.28890    1.000
    Bi2      Bi       0.77842    0.45928    0.02644    1.000
    C19      C        0.16013    0.23487    0.18033    1.000
    C20      C        0.26470    0.28323    0.04897    1.000
    C21      C        0.38875    0.24612    0.91791    1.000
    C22      C        0.39928    0.16222    0.90819    1.000
    C23      C        0.28474    0.11713    0.02121    1.000
    C24      C        0.17009    0.15146    0.16771    1.000
    C25      C        0.06238    0.10246    0.30765    1.000
    C26      C        0.52597    0.12283    0.76923    1.000
    C27      C        0.25467    0.37189    0.05922    1.000
    O13      O        0.93350    0.12520    0.30930    1.000
    O14      O        0.10310    0.02200    0.30590    1.000
    O15      O        0.15220    0.41830    0.15550    1.000
    O16      O        0.34800    0.41600    0.93330    1.000
    O17      O        0.61300    0.15800    0.62030    1.000
    O18      O        0.54240    0.04640    0.78890    1.000
    Bi3      Bi       0.77842    0.04072    0.52644    1.000
    C28      C        0.83987    0.73487    0.31967    1.000
    C29      C        0.73530    0.78323    0.45103    1.000
    C30      C        0.61125    0.74612    0.58209    1.000
    C31      C        0.60072    0.66222    0.59181    1.000
    C32      C        0.71526    0.61713    0.47879    1.000
    C33      C        0.82991    0.65146    0.33229    1.000
    C34      C        0.93762    0.60246    0.19235    1.000
    C35      C        0.47403    0.62283    0.73077    1.000
    C36      C        0.74533    0.87189    0.44078    1.000
    O19      O        0.06650    0.62520    0.19070    1.000
    O20      O        0.89690    0.52200    0.19410    1.000
    O21      O        0.84780    0.91830    0.34450    1.000
    O22      O        0.65200    0.91600    0.56670    1.000
    O23      O        0.38700    0.65800    0.87970    1.000
    O24      O        0.45760    0.54640    0.71110    1.000
    Bi4      Bi       0.22158    0.54072    0.97356    1.000
