data_functionalizedCrystal
_audit_creation_method	'EQeq! by Chris Wilmer'
_symmetry_space_group_name_H-M	'P1'
_symmetry_Int_Tables_number	1
_symmetry_cell_setting	triclinic
loop_
_symmetry_equiv_pos_as_xyz
  x,y,z
_cell_length_a	12.1277
_cell_length_b	13.1644
_cell_length_c	13.1644
_cell_angle_alpha	100.135
_cell_angle_beta	106.875
_cell_angle_gamma	106.875
loop_
_atom_site_label
_atom_site_type_symbol
_atom_site_fract_x
_atom_site_fract_y
_atom_site_fract_z
_atom_site_charge
Mof_Co	Co	0.62234	0.16531	0.72617	1.152
Mof_Co	Co	0.87766	0.27383	0.83469	1.151
Mof_Co	Co	0.37766	0.83469	0.27383	1.151
Mof_Co	Co	0.12234	0.72617	0.16531	1.15
Mof_H 	H 	0.8959	0.2836	0.1774	0.057
Mof_H 	H 	0.9865	0.3009	0.3793	0.065
Mof_H 	H 	0.9595	0.2806	0.5394	0.043
Mof_H 	H 	0.5926	0.136	0.3794	0.064
Mof_H 	H 	0.504	0.101	0.174	0.072
Mof_H 	H 	0.531	0.1234	0.014	0.036
Mof_H 	H 	0.41	0.1161	0.8077	-0.006
Mof_H 	H 	0.2003	0.0597	0.7463	0.096
Mof_H 	H 	0.1964	0.0332	0.4386	0.099
Mof_H 	H 	0.4087	0.0889	0.5083	0.002
Mof_H 	H 	0.0032	0.9991	0.6027	0.062
Mof_H 	H 	0.6041	0.8226	0.7164	0.057
Mof_H 	H 	0.5135	0.6207	0.6991	0.065
Mof_H 	H 	0.5405	0.4606	0.7194	0.043
Mof_H 	H 	0.9074	0.6206	0.864	0.064
Mof_H 	H 	0.996	0.826	0.899	0.072
Mof_H 	H 	0.969	0.986	0.8766	0.037
Mof_H 	H 	0.09	0.1923	0.8839	-0.006
Mof_H 	H 	0.2997	0.2537	0.9403	0.096
Mof_H 	H 	0.3036	0.5614	0.9668	0.099
Mof_H 	H 	0.0913	0.4917	0.9111	0.003
Mof_H 	H 	0.4968	0.3973	0.0009	0.064
Mof_H 	H 	0.1041	0.7164	0.8226	0.057
Mof_H 	H 	0.0135	0.6991	0.6207	0.065
Mof_H 	H 	0.0405	0.7194	0.4606	0.043
Mof_H 	H 	0.4074	0.864	0.6206	0.064
Mof_H 	H 	0.496	0.899	0.826	0.072
Mof_H 	H 	0.469	0.8766	0.986	0.036
Mof_H 	H 	0.59	0.8839	0.1923	-0.006
Mof_H 	H 	0.7997	0.9403	0.2537	0.096
Mof_H 	H 	0.8036	0.9668	0.5614	0.099
Mof_H 	H 	0.5913	0.9111	0.4917	0.002
Mof_H 	H 	0.9968	0.0009	0.3973	0.062
Mof_H 	H 	0.3959	0.1774	0.2836	0.057
Mof_H 	H 	0.4865	0.3793	0.3009	0.065
Mof_H 	H 	0.4595	0.5394	0.2806	0.043
Mof_H 	H 	0.0926	0.3794	0.136	0.064
Mof_H 	H 	0.004	0.174	0.101	0.072
Mof_H 	H 	0.031	0.014	0.1234	0.037
Mof_H 	H 	0.91	0.8077	0.1161	-0.006
Mof_H 	H 	0.7003	0.7463	0.0597	0.096
Mof_H 	H 	0.6964	0.4386	0.0332	0.099
Mof_H 	H 	0.9087	0.5083	0.0889	0.003
Mof_H 	H 	0.5032	0.6027	0.9991	0.064
Mof_C 	C 	0.7179	0.20861	0.08035	-0.085
Mof_C 	C 	0.8178	0.24712	0.17748	-0.038
Mof_C 	C 	0.8047	0.23237	0.27763	0.023
Mof_C 	C 	0.907	0.26871	0.37869	-0.088
Mof_C 	C 	0.891	0.25717	0.47423	0.012
Mof_C 	C 	0.7706	0.20994	0.47594	-0.075
Mof_C 	C 	0.671	0.17021	0.37879	-0.043
Mof_C 	C 	0.6844	0.17984	0.27774	0.032
Mof_C 	C 	0.5828	0.13814	0.17566	-0.1
Mof_C 	C 	0.5988	0.15169	0.08011	0.017
Mof_C 	C 	0.7333	0.2216	0.9739	0.357
Mof_C 	C 	0.7547	0.20511	0.58355	0.359
Mof_C 	C 	0.3666	0.09958	0.73222	0.107
Mof_C 	C 	0.2405	0.0662	0.6962	-0.184
Mof_C 	C 	0.1734	0.04212	0.58508	0.132
Mof_C 	C 	0.2383	0.05027	0.51433	-0.174
Mof_C 	C 	0.3664	0.08415	0.55705	0.102
Mof_C 	C 	0.0376	0.0086	0.5488	-0.085
Mof_C 	C 	0.7821	0.91965	0.79139	-0.085
Mof_C 	C 	0.6822	0.82252	0.75288	-0.038
Mof_C 	C 	0.6953	0.72237	0.76763	0.023
Mof_C 	C 	0.593	0.62131	0.73129	-0.088
Mof_C 	C 	0.609	0.52577	0.74283	0.012
Mof_C 	C 	0.7294	0.52406	0.79006	-0.075
Mof_C 	C 	0.829	0.62121	0.82979	-0.043
Mof_C 	C 	0.8156	0.72226	0.82016	0.031
Mof_C 	C 	0.9172	0.82434	0.86186	-0.1
Mof_C 	C 	0.9012	0.91989	0.84831	0.017
Mof_C 	C 	0.7667	0.0261	0.7784	0.356
Mof_C 	C 	0.7453	0.41645	0.79489	0.359
Mof_C 	C 	0.1334	0.26778	0.90042	0.107
Mof_C 	C 	0.2595	0.3038	0.9338	-0.184
Mof_C 	C 	0.3266	0.41492	0.95788	0.133
Mof_C 	C 	0.2617	0.48567	0.94973	-0.175
Mof_C 	C 	0.1336	0.44295	0.91585	0.103
Mof_C 	C 	0.4624	0.4512	0.9914	-0.087
Mof_C 	C 	0.2821	0.79139	0.91965	-0.085
Mof_C 	C 	0.1822	0.75288	0.82252	-0.038
Mof_C 	C 	0.1953	0.76763	0.72237	0.023
Mof_C 	C 	0.093	0.73129	0.62131	-0.088
Mof_C 	C 	0.109	0.74283	0.52577	0.012
Mof_C 	C 	0.2294	0.79006	0.52406	-0.075
Mof_C 	C 	0.329	0.82979	0.62121	-0.043
Mof_C 	C 	0.3156	0.82016	0.72226	0.032
Mof_C 	C 	0.4172	0.86186	0.82434	-0.1
Mof_C 	C 	0.4012	0.84831	0.91989	0.017
Mof_C 	C 	0.2667	0.7784	0.0261	0.357
Mof_C 	C 	0.2453	0.79489	0.41645	0.359
Mof_C 	C 	0.6334	0.90042	0.26778	0.107
Mof_C 	C 	0.7595	0.9338	0.3038	-0.184
Mof_C 	C 	0.8266	0.95788	0.41492	0.132
Mof_C 	C 	0.7617	0.94973	0.48567	-0.174
Mof_C 	C 	0.6336	0.91585	0.44295	0.102
Mof_C 	C 	0.9624	0.9914	0.4512	-0.085
Mof_C 	C 	0.2179	0.08035	0.20861	-0.085
Mof_C 	C 	0.3178	0.17748	0.24712	-0.038
Mof_C 	C 	0.3047	0.27763	0.23237	0.023
Mof_C 	C 	0.407	0.37869	0.26871	-0.088
Mof_C 	C 	0.391	0.47423	0.25717	0.012
Mof_C 	C 	0.2706	0.47594	0.20994	-0.075
Mof_C 	C 	0.171	0.37879	0.17021	-0.043
Mof_C 	C 	0.1844	0.27774	0.17984	0.031
Mof_C 	C 	0.0828	0.17566	0.13814	-0.1
Mof_C 	C 	0.0988	0.08011	0.15169	0.017
Mof_C 	C 	0.2333	0.9739	0.2216	0.356
Mof_C 	C 	0.2547	0.58355	0.20511	0.359
Mof_C 	C 	0.8666	0.73222	0.09958	0.107
Mof_C 	C 	0.7405	0.6962	0.0662	-0.184
Mof_C 	C 	0.6734	0.58508	0.04212	0.133
Mof_C 	C 	0.7383	0.51433	0.05027	-0.175
Mof_C 	C 	0.8664	0.55705	0.08415	0.103
Mof_C 	C 	0.5376	0.5488	0.0086	-0.087
Mof_N 	N 	0.4311	0.11007	0.66511	-0.243
Mof_N 	N 	0.0689	0.33489	0.88993	-0.242
Mof_N 	N 	0.5689	0.88993	0.33489	-0.243
Mof_N 	N 	0.9311	0.66511	0.11007	-0.242
Mof_O 	O 	0.63703	0.1816	0.88824	-0.442
Mof_O 	O 	0.8407	0.26957	0.97607	-0.438
Mof_O 	O 	0.64635	0.16344	0.5816	-0.44
Mof_O 	O 	0.8509	0.2435	0.66956	-0.448
Mof_O 	O 	0.86297	0.11176	0.8184	-0.443
Mof_O 	O 	0.6593	0.02393	0.73043	-0.438
Mof_O 	O 	0.85365	0.4184	0.83656	-0.44
Mof_O 	O 	0.6491	0.33044	0.7565	-0.447
Mof_O 	O 	0.36297	0.8184	0.11176	-0.442
Mof_O 	O 	0.1593	0.73043	0.02393	-0.438
Mof_O 	O 	0.35365	0.83656	0.4184	-0.44
Mof_O 	O 	0.1491	0.7565	0.33044	-0.448
Mof_O 	O 	0.13703	0.88824	0.1816	-0.443
Mof_O 	O 	0.3407	0.97607	0.26957	-0.438
Mof_O 	O 	0.14635	0.5816	0.16344	-0.44
Mof_O 	O 	0.3509	0.66956	0.2435	-0.447
_end
