# CIF file generated by openbabel 3.1.0, see https://openbabel.org
data_I
_chemical_name_common 'image0'
_cell_length_a 15.084
_cell_length_b 27.43
_cell_length_c 15.799
_cell_angle_alpha 90
_cell_angle_beta 95.447
_cell_angle_gamma 90
_space_group_name_H-M_alt 'P 1'
_space_group_name_Hall 'P 1'
loop_
    _symmetry_equiv_pos_as_xyz
    x,y,z
loop_
    _atom_site_label
    _atom_site_type_symbol
    _atom_site_fract_x
    _atom_site_fract_y
    _atom_site_fract_z
    _atom_site_occupancy
    Zn1      Zn       0.06349    0.50373    0.43543    1.000
    O1       O        0.10400    0.44027    0.49420    1.000
    O2       O        0.00830    0.43500    0.59260    1.000
    O3       O        0.37420    0.03909    0.96250    1.000
    O4       O        0.47060    0.03619    0.86520    1.000
    N1       N        0.15970    0.50962    0.35540    1.000
    C1       C        0.07150    0.41920    0.55430    1.000
    C2       C        0.11210    0.37153    0.58270    1.000
    C3       C        0.08020    0.34640    0.64960    1.000
    H1       H        0.03210    0.35940    0.67720    1.000
    C4       C        0.11820    0.30250    0.67640    1.000
    H2       H        0.09660    0.28570    0.72290    1.000
    C5       C        0.18820    0.28260    0.63530    1.000
    C6       C        0.21890    0.30840    0.56940    1.000
    H3       H        0.26750    0.29580    0.54200    1.000
    C7       C        0.18110    0.35165    0.54240    1.000
    H4       H        0.20250    0.36820    0.49560    1.000
    C8       C        0.23180    0.23610    0.66270    1.000
    H5       H        0.28330    0.22690    0.63630    1.000
    C9       C        0.20530    0.20700    0.71990    1.000
    H6       H        0.15020    0.21470    0.74130    1.000
    C10      C        0.25190    0.16300    0.75530    1.000
    C11      C        0.22490    0.14480    0.82980    1.000
    H7       H        0.17350    0.15780    0.85200    1.000
    C12      C        0.27170    0.10806    0.87220    1.000
    H8       H        0.25300    0.09640    0.92430    1.000
    C13      C        0.34620    0.08744    0.84060    1.000
    C14      C        0.37030    0.10342    0.76290    1.000
    H9       H        0.41890    0.08850    0.73880    1.000
    C15      C        0.32400    0.14100    0.72010    1.000
    H10      H        0.34100    0.15190    0.66700    1.000
    C16      C        0.40090    0.05120    0.89330    1.000
    C17      C        0.23560    0.48570    0.37600    1.000
    H11      H        0.24210    0.46770    0.42770    1.000
    C18      C        0.30510    0.48590    0.32520    1.000
    H12      H        0.35920    0.46960    0.34290    1.000
    C19      C        0.29480    0.51030    0.24780    1.000
    C20      C        0.21360    0.52985    0.22410    1.000
    H13      H        0.20180    0.54450    0.16970    1.000
    C21      C        0.14860    0.52826    0.27900    1.000
    H14      H        0.09200    0.54150    0.26040    1.000
    C22      C        0.36800    0.50720    0.19170    1.000
    H15      H        0.42690    0.50420    0.21850    1.000
    C23      C        0.35910    0.50828    0.11130    1.000
    H16      H        0.30050    0.51230    0.08450    1.000
    C24      C        0.43190    0.50380    0.05540    1.000
    C25      C        0.44720    0.54211    0.00040    1.000
    C26      C        0.51570    0.53810    0.94340    1.000
    C27      C        0.52890    0.57890    0.88990    1.000
    H17      H        0.57550    0.57780    0.85360    1.000
    C28      C        0.47730    0.61890    0.88940    1.000
    H18      H        0.48640    0.64480    0.85130    1.000
    C29      C        0.40910    0.62270    0.94550    1.000
    H19      H        0.37290    0.65110    0.94470    1.000
    C30      C        0.39610    0.58600    0.99960    1.000
    H20      H        0.35190    0.58940    0.03830    1.000
    Zn2      Zn       0.43651    0.00373    0.06457    1.000
    O5       O        0.39600    0.94027    0.00580    1.000
    O6       O        0.49170    0.93500    0.90740    1.000
    O7       O        0.12580    0.53909    0.53750    1.000
    O8       O        0.02940    0.53619    0.63480    1.000
    N2       N        0.34030    0.00962    0.14460    1.000
    C31      C        0.42850    0.91920    0.94570    1.000
    C32      C        0.38790    0.87153    0.91730    1.000
    C33      C        0.41980    0.84640    0.85040    1.000
    H21      H        0.46790    0.85940    0.82280    1.000
    C34      C        0.38180    0.80250    0.82360    1.000
    H22      H        0.40340    0.78570    0.77710    1.000
    C35      C        0.31180    0.78260    0.86470    1.000
    C36      C        0.28110    0.80840    0.93060    1.000
    H23      H        0.23250    0.79580    0.95800    1.000
    C37      C        0.31890    0.85165    0.95760    1.000
    H24      H        0.29750    0.86820    0.00440    1.000
    C38      C        0.26820    0.73610    0.83730    1.000
    H25      H        0.21670    0.72690    0.86370    1.000
    C39      C        0.29470    0.70700    0.78010    1.000
    H26      H        0.34980    0.71470    0.75870    1.000
    C40      C        0.24810    0.66300    0.74470    1.000
    C41      C        0.27510    0.64480    0.67020    1.000
    H27      H        0.32650    0.65780    0.64800    1.000
    C42      C        0.22830    0.60806    0.62780    1.000
    H28      H        0.24700    0.59640    0.57570    1.000
    C43      C        0.15380    0.58744    0.65940    1.000
    C44      C        0.12970    0.60342    0.73710    1.000
    H29      H        0.08110    0.58850    0.76120    1.000
    C45      C        0.17600    0.64100    0.77990    1.000
    H30      H        0.15900    0.65190    0.83300    1.000
    C46      C        0.09910    0.55120    0.60670    1.000
    C47      C        0.26440    0.98570    0.12400    1.000
    H31      H        0.25790    0.96770    0.07230    1.000
    C48      C        0.19490    0.98590    0.17480    1.000
    H32      H        0.14080    0.96960    0.15710    1.000
    C49      C        0.20520    0.01030    0.25220    1.000
    C50      C        0.28640    0.02985    0.27590    1.000
    H33      H        0.29820    0.04450    0.33030    1.000
    C51      C        0.35140    0.02826    0.22100    1.000
    H34      H        0.40800    0.04150    0.23960    1.000
    C52      C        0.13200    0.00720    0.30830    1.000
    H35      H        0.07310    0.00420    0.28150    1.000
    C53      C        0.14090    0.00828    0.38870    1.000
    H36      H        0.19950    0.01230    0.41550    1.000
    C54      C        0.06810    0.00380    0.44460    1.000
    C55      C        0.05280    0.04211    0.49960    1.000
    C56      C        0.98430    0.03810    0.55660    1.000
    C57      C        0.97110    0.07890    0.61010    1.000
    H37      H        0.92450    0.07780    0.64640    1.000
    C58      C        0.02270    0.11890    0.61060    1.000
    H38      H        0.01360    0.14480    0.64870    1.000
    C59      C        0.09090    0.12270    0.55450    1.000
    H39      H        0.12710    0.15110    0.55530    1.000
    C60      C        0.10390    0.08600    0.50040    1.000
    H40      H        0.14810    0.08940    0.46170    1.000
    Zn3      Zn       0.93651    0.49627    0.56457    1.000
    O9       O        0.89600    0.55973    0.50580    1.000
    O10      O        0.99170    0.56500    0.40740    1.000
    O11      O        0.62580    0.96091    0.03750    1.000
    O12      O        0.52940    0.96381    0.13480    1.000
    N3       N        0.84030    0.49038    0.64460    1.000
    C61      C        0.92850    0.58080    0.44570    1.000
    C62      C        0.88790    0.62847    0.41730    1.000
    C63      C        0.91980    0.65360    0.35040    1.000
    H41      H        0.96790    0.64060    0.32280    1.000
    C64      C        0.88180    0.69750    0.32360    1.000
    H42      H        0.90340    0.71430    0.27710    1.000
    C65      C        0.81180    0.71740    0.36470    1.000
    C66      C        0.78110    0.69160    0.43060    1.000
    H43      H        0.73250    0.70420    0.45800    1.000
    C67      C        0.81890    0.64835    0.45760    1.000
    H44      H        0.79750    0.63180    0.50440    1.000
    C68      C        0.76820    0.76390    0.33730    1.000
    H45      H        0.71670    0.77310    0.36370    1.000
    C69      C        0.79470    0.79300    0.28010    1.000
    H46      H        0.84980    0.78530    0.25870    1.000
    C70      C        0.74810    0.83700    0.24470    1.000
    C71      C        0.77510    0.85520    0.17020    1.000
    H47      H        0.82650    0.84220    0.14800    1.000
    C72      C        0.72830    0.89194    0.12780    1.000
    H48      H        0.74700    0.90360    0.07570    1.000
    C73      C        0.65380    0.91256    0.15940    1.000
    C74      C        0.62970    0.89658    0.23710    1.000
    H49      H        0.58110    0.91150    0.26120    1.000
    C75      C        0.67600    0.85900    0.27990    1.000
    H50      H        0.65900    0.84810    0.33300    1.000
    C76      C        0.59910    0.94880    0.10670    1.000
    C77      C        0.76440    0.51430    0.62400    1.000
    H51      H        0.75790    0.53230    0.57230    1.000
    C78      C        0.69490    0.51410    0.67480    1.000
    H52      H        0.64080    0.53040    0.65710    1.000
    C79      C        0.70520    0.48970    0.75220    1.000
    C80      C        0.78640    0.47015    0.77590    1.000
    H53      H        0.79820    0.45550    0.83030    1.000
    C81      C        0.85140    0.47174    0.72100    1.000
    H54      H        0.90800    0.45850    0.73960    1.000
    C82      C        0.63200    0.49280    0.80830    1.000
    H55      H        0.57310    0.49580    0.78150    1.000
    C83      C        0.64090    0.49172    0.88870    1.000
    H56      H        0.69950    0.48770    0.91550    1.000
    C84      C        0.56810    0.49620    0.94460    1.000
    C85      C        0.55280    0.45789    0.99960    1.000
    C86      C        0.48430    0.46190    0.05660    1.000
    C87      C        0.47110    0.42110    0.11010    1.000
    H57      H        0.42450    0.42220    0.14640    1.000
    C88      C        0.52270    0.38110    0.11060    1.000
    H58      H        0.51360    0.35520    0.14870    1.000
    C89      C        0.59090    0.37730    0.05450    1.000
    H59      H        0.62710    0.34890    0.05530    1.000
    C90      C        0.60390    0.41400    0.00040    1.000
    H60      H        0.64810    0.41060    0.96170    1.000
    Zn4      Zn       0.56349    0.99627    0.93543    1.000
    O13      O        0.60400    0.05973    0.99420    1.000
    O14      O        0.50830    0.06500    0.09260    1.000
    O15      O        0.87420    0.46091    0.46250    1.000
    O16      O        0.97060    0.46381    0.36520    1.000
    N4       N        0.65970    0.99038    0.85540    1.000
    C91      C        0.57150    0.08080    0.05430    1.000
    C92      C        0.61210    0.12847    0.08270    1.000
    C93      C        0.58020    0.15360    0.14960    1.000
    H61      H        0.53210    0.14060    0.17720    1.000
    C94      C        0.61820    0.19750    0.17640    1.000
    H62      H        0.59660    0.21430    0.22290    1.000
    C95      C        0.68820    0.21740    0.13530    1.000
    C96      C        0.71890    0.19160    0.06940    1.000
    H63      H        0.76750    0.20420    0.04200    1.000
    C97      C        0.68110    0.14835    0.04240    1.000
    H64      H        0.70250    0.13180    0.99560    1.000
    C98      C        0.73180    0.26390    0.16270    1.000
    H65      H        0.78330    0.27310    0.13630    1.000
    C99      C        0.70530    0.29300    0.21990    1.000
    H66      H        0.65020    0.28530    0.24130    1.000
    C100     C        0.75190    0.33700    0.25530    1.000
    C101     C        0.72490    0.35520    0.32980    1.000
    H67      H        0.67350    0.34220    0.35200    1.000
    C102     C        0.77170    0.39194    0.37220    1.000
    H68      H        0.75300    0.40360    0.42430    1.000
    C103     C        0.84620    0.41256    0.34060    1.000
    C104     C        0.87030    0.39658    0.26290    1.000
    H69      H        0.91890    0.41150    0.23880    1.000
    C105     C        0.82400    0.35900    0.22010    1.000
    H70      H        0.84100    0.34810    0.16700    1.000
    C106     C        0.90090    0.44880    0.39330    1.000
    C107     C        0.73560    0.01430    0.87600    1.000
    H71      H        0.74210    0.03230    0.92770    1.000
    C108     C        0.80510    0.01410    0.82520    1.000
    H72      H        0.85920    0.03040    0.84290    1.000
    C109     C        0.79480    0.98970    0.74780    1.000
    C110     C        0.71360    0.97015    0.72410    1.000
    H73      H        0.70180    0.95550    0.66970    1.000
    C111     C        0.64860    0.97174    0.77900    1.000
    H74      H        0.59200    0.95850    0.76040    1.000
    C112     C        0.86800    0.99280    0.69170    1.000
    H75      H        0.92690    0.99580    0.71850    1.000
    C113     C        0.85910    0.99172    0.61130    1.000
    H76      H        0.80050    0.98770    0.58450    1.000
    C114     C        0.93190    0.99620    0.55540    1.000
    C115     C        0.94720    0.95789    0.50040    1.000
    C116     C        0.01570    0.96190    0.44340    1.000
    C117     C        0.02890    0.92110    0.38990    1.000
    H77      H        0.07550    0.92220    0.35360    1.000
    C118     C        0.97730    0.88110    0.38940    1.000
    H78      H        0.98640    0.85520    0.35130    1.000
    C119     C        0.90910    0.87730    0.44550    1.000
    H79      H        0.87290    0.84890    0.44470    1.000
    C120     C        0.89610    0.91400    0.49960    1.000
    H80      H        0.85190    0.91060    0.53830    1.000
    Zn5      Zn       0.56349    0.00373    0.43543    1.000
    O17      O        0.60400    0.94027    0.49420    1.000
    O18      O        0.50830    0.93500    0.59260    1.000
    O19      O        0.87420    0.53909    0.96250    1.000
    O20      O        0.97060    0.53619    0.86520    1.000
    N5       N        0.65970    0.00962    0.35540    1.000
    C121     C        0.57150    0.91920    0.55430    1.000
    C122     C        0.61210    0.87153    0.58270    1.000
    C123     C        0.58020    0.84640    0.64960    1.000
    H81      H        0.53210    0.85940    0.67720    1.000
    C124     C        0.61820    0.80250    0.67640    1.000
    H82      H        0.59660    0.78570    0.72290    1.000
    C125     C        0.68820    0.78260    0.63530    1.000
    C126     C        0.71890    0.80840    0.56940    1.000
    H83      H        0.76750    0.79580    0.54200    1.000
    C127     C        0.68110    0.85165    0.54240    1.000
    H84      H        0.70250    0.86820    0.49560    1.000
    C128     C        0.73180    0.73610    0.66270    1.000
    H85      H        0.78330    0.72690    0.63630    1.000
    C129     C        0.70530    0.70700    0.71990    1.000
    H86      H        0.65020    0.71470    0.74130    1.000
    C130     C        0.75190    0.66300    0.75530    1.000
    C131     C        0.72490    0.64480    0.82980    1.000
    H87      H        0.67350    0.65780    0.85200    1.000
    C132     C        0.77170    0.60806    0.87220    1.000
    H88      H        0.75300    0.59640    0.92430    1.000
    C133     C        0.84620    0.58744    0.84060    1.000
    C134     C        0.87030    0.60342    0.76290    1.000
    H89      H        0.91890    0.58850    0.73880    1.000
    C135     C        0.82400    0.64100    0.72010    1.000
    H90      H        0.84100    0.65190    0.66700    1.000
    C136     C        0.90090    0.55120    0.89330    1.000
    C137     C        0.73560    0.98570    0.37600    1.000
    H91      H        0.74210    0.96770    0.42770    1.000
    C138     C        0.80510    0.98590    0.32520    1.000
    H92      H        0.85920    0.96960    0.34290    1.000
    C139     C        0.79480    0.01030    0.24780    1.000
    C140     C        0.71360    0.02985    0.22410    1.000
    H93      H        0.70180    0.04450    0.16970    1.000
    C141     C        0.64860    0.02826    0.27900    1.000
    H94      H        0.59200    0.04150    0.26040    1.000
    C142     C        0.86800    0.00720    0.19170    1.000
    H95      H        0.92690    0.00420    0.21850    1.000
    C143     C        0.85910    0.00828    0.11130    1.000
    H96      H        0.80050    0.01230    0.08450    1.000
    C144     C        0.93190    0.00380    0.05540    1.000
    C145     C        0.94720    0.04211    0.00040    1.000
    C146     C        0.01570    0.03810    0.94340    1.000
    C147     C        0.02890    0.07890    0.88990    1.000
    H97      H        0.07550    0.07780    0.85360    1.000
    C148     C        0.97730    0.11890    0.88940    1.000
    H98      H        0.98640    0.14480    0.85130    1.000
    C149     C        0.90910    0.12270    0.94550    1.000
    H99      H        0.87290    0.15110    0.94470    1.000
    C150     C        0.89610    0.08600    0.99960    1.000
    H100     H        0.85190    0.08940    0.03830    1.000
    Zn6      Zn       0.93651    0.50373    0.06457    1.000
    O21      O        0.89600    0.44027    0.00580    1.000
    O22      O        0.99170    0.43500    0.90740    1.000
    O23      O        0.62580    0.03909    0.53750    1.000
    O24      O        0.52940    0.03619    0.63480    1.000
    N6       N        0.84030    0.50962    0.14460    1.000
    C151     C        0.92850    0.41920    0.94570    1.000
    C152     C        0.88790    0.37153    0.91730    1.000
    C153     C        0.91980    0.34640    0.85040    1.000
    H101     H        0.96790    0.35940    0.82280    1.000
    C154     C        0.88180    0.30250    0.82360    1.000
    H102     H        0.90340    0.28570    0.77710    1.000
    C155     C        0.81180    0.28260    0.86470    1.000
    C156     C        0.78110    0.30840    0.93060    1.000
    H103     H        0.73250    0.29580    0.95800    1.000
    C157     C        0.81890    0.35165    0.95760    1.000
    H104     H        0.79750    0.36820    0.00440    1.000
    C158     C        0.76820    0.23610    0.83730    1.000
    H105     H        0.71670    0.22690    0.86370    1.000
    C159     C        0.79470    0.20700    0.78010    1.000
    H106     H        0.84980    0.21470    0.75870    1.000
    C160     C        0.74810    0.16300    0.74470    1.000
    C161     C        0.77510    0.14480    0.67020    1.000
    H107     H        0.82650    0.15780    0.64800    1.000
    C162     C        0.72830    0.10806    0.62780    1.000
    H108     H        0.74700    0.09640    0.57570    1.000
    C163     C        0.65380    0.08744    0.65940    1.000
    C164     C        0.62970    0.10342    0.73710    1.000
    H109     H        0.58110    0.08850    0.76120    1.000
    C165     C        0.67600    0.14100    0.77990    1.000
    H110     H        0.65900    0.15190    0.83300    1.000
    C166     C        0.59910    0.05120    0.60670    1.000
    C167     C        0.76440    0.48570    0.12400    1.000
    H111     H        0.75790    0.46770    0.07230    1.000
    C168     C        0.69490    0.48590    0.17480    1.000
    H112     H        0.64080    0.46960    0.15710    1.000
    C169     C        0.70520    0.51030    0.25220    1.000
    C170     C        0.78640    0.52985    0.27590    1.000
    H113     H        0.79820    0.54450    0.33030    1.000
    C171     C        0.85140    0.52826    0.22100    1.000
    H114     H        0.90800    0.54150    0.23960    1.000
    C172     C        0.63200    0.50720    0.30830    1.000
    H115     H        0.57310    0.50420    0.28150    1.000
    C173     C        0.64090    0.50828    0.38870    1.000
    H116     H        0.69950    0.51230    0.41550    1.000
    C174     C        0.56810    0.50380    0.44460    1.000
    C175     C        0.55280    0.54211    0.49960    1.000
    C176     C        0.48430    0.53810    0.55660    1.000
    C177     C        0.47110    0.57890    0.61010    1.000
    H117     H        0.42450    0.57780    0.64640    1.000
    C178     C        0.52270    0.61890    0.61060    1.000
    H118     H        0.51360    0.64480    0.64870    1.000
    C179     C        0.59090    0.62270    0.55450    1.000
    H119     H        0.62710    0.65110    0.55530    1.000
    C180     C        0.60390    0.58600    0.50040    1.000
    H120     H        0.64810    0.58940    0.46170    1.000
    Zn7      Zn       0.43651    0.99627    0.56457    1.000
    O25      O        0.39600    0.05973    0.50580    1.000
    O26      O        0.49170    0.06500    0.40740    1.000
    O27      O        0.12580    0.46091    0.03750    1.000
    O28      O        0.02940    0.46381    0.13480    1.000
    N7       N        0.34030    0.99038    0.64460    1.000
    C181     C        0.42850    0.08080    0.44570    1.000
    C182     C        0.38790    0.12847    0.41730    1.000
    C183     C        0.41980    0.15360    0.35040    1.000
    H121     H        0.46790    0.14060    0.32280    1.000
    C184     C        0.38180    0.19750    0.32360    1.000
    H122     H        0.40340    0.21430    0.27710    1.000
    C185     C        0.31180    0.21740    0.36470    1.000
    C186     C        0.28110    0.19160    0.43060    1.000
    H123     H        0.23250    0.20420    0.45800    1.000
    C187     C        0.31890    0.14835    0.45760    1.000
    H124     H        0.29750    0.13180    0.50440    1.000
    C188     C        0.26820    0.26390    0.33730    1.000
    H125     H        0.21670    0.27310    0.36370    1.000
    C189     C        0.29470    0.29300    0.28010    1.000
    H126     H        0.34980    0.28530    0.25870    1.000
    C190     C        0.24810    0.33700    0.24470    1.000
    C191     C        0.27510    0.35520    0.17020    1.000
    H127     H        0.32650    0.34220    0.14800    1.000
    C192     C        0.22830    0.39194    0.12780    1.000
    H128     H        0.24700    0.40360    0.07570    1.000
    C193     C        0.15380    0.41256    0.15940    1.000
    C194     C        0.12970    0.39658    0.23710    1.000
    H129     H        0.08110    0.41150    0.26120    1.000
    C195     C        0.17600    0.35900    0.27990    1.000
    H130     H        0.15900    0.34810    0.33300    1.000
    C196     C        0.09910    0.44880    0.10670    1.000
    C197     C        0.26440    0.01430    0.62400    1.000
    H131     H        0.25790    0.03230    0.57230    1.000
    C198     C        0.19490    0.01410    0.67480    1.000
    H132     H        0.14080    0.03040    0.65710    1.000
    C199     C        0.20520    0.98970    0.75220    1.000
    C200     C        0.28640    0.97015    0.77590    1.000
    H133     H        0.29820    0.95550    0.83030    1.000
    C201     C        0.35140    0.97174    0.72100    1.000
    H134     H        0.40800    0.95850    0.73960    1.000
    C202     C        0.13200    0.99280    0.80830    1.000
    H135     H        0.07310    0.99580    0.78150    1.000
    C203     C        0.14090    0.99172    0.88870    1.000
    H136     H        0.19950    0.98770    0.91550    1.000
    C204     C        0.06810    0.99620    0.94460    1.000
    C205     C        0.05280    0.95789    0.99960    1.000
    C206     C        0.98430    0.96190    0.05660    1.000
    C207     C        0.97110    0.92110    0.11010    1.000
    H137     H        0.92450    0.92220    0.14640    1.000
    C208     C        0.02270    0.88110    0.11060    1.000
    H138     H        0.01360    0.85520    0.14870    1.000
    C209     C        0.09090    0.87730    0.05450    1.000
    H139     H        0.12710    0.84890    0.05530    1.000
    C210     C        0.10390    0.91400    0.00040    1.000
    H140     H        0.14810    0.91060    0.96170    1.000
    Zn8      Zn       0.06349    0.49627    0.93543    1.000
    O29      O        0.10400    0.55973    0.99420    1.000
    O30      O        0.00830    0.56500    0.09260    1.000
    O31      O        0.37420    0.96091    0.46250    1.000
    O32      O        0.47060    0.96381    0.36520    1.000
    N8       N        0.15970    0.49038    0.85540    1.000
    C211     C        0.07150    0.58080    0.05430    1.000
    C212     C        0.11210    0.62847    0.08270    1.000
    C213     C        0.08020    0.65360    0.14960    1.000
    H141     H        0.03210    0.64060    0.17720    1.000
    C214     C        0.11820    0.69750    0.17640    1.000
    H142     H        0.09660    0.71430    0.22290    1.000
    C215     C        0.18820    0.71740    0.13530    1.000
    C216     C        0.21890    0.69160    0.06940    1.000
    H143     H        0.26750    0.70420    0.04200    1.000
    C217     C        0.18110    0.64835    0.04240    1.000
    H144     H        0.20250    0.63180    0.99560    1.000
    C218     C        0.23180    0.76390    0.16270    1.000
    H145     H        0.28330    0.77310    0.13630    1.000
    C219     C        0.20530    0.79300    0.21990    1.000
    H146     H        0.15020    0.78530    0.24130    1.000
    C220     C        0.25190    0.83700    0.25530    1.000
    C221     C        0.22490    0.85520    0.32980    1.000
    H147     H        0.17350    0.84220    0.35200    1.000
    C222     C        0.27170    0.89194    0.37220    1.000
    H148     H        0.25300    0.90360    0.42430    1.000
    C223     C        0.34620    0.91256    0.34060    1.000
    C224     C        0.37030    0.89658    0.26290    1.000
    H149     H        0.41890    0.91150    0.23880    1.000
    C225     C        0.32400    0.85900    0.22010    1.000
    H150     H        0.34100    0.84810    0.16700    1.000
    C226     C        0.40090    0.94880    0.39330    1.000
    C227     C        0.23560    0.51430    0.87600    1.000
    H151     H        0.24210    0.53230    0.92770    1.000
    C228     C        0.30510    0.51410    0.82520    1.000
    H152     H        0.35920    0.53040    0.84290    1.000
    C229     C        0.29480    0.48970    0.74780    1.000
    C230     C        0.21360    0.47015    0.72410    1.000
    H153     H        0.20180    0.45550    0.66970    1.000
    C231     C        0.14860    0.47174    0.77900    1.000
    H154     H        0.09200    0.45850    0.76040    1.000
    C232     C        0.36800    0.49280    0.69170    1.000
    H155     H        0.42690    0.49580    0.71850    1.000
    C233     C        0.35910    0.49172    0.61130    1.000
    H156     H        0.30050    0.48770    0.58450    1.000
    C234     C        0.43190    0.49620    0.55540    1.000
    C235     C        0.44720    0.45789    0.50040    1.000
    C236     C        0.51570    0.46190    0.44340    1.000
    C237     C        0.52890    0.42110    0.38990    1.000
    H157     H        0.57550    0.42220    0.35360    1.000
    C238     C        0.47730    0.38110    0.38940    1.000
    H158     H        0.48640    0.35520    0.35130    1.000
    C239     C        0.40910    0.37730    0.44550    1.000
    H159     H        0.37290    0.34890    0.44470    1.000
    C240     C        0.39610    0.41400    0.49960    1.000
    H160     H        0.35190    0.41060    0.53830    1.000
