# CIF file generated by openbabel 3.1.0, see https://openbabel.org
data_I
_chemical_name_common 'image0'
_cell_length_a 10.9619
_cell_length_b 16.0098
_cell_length_c 23.383
_cell_angle_alpha 90
_cell_angle_beta 90
_cell_angle_gamma 90
_space_group_name_H-M_alt 'P 1'
_space_group_name_Hall 'P 1'
loop_
    _symmetry_equiv_pos_as_xyz
    x,y,z
loop_
    _atom_site_label
    _atom_site_type_symbol
    _atom_site_fract_x
    _atom_site_fract_y
    _atom_site_fract_z
    _atom_site_occupancy
    O1       O        0.87300    0.91100    0.04680    1.000
    C1       C        0.65960    0.69640    0.95000    1.000
    H1       H        0.63310    0.67260    0.91500    1.000
    C2       C        0.72870    0.77130    0.94940    1.000
    H2       H        0.75050    0.79670    0.91410    1.000
    C3       C        0.41900    0.92500    0.35300    1.000
    H3       H        0.43330    0.88970    0.31880    1.000
    H4       H        0.42750    0.89690    0.38940    1.000
    H5       H        0.33500    0.94050    0.34560    1.000
    H6       H        0.62610    0.04460    0.29340    1.000
    H7       H        0.50750    0.00700    0.26290    1.000
    H8       H        0.60800    0.94560    0.28940    1.000
    H9       H        0.43610    0.89270    0.38720    1.000
    H10      H        0.33310    0.94270    0.35290    1.000
    H11      H        0.44540    0.88500    0.32190    1.000
    O2       O        0.12700    0.08900    0.04680    1.000
    C4       C        0.34040    0.30360    0.95000    1.000
    H12      H        0.36690    0.32740    0.91500    1.000
    C5       C        0.27130    0.22870    0.94940    1.000
    H13      H        0.24950    0.20330    0.91410    1.000
    C6       C        0.58100    0.07500    0.35300    1.000
    H14      H        0.56670    0.11030    0.31880    1.000
    H15      H        0.57250    0.10310    0.38940    1.000
    H16      H        0.66500    0.05950    0.34560    1.000
    H17      H        0.37390    0.95540    0.29340    1.000
    H18      H        0.49250    0.99300    0.26290    1.000
    H19      H        0.39200    0.05440    0.28940    1.000
    H20      H        0.56390    0.10730    0.38720    1.000
    H21      H        0.66690    0.05730    0.35290    1.000
    H22      H        0.55460    0.11500    0.32190    1.000
    O3       O        0.12700    0.91100    0.95320    1.000
    C7       C        0.34040    0.69640    0.05000    1.000
    H23      H        0.36690    0.67260    0.08500    1.000
    C8       C        0.27130    0.77130    0.05060    1.000
    H24      H        0.24950    0.79670    0.08590    1.000
    C9       C        0.58100    0.92500    0.64700    1.000
    H25      H        0.56670    0.88970    0.68120    1.000
    H26      H        0.57250    0.89690    0.61060    1.000
    H27      H        0.66500    0.94050    0.65440    1.000
    H28      H        0.37390    0.04460    0.70660    1.000
    H29      H        0.49250    0.00700    0.73710    1.000
    H30      H        0.39200    0.94560    0.71060    1.000
    H31      H        0.56390    0.89270    0.61280    1.000
    H32      H        0.66690    0.94270    0.64710    1.000
    H33      H        0.55460    0.88500    0.67810    1.000
    O4       O        0.87300    0.08900    0.95320    1.000
    C10      C        0.65960    0.30360    0.05000    1.000
    H34      H        0.63310    0.32740    0.08500    1.000
    C11      C        0.72870    0.22870    0.05060    1.000
    H35      H        0.75050    0.20330    0.08590    1.000
    C12      C        0.41900    0.07500    0.64700    1.000
    H36      H        0.43330    0.11030    0.68120    1.000
    H37      H        0.42750    0.10310    0.61060    1.000
    H38      H        0.33500    0.05950    0.65440    1.000
    H39      H        0.62610    0.95540    0.70660    1.000
    H40      H        0.50750    0.99300    0.73710    1.000
    H41      H        0.60800    0.05440    0.71060    1.000
    H42      H        0.43610    0.10730    0.61280    1.000
    H43      H        0.33310    0.05730    0.64710    1.000
    H44      H        0.44540    0.11500    0.67810    1.000
    O5       O        0.12700    0.08900    0.95320    1.000
    C13      C        0.34040    0.30360    0.05000    1.000
    H45      H        0.36690    0.32740    0.08500    1.000
    C14      C        0.27130    0.22870    0.05060    1.000
    H46      H        0.24950    0.20330    0.08590    1.000
    C15      C        0.58100    0.07500    0.64700    1.000
    H47      H        0.56670    0.11030    0.68120    1.000
    H48      H        0.57250    0.10310    0.61060    1.000
    H49      H        0.66500    0.05950    0.65440    1.000
    H50      H        0.37390    0.95540    0.70660    1.000
    H51      H        0.49250    0.99300    0.73710    1.000
    H52      H        0.39200    0.05440    0.71060    1.000
    H53      H        0.56390    0.10730    0.61280    1.000
    H54      H        0.66690    0.05730    0.64710    1.000
    H55      H        0.55460    0.11500    0.67810    1.000
    O6       O        0.87300    0.91100    0.95320    1.000
    C16      C        0.65960    0.69640    0.05000    1.000
    H56      H        0.63310    0.67260    0.08500    1.000
    C17      C        0.72870    0.77130    0.05060    1.000
    H57      H        0.75050    0.79670    0.08590    1.000
    C18      C        0.41900    0.92500    0.64700    1.000
    H58      H        0.43330    0.88970    0.68120    1.000
    H59      H        0.42750    0.89690    0.61060    1.000
    H60      H        0.33500    0.94050    0.65440    1.000
    H61      H        0.62610    0.04460    0.70660    1.000
    H62      H        0.50750    0.00700    0.73710    1.000
    H63      H        0.60800    0.94560    0.71060    1.000
    H64      H        0.43610    0.89270    0.61280    1.000
    H65      H        0.33310    0.94270    0.64710    1.000
    H66      H        0.44540    0.88500    0.67810    1.000
    O7       O        0.87300    0.08900    0.04680    1.000
    C19      C        0.65960    0.30360    0.95000    1.000
    H67      H        0.63310    0.32740    0.91500    1.000
    C20      C        0.72870    0.22870    0.94940    1.000
    H68      H        0.75050    0.20330    0.91410    1.000
    C21      C        0.41900    0.07500    0.35300    1.000
    H69      H        0.43330    0.11030    0.31880    1.000
    H70      H        0.42750    0.10310    0.38940    1.000
    H71      H        0.33500    0.05950    0.34560    1.000
    H72      H        0.62610    0.95540    0.29340    1.000
    H73      H        0.50750    0.99300    0.26290    1.000
    H74      H        0.60800    0.05440    0.28940    1.000
    H75      H        0.43610    0.10730    0.38720    1.000
    H76      H        0.33310    0.05730    0.35290    1.000
    H77      H        0.44540    0.11500    0.32190    1.000
    O8       O        0.12700    0.91100    0.04680    1.000
    C22      C        0.34040    0.69640    0.95000    1.000
    H78      H        0.36690    0.67260    0.91500    1.000
    C23      C        0.27130    0.77130    0.94940    1.000
    H79      H        0.24950    0.79670    0.91410    1.000
    C24      C        0.58100    0.92500    0.35300    1.000
    H80      H        0.56670    0.88970    0.31880    1.000
    H81      H        0.57250    0.89690    0.38940    1.000
    H82      H        0.66500    0.94050    0.34560    1.000
    H83      H        0.37390    0.04460    0.29340    1.000
    H84      H        0.49250    0.00700    0.26290    1.000
    H85      H        0.39200    0.94560    0.28940    1.000
    H86      H        0.56390    0.89270    0.38720    1.000
    H87      H        0.66690    0.94270    0.35290    1.000
    H88      H        0.55460    0.88500    0.32190    1.000
    Zn1      Zn       0.00000    0.00000    0.06283    1.000
    N1       N        0.00000    0.00000    0.13930    1.000
    C25      C        0.00000    0.00000    0.27420    1.000
    C26      C        0.00000    0.00000    0.32910    1.000
    C27      C        0.00000    0.00000    0.37780    1.000
    C28      C        0.00000    0.00000    0.43290    1.000
    Zn2      Zn       0.00000    0.00000    0.93717    1.000
    N2       N        0.00000    0.00000    0.86070    1.000
    C29      C        0.00000    0.00000    0.72580    1.000
    C30      C        0.00000    0.00000    0.67090    1.000
    C31      C        0.00000    0.00000    0.62220    1.000
    C32      C        0.00000    0.00000    0.56710    1.000
    Br1      Br       0.79771    0.50000    0.00000    1.000
    C33      C        0.62810    0.50000    0.00000    1.000
    Br2      Br       0.20229    0.50000    0.00000    1.000
    C34      C        0.37190    0.50000    0.00000    1.000
    C35      C        0.63070    0.65830    0.00000    1.000
    C36      C        0.76360    0.80640    0.00000    1.000
    C37      C        0.84560    0.88370    0.00000    1.000
    C38      C        0.56490    0.57660    0.00000    1.000
    C39      C        0.36930    0.34170    0.00000    1.000
    C40      C        0.23640    0.19360    0.00000    1.000
    C41      C        0.15440    0.11630    0.00000    1.000
    C42      C        0.43510    0.42340    0.00000    1.000
    C43      C        0.36930    0.65830    0.00000    1.000
    C44      C        0.23640    0.80640    0.00000    1.000
    C45      C        0.15440    0.88370    0.00000    1.000
    C46      C        0.43510    0.57660    0.00000    1.000
    C47      C        0.63070    0.34170    0.00000    1.000
    C48      C        0.76360    0.19360    0.00000    1.000
    C49      C        0.84560    0.11630    0.00000    1.000
    C50      C        0.56490    0.42340    0.00000    1.000
    C51      C        0.09550    0.00000    0.17770    1.000
    H89      H        0.17400    0.00000    0.16050    1.000
    C52      C        0.09730    0.00000    0.23670    1.000
    H90      H        0.17590    0.00000    0.25380    1.000
    C53      C        0.90290    0.00000    0.47049    1.000
    O9       O        0.78020    0.00000    0.44730    1.000
    C54      C        0.64800    0.00000    0.45190    1.000
    O10      O        0.58620    0.00000    0.39730    1.000
    C55      C        0.56600    0.00000    0.29410    1.000
    C56      C        0.90450    0.00000    0.17770    1.000
    H91      H        0.82600    0.00000    0.16050    1.000
    C57      C        0.90270    0.00000    0.23670    1.000
    H92      H        0.82410    0.00000    0.25380    1.000
    C58      C        0.09710    0.00000    0.47049    1.000
    O11      O        0.21980    0.00000    0.44730    1.000
    C59      C        0.35200    0.00000    0.45190    1.000
    O12      O        0.41380    0.00000    0.39730    1.000
    C60      C        0.43400    0.00000    0.29410    1.000
    C61      C        0.90450    0.00000    0.82230    1.000
    H93      H        0.82600    0.00000    0.83950    1.000
    C62      C        0.90270    0.00000    0.76330    1.000
    H94      H        0.82410    0.00000    0.74620    1.000
    C63      C        0.09710    0.00000    0.52951    1.000
    O13      O        0.21980    0.00000    0.55270    1.000
    C64      C        0.35200    0.00000    0.54810    1.000
    O14      O        0.41380    0.00000    0.60270    1.000
    C65      C        0.43400    0.00000    0.70590    1.000
    C66      C        0.09550    0.00000    0.82230    1.000
    H95      H        0.17400    0.00000    0.83950    1.000
    C67      C        0.09730    0.00000    0.76330    1.000
    H96      H        0.17590    0.00000    0.74620    1.000
    C68      C        0.90290    0.00000    0.52951    1.000
    O15      O        0.78020    0.00000    0.55270    1.000
    C69      C        0.64800    0.00000    0.54810    1.000
    O16      O        0.58620    0.00000    0.60270    1.000
    C70      C        0.56600    0.00000    0.70590    1.000
    O17      O        0.59100    0.00000    0.50000    1.000
    O18      O        0.40900    0.00000    0.50000    1.000
    C71      C        0.50000    0.00000    0.35030    1.000
    C72      C        0.50000    0.00000    0.64970    1.000
