data_functionalizedCrystal
_audit_creation_method	'EQeq! by Chris Wilmer'
_symmetry_space_group_name_H-M	'P1'
_symmetry_Int_Tables_number	1
_symmetry_cell_setting	triclinic
loop_
_symmetry_equiv_pos_as_xyz
  x,y,z
_cell_length_a	14.4444
_cell_length_b	14.7116
_cell_length_c	30.772
_cell_angle_alpha	90
_cell_angle_beta	96.966
_cell_angle_gamma	90
loop_
_atom_site_label
_atom_site_type_symbol
_atom_site_fract_x
_atom_site_fract_y
_atom_site_fract_z
_atom_site_charge
Mof_C 	C 	0.1343	0.3294	0.5492	0.04
Mof_C 	C 	0.4597	0.3169	0.552	0.037
Mof_C 	C 	0.4589	0.6416	0.5567	0.052
Mof_C 	C 	0.9504	0.1329	0.5562	0.06
Mof_C 	C 	0.2731	0.4012	0.4554	0.082
Mof_H 	H 	0.2487	0.3515	0.4701	-0.003
Mof_C 	C 	0.345	0.538	0.4572	0.093
Mof_H 	H 	0.3713	0.5886	0.4734	-0.007
Mof_C 	C 	0.2718	0.3968	0.4107	-0.148
Mof_H 	H 	0.2445	0.3456	0.3952	0.077
Mof_C 	C 	0.3486	0.5379	0.4129	-0.146
Mof_H 	H 	0.3775	0.5865	0.3993	0.086
Mof_C 	C 	0.3091	0.4651	0.3882	0.078
Mof_C 	C 	0.3038	0.4664	0.3401	0.035
Mof_C 	C 	0.229	0.4295	0.3132	-0.05
Mof_H 	H 	0.1803	0.3987	0.3253	0.046
Mof_C 	C 	0.2271	0.4384	0.2694	-0.053
Mof_H 	H 	0.1763	0.4154	0.25	0.047
Mof_C 	C 	0.3005	0.4816	0.2534	0.038
Mof_C 	C 	0.3033	0.4948	0.2057	0.078
Mof_C 	C 	0.2206	0.5001	0.1773	-0.148
Mof_H 	H 	0.1622	0.4973	0.1885	0.078
Mof_C 	C 	0.3861	0.5024	0.1874	-0.143
Mof_H 	H 	0.4441	0.5014	0.2056	0.095
Mof_C 	C 	0.2239	0.5094	0.1332	0.096
Mof_H 	H 	0.1667	0.513	0.1144	-0.006
Mof_C 	C 	0.3837	0.5114	0.1427	0.094
Mof_H 	H 	0.4411	0.5163	0.1307	0.005
Mof_N 	N 	0.193	0.382	0.5472	-0.178
Mof_N 	N 	0.4037	0.3722	0.5562	-0.175
Mof_N 	N 	0.4085	0.5819	0.5565	-0.181
Mof_N 	N 	0.899	0.0737	0.5544	-0.204
Mof_N 	N 	0.3078	0.4732	0.4791	-0.19
Mof_N 	N 	0.3741	0.5085	0.3235	-0.083
Mof_N 	N 	0.3728	0.5153	0.28	-0.083
Mof_N 	N 	0.3037	0.5135	0.1154	-0.206
Mof_Fe	Fe	0.30264	0.48066	0.54986	0.66
Mof_Au	Au	0.04099	0.23334	0.55268	0.047
Mof_Au	Au	0.55408	0.22598	0.54351	0.04
Mof_Au	Au	0.54989	0.74145	0.55268	0.045
Mof_C 	C 	0.1525	0.3675	0.0401	0.057
Mof_C 	C 	0.147	0.6616	0.0493	0.061
Mof_C 	C 	0.451	0.6697	0.0525	0.059
Mof_C 	C 	0.6452	0.8567	0.041	0.044
Mof_C 	C 	0.3283	0.454	0.9613	0.099
Mof_H 	H 	0.3468	0.4	0.9769	-0.009
Mof_C 	C 	0.2786	0.6	0.961	0.09
Mof_H 	H 	0.263	0.6528	0.9764	-0.004
Mof_C 	C 	0.3306	0.4542	0.9171	-0.152
Mof_H 	H 	0.351	0.4019	0.9029	0.086
Mof_C 	C 	0.2759	0.6054	0.9157	-0.152
Mof_H 	H 	0.2558	0.6595	0.9006	0.079
Mof_C 	C 	0.303	0.5309	0.8931	0.08
Mof_C 	C 	0.2999	0.532	0.8447	0.036
Mof_C 	C 	0.2269	0.5748	0.8181	-0.052
Mof_H 	H 	0.1801	0.6083	0.8303	0.047
Mof_C 	C 	0.2259	0.5662	0.7741	-0.052
Mof_H 	H 	0.1778	0.5934	0.7546	0.047
Mof_C 	C 	0.2963	0.5169	0.7581	0.038
Mof_C 	C 	0.3005	0.5046	0.7103	0.079
Mof_C 	C 	0.3833	0.4994	0.6926	-0.143
Mof_H 	H 	0.4411	0.5024	0.711	0.095
Mof_C 	C 	0.3816	0.49	0.6482	0.089
Mof_H 	H 	0.4394	0.4865	0.6365	0.007
Mof_C 	C 	0.2227	0.4896	0.6378	0.091
Mof_H 	H 	0.1658	0.4855	0.6188	-0.004
Mof_C 	C 	0.2182	0.4992	0.6818	-0.146
Mof_H 	H 	0.1595	0.5021	0.6928	0.078
Mof_N 	N 	0.208	0.4232	0.0426	-0.203
Mof_N 	N 	0.2037	0.6103	0.04755	-0.208
Mof_N 	N 	0.396	0.6156	0.0545	-0.205
Mof_N 	N 	0.7012	0.9129	0.0409	-0.178
Mof_N 	N 	0.3018	0.5246	0.98416	-0.208
Mof_N 	N 	0.3674	0.4866	0.8285	-0.084
Mof_N 	N 	0.367	0.4803	0.7847	-0.083
Mof_N 	N 	0.3025	0.4856	0.6203	-0.189
Mof_Fe	Fe	0.30226	0.51916	0.04978	0.766
Mof_Au	Au	0.54722	0.76414	0.04479	0.037
Mof_C 	C 	0.6525	0.1325	0.5401	0.057
Mof_C 	C 	0.647	0.8384	0.5493	0.061
Mof_C 	C 	0.951	0.8303	0.5525	0.058
Mof_C 	C 	0.1452	0.6433	0.541	0.044
Mof_C 	C 	0.8283	0.046	0.4613	0.099
Mof_H 	H 	0.8468	0.1	0.4769	-0.009
Mof_C 	C 	0.7786	0.9	0.461	0.09
Mof_H 	H 	0.763	0.8472	0.4764	-0.004
Mof_C 	C 	0.8306	0.0458	0.4171	-0.152
Mof_H 	H 	0.851	0.0981	0.4029	0.086
Mof_C 	C 	0.7759	0.8946	0.4157	-0.152
Mof_H 	H 	0.7558	0.8405	0.4006	0.079
Mof_C 	C 	0.803	0.9691	0.3931	0.08
Mof_C 	C 	0.7999	0.968	0.3447	0.035
Mof_C 	C 	0.7269	0.9252	0.3181	-0.052
Mof_H 	H 	0.6801	0.8917	0.3303	0.046
Mof_C 	C 	0.7259	0.9338	0.2741	-0.053
Mof_H 	H 	0.6778	0.9066	0.2546	0.047
Mof_C 	C 	0.7963	0.9831	0.2581	0.038
Mof_C 	C 	0.8005	0.9954	0.2103	0.075
Mof_C 	C 	0.8833	0.0006	0.1926	-0.139
Mof_H 	H 	0.9411	0.9976	0.211	0.093
Mof_C 	C 	0.8816	0.01	0.1482	0.087
Mof_H 	H 	0.9394	0.0135	0.1365	0.008
Mof_C 	C 	0.7227	0.0104	0.1378	0.089
Mof_H 	H 	0.6658	0.0145	0.1188	-0.003
Mof_C 	C 	0.7182	0.0008	0.1818	-0.143
Mof_H 	H 	0.6595	0.9979	0.1928	0.076
Mof_N 	N 	0.708	0.0768	0.5426	-0.203
Mof_N 	N 	0.7037	0.8897	0.54755	-0.208
Mof_N 	N 	0.896	0.8844	0.5545	-0.205
Mof_N 	N 	0.2012	0.5871	0.5409	-0.178
Mof_N 	N 	0.8018	0.9754	0.48416	-0.208
Mof_N 	N 	0.8674	0.0134	0.3285	-0.084
Mof_N 	N 	0.867	0.0197	0.2847	-0.083
Mof_N 	N 	0.8025	0.0144	0.1203	-0.188
Mof_Fe	Fe	0.80226	0.98084	0.54978	0.765
Mof_Au	Au	0.04722	0.73586	0.54479	0.038
Mof_C 	C 	0.6343	0.1706	0.0492	0.041
Mof_C 	C 	0.9597	0.1831	0.052	0.039
Mof_C 	C 	0.9589	0.8584	0.0567	0.052
Mof_C 	C 	0.4504	0.3671	0.0562	0.061
Mof_C 	C 	0.7731	0.0988	0.9554	0.083
Mof_H 	H 	0.7487	0.1485	0.9701	-0.002
Mof_C 	C 	0.845	0.962	0.9572	0.094
Mof_H 	H 	0.8713	0.9114	0.9734	-0.006
Mof_C 	C 	0.7718	0.1032	0.9107	-0.148
Mof_H 	H 	0.7445	0.1544	0.8952	0.077
Mof_C 	C 	0.8486	0.9621	0.9129	-0.147
Mof_H 	H 	0.8775	0.9135	0.8993	0.086
Mof_C 	C 	0.8091	0.0349	0.8882	0.078
Mof_C 	C 	0.8038	0.0336	0.8401	0.035
Mof_C 	C 	0.729	0.0705	0.8132	-0.05
Mof_H 	H 	0.6803	0.1013	0.8253	0.046
Mof_C 	C 	0.7271	0.0616	0.7694	-0.053
Mof_H 	H 	0.6763	0.0846	0.75	0.047
Mof_C 	C 	0.8005	0.0184	0.7534	0.039
Mof_C 	C 	0.8033	0.0052	0.7057	0.078
Mof_C 	C 	0.7206	0.9999	0.6773	-0.148
Mof_H 	H 	0.6622	0.0027	0.6885	0.078
Mof_C 	C 	0.8861	0.9976	0.6874	-0.144
Mof_H 	H 	0.9441	0.9986	0.7056	0.095
Mof_C 	C 	0.7239	0.9906	0.6332	0.096
Mof_H 	H 	0.6667	0.987	0.6144	-0.006
Mof_C 	C 	0.8837	0.9886	0.6427	0.094
Mof_H 	H 	0.9411	0.9837	0.6307	0.005
Mof_N 	N 	0.693	0.118	0.0472	-0.178
Mof_N 	N 	0.9037	0.1278	0.0562	-0.175
Mof_N 	N 	0.9085	0.9181	0.0565	-0.181
Mof_N 	N 	0.399	0.4263	0.0544	-0.205
Mof_N 	N 	0.8078	0.0268	0.9791	-0.189
Mof_N 	N 	0.8741	0.9915	0.8235	-0.083
Mof_N 	N 	0.8728	0.9847	0.78	-0.084
Mof_N 	N 	0.8037	0.9865	0.6154	-0.206
Mof_Fe	Fe	0.80264	0.01934	0.04986	0.66
Mof_Au	Au	0.54099	0.26666	0.05268	0.048
Mof_Au	Au	0.05408	0.27402	0.04351	0.039
Mof_Au	Au	0.04989	0.75855	0.05268	0.045
Mof_C 	C 	0.3475	0.8675	0.4599	0.057
Mof_C 	C 	0.353	0.1616	0.4507	0.061
Mof_C 	C 	0.049	0.1697	0.4475	0.058
Mof_C 	C 	0.8548	0.3567	0.459	0.044
Mof_C 	C 	0.1717	0.954	0.5387	0.099
Mof_H 	H 	0.1532	0.9	0.5231	-0.009
Mof_C 	C 	0.2214	0.1	0.539	0.09
Mof_H 	H 	0.237	0.1528	0.5236	-0.004
Mof_C 	C 	0.1694	0.9542	0.5829	-0.152
Mof_H 	H 	0.149	0.9019	0.5971	0.086
Mof_C 	C 	0.2241	0.1054	0.5843	-0.152
Mof_H 	H 	0.2442	0.1595	0.5994	0.079
Mof_C 	C 	0.197	0.0309	0.6069	0.08
Mof_C 	C 	0.2001	0.032	0.6553	0.035
Mof_C 	C 	0.2731	0.0748	0.6819	-0.052
Mof_H 	H 	0.3199	0.1083	0.6697	0.046
Mof_C 	C 	0.2741	0.0662	0.7259	-0.053
Mof_H 	H 	0.3222	0.0934	0.7454	0.047
Mof_C 	C 	0.2037	0.0169	0.7419	0.038
Mof_C 	C 	0.1995	0.0046	0.7897	0.075
Mof_C 	C 	0.1167	0.9994	0.8074	-0.139
Mof_H 	H 	0.0589	0.0024	0.789	0.093
Mof_C 	C 	0.1184	0.99	0.8518	0.087
Mof_H 	H 	0.0606	0.9865	0.8635	0.008
Mof_C 	C 	0.2773	0.9896	0.8622	0.089
Mof_H 	H 	0.3342	0.9855	0.8812	-0.003
Mof_C 	C 	0.2818	0.9992	0.8182	-0.143
Mof_H 	H 	0.3405	0.0021	0.8072	0.076
Mof_N 	N 	0.292	0.9232	0.4574	-0.203
Mof_N 	N 	0.2963	0.1103	0.45245	-0.208
Mof_N 	N 	0.104	0.1156	0.4455	-0.205
Mof_N 	N 	0.7988	0.4129	0.4591	-0.178
Mof_N 	N 	0.1982	0.0246	0.51584	-0.208
Mof_N 	N 	0.1326	0.9866	0.6715	-0.084
Mof_N 	N 	0.133	0.9803	0.7153	-0.083
Mof_N 	N 	0.1975	0.9856	0.8797	-0.188
Mof_Fe	Fe	0.19774	0.01916	0.45022	0.765
Mof_Au	Au	0.95278	0.26414	0.45521	0.038
Mof_C 	C 	0.3657	0.8294	0.9508	0.041
Mof_C 	C 	0.0403	0.8169	0.948	0.039
Mof_C 	C 	0.0411	0.1416	0.9433	0.052
Mof_C 	C 	0.5496	0.6329	0.9438	0.061
Mof_C 	C 	0.2269	0.9012	0.0446	0.083
Mof_H 	H 	0.2513	0.8515	0.0299	-0.002
Mof_C 	C 	0.155	0.038	0.0428	0.094
Mof_H 	H 	0.1287	0.0886	0.0266	-0.006
Mof_C 	C 	0.2282	0.8968	0.0893	-0.148
Mof_H 	H 	0.2555	0.8456	0.1048	0.077
Mof_C 	C 	0.1514	0.0379	0.0871	-0.147
Mof_H 	H 	0.1225	0.0865	0.1007	0.086
Mof_C 	C 	0.1909	0.9651	0.1118	0.078
Mof_C 	C 	0.1962	0.9664	0.1599	0.035
Mof_C 	C 	0.271	0.9295	0.1868	-0.05
Mof_H 	H 	0.3197	0.8987	0.1747	0.046
Mof_C 	C 	0.2729	0.9384	0.2306	-0.053
Mof_H 	H 	0.3237	0.9154	0.25	0.047
Mof_C 	C 	0.1995	0.9816	0.2466	0.039
Mof_C 	C 	0.1967	0.9948	0.2943	0.078
Mof_C 	C 	0.2794	0.0001	0.3227	-0.148
Mof_H 	H 	0.3378	0.9973	0.3115	0.078
Mof_C 	C 	0.1139	0.0024	0.3126	-0.144
Mof_H 	H 	0.0559	0.0014	0.2944	0.095
Mof_C 	C 	0.2761	0.0094	0.3668	0.096
Mof_H 	H 	0.3333	0.013	0.3856	-0.006
Mof_C 	C 	0.1163	0.0114	0.3573	0.094
Mof_H 	H 	0.0589	0.0163	0.3693	0.005
Mof_N 	N 	0.307	0.882	0.9528	-0.178
Mof_N 	N 	0.0963	0.8722	0.9438	-0.175
Mof_N 	N 	0.0915	0.0819	0.9435	-0.181
Mof_N 	N 	0.601	0.5737	0.9456	-0.205
Mof_N 	N 	0.1922	0.9732	0.0209	-0.189
Mof_N 	N 	0.1259	0.0085	0.1765	-0.083
Mof_N 	N 	0.1272	0.0153	0.22	-0.084
Mof_N 	N 	0.1963	0.0135	0.3846	-0.206
Mof_Fe	Fe	0.19736	0.98066	0.95014	0.66
Mof_Au	Au	0.45901	0.73334	0.94732	0.048
Mof_Au	Au	0.94592	0.72598	0.95649	0.039
Mof_Au	Au	0.95011	0.24145	0.94732	0.045
Mof_C 	C 	0.8657	0.6706	0.4508	0.041
Mof_C 	C 	0.5403	0.6831	0.448	0.038
Mof_C 	C 	0.5411	0.3584	0.4433	0.053
Mof_C 	C 	0.0496	0.8671	0.4438	0.061
Mof_C 	C 	0.7269	0.5988	0.5446	0.083
Mof_H 	H 	0.7513	0.6485	0.5299	-0.002
Mof_C 	C 	0.655	0.462	0.5428	0.094
Mof_H 	H 	0.6287	0.4114	0.5266	-0.006
Mof_C 	C 	0.7282	0.6032	0.5893	-0.148
Mof_H 	H 	0.7555	0.6544	0.6048	0.077
Mof_C 	C 	0.6514	0.4621	0.5871	-0.146
Mof_H 	H 	0.6225	0.4135	0.6007	0.086
Mof_C 	C 	0.6909	0.5349	0.6118	0.078
Mof_C 	C 	0.6962	0.5336	0.6599	0.035
Mof_C 	C 	0.771	0.5705	0.6868	-0.05
Mof_H 	H 	0.8197	0.6013	0.6747	0.046
Mof_C 	C 	0.7729	0.5616	0.7306	-0.053
Mof_H 	H 	0.8237	0.5846	0.75	0.047
Mof_C 	C 	0.6995	0.5184	0.7466	0.038
Mof_C 	C 	0.6967	0.5052	0.7943	0.078
Mof_C 	C 	0.7794	0.4999	0.8227	-0.148
Mof_H 	H 	0.8378	0.5027	0.8115	0.078
Mof_C 	C 	0.6139	0.4976	0.8126	-0.143
Mof_H 	H 	0.5559	0.4986	0.7944	0.095
Mof_C 	C 	0.7761	0.4906	0.8668	0.096
Mof_H 	H 	0.8333	0.487	0.8856	-0.006
Mof_C 	C 	0.6163	0.4886	0.8573	0.094
Mof_H 	H 	0.5589	0.4837	0.8693	0.005
Mof_N 	N 	0.807	0.618	0.4528	-0.178
Mof_N 	N 	0.5963	0.6278	0.4438	-0.175
Mof_N 	N 	0.5915	0.4181	0.4435	-0.181
Mof_N 	N 	0.101	0.9263	0.4456	-0.204
Mof_N 	N 	0.6922	0.5268	0.5209	-0.19
Mof_N 	N 	0.6259	0.4915	0.6765	-0.083
Mof_N 	N 	0.6272	0.4847	0.72	-0.083
Mof_N 	N 	0.6963	0.4865	0.8846	-0.206
Mof_Fe	Fe	0.69736	0.51934	0.45014	0.66
Mof_Au	Au	0.95901	0.76666	0.44732	0.047
Mof_Au	Au	0.44592	0.77402	0.45649	0.04
Mof_Au	Au	0.45011	0.25855	0.44732	0.045
Mof_C 	C 	0.8475	0.6325	0.9599	0.057
Mof_C 	C 	0.853	0.3384	0.9507	0.061
Mof_C 	C 	0.549	0.3303	0.9475	0.059
Mof_C 	C 	0.3548	0.1433	0.959	0.044
Mof_C 	C 	0.6717	0.546	0.0387	0.099
Mof_H 	H 	0.6532	0.6	0.0231	-0.009
Mof_C 	C 	0.7214	0.4	0.039	0.09
Mof_H 	H 	0.737	0.3472	0.0236	-0.004
Mof_C 	C 	0.6694	0.5458	0.0829	-0.152
Mof_H 	H 	0.649	0.5981	0.0971	0.086
Mof_C 	C 	0.7241	0.3946	0.0843	-0.152
Mof_H 	H 	0.7442	0.3405	0.0994	0.079
Mof_C 	C 	0.697	0.4691	0.1069	0.08
Mof_C 	C 	0.7001	0.468	0.1553	0.036
Mof_C 	C 	0.7731	0.4252	0.1819	-0.052
Mof_H 	H 	0.8199	0.3917	0.1697	0.047
Mof_C 	C 	0.7741	0.4338	0.2259	-0.052
Mof_H 	H 	0.8222	0.4066	0.2454	0.047
Mof_C 	C 	0.7037	0.4831	0.2419	0.038
Mof_C 	C 	0.6995	0.4954	0.2897	0.079
Mof_C 	C 	0.6167	0.5006	0.3074	-0.143
Mof_H 	H 	0.5589	0.4976	0.289	0.095
Mof_C 	C 	0.6184	0.51	0.3518	0.089
Mof_H 	H 	0.5606	0.5135	0.3635	0.007
Mof_C 	C 	0.7773	0.5104	0.3622	0.091
Mof_H 	H 	0.8342	0.5145	0.3812	-0.004
Mof_C 	C 	0.7818	0.5008	0.3182	-0.146
Mof_H 	H 	0.8405	0.4979	0.3072	0.078
Mof_N 	N 	0.792	0.5768	0.9574	-0.203
Mof_N 	N 	0.7963	0.3897	0.95245	-0.208
Mof_N 	N 	0.604	0.3844	0.9455	-0.205
Mof_N 	N 	0.2988	0.0871	0.9591	-0.178
Mof_N 	N 	0.6982	0.4754	0.01584	-0.208
Mof_N 	N 	0.6326	0.5134	0.1715	-0.084
Mof_N 	N 	0.633	0.5197	0.2153	-0.083
Mof_N 	N 	0.6975	0.5144	0.3797	-0.189
Mof_Fe	Fe	0.69774	0.48084	0.95022	0.766
Mof_Au	Au	0.45278	0.23586	0.95521	0.037
_end
