# CIF file generated by openbabel 3.1.0, see https://openbabel.org
data_I
_chemical_name_common 'BEXTUV_clean'
_cell_length_a 11.1865
_cell_length_b 11.1865
_cell_length_c 11.9247
_cell_angle_alpha 69.7503
_cell_angle_beta 69.7503
_cell_angle_gamma 82.3649
_space_group_name_H-M_alt 'P 1'
_space_group_name_Hall 'P 1'
loop_
    _symmetry_equiv_pos_as_xyz
    x,y,z
loop_
    _atom_site_label
    _atom_site_type_symbol
    _atom_site_fract_x
    _atom_site_fract_y
    _atom_site_fract_z
    _atom_site_occupancy
    Mn1      Mn       0.42128    0.77388    0.59732    1.000
    Mn2      Mn       0.22612    0.57872    0.90268    1.000
    H1       H        0.86920    0.66900    0.75060    1.000
    H2       H        0.15930    0.86410    0.45200    1.000
    H3       H        0.80710    0.89370    0.42530    1.000
    H4       H        0.93940    0.05100    0.21350    1.000
    H5       H        0.94980    0.90420    0.21770    1.000
    H6       H        0.42990    0.49830    0.75280    1.000
    H7       H        0.45630    0.58210    0.80460    1.000
    H8       H        0.33100    0.13080    0.74940    1.000
    H9       H        0.13590    0.84070    0.04800    1.000
    H10      H        0.10630    0.19290    0.07470    1.000
    H11      H        0.94900    0.06060    0.28650    1.000
    H12      H        0.09580    0.05020    0.28230    1.000
    H13      H        0.50170    0.57010    0.74720    1.000
    H14      H        0.41790    0.54370    0.69540    1.000
    C1       C        0.68155    0.73575    0.64790    1.000
    C2       C        0.81829    0.77529    0.59590    1.000
    C3       C        0.90023    0.72563    0.66660    1.000
    C4       C        0.02905    0.75985    0.61300    1.000
    C5       C        0.12292    0.70992    0.68350    1.000
    C6       C        0.07191    0.84191    0.48930    1.000
    C7       C        0.99080    0.89140    0.42050    1.000
    C8       C        0.86358    0.85898    0.47290    1.000
    C9       C        0.99830    0.97650    0.20590    1.000
    C10      C        0.26425    0.31845    0.85210    1.000
    C11      C        0.22471    0.18171    0.90410    1.000
    C12      C        0.27437    0.09977    0.83340    1.000
    C13      C        0.24015    0.97095    0.88700    1.000
    C14      C        0.29008    0.87708    0.81650    1.000
    C15      C        0.15809    0.92809    0.01070    1.000
    C16      C        0.10860    0.00920    0.07950    1.000
    C17      C        0.14102    0.13642    0.02710    1.000
    C18      C        0.02350    0.00170    0.29410    1.000
    O1       O        0.60800    0.80372    0.59050    1.000
    O2       O        0.64760    0.63836    0.74260    1.000
    O3       O        0.08390    0.64698    0.79920    1.000
    O4       O        0.23610    0.73578    0.62130    1.000
    O5       O        0.06810    0.94210    0.29380    1.000
    O6       O        0.19628    0.39200    0.90950    1.000
    O7       O        0.36164    0.35240    0.75740    1.000
    O8       O        0.35302    0.91610    0.70080    1.000
    O9       O        0.26422    0.76390    0.87870    1.000
    O10      O        0.05790    0.93190    0.20620    1.000
    O11      O        0.41800    0.58200    0.75000    1.000
    Mn3      Mn       0.57872    0.22612    0.40268    1.000
    Mn4      Mn       0.77388    0.42128    0.09732    1.000
    H15      H        0.13080    0.33100    0.24940    1.000
    H16      H        0.84070    0.13590    0.54800    1.000
    H17      H        0.19290    0.10630    0.57470    1.000
    H18      H        0.06060    0.94900    0.78650    1.000
    H19      H        0.05020    0.09580    0.78230    1.000
    H20      H        0.57010    0.50170    0.24720    1.000
    H21      H        0.54370    0.41790    0.19540    1.000
    H22      H        0.66900    0.86920    0.25060    1.000
    H23      H        0.86410    0.15930    0.95200    1.000
    H24      H        0.89370    0.80710    0.92530    1.000
    H25      H        0.05100    0.93940    0.71350    1.000
    H26      H        0.90420    0.94980    0.71770    1.000
    H27      H        0.49830    0.42990    0.25280    1.000
    H28      H        0.58210    0.45630    0.30460    1.000
    C19      C        0.31845    0.26425    0.35210    1.000
    C20      C        0.18171    0.22471    0.40410    1.000
    C21      C        0.09977    0.27437    0.33340    1.000
    C22      C        0.97095    0.24015    0.38700    1.000
    C23      C        0.87708    0.29008    0.31650    1.000
    C24      C        0.92809    0.15809    0.51070    1.000
    C25      C        0.00920    0.10860    0.57950    1.000
    C26      C        0.13642    0.14102    0.52710    1.000
    C27      C        0.00170    0.02350    0.79410    1.000
    C28      C        0.73575    0.68155    0.14790    1.000
    C29      C        0.77529    0.81829    0.09590    1.000
    C30      C        0.72563    0.90023    0.16660    1.000
    C31      C        0.75985    0.02905    0.11300    1.000
    C32      C        0.70992    0.12292    0.18350    1.000
    C33      C        0.84191    0.07191    0.98930    1.000
    C34      C        0.89140    0.99080    0.92050    1.000
    C35      C        0.85898    0.86358    0.97290    1.000
    C36      C        0.97650    0.99830    0.70590    1.000
    O12      O        0.39200    0.19628    0.40950    1.000
    O13      O        0.35240    0.36164    0.25740    1.000
    O14      O        0.91610    0.35302    0.20080    1.000
    O15      O        0.76390    0.26422    0.37870    1.000
    O16      O        0.93190    0.05790    0.70620    1.000
    O17      O        0.80372    0.60800    0.09050    1.000
    O18      O        0.63836    0.64760    0.24260    1.000
    O19      O        0.64698    0.08390    0.29920    1.000
    O20      O        0.73578    0.23610    0.12130    1.000
    O21      O        0.94210    0.06810    0.79380    1.000
    O22      O        0.58200    0.41800    0.25000    1.000
