data_functionalizedCrystal
_audit_creation_method	'EQeq! by Chris Wilmer'
_symmetry_space_group_name_H-M	'P1'
_symmetry_Int_Tables_number	1
_symmetry_cell_setting	triclinic
loop_
_symmetry_equiv_pos_as_xyz
  x,y,z
_cell_length_a	8.1984
_cell_length_b	19.134
_cell_length_c	19.519
_cell_angle_alpha	90
_cell_angle_beta	90
_cell_angle_gamma	90
loop_
_atom_site_label
_atom_site_type_symbol
_atom_site_fract_x
_atom_site_fract_y
_atom_site_fract_z
_atom_site_charge
Mof_Sr	Sr	0.25992	0.997	0.49741	1.783
Mof_Sr	Sr	0.23951	0.7714	0.90144	1.214
Mof_Sr	Sr	0.74008	0.503	0.99741	1.791
Mof_Sr	Sr	0.76049	0.7286	0.40144	1.222
Mof_Sr	Sr	0.75992	0.003	0.00259	1.762
Mof_Sr	Sr	0.73951	0.2286	0.59856	1.223
Mof_Sr	Sr	0.24008	0.497	0.50259	1.781
Mof_Sr	Sr	0.26049	0.2714	0.09856	1.226
Mof_Sr	Sr	0.74008	0.003	0.50259	1.783
Mof_Sr	Sr	0.76049	0.2286	0.09856	1.214
Mof_Sr	Sr	0.25992	0.497	0.00259	1.791
Mof_Sr	Sr	0.23951	0.2714	0.59856	1.222
Mof_Sr	Sr	0.24008	0.997	0.99741	1.761
Mof_Sr	Sr	0.26049	0.7714	0.40144	1.222
Mof_Sr	Sr	0.75992	0.503	0.49741	1.78
Mof_Sr	Sr	0.73951	0.7286	0.90144	1.225
Mof_H 	H 	0.0071	0.9315	0.5839	0.447
Mof_H 	H 	0.0017	0.8938	0.5267	0.389
Mof_H 	H 	0.5169	0.8464	0.7298	-0.067
Mof_H 	H 	0.4791	0.0851	0.6935	0.187
Mof_H 	H 	0.9929	0.5685	0.0839	0.449
Mof_H 	H 	0.9983	0.6062	0.0267	0.391
Mof_H 	H 	0.4831	0.6536	0.2298	-0.067
Mof_H 	H 	0.5209	0.4149	0.1935	0.188
Mof_H 	H 	0.5071	0.0685	0.9161	0.449
Mof_H 	H 	0.5017	0.1062	0.9733	0.39
Mof_H 	H 	0.0169	0.1536	0.7702	-0.066
Mof_H 	H 	0.9791	0.9149	0.8065	0.19
Mof_H 	H 	0.4929	0.4315	0.4161	0.45
Mof_H 	H 	0.4983	0.3938	0.4733	0.39
Mof_H 	H 	0.9831	0.3464	0.2702	-0.061
Mof_H 	H 	0.0209	0.5851	0.3065	0.186
Mof_H 	H 	0.9929	0.0685	0.4161	0.447
Mof_H 	H 	0.9983	0.1062	0.4733	0.389
Mof_H 	H 	0.4831	0.1536	0.2702	-0.067
Mof_H 	H 	0.5209	0.9149	0.3065	0.187
Mof_H 	H 	0.0071	0.4315	0.9161	0.449
Mof_H 	H 	0.0017	0.3938	0.9733	0.391
Mof_H 	H 	0.5169	0.3464	0.7702	-0.067
Mof_H 	H 	0.4791	0.5851	0.8065	0.188
Mof_H 	H 	0.4929	0.9315	0.0839	0.449
Mof_H 	H 	0.4983	0.8938	0.0267	0.39
Mof_H 	H 	0.9831	0.8464	0.2298	-0.066
Mof_H 	H 	0.0209	0.0851	0.1935	0.19
Mof_H 	H 	0.5071	0.5685	0.5839	0.45
Mof_H 	H 	0.5017	0.6062	0.5267	0.39
Mof_H 	H 	0.0169	0.6536	0.7298	-0.061
Mof_H 	H 	0.9791	0.4149	0.6935	0.186
Mof_C 	C 	0.4978	0.9207	0.6578	-0.374
Mof_C 	C 	0.5037	0.8942	0.7231	0.273
Mof_C 	C 	0.4901	0.9384	0.7793	-0.339
Mof_C 	C 	0.4848	0.0125	0.7683	0.382
Mof_C 	C 	0.4845	0.0371	0.7006	-0.449
Mof_C 	C 	0.4918	0.9947	0.6446	0.432
Mof_C 	C 	0.5022	0.5793	0.1578	-0.375
Mof_C 	C 	0.4963	0.6058	0.2231	0.273
Mof_C 	C 	0.5099	0.5616	0.2793	-0.336
Mof_C 	C 	0.5152	0.4875	0.2683	0.378
Mof_C 	C 	0.5155	0.4629	0.2006	-0.453
Mof_C 	C 	0.5082	0.5053	0.1446	0.437
Mof_C 	C 	0.9978	0.0793	0.8422	-0.37
Mof_C 	C 	0.0037	0.1058	0.7769	0.269
Mof_C 	C 	0.9901	0.0616	0.7207	-0.334
Mof_C 	C 	0.9848	0.9875	0.7317	0.379
Mof_C 	C 	0.9845	0.9629	0.7994	-0.454
Mof_C 	C 	0.9918	0.0053	0.8554	0.44
Mof_C 	C 	0.0022	0.4207	0.3422	-0.359
Mof_C 	C 	0.9963	0.3942	0.2769	0.25
Mof_C 	C 	0.0099	0.4384	0.2207	-0.319
Mof_C 	C 	0.0152	0.5125	0.2317	0.37
Mof_C 	C 	0.0155	0.5371	0.2994	-0.445
Mof_C 	C 	0.0082	0.4947	0.3554	0.429
Mof_C 	C 	0.5022	0.0793	0.3422	-0.374
Mof_C 	C 	0.4963	0.1058	0.2769	0.273
Mof_C 	C 	0.5099	0.0616	0.2207	-0.339
Mof_C 	C 	0.5152	0.9875	0.2317	0.382
Mof_C 	C 	0.5155	0.9629	0.2994	-0.449
Mof_C 	C 	0.5082	0.0053	0.3554	0.432
Mof_C 	C 	0.4978	0.4207	0.8422	-0.375
Mof_C 	C 	0.5037	0.3942	0.7769	0.273
Mof_C 	C 	0.4901	0.4384	0.7207	-0.336
Mof_C 	C 	0.4848	0.5125	0.7317	0.378
Mof_C 	C 	0.4845	0.5371	0.7994	-0.453
Mof_C 	C 	0.4918	0.4947	0.8554	0.437
Mof_C 	C 	0.0022	0.9207	0.1578	-0.37
Mof_C 	C 	0.9963	0.8942	0.2231	0.269
Mof_C 	C 	0.0099	0.9384	0.2793	-0.334
Mof_C 	C 	0.0152	0.0125	0.2683	0.379
Mof_C 	C 	0.0155	0.0371	0.2006	-0.454
Mof_C 	C 	0.0082	0.9947	0.1446	0.44
Mof_C 	C 	0.9978	0.5793	0.6578	-0.359
Mof_C 	C 	0.0037	0.6058	0.7231	0.25
Mof_C 	C 	0.9901	0.5616	0.7793	-0.319
Mof_C 	C 	0.9848	0.4875	0.7683	0.37
Mof_C 	C 	0.9845	0.4629	0.7006	-0.445
Mof_C 	C 	0.9918	0.5053	0.6446	0.429
Mof_S 	S 	0.50408	0.86524	0.5868	0.655
Mof_S 	S 	0.50019	0.90449	0.86331	0.687
Mof_S 	S 	0.49592	0.63476	0.0868	0.656
Mof_S 	S 	0.49981	0.59551	0.36331	0.688
Mof_S 	S 	0.00408	0.13476	0.9132	0.65
Mof_S 	S 	0.00019	0.09551	0.63669	0.688
Mof_S 	S 	0.99592	0.36524	0.4132	0.645
Mof_S 	S 	0.99981	0.40449	0.13669	0.673
Mof_S 	S 	0.49592	0.13476	0.4132	0.655
Mof_S 	S 	0.49981	0.09551	0.13669	0.687
Mof_S 	S 	0.50408	0.36524	0.9132	0.656
Mof_S 	S 	0.50019	0.40449	0.63669	0.688
Mof_S 	S 	0.99592	0.86524	0.0868	0.65
Mof_S 	S 	0.99981	0.90449	0.36331	0.688
Mof_S 	S 	0.00408	0.63476	0.5868	0.645
Mof_S 	S 	0.00019	0.59551	0.86331	0.673
Mof_O 	O 	0.3556	0.8784	0.5482	-0.505
Mof_O 	O 	0.0043	0.9337	0.54194	-1.067
Mof_O 	O 	0.6499	0.8829	0.5464	-0.485
Mof_O 	O 	0.9567	0.8315	0.9015	-0.419
Mof_O 	O 	0.5129	0.79316	0.6115	-0.339
Mof_O 	O 	0.5193	0.8292	0.856	-0.537
Mof_O 	O 	0.3439	0.9222	0.8968	-0.527
Mof_O 	O 	0.6395	0.9358	0.8983	-0.465
Mof_O 	O 	0.4919	0.01961	0.58214	-0.558
Mof_O 	O 	0.4688	0.0542	0.8219	-0.326
Mof_O 	O 	0.6444	0.6216	0.0482	-0.505
Mof_O 	O 	0.9957	0.5663	0.04194	-1.07
Mof_O 	O 	0.3501	0.6171	0.0464	-0.484
Mof_O 	O 	0.0433	0.6685	0.4015	-0.421
Mof_O 	O 	0.4871	0.70684	0.1115	-0.338
Mof_O 	O 	0.4807	0.6708	0.356	-0.537
Mof_O 	O 	0.6561	0.5778	0.3968	-0.526
Mof_O 	O 	0.3605	0.5642	0.3983	-0.466
Mof_O 	O 	0.5081	0.48039	0.08214	-0.563
Mof_O 	O 	0.5312	0.4458	0.3219	-0.328
Mof_O 	O 	0.8556	0.1216	0.9518	-0.497
Mof_O 	O 	0.5043	0.0663	0.95806	-1.058
Mof_O 	O 	0.1499	0.1171	0.9536	-0.48
Mof_O 	O 	0.4567	0.1685	0.5985	-0.421
Mof_O 	O 	0.0129	0.20684	0.8885	-0.338
Mof_O 	O 	0.0193	0.1708	0.644	-0.538
Mof_O 	O 	0.8439	0.0778	0.6032	-0.526
Mof_O 	O 	0.1395	0.0642	0.6017	-0.465
Mof_O 	O 	0.9919	0.98039	0.91786	-0.558
Mof_O 	O 	0.9688	0.9458	0.6781	-0.326
Mof_O 	O 	0.1444	0.3784	0.4518	-0.502
Mof_O 	O 	0.4957	0.4337	0.45806	-1.067
Mof_O 	O 	0.8501	0.3829	0.4536	-0.484
Mof_O 	O 	0.5433	0.3315	0.0985	-0.421
Mof_O 	O 	0.9871	0.29316	0.3885	-0.339
Mof_O 	O 	0.9807	0.3292	0.144	-0.537
Mof_O 	O 	0.1561	0.4222	0.1032	-0.521
Mof_O 	O 	0.8605	0.4358	0.1017	-0.465
Mof_O 	O 	0.0081	0.51961	0.41786	-0.559
Mof_O 	O 	0.0312	0.5542	0.1781	-0.324
Mof_O 	O 	0.6444	0.1216	0.4518	-0.505
Mof_O 	O 	0.9957	0.0663	0.45806	-1.067
Mof_O 	O 	0.3501	0.1171	0.4536	-0.485
Mof_O 	O 	0.0433	0.1685	0.0985	-0.419
Mof_O 	O 	0.4871	0.20684	0.3885	-0.339
Mof_O 	O 	0.4807	0.1708	0.144	-0.537
Mof_O 	O 	0.6561	0.0778	0.1032	-0.527
Mof_O 	O 	0.3605	0.0642	0.1017	-0.465
Mof_O 	O 	0.5081	0.98039	0.41786	-0.558
Mof_O 	O 	0.5312	0.9458	0.1781	-0.326
Mof_O 	O 	0.3556	0.3784	0.9518	-0.505
Mof_O 	O 	0.0043	0.4337	0.95806	-1.07
Mof_O 	O 	0.6499	0.3829	0.9536	-0.484
Mof_O 	O 	0.9567	0.3315	0.5985	-0.421
Mof_O 	O 	0.5129	0.29316	0.8885	-0.338
Mof_O 	O 	0.5193	0.3292	0.644	-0.537
Mof_O 	O 	0.3439	0.4222	0.6032	-0.526
Mof_O 	O 	0.6395	0.4358	0.6017	-0.466
Mof_O 	O 	0.4919	0.51961	0.91786	-0.563
Mof_O 	O 	0.4688	0.5542	0.6781	-0.328
Mof_O 	O 	0.1444	0.8784	0.0482	-0.497
Mof_O 	O 	0.4957	0.9337	0.04194	-1.058
Mof_O 	O 	0.8501	0.8829	0.0464	-0.48
Mof_O 	O 	0.5433	0.8315	0.4015	-0.421
Mof_O 	O 	0.9871	0.79316	0.1115	-0.338
Mof_O 	O 	0.9807	0.8292	0.356	-0.538
Mof_O 	O 	0.1561	0.9222	0.3968	-0.526
Mof_O 	O 	0.8605	0.9358	0.3983	-0.465
Mof_O 	O 	0.0081	0.01961	0.08214	-0.558
Mof_O 	O 	0.0312	0.0542	0.3219	-0.326
Mof_O 	O 	0.8556	0.6216	0.5482	-0.502
Mof_O 	O 	0.5043	0.5663	0.54194	-1.067
Mof_O 	O 	0.1499	0.6171	0.5464	-0.484
Mof_O 	O 	0.4567	0.6685	0.9015	-0.421
Mof_O 	O 	0.0129	0.70684	0.6115	-0.339
Mof_O 	O 	0.0193	0.6708	0.856	-0.537
Mof_O 	O 	0.8439	0.5778	0.8968	-0.521
Mof_O 	O 	0.1395	0.5642	0.8983	-0.465
Mof_O 	O 	0.9919	0.48039	0.58214	-0.559
Mof_O 	O 	0.9688	0.4458	0.8219	-0.324
_end
