# CIF file generated by openbabel 3.1.0, see https://openbabel.org
data_I
_chemical_name_common 'EJIDUW01_clean'
_cell_length_a 9.182
_cell_length_b 9.687
_cell_length_c 10.639
_cell_angle_alpha 106.807
_cell_angle_beta 95.625
_cell_angle_gamma 118.06
_space_group_name_H-M_alt 'P 1'
_space_group_name_Hall 'P 1'
loop_
    _symmetry_equiv_pos_as_xyz
    x,y,z
loop_
    _atom_site_label
    _atom_site_type_symbol
    _atom_site_fract_x
    _atom_site_fract_y
    _atom_site_fract_z
    _atom_site_occupancy
    Nd1      Nd       0.23498    0.45502    0.98180    1.000
    Nd2      Nd       0.76502    0.54498    0.01820    1.000
    H1       H        0.57650    0.40080    0.65140    1.000
    H2       H        0.38410    0.26210    0.55680    1.000
    H3       H        0.53230    0.62140    0.63050    1.000
    H4       H        0.34440    0.47960    0.53030    1.000
    H5       H        0.98140    0.62580    0.62870    1.000
    H6       H        0.00300    0.46860    0.61760    1.000
    H7       H        0.29480    0.65730    0.74810    1.000
    H8       H        0.25970    0.68700    0.61090    1.000
    H9       H        0.27950    0.89710    0.87300    1.000
    H10      H        0.25460    0.92930    0.73500    1.000
    H11      H        0.52130    0.94980    0.71680    1.000
    H12      H        0.54670    0.94400    0.86290    1.000
    H13      H        0.42350    0.59920    0.34860    1.000
    H14      H        0.61590    0.73790    0.44320    1.000
    H15      H        0.46770    0.37860    0.36950    1.000
    H16      H        0.65560    0.52040    0.46970    1.000
    H17      H        0.01860    0.37420    0.37130    1.000
    H18      H        0.99700    0.53140    0.38240    1.000
    H19      H        0.70520    0.34270    0.25190    1.000
    H20      H        0.74030    0.31300    0.38910    1.000
    H21      H        0.72050    0.10290    0.12700    1.000
    H22      H        0.74540    0.07070    0.26500    1.000
    H23      H        0.47870    0.05020    0.28320    1.000
    H24      H        0.45330    0.05600    0.13710    1.000
    C1       C        0.39290    0.40160    0.74790    1.000
    C2       C        0.45920    0.37960    0.62450    1.000
    C3       C        0.46280    0.50480    0.56040    1.000
    C4       C        0.99070    0.58500    0.80760    1.000
    C5       C        0.04150    0.58580    0.67720    1.000
    C6       C        0.23510    0.69830    0.70070    1.000
    C7       C        0.30760    0.88460    0.78450    1.000
    C8       C        0.50250    0.98550    0.80960    1.000
    C9       C        0.58320    0.17490    0.87770    1.000
    C10      C        0.60710    0.59840    0.25210    1.000
    C11      C        0.54080    0.62040    0.37550    1.000
    C12      C        0.53720    0.49520    0.43960    1.000
    C13      C        0.00930    0.41500    0.19240    1.000
    C14      C        0.95850    0.41420    0.32280    1.000
    C15      C        0.76490    0.30170    0.29930    1.000
    C16      C        0.69240    0.11540    0.21550    1.000
    C17      C        0.49750    0.01450    0.19040    1.000
    C18      C        0.41680    0.82510    0.12230    1.000
    O1       O        0.23740    0.36200    0.73380    1.000
    O2       O        0.49160    0.46570    0.86710    1.000
    O3       O        0.06210    0.54930    0.88950    1.000
    O4       O        0.87540    0.61770    0.83040    1.000
    O5       O        0.69180    0.27180    0.83010    1.000
    O6       O        0.54560    0.23730    0.98210    1.000
    O7       O        0.76260    0.63800    0.26620    1.000
    O8       O        0.50840    0.53430    0.13290    1.000
    O9       O        0.93790    0.45070    0.11050    1.000
    O10      O        0.12460    0.38230    0.16960    1.000
    O11      O        0.30820    0.72820    0.16990    1.000
    O12      O        0.45440    0.76270    0.01790    1.000
