data_functionalizedCrystal
_audit_creation_method	'EQeq! by Chris Wilmer'
_symmetry_space_group_name_H-M	'P1'
_symmetry_Int_Tables_number	1
_symmetry_cell_setting	triclinic
loop_
_symmetry_equiv_pos_as_xyz
  x,y,z
_cell_length_a	18.279
_cell_length_b	7.33
_cell_length_c	11.601
_cell_angle_alpha	90
_cell_angle_beta	90
_cell_angle_gamma	90
loop_
_atom_site_label
_atom_site_type_symbol
_atom_site_fract_x
_atom_site_fract_y
_atom_site_fract_z
_atom_site_charge
Mof_O 	O 	0.58196	0.4016	0.6108	-0.506
Mof_C 	C 	0.716	0.091	0.7236	0.061
Mof_N 	N 	0.6904	0.922	0.691	0.022
Mof_O 	O 	0.7096	0.847	0.59	-0.022
Mof_O 	O 	0.6503	0.859	0.779	0.004
Mof_O 	O 	0.08196	0.9016	0.1108	-0.383
Mof_C 	C 	0.216	0.591	0.2236	0.102
Mof_N 	N 	0.1904	0.422	0.191	-0.017
Mof_O 	O 	0.2096	0.347	0.09	-0.093
Mof_O 	O 	0.1503	0.359	0.279	-0.057
Mof_O 	O 	0.41804	0.0984	0.6108	-0.521
Mof_C 	C 	0.284	0.409	0.7236	0.129
Mof_N 	N 	0.3096	0.578	0.691	-0.024
Mof_O 	O 	0.2904	0.653	0.59	-0.054
Mof_O 	O 	0.3497	0.641	0.779	-0.025
Mof_O 	O 	0.91804	0.5984	0.1108	-0.396
Mof_C 	C 	0.784	0.909	0.2236	0.172
Mof_N 	N 	0.8096	0.078	0.191	-0.064
Mof_O 	O 	0.7904	0.153	0.09	-0.116
Mof_O 	O 	0.8497	0.141	0.279	-0.06
Mof_O 	O 	0.41804	0.9016	0.3892	-0.431
Mof_C 	C 	0.284	0.591	0.2764	0.12
Mof_N 	N 	0.3096	0.422	0.309	-0.019
Mof_O 	O 	0.2904	0.347	0.41	-0.054
Mof_O 	O 	0.3497	0.359	0.221	-0.07
Mof_O 	O 	0.91804	0.4016	0.8892	-0.316
Mof_C 	C 	0.784	0.091	0.7764	0.045
Mof_N 	N 	0.8096	0.922	0.809	0.028
Mof_O 	O 	0.7904	0.847	0.91	0.025
Mof_O 	O 	0.8497	0.859	0.721	0.005
Mof_O 	O 	0.58196	0.5984	0.3892	-0.511
Mof_C 	C 	0.716	0.909	0.2764	0.191
Mof_N 	N 	0.6904	0.078	0.309	-0.067
Mof_O 	O 	0.7096	0.153	0.41	-0.077
Mof_O 	O 	0.6503	0.141	0.221	-0.102
Mof_O 	O 	0.08196	0.0984	0.8892	-0.392
Mof_C 	C 	0.216	0.409	0.7764	0.11
Mof_N 	N 	0.1904	0.578	0.809	-0.018
Mof_O 	O 	0.2096	0.653	0.91	-0.001
Mof_O 	O 	0.1503	0.641	0.721	-0.053
Mof_O 	O 	0.41804	0.5984	0.3892	-0.511
Mof_C 	C 	0.284	0.909	0.2764	0.189
Mof_N 	N 	0.3096	0.078	0.309	-0.067
Mof_O 	O 	0.2904	0.153	0.41	-0.081
Mof_O 	O 	0.3497	0.141	0.221	-0.102
Mof_O 	O 	0.91804	0.0984	0.8892	-0.332
Mof_C 	C 	0.784	0.409	0.7764	0.112
Mof_N 	N 	0.8096	0.578	0.809	-0.018
Mof_O 	O 	0.7904	0.653	0.91	-0.002
Mof_O 	O 	0.8497	0.641	0.721	-0.026
Mof_O 	O 	0.58196	0.9016	0.3892	-0.431
Mof_C 	C 	0.716	0.591	0.2764	0.122
Mof_N 	N 	0.6904	0.422	0.309	-0.019
Mof_O 	O 	0.7096	0.347	0.41	-0.05
Mof_O 	O 	0.6503	0.359	0.221	-0.071
Mof_O 	O 	0.08196	0.4016	0.8892	-0.375
Mof_C 	C 	0.216	0.091	0.7764	0.042
Mof_N 	N 	0.1904	0.922	0.809	0.03
Mof_O 	O 	0.2096	0.847	0.91	0.026
Mof_O 	O 	0.1503	0.859	0.721	-0.021
Mof_O 	O 	0.58196	0.0984	0.6108	-0.521
Mof_C 	C 	0.716	0.409	0.7236	0.13
Mof_N 	N 	0.6904	0.578	0.691	-0.024
Mof_O 	O 	0.7096	0.653	0.59	-0.05
Mof_O 	O 	0.6503	0.641	0.779	-0.026
Mof_O 	O 	0.08196	0.5984	0.1108	-0.463
Mof_C 	C 	0.216	0.909	0.2236	0.172
Mof_N 	N 	0.1904	0.078	0.191	-0.065
Mof_O 	O 	0.2096	0.153	0.09	-0.12
Mof_O 	O 	0.1503	0.141	0.279	-0.088
Mof_O 	O 	0.41804	0.4016	0.6108	-0.505
Mof_C 	C 	0.284	0.091	0.7236	0.06
Mof_N 	N 	0.3096	0.922	0.691	0.024
Mof_O 	O 	0.2904	0.847	0.59	-0.025
Mof_O 	O 	0.3497	0.859	0.779	0.006
Mof_O 	O 	0.91804	0.9016	0.1108	-0.317
Mof_C 	C 	0.784	0.591	0.2236	0.104
Mof_N 	N 	0.8096	0.422	0.191	-0.017
Mof_O 	O 	0.7904	0.347	0.09	-0.089
Mof_O 	O 	0.8497	0.359	0.279	-0.029
Mof_Sc	Sc	0.5	0.5	0.5	1.874
Mof_Sc	Sc	-0	0	-0	1.107
Mof_Sc	Sc	0.5	0	0.5	1.641
Mof_Sc	Sc	-0	0.5	-0	1.335
Mof_O 	O 	0.5	0.25	0.418	-0.564
Mof_O 	O 	-9.99588e-33	0.75	0.918	-0.336
Mof_O 	O 	0.5	0.75	0.582	-0.501
Mof_O 	O 	-8.19902e-34	0.25	0.082	-0.516
Mof_C 	C 	0.6099	0.25	0.6338	0.533
Mof_C 	C 	0.6827	0.25	0.6946	-0.148
Mof_C 	C 	0.1099	0.75	0.1338	0.462
Mof_C 	C 	0.1827	0.75	0.1946	-0.157
Mof_C 	C 	0.3901	0.25	0.6338	0.532
Mof_C 	C 	0.3173	0.25	0.6946	-0.149
Mof_C 	C 	0.8901	0.75	0.1338	0.454
Mof_C 	C 	0.8173	0.75	0.1946	-0.143
Mof_C 	C 	0.3901	0.75	0.3662	0.532
Mof_C 	C 	0.3173	0.75	0.3054	-0.174
Mof_C 	C 	0.8901	0.25	0.8662	0.458
Mof_C 	C 	0.8173	0.25	0.8054	-0.094
Mof_C 	C 	0.6099	0.75	0.3662	0.532
Mof_C 	C 	0.6827	0.75	0.3054	-0.174
Mof_C 	C 	0.1099	0.25	0.8662	0.465
Mof_C 	C 	0.1827	0.25	0.8054	-0.106
_end
