# CIF file generated by openbabel 3.1.0, see https://openbabel.org
data_I
_chemical_name_common 'image0'
_cell_length_a 30.4852
_cell_length_b 9.0518
_cell_length_c 20.1865
_cell_angle_alpha 90
_cell_angle_beta 107.086
_cell_angle_gamma 90
_space_group_name_H-M_alt 'P 1'
_space_group_name_Hall 'P 1'
loop_
    _symmetry_equiv_pos_as_xyz
    x,y,z
loop_
    _atom_site_label
    _atom_site_type_symbol
    _atom_site_fract_x
    _atom_site_fract_y
    _atom_site_fract_z
    _atom_site_occupancy
    Eu1      Eu       0.24985    0.97281    0.07276    1.000
    O1       O        0.18081    0.87790    0.99830    1.000
    O2       O        0.80643    0.96820    0.86460    1.000
    O3       O        0.31688    0.02660    0.18120    1.000
    O4       O        0.30067    0.18640    0.09640    1.000
    O5       O        0.80443    0.81690    0.94910    1.000
    O6       O        0.19567    0.66080    0.95910    1.000
    C1       C        0.37359    0.21100    0.17940    1.000
    C2       C        0.32800    0.13770    0.15180    1.000
    C3       C        0.11850    0.72250    0.94570    1.000
    C4       C        0.40550    0.16050    0.23940    1.000
    H1       H        0.39810    0.08210    0.26390    1.000
    C5       C        0.82430    0.86700    0.90610    1.000
    C6       C        0.16887    0.75650    0.96930    1.000
    C7       C        0.38530    0.32900    0.14350    1.000
    H2       H        0.36410    0.36310    0.10320    1.000
    C8       C        0.08670    0.79580    0.96930    1.000
    H3       H        0.09630    0.87430    0.99980    1.000
    C9       C        0.42780    0.39640    0.16680    1.000
    H4       H        0.43520    0.47540    0.14270    1.000
    C10      C        0.45930    0.34350    0.22720    1.000
    C11      C        0.44840    0.22650    0.26310    1.000
    H5       H        0.46980    0.19170    0.30300    1.000
    C12      C        0.04090    0.75650    0.94920    1.000
    H6       H        0.02120    0.78120    0.97500    1.000
    C13      C        0.10220    0.63940    0.87930    1.000
    H7       H        0.12270    0.60770    0.85600    1.000
    O7       O        0.98030    0.62310    0.85520    1.000
    C14      C        0.02500    0.67050    0.88230    1.000
    C15      C        0.05560    0.61070    0.85330    1.000
    H8       H        0.04510    0.54900    0.81510    1.000
    C16      C        0.95030    0.64040    0.91800    1.000
    C17      C        0.92710    0.60320    0.96550    1.000
    H9       H        0.93850    0.52920    0.99790    1.000
    C18      C        0.88690    0.67680    0.96450    1.000
    H10      H        0.87140    0.65190    0.99630    1.000
    C19      C        0.86990    0.78740    0.91610    1.000
    C20      C        0.89310    0.82460    0.86850    1.000
    H11      H        0.88170    0.89860    0.83610    1.000
    C21      C        0.93330    0.75100    0.86950    1.000
    H12      H        0.94880    0.77590    0.83770    1.000
    H13      H        0.01830    0.82470    0.95040    1.000
    C22      C        0.92940    0.83040    0.84220    1.000
    H14      H        0.94390    0.87770    0.81360    1.000
    C23      C        0.94650    0.69740    0.87380    1.000
    C24      C        0.92470    0.62670    0.91660    1.000
    H15      H        0.93610    0.53780    0.93770    1.000
    C25      C        0.88580    0.68900    0.92770    1.000
    H16      H        0.87120    0.64170    0.95630    1.000
    C26      C        0.86870    0.82200    0.89610    1.000
    C27      C        0.89050    0.89270    0.85340    1.000
    H17      H        0.87900    0.98160    0.83220    1.000
    C28      C        0.10550    0.57230    0.92640    1.000
    H18      H        0.12800    0.50500    0.92380    1.000
    C29      C        0.06150    0.52600    0.91190    1.000
    H19      H        0.05310    0.43400    0.89150    1.000
    C30      C        0.02950    0.61390    0.92730    1.000
    O8       O        0.98610    0.55350    0.91380    1.000
    Eu2      Eu       0.74985    0.47281    0.07276    1.000
    O9       O        0.68081    0.37790    0.99830    1.000
    O10      O        0.30643    0.46820    0.86460    1.000
    O11      O        0.81688    0.52660    0.18120    1.000
    O12      O        0.80067    0.68640    0.09640    1.000
    O13      O        0.30443    0.31690    0.94910    1.000
    O14      O        0.69567    0.16080    0.95910    1.000
    C31      C        0.87359    0.71100    0.17940    1.000
    C32      C        0.82800    0.63770    0.15180    1.000
    C33      C        0.61850    0.22250    0.94570    1.000
    C34      C        0.90550    0.66050    0.23940    1.000
    H20      H        0.89810    0.58210    0.26390    1.000
    C35      C        0.32430    0.36700    0.90610    1.000
    C36      C        0.66887    0.25650    0.96930    1.000
    C37      C        0.88530    0.82900    0.14350    1.000
    H21      H        0.86410    0.86310    0.10320    1.000
    C38      C        0.58670    0.29580    0.96930    1.000
    H22      H        0.59630    0.37430    0.99980    1.000
    C39      C        0.92780    0.89640    0.16680    1.000
    H23      H        0.93520    0.97540    0.14270    1.000
    C40      C        0.95930    0.84350    0.22720    1.000
    C41      C        0.94840    0.72650    0.26310    1.000
    H24      H        0.96980    0.69170    0.30300    1.000
    C42      C        0.54090    0.25650    0.94920    1.000
    H25      H        0.52120    0.28120    0.97500    1.000
    C43      C        0.60220    0.13940    0.87930    1.000
    H26      H        0.62270    0.10770    0.85600    1.000
    O15      O        0.48030    0.12310    0.85520    1.000
    C44      C        0.52500    0.17050    0.88230    1.000
    C45      C        0.55560    0.11070    0.85330    1.000
    H27      H        0.54510    0.04900    0.81510    1.000
    C46      C        0.45030    0.14040    0.91800    1.000
    C47      C        0.42710    0.10320    0.96550    1.000
    H28      H        0.43850    0.02920    0.99790    1.000
    C48      C        0.38690    0.17680    0.96450    1.000
    H29      H        0.37140    0.15190    0.99630    1.000
    C49      C        0.36990    0.28740    0.91610    1.000
    C50      C        0.39310    0.32460    0.86850    1.000
    H30      H        0.38170    0.39860    0.83610    1.000
    C51      C        0.43330    0.25100    0.86950    1.000
    H31      H        0.44880    0.27590    0.83770    1.000
    H32      H        0.51830    0.32470    0.95040    1.000
    C52      C        0.42940    0.33040    0.84220    1.000
    H33      H        0.44390    0.37770    0.81360    1.000
    C53      C        0.44650    0.19740    0.87380    1.000
    C54      C        0.42470    0.12670    0.91660    1.000
    H34      H        0.43610    0.03780    0.93770    1.000
    C55      C        0.38580    0.18900    0.92770    1.000
    H35      H        0.37120    0.14170    0.95630    1.000
    C56      C        0.36870    0.32200    0.89610    1.000
    C57      C        0.39050    0.39270    0.85340    1.000
    H36      H        0.37900    0.48160    0.83220    1.000
    C58      C        0.60550    0.07230    0.92640    1.000
    H37      H        0.62800    0.00500    0.92380    1.000
    C59      C        0.56150    0.02600    0.91190    1.000
    H38      H        0.55310    0.93400    0.89150    1.000
    C60      C        0.52950    0.11390    0.92730    1.000
    O16      O        0.48610    0.05350    0.91380    1.000
    Eu3      Eu       0.75015    0.97281    0.42724    1.000
    O17      O        0.81919    0.87790    0.50170    1.000
    O18      O        0.19357    0.96820    0.63540    1.000
    O19      O        0.68312    0.02660    0.31880    1.000
    O20      O        0.69933    0.18640    0.40360    1.000
    O21      O        0.19557    0.81690    0.55090    1.000
    O22      O        0.80433    0.66080    0.54090    1.000
    C61      C        0.62641    0.21100    0.32060    1.000
    C62      C        0.67200    0.13770    0.34820    1.000
    C63      C        0.88150    0.72250    0.55430    1.000
    C64      C        0.59450    0.16050    0.26060    1.000
    H39      H        0.60190    0.08210    0.23610    1.000
    C65      C        0.17570    0.86700    0.59390    1.000
    C66      C        0.83113    0.75650    0.53070    1.000
    C67      C        0.61470    0.32900    0.35650    1.000
    H40      H        0.63590    0.36310    0.39680    1.000
    C68      C        0.91330    0.79580    0.53070    1.000
    H41      H        0.90370    0.87430    0.50020    1.000
    C69      C        0.57220    0.39640    0.33320    1.000
    H42      H        0.56480    0.47540    0.35730    1.000
    C70      C        0.54070    0.34350    0.27280    1.000
    C71      C        0.55160    0.22650    0.23690    1.000
    H43      H        0.53020    0.19170    0.19700    1.000
    C72      C        0.95910    0.75650    0.55080    1.000
    H44      H        0.97880    0.78120    0.52500    1.000
    C73      C        0.89780    0.63940    0.62070    1.000
    H45      H        0.87730    0.60770    0.64400    1.000
    O23      O        0.01970    0.62310    0.64480    1.000
    C74      C        0.97500    0.67050    0.61770    1.000
    C75      C        0.94440    0.61070    0.64670    1.000
    H46      H        0.95490    0.54900    0.68490    1.000
    C76      C        0.04970    0.64040    0.58200    1.000
    C77      C        0.07290    0.60320    0.53450    1.000
    H47      H        0.06150    0.52920    0.50210    1.000
    C78      C        0.11310    0.67680    0.53550    1.000
    H48      H        0.12860    0.65190    0.50370    1.000
    C79      C        0.13010    0.78740    0.58390    1.000
    C80      C        0.10690    0.82460    0.63150    1.000
    H49      H        0.11830    0.89860    0.66390    1.000
    C81      C        0.06670    0.75100    0.63050    1.000
    H50      H        0.05120    0.77590    0.66230    1.000
    H51      H        0.98170    0.82470    0.54960    1.000
    C82      C        0.07060    0.83040    0.65780    1.000
    H52      H        0.05610    0.87770    0.68640    1.000
    C83      C        0.05350    0.69740    0.62620    1.000
    C84      C        0.07530    0.62670    0.58340    1.000
    H53      H        0.06390    0.53780    0.56230    1.000
    C85      C        0.11420    0.68900    0.57230    1.000
    H54      H        0.12880    0.64170    0.54370    1.000
    C86      C        0.13130    0.82200    0.60390    1.000
    C87      C        0.10950    0.89270    0.64660    1.000
    H55      H        0.12100    0.98160    0.66780    1.000
    C88      C        0.89450    0.57230    0.57360    1.000
    H56      H        0.87200    0.50500    0.57620    1.000
    C89      C        0.93850    0.52600    0.58810    1.000
    H57      H        0.94690    0.43400    0.60850    1.000
    C90      C        0.97050    0.61390    0.57270    1.000
    O24      O        0.01390    0.55350    0.58620    1.000
    Eu4      Eu       0.25015    0.47281    0.42724    1.000
    O25      O        0.31919    0.37790    0.50170    1.000
    O26      O        0.69357    0.46820    0.63540    1.000
    O27      O        0.18312    0.52660    0.31880    1.000
    O28      O        0.19933    0.68640    0.40360    1.000
    O29      O        0.69557    0.31690    0.55090    1.000
    O30      O        0.30433    0.16080    0.54090    1.000
    C91      C        0.12641    0.71100    0.32060    1.000
    C92      C        0.17200    0.63770    0.34820    1.000
    C93      C        0.38150    0.22250    0.55430    1.000
    C94      C        0.09450    0.66050    0.26060    1.000
    H58      H        0.10190    0.58210    0.23610    1.000
    C95      C        0.67570    0.36700    0.59390    1.000
    C96      C        0.33113    0.25650    0.53070    1.000
    C97      C        0.11470    0.82900    0.35650    1.000
    H59      H        0.13590    0.86310    0.39680    1.000
    C98      C        0.41330    0.29580    0.53070    1.000
    H60      H        0.40370    0.37430    0.50020    1.000
    C99      C        0.07220    0.89640    0.33320    1.000
    H61      H        0.06480    0.97540    0.35730    1.000
    C100     C        0.04070    0.84350    0.27280    1.000
    C101     C        0.05160    0.72650    0.23690    1.000
    H62      H        0.03020    0.69170    0.19700    1.000
    C102     C        0.45910    0.25650    0.55080    1.000
    H63      H        0.47880    0.28120    0.52500    1.000
    C103     C        0.39780    0.13940    0.62070    1.000
    H64      H        0.37730    0.10770    0.64400    1.000
    O31      O        0.51970    0.12310    0.64480    1.000
    C104     C        0.47500    0.17050    0.61770    1.000
    C105     C        0.44440    0.11070    0.64670    1.000
    H65      H        0.45490    0.04900    0.68490    1.000
    C106     C        0.54970    0.14040    0.58200    1.000
    C107     C        0.57290    0.10320    0.53450    1.000
    H66      H        0.56150    0.02920    0.50210    1.000
    C108     C        0.61310    0.17680    0.53550    1.000
    H67      H        0.62860    0.15190    0.50370    1.000
    C109     C        0.63010    0.28740    0.58390    1.000
    C110     C        0.60690    0.32460    0.63150    1.000
    H68      H        0.61830    0.39860    0.66390    1.000
    C111     C        0.56670    0.25100    0.63050    1.000
    H69      H        0.55120    0.27590    0.66230    1.000
    H70      H        0.48170    0.32470    0.54960    1.000
    C112     C        0.57060    0.33040    0.65780    1.000
    H71      H        0.55610    0.37770    0.68640    1.000
    C113     C        0.55350    0.19740    0.62620    1.000
    C114     C        0.57530    0.12670    0.58340    1.000
    H72      H        0.56390    0.03780    0.56230    1.000
    C115     C        0.61420    0.18900    0.57230    1.000
    H73      H        0.62880    0.14170    0.54370    1.000
    C116     C        0.63130    0.32200    0.60390    1.000
    C117     C        0.60950    0.39270    0.64660    1.000
    H74      H        0.62100    0.48160    0.66780    1.000
    C118     C        0.39450    0.07230    0.57360    1.000
    H75      H        0.37200    0.00500    0.57620    1.000
    C119     C        0.43850    0.02600    0.58810    1.000
    H76      H        0.44690    0.93400    0.60850    1.000
    C120     C        0.47050    0.11390    0.57270    1.000
    O32      O        0.51390    0.05350    0.58620    1.000
    Eu5      Eu       0.75015    0.02719    0.92724    1.000
    O33      O        0.81919    0.12210    0.00170    1.000
    O34      O        0.19357    0.03180    0.13540    1.000
    O35      O        0.68312    0.97340    0.81880    1.000
    O36      O        0.69933    0.81360    0.90360    1.000
    O37      O        0.19557    0.18310    0.05090    1.000
    O38      O        0.80433    0.33920    0.04090    1.000
    C121     C        0.62641    0.78900    0.82060    1.000
    C122     C        0.67200    0.86230    0.84820    1.000
    C123     C        0.88150    0.27750    0.05430    1.000
    C124     C        0.59450    0.83950    0.76060    1.000
    H77      H        0.60190    0.91790    0.73610    1.000
    C125     C        0.17570    0.13300    0.09390    1.000
    C126     C        0.83113    0.24350    0.03070    1.000
    C127     C        0.61470    0.67100    0.85650    1.000
    H78      H        0.63590    0.63690    0.89680    1.000
    C128     C        0.91330    0.20420    0.03070    1.000
    H79      H        0.90370    0.12570    0.00020    1.000
    C129     C        0.57220    0.60360    0.83320    1.000
    H80      H        0.56480    0.52460    0.85730    1.000
    C130     C        0.54070    0.65650    0.77280    1.000
    C131     C        0.55160    0.77350    0.73690    1.000
    H81      H        0.53020    0.80830    0.69700    1.000
    C132     C        0.95910    0.24350    0.05080    1.000
    H82      H        0.97880    0.21880    0.02500    1.000
    C133     C        0.89780    0.36060    0.12070    1.000
    H83      H        0.87730    0.39230    0.14400    1.000
    O39      O        0.01970    0.37690    0.14480    1.000
    C134     C        0.97500    0.32950    0.11770    1.000
    C135     C        0.94440    0.38930    0.14670    1.000
    H84      H        0.95490    0.45100    0.18490    1.000
    C136     C        0.04970    0.35960    0.08200    1.000
    C137     C        0.07290    0.39680    0.03450    1.000
    H85      H        0.06150    0.47080    0.00210    1.000
    C138     C        0.11310    0.32320    0.03550    1.000
    H86      H        0.12860    0.34810    0.00370    1.000
    C139     C        0.13010    0.21260    0.08390    1.000
    C140     C        0.10690    0.17540    0.13150    1.000
    H87      H        0.11830    0.10140    0.16390    1.000
    C141     C        0.06670    0.24900    0.13050    1.000
    H88      H        0.05120    0.22410    0.16230    1.000
    H89      H        0.98170    0.17530    0.04960    1.000
    C142     C        0.07060    0.16960    0.15780    1.000
    H90      H        0.05610    0.12230    0.18640    1.000
    C143     C        0.05350    0.30260    0.12620    1.000
    C144     C        0.07530    0.37330    0.08340    1.000
    H91      H        0.06390    0.46220    0.06230    1.000
    C145     C        0.11420    0.31100    0.07230    1.000
    H92      H        0.12880    0.35830    0.04370    1.000
    C146     C        0.13130    0.17800    0.10390    1.000
    C147     C        0.10950    0.10730    0.14660    1.000
    H93      H        0.12100    0.01840    0.16780    1.000
    C148     C        0.89450    0.42770    0.07360    1.000
    H94      H        0.87200    0.49500    0.07620    1.000
    C149     C        0.93850    0.47400    0.08810    1.000
    H95      H        0.94690    0.56600    0.10850    1.000
    C150     C        0.97050    0.38610    0.07270    1.000
    O40      O        0.01390    0.44650    0.08620    1.000
    Eu6      Eu       0.25015    0.52719    0.92724    1.000
    O41      O        0.31919    0.62210    0.00170    1.000
    O42      O        0.69357    0.53180    0.13540    1.000
    O43      O        0.18312    0.47340    0.81880    1.000
    O44      O        0.19933    0.31360    0.90360    1.000
    O45      O        0.69557    0.68310    0.05090    1.000
    O46      O        0.30433    0.83920    0.04090    1.000
    C151     C        0.12641    0.28900    0.82060    1.000
    C152     C        0.17200    0.36230    0.84820    1.000
    C153     C        0.38150    0.77750    0.05430    1.000
    C154     C        0.09450    0.33950    0.76060    1.000
    H96      H        0.10190    0.41790    0.73610    1.000
    C155     C        0.67570    0.63300    0.09390    1.000
    C156     C        0.33113    0.74350    0.03070    1.000
    C157     C        0.11470    0.17100    0.85650    1.000
    H97      H        0.13590    0.13690    0.89680    1.000
    C158     C        0.41330    0.70420    0.03070    1.000
    H98      H        0.40370    0.62570    0.00020    1.000
    C159     C        0.07220    0.10360    0.83320    1.000
    H99      H        0.06480    0.02460    0.85730    1.000
    C160     C        0.04070    0.15650    0.77280    1.000
    C161     C        0.05160    0.27350    0.73690    1.000
    H100     H        0.03020    0.30830    0.69700    1.000
    C162     C        0.45910    0.74350    0.05080    1.000
    H101     H        0.47880    0.71880    0.02500    1.000
    C163     C        0.39780    0.86060    0.12070    1.000
    H102     H        0.37730    0.89230    0.14400    1.000
    O47      O        0.51970    0.87690    0.14480    1.000
    C164     C        0.47500    0.82950    0.11770    1.000
    C165     C        0.44440    0.88930    0.14670    1.000
    H103     H        0.45490    0.95100    0.18490    1.000
    C166     C        0.54970    0.85960    0.08200    1.000
    C167     C        0.57290    0.89680    0.03450    1.000
    H104     H        0.56150    0.97080    0.00210    1.000
    C168     C        0.61310    0.82320    0.03550    1.000
    H105     H        0.62860    0.84810    0.00370    1.000
    C169     C        0.63010    0.71260    0.08390    1.000
    C170     C        0.60690    0.67540    0.13150    1.000
    H106     H        0.61830    0.60140    0.16390    1.000
    C171     C        0.56670    0.74900    0.13050    1.000
    H107     H        0.55120    0.72410    0.16230    1.000
    H108     H        0.48170    0.67530    0.04960    1.000
    C172     C        0.57060    0.66960    0.15780    1.000
    H109     H        0.55610    0.62230    0.18640    1.000
    C173     C        0.55350    0.80260    0.12620    1.000
    C174     C        0.57530    0.87330    0.08340    1.000
    H110     H        0.56390    0.96220    0.06230    1.000
    C175     C        0.61420    0.81100    0.07230    1.000
    H111     H        0.62880    0.85830    0.04370    1.000
    C176     C        0.63130    0.67800    0.10390    1.000
    C177     C        0.60950    0.60730    0.14660    1.000
    H112     H        0.62100    0.51840    0.16780    1.000
    C178     C        0.39450    0.92770    0.07360    1.000
    H113     H        0.37200    0.99500    0.07620    1.000
    C179     C        0.43850    0.97400    0.08810    1.000
    H114     H        0.44690    0.06600    0.10850    1.000
    C180     C        0.47050    0.88610    0.07270    1.000
    O48      O        0.51390    0.94650    0.08620    1.000
    Eu7      Eu       0.24985    0.02719    0.57276    1.000
    O49      O        0.18081    0.12210    0.49830    1.000
    O50      O        0.80643    0.03180    0.36460    1.000
    O51      O        0.31688    0.97340    0.68120    1.000
    O52      O        0.30067    0.81360    0.59640    1.000
    O53      O        0.80443    0.18310    0.44910    1.000
    O54      O        0.19567    0.33920    0.45910    1.000
    C181     C        0.37359    0.78900    0.67940    1.000
    C182     C        0.32800    0.86230    0.65180    1.000
    C183     C        0.11850    0.27750    0.44570    1.000
    C184     C        0.40550    0.83950    0.73940    1.000
    H115     H        0.39810    0.91790    0.76390    1.000
    C185     C        0.82430    0.13300    0.40610    1.000
    C186     C        0.16887    0.24350    0.46930    1.000
    C187     C        0.38530    0.67100    0.64350    1.000
    H116     H        0.36410    0.63690    0.60320    1.000
    C188     C        0.08670    0.20420    0.46930    1.000
    H117     H        0.09630    0.12570    0.49980    1.000
    C189     C        0.42780    0.60360    0.66680    1.000
    H118     H        0.43520    0.52460    0.64270    1.000
    C190     C        0.45930    0.65650    0.72720    1.000
    C191     C        0.44840    0.77350    0.76310    1.000
    H119     H        0.46980    0.80830    0.80300    1.000
    C192     C        0.04090    0.24350    0.44920    1.000
    H120     H        0.02120    0.21880    0.47500    1.000
    C193     C        0.10220    0.36060    0.37930    1.000
    H121     H        0.12270    0.39230    0.35600    1.000
    O55      O        0.98030    0.37690    0.35520    1.000
    C194     C        0.02500    0.32950    0.38230    1.000
    C195     C        0.05560    0.38930    0.35330    1.000
    H122     H        0.04510    0.45100    0.31510    1.000
    C196     C        0.95030    0.35960    0.41800    1.000
    C197     C        0.92710    0.39680    0.46550    1.000
    H123     H        0.93850    0.47080    0.49790    1.000
    C198     C        0.88690    0.32320    0.46450    1.000
    H124     H        0.87140    0.34810    0.49630    1.000
    C199     C        0.86990    0.21260    0.41610    1.000
    C200     C        0.89310    0.17540    0.36850    1.000
    H125     H        0.88170    0.10140    0.33610    1.000
    C201     C        0.93330    0.24900    0.36950    1.000
    H126     H        0.94880    0.22410    0.33770    1.000
    H127     H        0.01830    0.17530    0.45040    1.000
    C202     C        0.92940    0.16960    0.34220    1.000
    H128     H        0.94390    0.12230    0.31360    1.000
    C203     C        0.94650    0.30260    0.37380    1.000
    C204     C        0.92470    0.37330    0.41660    1.000
    H129     H        0.93610    0.46220    0.43770    1.000
    C205     C        0.88580    0.31100    0.42770    1.000
    H130     H        0.87120    0.35830    0.45630    1.000
    C206     C        0.86870    0.17800    0.39610    1.000
    C207     C        0.89050    0.10730    0.35340    1.000
    H131     H        0.87900    0.01840    0.33220    1.000
    C208     C        0.10550    0.42770    0.42640    1.000
    H132     H        0.12800    0.49500    0.42380    1.000
    C209     C        0.06150    0.47400    0.41190    1.000
    H133     H        0.05310    0.56600    0.39150    1.000
    C210     C        0.02950    0.38610    0.42730    1.000
    O56      O        0.98610    0.44650    0.41380    1.000
    Eu8      Eu       0.74985    0.52719    0.57276    1.000
    O57      O        0.68081    0.62210    0.49830    1.000
    O58      O        0.30643    0.53180    0.36460    1.000
    O59      O        0.81688    0.47340    0.68120    1.000
    O60      O        0.80067    0.31360    0.59640    1.000
    O61      O        0.30443    0.68310    0.44910    1.000
    O62      O        0.69567    0.83920    0.45910    1.000
    C211     C        0.87359    0.28900    0.67940    1.000
    C212     C        0.82800    0.36230    0.65180    1.000
    C213     C        0.61850    0.77750    0.44570    1.000
    C214     C        0.90550    0.33950    0.73940    1.000
    H134     H        0.89810    0.41790    0.76390    1.000
    C215     C        0.32430    0.63300    0.40610    1.000
    C216     C        0.66887    0.74350    0.46930    1.000
    C217     C        0.88530    0.17100    0.64350    1.000
    H135     H        0.86410    0.13690    0.60320    1.000
    C218     C        0.58670    0.70420    0.46930    1.000
    H136     H        0.59630    0.62570    0.49980    1.000
    C219     C        0.92780    0.10360    0.66680    1.000
    H137     H        0.93520    0.02460    0.64270    1.000
    C220     C        0.95930    0.15650    0.72720    1.000
    C221     C        0.94840    0.27350    0.76310    1.000
    H138     H        0.96980    0.30830    0.80300    1.000
    C222     C        0.54090    0.74350    0.44920    1.000
    H139     H        0.52120    0.71880    0.47500    1.000
    C223     C        0.60220    0.86060    0.37930    1.000
    H140     H        0.62270    0.89230    0.35600    1.000
    O63      O        0.48030    0.87690    0.35520    1.000
    C224     C        0.52500    0.82950    0.38230    1.000
    C225     C        0.55560    0.88930    0.35330    1.000
    H141     H        0.54510    0.95100    0.31510    1.000
    C226     C        0.45030    0.85960    0.41800    1.000
    C227     C        0.42710    0.89680    0.46550    1.000
    H142     H        0.43850    0.97080    0.49790    1.000
    C228     C        0.38690    0.82320    0.46450    1.000
    H143     H        0.37140    0.84810    0.49630    1.000
    C229     C        0.36990    0.71260    0.41610    1.000
    C230     C        0.39310    0.67540    0.36850    1.000
    H144     H        0.38170    0.60140    0.33610    1.000
    C231     C        0.43330    0.74900    0.36950    1.000
    H145     H        0.44880    0.72410    0.33770    1.000
    H146     H        0.51830    0.67530    0.45040    1.000
    C232     C        0.42940    0.66960    0.34220    1.000
    H147     H        0.44390    0.62230    0.31360    1.000
    C233     C        0.44650    0.80260    0.37380    1.000
    C234     C        0.42470    0.87330    0.41660    1.000
    H148     H        0.43610    0.96220    0.43770    1.000
    C235     C        0.38580    0.81100    0.42770    1.000
    H149     H        0.37120    0.85830    0.45630    1.000
    C236     C        0.36870    0.67800    0.39610    1.000
    C237     C        0.39050    0.60730    0.35340    1.000
    H150     H        0.37900    0.51840    0.33220    1.000
    C238     C        0.60550    0.92770    0.42640    1.000
    H151     H        0.62800    0.99500    0.42380    1.000
    C239     C        0.56150    0.97400    0.41190    1.000
    H152     H        0.55310    0.06600    0.39150    1.000
    C240     C        0.52950    0.88610    0.42730    1.000
    O64      O        0.48610    0.94650    0.41380    1.000
    O65      O        0.50000    0.42050    0.25000    1.000
    O66      O        0.00000    0.92050    0.25000    1.000
    O67      O        0.50000    0.57950    0.75000    1.000
    O68      O        0.00000    0.07950    0.75000    1.000
