# CIF file generated by openbabel 3.1.0, see https://openbabel.org
data_I
_chemical_name_common 'image0'
_cell_length_a 9.6128
_cell_length_b 11.336
_cell_length_c 11.906
_cell_angle_alpha 114.52
_cell_angle_beta 91.19
_cell_angle_gamma 106
_space_group_name_H-M_alt 'P 1'
_space_group_name_Hall 'P 1'
loop_
    _symmetry_equiv_pos_as_xyz
    x,y,z
loop_
    _atom_site_label
    _atom_site_type_symbol
    _atom_site_fract_x
    _atom_site_fract_y
    _atom_site_fract_z
    _atom_site_occupancy
    C1       C        0.98320    0.89760    0.10760    1.000
    N1       N        0.86910    0.55570    0.93900    1.000
    C2       C        0.57150    0.23410    0.99330    1.000
    C3       C        0.82360    0.37140    0.99700    1.000
    H1       H        0.86070    0.31740    0.02260    1.000
    C4       C        0.67420    0.34400    0.97210    1.000
    C5       C        0.25690    0.85440    0.56110    1.000
    H2       H        0.18100    0.86800    0.60720    1.000
    C6       C        0.62550    0.42370    0.92940    1.000
    H3       H        0.52560    0.40860    0.91210    1.000
    C7       C        0.10750    0.85850    0.27150    1.000
    H4       H        0.19390    0.87470    0.23870    1.000
    C8       C        0.91830    0.48090    0.98330    1.000
    C9       C        0.98240    0.86150    0.21690    1.000
    C10      C        0.41470    0.89440    0.75360    1.000
    C11      C        0.38830    0.85880    0.61660    1.000
    C12      C        0.24000    0.82990    0.43710    1.000
    N2       N        0.34680    0.81050    0.36760    1.000
    C13      C        0.49650    0.83430    0.54360    1.000
    H5       H        0.58540    0.83480    0.57640    1.000
    C14      C        0.85470    0.83120    0.26420    1.000
    H6       H        0.76750    0.83280    0.23030    1.000
    N3       N        0.98210    0.79990    0.42130    1.000
    C15      C        0.10680    0.83180    0.37520    1.000
    C16      C        0.46790    0.80920    0.42040    1.000
    H7       H        0.53960    0.78990    0.37080    1.000
    C17      C        0.85980    0.79840    0.36350    1.000
    H8       H        0.77230    0.77350    0.39220    1.000
    C18      C        0.72520    0.52530    0.91250    1.000
    H9       H        0.69010    0.57580    0.88080    1.000
    O1       O        0.87230    0.91270    0.07170    1.000
    O2       O        0.10220    0.91230    0.06310    1.000
    O3       O        0.53100    0.88230    0.79090    1.000
    O4       O        0.61040    0.14010    0.99690    1.000
    O5       O        0.32020    0.93190    0.81730    1.000
    O6       O        0.44230    0.23820    0.00500    1.000
    Tb1      Tb       0.69330    0.95520    0.97100    1.000
    C19      C        0.01680    0.10240    0.89240    1.000
    N4       N        0.13090    0.44430    0.06100    1.000
    C20      C        0.42850    0.76590    0.00670    1.000
    C21      C        0.17640    0.62860    0.00300    1.000
    H10      H        0.13930    0.68260    0.97740    1.000
    C22      C        0.32580    0.65600    0.02790    1.000
    C23      C        0.74310    0.14560    0.43890    1.000
    H11      H        0.81900    0.13200    0.39280    1.000
    C24      C        0.37450    0.57630    0.07060    1.000
    H12      H        0.47440    0.59140    0.08790    1.000
    C25      C        0.89250    0.14150    0.72850    1.000
    H13      H        0.80610    0.12530    0.76130    1.000
    C26      C        0.08170    0.51910    0.01670    1.000
    C27      C        0.01760    0.13850    0.78310    1.000
    C28      C        0.58530    0.10560    0.24640    1.000
    C29      C        0.61170    0.14120    0.38340    1.000
    C30      C        0.76000    0.17010    0.56290    1.000
    N5       N        0.65320    0.18950    0.63240    1.000
    C31      C        0.50350    0.16570    0.45640    1.000
    H14      H        0.41460    0.16520    0.42360    1.000
    C32      C        0.14530    0.16880    0.73580    1.000
    H15      H        0.23250    0.16720    0.76970    1.000
    N6       N        0.01790    0.20010    0.57870    1.000
    C33      C        0.89320    0.16820    0.62480    1.000
    C34      C        0.53210    0.19080    0.57960    1.000
    H16      H        0.46040    0.21010    0.62920    1.000
    C35      C        0.14020    0.20160    0.63650    1.000
    H17      H        0.22770    0.22650    0.60780    1.000
    C36      C        0.27480    0.47470    0.08750    1.000
    H18      H        0.30990    0.42420    0.11920    1.000
    O7       O        0.12770    0.08730    0.92830    1.000
    O8       O        0.89780    0.08770    0.93690    1.000
    O9       O        0.46900    0.11770    0.20910    1.000
    O10      O        0.38960    0.85990    0.00310    1.000
    O11      O        0.67980    0.06810    0.18270    1.000
    O12      O        0.55770    0.76180    0.99500    1.000
    Tb2      Tb       0.30670    0.04480    0.02900    1.000
