# CIF file generated by openbabel 3.1.0, see https://openbabel.org
data_I
_chemical_name_common 'image0'
_cell_length_a 19.053
_cell_length_b 18.801
_cell_length_c 22.9434
_cell_angle_alpha 90
_cell_angle_beta 90
_cell_angle_gamma 90
_space_group_name_H-M_alt 'P 1'
_space_group_name_Hall 'P 1'
loop_
    _symmetry_equiv_pos_as_xyz
    x,y,z
loop_
    _atom_site_label
    _atom_site_type_symbol
    _atom_site_fract_x
    _atom_site_fract_y
    _atom_site_fract_z
    _atom_site_occupancy
    Zn1      Zn       0.35443    0.76280    0.21658    1.000
    Zn2      Zn       0.22837    0.73772    0.37421    1.000
    Zn3      Zn       0.22864    0.73381    0.12111    1.000
    Zn4      Zn       0.25461    0.10766    0.46896    1.000
    C1       C        0.25610    0.91020    0.26930    1.000
    C2       C        0.25670    0.96690    0.30870    1.000
    H1       H        0.25890    0.95700    0.34840    1.000
    C3       C        0.25410    0.03770    0.29070    1.000
    C4       C        0.25090    0.05260    0.23150    1.000
    C5       C        0.25210    0.99620    0.19220    1.000
    H2       H        0.25170    0.00640    0.15260    1.000
    C6       C        0.25380    0.92560    0.20950    1.000
    C7       C        0.25570    0.83810    0.29790    1.000
    C8       C        0.25760    0.09300    0.33860    1.000
    C9       C        0.23960    0.12700    0.20670    1.000
    C10      C        0.24950    0.86940    0.16280    1.000
    C11      C        0.42800    0.72850    0.03860    1.000
    C12      C        0.49610    0.71350    0.05390    1.000
    H3       H        0.50640    0.70420    0.09280    1.000
    C13      C        0.54980    0.71160    0.01360    1.000
    C14      C        0.53560    0.72530    0.95520    1.000
    C15      C        0.46790    0.73910    0.93910    1.000
    H4       H        0.45790    0.74560    0.89980    1.000
    C16      C        0.41370    0.74380    0.97890    1.000
    C17      C        0.37130    0.73000    0.08370    1.000
    C18      C        0.62190    0.69530    0.03560    1.000
    C19      C        0.59430    0.73310    0.91050    1.000
    C20      C        0.34370    0.77360    0.95970    1.000
    O1       O        0.30530    0.79430    0.29220    1.000
    O2       O        0.20620    0.82680    0.33250    1.000
    O3       O        0.25670    0.80430    0.18020    1.000
    O4       O        0.23710    0.88560    0.11270    1.000
    O5       O        0.27780    0.15380    0.32450    1.000
    O6       O        0.24100    0.07360    0.38840    1.000
    O7       O        0.28170    0.14510    0.16670    1.000
    O8       O        0.18840    0.16140    0.22460    1.000
    O9       O        0.30930    0.71960    0.06840    1.000
    O10      O        0.39260    0.74100    0.13500    1.000
    O11      O        0.64530    0.73540    0.07490    1.000
    O12      O        0.65190    0.64110    0.01530    1.000
    O13      O        0.65000    0.75900    0.93090    1.000
    O14      O        0.58470    0.71640    0.86020    1.000
    O15      O        0.32540    0.83110    0.98310    1.000
    O16      O        0.31230    0.74220    0.92070    1.000
    Zn5      Zn       0.14557    0.23720    0.71658    1.000
    Zn6      Zn       0.27163    0.26228    0.87421    1.000
    Zn7      Zn       0.27136    0.26619    0.62111    1.000
    Zn8      Zn       0.24539    0.89234    0.96896    1.000
    C21      C        0.24390    0.08980    0.76930    1.000
    C22      C        0.24330    0.03310    0.80870    1.000
    H5       H        0.24110    0.04300    0.84840    1.000
    C23      C        0.24590    0.96230    0.79070    1.000
    C24      C        0.24910    0.94740    0.73150    1.000
    C25      C        0.24790    0.00380    0.69220    1.000
    H6       H        0.24830    0.99360    0.65260    1.000
    C26      C        0.24620    0.07440    0.70950    1.000
    C27      C        0.24430    0.16190    0.79790    1.000
    C28      C        0.24240    0.90700    0.83860    1.000
    C29      C        0.26040    0.87300    0.70670    1.000
    C30      C        0.25050    0.13060    0.66280    1.000
    C31      C        0.07200    0.27150    0.53860    1.000
    C32      C        0.00390    0.28650    0.55390    1.000
    H7       H        0.99360    0.29580    0.59280    1.000
    C33      C        0.95020    0.28840    0.51360    1.000
    C34      C        0.96440    0.27470    0.45520    1.000
    C35      C        0.03210    0.26090    0.43910    1.000
    H8       H        0.04210    0.25440    0.39980    1.000
    C36      C        0.08630    0.25620    0.47890    1.000
    C37      C        0.12870    0.27000    0.58370    1.000
    C38      C        0.87810    0.30470    0.53560    1.000
    C39      C        0.90570    0.26690    0.41050    1.000
    C40      C        0.15630    0.22640    0.45970    1.000
    O17      O        0.19470    0.20570    0.79220    1.000
    O18      O        0.29380    0.17320    0.83250    1.000
    O19      O        0.24330    0.19570    0.68020    1.000
    O20      O        0.26290    0.11440    0.61270    1.000
    O21      O        0.22220    0.84620    0.82450    1.000
    O22      O        0.25900    0.92640    0.88840    1.000
    O23      O        0.21830    0.85490    0.66670    1.000
    O24      O        0.31160    0.83860    0.72460    1.000
    O25      O        0.19070    0.28040    0.56840    1.000
    O26      O        0.10740    0.25900    0.63500    1.000
    O27      O        0.85470    0.26460    0.57490    1.000
    O28      O        0.84810    0.35890    0.51530    1.000
    O29      O        0.85000    0.24100    0.43090    1.000
    O30      O        0.91530    0.28360    0.36020    1.000
    O31      O        0.17460    0.16890    0.48310    1.000
    O32      O        0.18770    0.25780    0.42070    1.000
    Zn9      Zn       0.64557    0.26280    0.28342    1.000
    Zn10     Zn       0.77163    0.23772    0.12579    1.000
    Zn11     Zn       0.77136    0.23381    0.37889    1.000
    Zn12     Zn       0.74539    0.60766    0.03104    1.000
    C41      C        0.74390    0.41020    0.23070    1.000
    C42      C        0.74330    0.46690    0.19130    1.000
    H9       H        0.74110    0.45700    0.15160    1.000
    C43      C        0.74590    0.53770    0.20930    1.000
    C44      C        0.74910    0.55260    0.26850    1.000
    C45      C        0.74790    0.49620    0.30780    1.000
    H10      H        0.74830    0.50640    0.34740    1.000
    C46      C        0.74620    0.42560    0.29050    1.000
    C47      C        0.74430    0.33810    0.20210    1.000
    C48      C        0.74240    0.59300    0.16140    1.000
    C49      C        0.76040    0.62700    0.29330    1.000
    C50      C        0.75050    0.36940    0.33720    1.000
    C51      C        0.57200    0.22850    0.46140    1.000
    C52      C        0.50390    0.21350    0.44610    1.000
    H11      H        0.49360    0.20420    0.40720    1.000
    C53      C        0.45020    0.21160    0.48640    1.000
    C54      C        0.46440    0.22530    0.54480    1.000
    C55      C        0.53210    0.23910    0.56090    1.000
    H12      H        0.54210    0.24560    0.60020    1.000
    C56      C        0.58630    0.24380    0.52110    1.000
    C57      C        0.62870    0.23000    0.41630    1.000
    C58      C        0.37810    0.19530    0.46440    1.000
    C59      C        0.40570    0.23310    0.58950    1.000
    C60      C        0.65630    0.27360    0.54030    1.000
    O33      O        0.69470    0.29430    0.20780    1.000
    O34      O        0.79380    0.32680    0.16750    1.000
    O35      O        0.74330    0.30430    0.31980    1.000
    O36      O        0.76290    0.38560    0.38730    1.000
    O37      O        0.72220    0.65380    0.17550    1.000
    O38      O        0.75900    0.57360    0.11160    1.000
    O39      O        0.71830    0.64510    0.33330    1.000
    O40      O        0.81160    0.66140    0.27540    1.000
    O41      O        0.69070    0.21960    0.43160    1.000
    O42      O        0.60740    0.24100    0.36500    1.000
    O43      O        0.35470    0.23540    0.42510    1.000
    O44      O        0.34810    0.14110    0.48470    1.000
    O45      O        0.35000    0.25900    0.56910    1.000
    O46      O        0.41530    0.21640    0.63980    1.000
    O47      O        0.67460    0.33110    0.51690    1.000
    O48      O        0.68770    0.24220    0.57930    1.000
    Zn13     Zn       0.85443    0.73720    0.78342    1.000
    Zn14     Zn       0.72837    0.76228    0.62579    1.000
    Zn15     Zn       0.72864    0.76619    0.87889    1.000
    Zn16     Zn       0.75461    0.39234    0.53104    1.000
    C61      C        0.75610    0.58980    0.73070    1.000
    C62      C        0.75670    0.53310    0.69130    1.000
    H13      H        0.75890    0.54300    0.65160    1.000
    C63      C        0.75410    0.46230    0.70930    1.000
    C64      C        0.75090    0.44740    0.76850    1.000
    C65      C        0.75210    0.50380    0.80780    1.000
    H14      H        0.75170    0.49360    0.84740    1.000
    C66      C        0.75380    0.57440    0.79050    1.000
    C67      C        0.75570    0.66190    0.70210    1.000
    C68      C        0.75760    0.40700    0.66140    1.000
    C69      C        0.73960    0.37300    0.79330    1.000
    C70      C        0.74950    0.63060    0.83720    1.000
    C71      C        0.92800    0.77150    0.96140    1.000
    C72      C        0.99610    0.78650    0.94610    1.000
    H15      H        0.00640    0.79580    0.90720    1.000
    C73      C        0.04980    0.78840    0.98640    1.000
    C74      C        0.03560    0.77470    0.04480    1.000
    C75      C        0.96790    0.76090    0.06090    1.000
    H16      H        0.95790    0.75440    0.10020    1.000
    C76      C        0.91370    0.75620    0.02110    1.000
    C77      C        0.87130    0.77000    0.91630    1.000
    C78      C        0.12190    0.80470    0.96440    1.000
    C79      C        0.09430    0.76690    0.08950    1.000
    C80      C        0.84370    0.72640    0.04030    1.000
    O49      O        0.80530    0.70570    0.70780    1.000
    O50      O        0.70620    0.67320    0.66750    1.000
    O51      O        0.75670    0.69570    0.81980    1.000
    O52      O        0.73710    0.61440    0.88730    1.000
    O53      O        0.77780    0.34620    0.67550    1.000
    O54      O        0.74100    0.42640    0.61160    1.000
    O55      O        0.78170    0.35490    0.83330    1.000
    O56      O        0.68840    0.33860    0.77540    1.000
    O57      O        0.80930    0.78040    0.93160    1.000
    O58      O        0.89260    0.75900    0.86500    1.000
    O59      O        0.14530    0.76460    0.92510    1.000
    O60      O        0.15190    0.85890    0.98470    1.000
    O61      O        0.15000    0.74100    0.06910    1.000
    O62      O        0.08470    0.78360    0.13980    1.000
    O63      O        0.82540    0.66890    0.01690    1.000
    O64      O        0.81230    0.75780    0.07930    1.000
    Zn17     Zn       0.64557    0.23720    0.78342    1.000
    Zn18     Zn       0.77163    0.26228    0.62579    1.000
    Zn19     Zn       0.77136    0.26619    0.87889    1.000
    Zn20     Zn       0.74539    0.89234    0.53104    1.000
    C81      C        0.74390    0.08980    0.73070    1.000
    C82      C        0.74330    0.03310    0.69130    1.000
    H17      H        0.74110    0.04300    0.65160    1.000
    C83      C        0.74590    0.96230    0.70930    1.000
    C84      C        0.74910    0.94740    0.76850    1.000
    C85      C        0.74790    0.00380    0.80780    1.000
    H18      H        0.74830    0.99360    0.84740    1.000
    C86      C        0.74620    0.07440    0.79050    1.000
    C87      C        0.74430    0.16190    0.70210    1.000
    C88      C        0.74240    0.90700    0.66140    1.000
    C89      C        0.76040    0.87300    0.79330    1.000
    C90      C        0.75050    0.13060    0.83720    1.000
    C91      C        0.57200    0.27150    0.96140    1.000
    C92      C        0.50390    0.28650    0.94610    1.000
    H19      H        0.49360    0.29580    0.90720    1.000
    C93      C        0.45020    0.28840    0.98640    1.000
    C94      C        0.46440    0.27470    0.04480    1.000
    C95      C        0.53210    0.26090    0.06090    1.000
    H20      H        0.54210    0.25440    0.10020    1.000
    C96      C        0.58630    0.25620    0.02110    1.000
    C97      C        0.62870    0.27000    0.91630    1.000
    C98      C        0.37810    0.30470    0.96440    1.000
    C99      C        0.40570    0.26690    0.08950    1.000
    C100     C        0.65630    0.22640    0.04030    1.000
    O65      O        0.69470    0.20570    0.70780    1.000
    O66      O        0.79380    0.17320    0.66750    1.000
    O67      O        0.74330    0.19570    0.81980    1.000
    O68      O        0.76290    0.11440    0.88730    1.000
    O69      O        0.72220    0.84620    0.67550    1.000
    O70      O        0.75900    0.92640    0.61160    1.000
    O71      O        0.71830    0.85490    0.83330    1.000
    O72      O        0.81160    0.83860    0.77540    1.000
    O73      O        0.69070    0.28040    0.93160    1.000
    O74      O        0.60740    0.25900    0.86500    1.000
    O75      O        0.35470    0.26460    0.92510    1.000
    O76      O        0.34810    0.35890    0.98470    1.000
    O77      O        0.35000    0.24100    0.06910    1.000
    O78      O        0.41530    0.28360    0.13980    1.000
    O79      O        0.67460    0.16890    0.01690    1.000
    O80      O        0.68770    0.25780    0.07930    1.000
    Zn21     Zn       0.85443    0.76280    0.28342    1.000
    Zn22     Zn       0.72837    0.73772    0.12579    1.000
    Zn23     Zn       0.72864    0.73381    0.37889    1.000
    Zn24     Zn       0.75461    0.10766    0.03104    1.000
    C101     C        0.75610    0.91020    0.23070    1.000
    C102     C        0.75670    0.96690    0.19130    1.000
    H21      H        0.75890    0.95700    0.15160    1.000
    C103     C        0.75410    0.03770    0.20930    1.000
    C104     C        0.75090    0.05260    0.26850    1.000
    C105     C        0.75210    0.99620    0.30780    1.000
    H22      H        0.75170    0.00640    0.34740    1.000
    C106     C        0.75380    0.92560    0.29050    1.000
    C107     C        0.75570    0.83810    0.20210    1.000
    C108     C        0.75760    0.09300    0.16140    1.000
    C109     C        0.73960    0.12700    0.29330    1.000
    C110     C        0.74950    0.86940    0.33720    1.000
    C111     C        0.92800    0.72850    0.46140    1.000
    C112     C        0.99610    0.71350    0.44610    1.000
    H23      H        0.00640    0.70420    0.40720    1.000
    C113     C        0.04980    0.71160    0.48640    1.000
    C114     C        0.03560    0.72530    0.54480    1.000
    C115     C        0.96790    0.73910    0.56090    1.000
    H24      H        0.95790    0.74560    0.60020    1.000
    C116     C        0.91370    0.74380    0.52110    1.000
    C117     C        0.87130    0.73000    0.41630    1.000
    C118     C        0.12190    0.69530    0.46440    1.000
    C119     C        0.09430    0.73310    0.58950    1.000
    C120     C        0.84370    0.77360    0.54030    1.000
    O81      O        0.80530    0.79430    0.20780    1.000
    O82      O        0.70620    0.82680    0.16750    1.000
    O83      O        0.75670    0.80430    0.31980    1.000
    O84      O        0.73710    0.88560    0.38730    1.000
    O85      O        0.77780    0.15380    0.17550    1.000
    O86      O        0.74100    0.07360    0.11160    1.000
    O87      O        0.78170    0.14510    0.33330    1.000
    O88      O        0.68840    0.16140    0.27540    1.000
    O89      O        0.80930    0.71960    0.43160    1.000
    O90      O        0.89260    0.74100    0.36500    1.000
    O91      O        0.14530    0.73540    0.42510    1.000
    O92      O        0.15190    0.64110    0.48470    1.000
    O93      O        0.15000    0.75900    0.56910    1.000
    O94      O        0.08470    0.71640    0.63980    1.000
    O95      O        0.82540    0.83110    0.51690    1.000
    O96      O        0.81230    0.74220    0.57930    1.000
    Zn25     Zn       0.35443    0.73720    0.71658    1.000
    Zn26     Zn       0.22837    0.76228    0.87421    1.000
    Zn27     Zn       0.22864    0.76619    0.62111    1.000
    Zn28     Zn       0.25461    0.39234    0.96896    1.000
    C121     C        0.25610    0.58980    0.76930    1.000
    C122     C        0.25670    0.53310    0.80870    1.000
    H25      H        0.25890    0.54300    0.84840    1.000
    C123     C        0.25410    0.46230    0.79070    1.000
    C124     C        0.25090    0.44740    0.73150    1.000
    C125     C        0.25210    0.50380    0.69220    1.000
    H26      H        0.25170    0.49360    0.65260    1.000
    C126     C        0.25380    0.57440    0.70950    1.000
    C127     C        0.25570    0.66190    0.79790    1.000
    C128     C        0.25760    0.40700    0.83860    1.000
    C129     C        0.23960    0.37300    0.70670    1.000
    C130     C        0.24950    0.63060    0.66280    1.000
    C131     C        0.42800    0.77150    0.53860    1.000
    C132     C        0.49610    0.78650    0.55390    1.000
    H27      H        0.50640    0.79580    0.59280    1.000
    C133     C        0.54980    0.78840    0.51360    1.000
    C134     C        0.53560    0.77470    0.45520    1.000
    C135     C        0.46790    0.76090    0.43910    1.000
    H28      H        0.45790    0.75440    0.39980    1.000
    C136     C        0.41370    0.75620    0.47890    1.000
    C137     C        0.37130    0.77000    0.58370    1.000
    C138     C        0.62190    0.80470    0.53560    1.000
    C139     C        0.59430    0.76690    0.41050    1.000
    C140     C        0.34370    0.72640    0.45970    1.000
    O97      O        0.30530    0.70570    0.79220    1.000
    O98      O        0.20620    0.67320    0.83250    1.000
    O99      O        0.25670    0.69570    0.68020    1.000
    O100     O        0.23710    0.61440    0.61270    1.000
    O101     O        0.27780    0.34620    0.82450    1.000
    O102     O        0.24100    0.42640    0.88840    1.000
    O103     O        0.28170    0.35490    0.66670    1.000
    O104     O        0.18840    0.33860    0.72460    1.000
    O105     O        0.30930    0.78040    0.56840    1.000
    O106     O        0.39260    0.75900    0.63500    1.000
    O107     O        0.64530    0.76460    0.57490    1.000
    O108     O        0.65190    0.85890    0.51530    1.000
    O109     O        0.65000    0.74100    0.43090    1.000
    O110     O        0.58470    0.78360    0.36020    1.000
    O111     O        0.32540    0.66890    0.48310    1.000
    O112     O        0.31230    0.75780    0.42070    1.000
    Zn29     Zn       0.14557    0.26280    0.21658    1.000
    Zn30     Zn       0.27163    0.23772    0.37421    1.000
    Zn31     Zn       0.27136    0.23381    0.12111    1.000
    Zn32     Zn       0.24539    0.60766    0.46896    1.000
    C141     C        0.24390    0.41020    0.26930    1.000
    C142     C        0.24330    0.46690    0.30870    1.000
    H29      H        0.24110    0.45700    0.34840    1.000
    C143     C        0.24590    0.53770    0.29070    1.000
    C144     C        0.24910    0.55260    0.23150    1.000
    C145     C        0.24790    0.49620    0.19220    1.000
    H30      H        0.24830    0.50640    0.15260    1.000
    C146     C        0.24620    0.42560    0.20950    1.000
    C147     C        0.24430    0.33810    0.29790    1.000
    C148     C        0.24240    0.59300    0.33860    1.000
    C149     C        0.26040    0.62700    0.20670    1.000
    C150     C        0.25050    0.36940    0.16280    1.000
    C151     C        0.07200    0.22850    0.03860    1.000
    C152     C        0.00390    0.21350    0.05390    1.000
    H31      H        0.99360    0.20420    0.09280    1.000
    C153     C        0.95020    0.21160    0.01360    1.000
    C154     C        0.96440    0.22530    0.95520    1.000
    C155     C        0.03210    0.23910    0.93910    1.000
    H32      H        0.04210    0.24560    0.89980    1.000
    C156     C        0.08630    0.24380    0.97890    1.000
    C157     C        0.12870    0.23000    0.08370    1.000
    C158     C        0.87810    0.19530    0.03560    1.000
    C159     C        0.90570    0.23310    0.91050    1.000
    C160     C        0.15630    0.27360    0.95970    1.000
    O113     O        0.19470    0.29430    0.29220    1.000
    O114     O        0.29380    0.32680    0.33250    1.000
    O115     O        0.24330    0.30430    0.18020    1.000
    O116     O        0.26290    0.38560    0.11270    1.000
    O117     O        0.22220    0.65380    0.32450    1.000
    O118     O        0.25900    0.57360    0.38840    1.000
    O119     O        0.21830    0.64510    0.16670    1.000
    O120     O        0.31160    0.66140    0.22460    1.000
    O121     O        0.19070    0.21960    0.06840    1.000
    O122     O        0.10740    0.24100    0.13500    1.000
    O123     O        0.85470    0.23540    0.07490    1.000
    O124     O        0.84810    0.14110    0.01530    1.000
    O125     O        0.85000    0.25900    0.93090    1.000
    O126     O        0.91530    0.21640    0.86020    1.000
    O127     O        0.17460    0.33110    0.98310    1.000
    O128     O        0.18770    0.24220    0.92070    1.000
