data_functionalizedCrystal
_audit_creation_method	'EQeq! by Chris Wilmer'
_symmetry_space_group_name_H-M	'P1'
_symmetry_Int_Tables_number	1
_symmetry_cell_setting	triclinic
loop_
_symmetry_equiv_pos_as_xyz
  x,y,z
_cell_length_a	11.102
_cell_length_b	15.9004
_cell_length_c	15.9004
_cell_angle_alpha	65.2444
_cell_angle_beta	76.5416
_cell_angle_gamma	103.458
loop_
_atom_site_label
_atom_site_type_symbol
_atom_site_fract_x
_atom_site_fract_y
_atom_site_fract_z
_atom_site_charge
Mof_Cd	Cd	0.22804	0.75697	0.63171	0.459
Mof_Cd	Cd	0.77196	0.24303	0.36829	0.459
Mof_H 	H 	0.7165	0.0362	0.2289	0.021
Mof_H 	H 	0.2964	0.0976	0.5204	0.123
Mof_H 	H 	0.3853	0.8328	0.2709	0.008
Mof_H 	H 	0.1531	0.145	0.6062	0.019
Mof_H 	H 	0.0698	0.9557	0.3067	0.084
Mof_H 	H 	0.8469	0.855	0.3938	0.019
Mof_H 	H 	0.6141	0.9144	0.1983	0.08
Mof_H 	H 	0.3859	0.0856	0.8017	0.08
Mof_H 	H 	0.6147	0.1672	0.7291	0.008
Mof_H 	H 	0.151	0.1051	0.3025	0.025
Mof_H 	H 	0.2835	0.9638	0.7711	0.021
Mof_H 	H 	0.849	0.8949	0.6975	0.025
Mof_H 	H 	0.7415	0.1299	0.6225	0.11
Mof_H 	H 	0.2585	0.8701	0.3775	0.11
Mof_H 	H 	0.7036	0.9024	0.4796	0.123
Mof_H 	H 	0.9302	0.0443	0.6933	0.084
Mof_C 	C 	0.43686	0.06947	0.75989	-0.147
Mof_C 	C 	0.55014	0.02962	0.32	-0.144
Mof_C 	C 	0.56314	0.93053	0.24011	-0.147
Mof_C 	C 	0.79362	0.94323	0.44417	-0.172
Mof_C 	C 	0.35046	0.90403	0.34735	-0.183
Mof_C 	C 	0.20638	0.05677	0.55583	-0.172
Mof_C 	C 	0.64954	0.09597	0.65265	-0.183
Mof_C 	C 	0.01245	0.97543	0.34038	-0.133
Mof_C 	C 	0.62426	0.00375	0.25837	0.068
Mof_C 	C 	0.42654	0.8814	0.28398	0.082
Mof_C 	C 	0.98755	0.02457	0.65962	-0.133
Mof_C 	C 	0.9391	0.93498	0.66216	0.07
Mof_C 	C 	0.03496	0.19417	0.38188	0.336
Mof_C 	C 	0.84287	0.03263	0.44252	0.169
Mof_C 	C 	0.4117	0.97753	0.36589	0.161
Mof_C 	C 	0.0609	0.06502	0.33784	0.07
Mof_C 	C 	0.5883	0.02247	0.63411	0.161
Mof_C 	C 	0.3774	0.88974	0.66401	0.324
Mof_C 	C 	0.6226	0.11026	0.33599	0.324
Mof_C 	C 	0.12067	0.08499	0.60718	0.083
Mof_C 	C 	0.96504	0.80583	0.61812	0.336
Mof_C 	C 	0.37574	0.99625	0.74163	0.068
Mof_C 	C 	0.15713	0.96737	0.55748	0.169
Mof_C 	C 	0.57346	0.1186	0.71602	0.082
Mof_C 	C 	0.02311	0.90394	0.61258	-0.147
Mof_C 	C 	0.44986	0.97038	0.68	-0.144
Mof_C 	C 	0.87933	0.91501	0.39282	0.083
Mof_C 	C 	0.97689	0.09606	0.38742	-0.147
Mof_N 	N 	0.32906	0.00763	0.42215	-0.085
Mof_N 	N 	0.24528	0.93702	0.50448	-0.1
Mof_N 	N 	0.67094	0.99237	0.57785	-0.085
Mof_N 	N 	0.75472	0.06298	0.49552	-0.1
Mof_O 	O 	0.15549	0.22816	0.36739	-0.27
Mof_O 	O 	0.43987	0.86936	0.60286	-0.261
Mof_O 	O 	0.84451	0.77184	0.63261	-0.27
Mof_O 	O 	0.03655	0.75684	0.6081	-0.3
Mof_O 	O 	0.25344	0.84514	0.71289	-0.279
Mof_O 	O 	0.96345	0.24316	0.3919	-0.3
Mof_O 	O 	0.74656	0.15486	0.28711	-0.279
Mof_O 	O 	0.56013	0.13064	0.39714	-0.261
Mof_Cd	Cd	0.47107	0.61132	0.75697	0.459
Mof_Cd	Cd	0.52893	0.38868	0.24303	0.459
Mof_H 	H 	0.5525	0.8963	0.8328	0.008
Mof_H 	H 	0.9541	0.4076	0.8949	0.02
Mof_H 	H 	0.3197	0.2651	0.9638	0.02
Mof_H 	H 	0.1141	0.7376	0.9557	0.087
Mof_H 	H 	0.3884	0.7524	0.8701	0.11
Mof_H 	H 	0.9919	0.7512	0.855	0.016
Mof_H 	H 	0.8012	0.618	0.9024	0.124
Mof_H 	H 	0.6997	0.8873	0.9144	0.08
Mof_H 	H 	0.0081	0.2488	0.145	0.016
Mof_H 	H 	0.6803	0.7349	0.0362	0.02
Mof_H 	H 	0.0459	0.5924	0.1051	0.02
Mof_H 	H 	0.8859	0.2624	0.0443	0.087
Mof_H 	H 	0.4475	0.1037	0.1672	0.008
Mof_H 	H 	0.3003	0.1127	0.0856	0.08
Mof_H 	H 	0.1988	0.382	0.0976	0.124
Mof_H 	H 	0.6116	0.2476	0.1299	0.11
Mof_C 	C 	0.54514	0.83462	0.8814	0.082
Mof_C 	C 	0.99588	0.59714	0.06502	0.082
Mof_C 	C 	0.81024	0.52485	0.03263	0.173
Mof_C 	C 	0.43417	0.65658	0.97753	0.161
Mof_C 	C 	0.11917	0.48348	0.90394	-0.156
Mof_C 	C 	0.00412	0.40286	0.93498	0.082
Mof_C 	C 	0.47948	0.34962	0.97038	-0.144
Mof_C 	C 	0.88083	0.51652	0.09606	-0.156
Mof_C 	C 	0.03568	0.30783	0.08499	0.089
Mof_C 	C 	0.15921	0.57605	0.80583	0.342
Mof_C 	C 	0.45486	0.16538	0.1186	0.082
Mof_C 	C 	0.44643	0.74862	0.90403	-0.183
Mof_C 	C 	0.14961	0.3874	0.05677	-0.176
Mof_C 	C 	0.18976	0.47515	0.96737	0.173
Mof_C 	C 	0.36739	0.17064	0.06947	-0.146
Mof_C 	C 	0.51234	0.55375	0.11026	0.324
Mof_C 	C 	0.96432	0.69217	0.91501	0.089
Mof_C 	C 	0.63261	0.82936	0.93053	-0.146
Mof_C 	C 	0.56583	0.34342	0.02247	0.161
Mof_C 	C 	0.85039	0.6126	0.94323	-0.176
Mof_C 	C 	0.62051	0.73788	0.00375	0.069
Mof_C 	C 	0.03702	0.68419	0.97543	-0.141
Mof_C 	C 	0.52052	0.65038	0.02962	-0.144
Mof_C 	C 	0.84079	0.42395	0.19417	0.342
Mof_C 	C 	0.48766	0.44625	0.88974	0.324
Mof_C 	C 	0.55357	0.25138	0.09597	-0.183
Mof_C 	C 	0.96298	0.31581	0.02457	-0.141
Mof_C 	C 	0.37949	0.26212	0.99625	0.069
Mof_N 	N 	0.69174	0.4415	0.06298	-0.101
Mof_N 	N 	0.67857	0.42978	0.99237	-0.085
Mof_N 	N 	0.30826	0.5585	0.93702	-0.101
Mof_N 	N 	0.32143	0.57022	0.00763	-0.085
Mof_O 	O 	0.5917	0.55803	0.15486	-0.28
Mof_O 	O 	0.72029	0.36494	0.24316	-0.302
Mof_O 	O 	0.07267	0.59555	0.77184	-0.271
Mof_O 	O 	0.27971	0.63506	0.75684	-0.302
Mof_O 	O 	0.42949	0.47222	0.13064	-0.261
Mof_O 	O 	0.92733	0.40445	0.22816	-0.271
Mof_O 	O 	0.57051	0.52778	0.86936	-0.261
Mof_O 	O 	0.4083	0.44197	0.84514	-0.28
Mof_Cd	Cd	0.85975	0.63171	0.61132	0.459
Mof_Cd	Cd	0.14025	0.36829	0.38868	0.459
Mof_H 	H 	0.8124	0.1983	0.8873	0.08
Mof_H 	H 	0.9454	0.2289	0.7349	0.021
Mof_H 	H 	0.636	0.3775	0.7524	0.11
Mof_H 	H 	0.1832	0.4796	0.618	0.125
Mof_H 	H 	0.3438	0.7291	0.1037	0.008
Mof_H 	H 	0.7593	0.6062	0.2488	0.015
Mof_H 	H 	0.3765	0.3067	0.7376	0.088
Mof_H 	H 	0.6562	0.2709	0.8963	0.008
Mof_H 	H 	0.1876	0.8017	0.1127	0.08
Mof_H 	H 	0.0546	0.7711	0.2651	0.021
Mof_H 	H 	0.4535	0.3025	0.5924	0.02
Mof_H 	H 	0.364	0.6225	0.2476	0.11
Mof_H 	H 	0.2407	0.3938	0.7512	0.015
Mof_H 	H 	0.5465	0.6975	0.4076	0.02
Mof_H 	H 	0.8168	0.5204	0.382	0.125
Mof_H 	H 	0.6235	0.6933	0.2624	0.088
Mof_C 	C 	0.39874	0.33784	0.59714	0.083
Mof_C 	C 	0.71052	0.28398	0.83462	0.081
Mof_C 	C 	0.71461	0.55748	0.47515	0.173
Mof_C 	C 	0.28948	0.71602	0.16538	0.081
Mof_C 	C 	0.35283	0.34038	0.68419	-0.146
Mof_C 	C 	0.63569	0.61258	0.48348	-0.157
Mof_C 	C 	0.22241	0.63411	0.34342	0.16
Mof_C 	C 	0.77759	0.36589	0.65658	0.16
Mof_C 	C 	0.76221	0.55583	0.3874	-0.177
Mof_C 	C 	0.11737	0.74163	0.26212	0.067
Mof_C 	C 	0.60126	0.66216	0.40286	0.083
Mof_C 	C 	0.72785	0.60718	0.30783	0.093
Mof_C 	C 	0.95859	0.33599	0.55375	0.325
Mof_C 	C 	0.12986	0.68	0.34962	-0.143
Mof_C 	C 	0.36431	0.38742	0.51652	-0.157
Mof_C 	C 	0.64717	0.65962	0.31581	-0.146
Mof_C 	C 	0.23779	0.44417	0.6126	-0.177
Mof_C 	C 	0.58316	0.61812	0.57605	0.342
Mof_C 	C 	0.28539	0.44252	0.52485	0.173
Mof_C 	C 	0.69781	0.34735	0.74862	-0.182
Mof_C 	C 	0.19675	0.75989	0.17064	-0.145
Mof_C 	C 	0.80325	0.24011	0.82936	-0.145
Mof_C 	C 	0.04141	0.66401	0.44625	0.325
Mof_C 	C 	0.88263	0.25837	0.73788	0.067
Mof_C 	C 	0.41684	0.38188	0.42395	0.342
Mof_C 	C 	0.27215	0.39282	0.69217	0.093
Mof_C 	C 	0.30219	0.65265	0.25138	-0.182
Mof_C 	C 	0.87014	0.32	0.65038	-0.143
Mof_N 	N 	0.74976	0.50448	0.5585	-0.101
Mof_N 	N 	0.24879	0.57785	0.42978	-0.085
Mof_N 	N 	0.25024	0.49552	0.4415	-0.101
Mof_N 	N 	0.75121	0.42215	0.57022	-0.085
Mof_O 	O 	0.03367	0.28711	0.55803	-0.28
Mof_O 	O 	0.47712	0.63261	0.59555	-0.272
Mof_O 	O 	0.95727	0.39714	0.47222	-0.261
Mof_O 	O 	0.04273	0.60286	0.52778	-0.261
Mof_O 	O 	0.35535	0.3919	0.36494	-0.302
Mof_O 	O 	0.64465	0.6081	0.63506	-0.302
Mof_O 	O 	0.52288	0.36739	0.40445	-0.272
Mof_O 	O 	0.96633	0.71289	0.44197	-0.28
_end
