# CIF file generated by openbabel 3.1.0, see https://openbabel.org
data_I
_chemical_name_common 'MIFKUJ_clean'
_cell_length_a 12.0239
_cell_length_b 13.482
_cell_length_c 14.0414
_cell_angle_alpha 70.491
_cell_angle_beta 77.141
_cell_angle_gamma 89.312
_space_group_name_H-M_alt 'P 1'
_space_group_name_Hall 'P 1'
loop_
    _symmetry_equiv_pos_as_xyz
    x,y,z
loop_
    _atom_site_label
    _atom_site_type_symbol
    _atom_site_fract_x
    _atom_site_fract_y
    _atom_site_fract_z
    _atom_site_occupancy
    Zn1      Zn       0.07234    0.35811    0.98387    1.000
    Zn2      Zn       0.92766    0.64189    0.01613    1.000
    H1       H        0.06670    0.30870    0.69110    1.000
    H2       H        0.05290    0.23800    0.56360    1.000
    H3       H        0.96660    0.95110    0.78490    1.000
    H4       H        0.97740    0.02360    0.91120    1.000
    H5       H        0.09460    0.91870    0.63080    1.000
    H6       H        0.77510    0.10320    0.64810    1.000
    H7       H        0.65580    0.23500    0.65900    1.000
    H8       H        0.80970    0.41240    0.35380    1.000
    H9       H        0.93370    0.26920    0.35230    1.000
    H10      H        0.74780    0.07670    0.27230    1.000
    H11      H        0.86200    0.21370    0.13570    1.000
    H12      H        0.64780    0.42230    0.21720    1.000
    H13      H        0.52940    0.28450    0.34230    1.000
    H14      H        0.69510    0.03220    0.47320    1.000
    H15      H        0.49100    0.10020    0.21970    1.000
    H16      H        0.38220    0.17960    0.10090    1.000
    H17      H        0.14160    0.22720    0.31790    1.000
    H18      H        0.24310    0.14780    0.44450    1.000
    H19      H        0.93330    0.69130    0.30890    1.000
    H20      H        0.94710    0.76200    0.43640    1.000
    H21      H        0.03340    0.04890    0.21510    1.000
    H22      H        0.02260    0.97640    0.08880    1.000
    H23      H        0.90540    0.08130    0.36920    1.000
    H24      H        0.22490    0.89680    0.35190    1.000
    H25      H        0.34420    0.76500    0.34100    1.000
    H26      H        0.19030    0.58760    0.64620    1.000
    H27      H        0.06630    0.73080    0.64770    1.000
    H28      H        0.25220    0.92330    0.72770    1.000
    H29      H        0.13800    0.78630    0.86430    1.000
    H30      H        0.35220    0.57770    0.78280    1.000
    H31      H        0.47060    0.71550    0.65770    1.000
    H32      H        0.30490    0.96780    0.52680    1.000
    H33      H        0.50900    0.89980    0.78030    1.000
    H34      H        0.61780    0.82040    0.89910    1.000
    H35      H        0.85840    0.77280    0.68210    1.000
    H36      H        0.75690    0.85220    0.55550    1.000
    C1       C        0.02370    0.17350    0.81260    1.000
    C2       C        0.04550    0.23570    0.71040    1.000
    C3       C        0.03700    0.19360    0.63440    1.000
    C4       C        0.00600    0.08920    0.65990    1.000
    C5       C        0.98560    0.02450    0.76550    1.000
    C6       C        0.99320    0.06720    0.84020    1.000
    C7       C        0.02960    0.21960    0.89530    1.000
    C8       C        0.99840    0.04060    0.57970    1.000
    C9       C        0.05600    0.95250    0.57760    1.000
    C10      C        0.94180    0.08710    0.50130    1.000
    C11      C        0.86730    0.17950    0.50070    1.000
    C12      C        0.78200    0.16650    0.59040    1.000
    C13      C        0.71010    0.24150    0.59630    1.000
    C14      C        0.71680    0.32290    0.51420    1.000
    C15      C        0.80460    0.34900    0.41110    1.000
    C16      C        0.87730    0.26540    0.41300    1.000
    C17      C        0.62940    0.16740    0.32100    1.000
    C18      C        0.72710    0.14730    0.25970    1.000
    C19      C        0.79640    0.22880    0.17930    1.000
    C20      C        0.76800    0.33240    0.16410    1.000
    C21      C        0.66780    0.35180    0.22710    1.000
    C22      C        0.59870    0.27040    0.30250    1.000
    C23      C        0.84360    0.42210    0.08470    1.000
    C24      C        0.56090    0.07990    0.40930    1.000
    C25      C        0.61490    0.01960    0.48420    1.000
    C26      C        0.44300    0.05980    0.42390    1.000
    C27      C        0.37750    0.11470    0.34520    1.000
    C28      C        0.41910    0.12520    0.24200    1.000
    C29      C        0.35280    0.17330    0.17150    1.000
    C30      C        0.25490    0.20990    0.19470    1.000
    C31      C        0.21340    0.20050    0.29830    1.000
    C32      C        0.27320    0.15330    0.37430    1.000
    C33      C        0.19620    0.25720    0.09350    1.000
    C34      C        0.97630    0.82650    0.18740    1.000
    C35      C        0.95450    0.76430    0.28960    1.000
    C36      C        0.96300    0.80640    0.36560    1.000
    C37      C        0.99400    0.91080    0.34010    1.000
    C38      C        0.01440    0.97550    0.23450    1.000
    C39      C        0.00680    0.93280    0.15980    1.000
    C40      C        0.97040    0.78040    0.10470    1.000
    C41      C        0.00160    0.95940    0.42030    1.000
    C42      C        0.94400    0.04750    0.42240    1.000
    C43      C        0.05820    0.91290    0.49870    1.000
    C44      C        0.13270    0.82050    0.49930    1.000
    C45      C        0.21800    0.83350    0.40960    1.000
    C46      C        0.28990    0.75850    0.40370    1.000
    C47      C        0.28320    0.67710    0.48580    1.000
    C48      C        0.19540    0.65100    0.58890    1.000
    C49      C        0.12270    0.73460    0.58700    1.000
    C50      C        0.37060    0.83260    0.67900    1.000
    C51      C        0.27290    0.85270    0.74030    1.000
    C52      C        0.20360    0.77120    0.82070    1.000
    C53      C        0.23200    0.66760    0.83590    1.000
    C54      C        0.33220    0.64820    0.77290    1.000
    C55      C        0.40130    0.72960    0.69750    1.000
    C56      C        0.15640    0.57790    0.91530    1.000
    C57      C        0.43910    0.92010    0.59070    1.000
    C58      C        0.38510    0.98040    0.51580    1.000
    C59      C        0.55700    0.94020    0.57610    1.000
    C60      C        0.62250    0.88530    0.65480    1.000
    C61      C        0.58090    0.87480    0.75800    1.000
    C62      C        0.64720    0.82670    0.82850    1.000
    C63      C        0.74510    0.79010    0.80530    1.000
    C64      C        0.78660    0.79950    0.70170    1.000
    C65      C        0.72680    0.84670    0.62570    1.000
    C66      C        0.80380    0.74280    0.90650    1.000
    O1       O        0.99190    0.16870    0.98760    1.000
    O2       O        0.07210    0.31370    0.86380    1.000
    O3       O        0.91720    0.40526    0.01349    1.000
    O4       O        0.82740    0.51216    0.09130    1.000
    O5       O        0.24970    0.25750    0.00790    1.000
    O6       O        0.11860    0.28810    0.11970    1.000
    O7       O        0.00810    0.83130    0.01240    1.000
    O8       O        0.92790    0.68630    0.13620    1.000
    O9       O        0.08280    0.59474    0.98651    1.000
    O10      O        0.17260    0.48784    0.90870    1.000
    O11      O        0.75030    0.74250    0.99210    1.000
    O12      O        0.88140    0.71190    0.88030    1.000
