# CIF file generated by openbabel 3.1.0, see https://openbabel.org
data_I
_chemical_name_common 'image0'
_cell_length_a 8.5911
_cell_length_b 8.5872
_cell_length_c 52.7295
_cell_angle_alpha 90
_cell_angle_beta 90
_cell_angle_gamma 90
_space_group_name_H-M_alt 'P 1'
_space_group_name_Hall 'P 1'
loop_
    _symmetry_equiv_pos_as_xyz
    x,y,z
loop_
    _atom_site_label
    _atom_site_type_symbol
    _atom_site_fract_x
    _atom_site_fract_y
    _atom_site_fract_z
    _atom_site_occupancy
    Cu1      Cu       0.40519    0.89784    0.73482    1.000
    O1       O        0.17560    0.88210    0.73205    1.000
    O2       O        0.20140    0.64990    0.71399    1.000
    C1       C        0.12010    0.75700    0.72241    1.000
    C2       C        0.94100    0.74810    0.72180    1.000
    H1       H        0.90020    0.82530    0.70960    1.000
    H2       H        0.90840    0.64320    0.71610    1.000
    C3       C        0.87330    0.78070    0.74818    1.000
    H3       H        0.89930    0.89060    0.75280    1.000
    O3       O        0.93920    0.68210    0.76670    1.000
    H4       H        0.90020    0.70240    0.78090    1.000
    C4       C        0.69530    0.76680    0.74677    1.000
    O4       O        0.63190    0.88170    0.73521    1.000
    O5       O        0.62920    0.65450    0.75608    1.000
    Cu2      Cu       0.18384    0.15471    0.48759    1.000
    O6       O        0.20100    0.92620    0.48469    1.000
    O7       O        0.43180    0.95260    0.46595    1.000
    C5       C        0.32450    0.87180    0.47429    1.000
    C6       C        0.33520    0.69400    0.47373    1.000
    H5       H        0.26040    0.65290    0.46110    1.000
    H6       H        0.44120    0.66300    0.46830    1.000
    C7       C        0.30080    0.62340    0.49929    1.000
    H7       H        0.19170    0.65150    0.50400    1.000
    O8       O        0.40230    0.68490    0.51832    1.000
    H8       H        0.45030    0.61160    0.52540    1.000
    C8       C        0.31070    0.44790    0.49762    1.000
    O9       O        0.18610    0.38130    0.48886    1.000
    O10      O        0.43040    0.37700    0.50361    1.000
    N1       N        0.41710    0.93670    0.69721    1.000
    C9       C        0.50300    0.84920    0.68151    1.000
    H9       H        0.57190    0.77430    0.68850    1.000
    C10      C        0.49480    0.86390    0.65554    1.000
    H10      H        0.55430    0.79600    0.64510    1.000
    C11      C        0.40200    0.97530    0.64432    1.000
    C12      C        0.31900    0.07220    0.66085    1.000
    H11      H        0.25580    0.15390    0.65440    1.000
    C13      C        0.33010    0.04730    0.68696    1.000
    H12      H        0.27220    0.11310    0.69790    1.000
    C14      C        0.38960    0.98570    0.61673    1.000
    H13      H        0.44970    0.91610    0.60670    1.000
    C15      C        0.29630    0.09020    0.60465    1.000
    H14      H        0.23770    0.16010    0.61480    1.000
    C16      C        0.27970    0.10260    0.57686    1.000
    C17      C        0.37080    0.02520    0.55939    1.000
    H15      H        0.45250    0.95890    0.56500    1.000
    C18      C        0.34360    0.04400    0.53410    1.000
    H16      H        0.40750    0.98920    0.52240    1.000
    C19      C        0.14600    0.21550    0.54151    1.000
    H17      H        0.06750    0.28310    0.53520    1.000
    C20      C        0.16640    0.20460    0.56747    1.000
    H18      H        0.10460    0.26510    0.57870    1.000
    N2       N        0.23120    0.13590    0.52499    1.000
    N3       N        0.39170    0.86260    0.77227    1.000
    C21      C        0.48320    0.94300    0.78807    1.000
    H19      H        0.55760    0.01290    0.78110    1.000
    C22      C        0.47330    0.92790    0.81419    1.000
    H20      H        0.53970    0.98720    0.82490    1.000
    C23      C        0.36410    0.82400    0.82484    1.000
    C24      C        0.27860    0.73760    0.80841    1.000
    H21      H        0.20770    0.66280    0.81490    1.000
    C25      C        0.29160    0.75540    0.78229    1.000
    H22      H        0.23040    0.69260    0.77130    1.000
    C26      C        0.34420    0.79620    0.85186    1.000
    H23      H        0.26750    0.72260    0.85680    1.000
    C27      C        0.42310    0.86410    0.86969    1.000
    H24      H        0.50500    0.93190    0.86470    1.000
    C28      C        0.39470    0.84350    0.89730    1.000
    C29      C        0.28190    0.74800    0.90817    1.000
    H25      H        0.21610    0.68670    0.89770    1.000
    C30      C        0.26570    0.74230    0.93461    1.000
    H26      H        0.19100    0.67440    0.94200    1.000
    C31      C        0.46440    0.92180    0.93913    1.000
    H27      H        0.52870    0.98340    0.94980    1.000
    C32      C        0.48830    0.92870    0.91304    1.000
    H28      H        0.56880    0.99200    0.90620    1.000
    N4       N        0.35560    0.83290    0.94986    1.000
    Cu3      Cu       0.09481    0.10216    0.23482    1.000
    O11      O        0.32440    0.11790    0.23205    1.000
    O12      O        0.29860    0.35010    0.21399    1.000
    C33      C        0.37990    0.24300    0.22241    1.000
    C34      C        0.55900    0.25190    0.22180    1.000
    H29      H        0.59980    0.17470    0.20960    1.000
    H30      H        0.59160    0.35680    0.21610    1.000
    C35      C        0.62670    0.21930    0.24818    1.000
    H31      H        0.60070    0.10940    0.25280    1.000
    O13      O        0.56080    0.31790    0.26670    1.000
    H32      H        0.59980    0.29760    0.28090    1.000
    C36      C        0.80470    0.23320    0.24677    1.000
    O14      O        0.86810    0.11830    0.23521    1.000
    O15      O        0.87080    0.34550    0.25608    1.000
    Cu4      Cu       0.31616    0.84529    0.98759    1.000
    O16      O        0.29900    0.07380    0.98469    1.000
    O17      O        0.06820    0.04740    0.96595    1.000
    C37      C        0.17550    0.12820    0.97429    1.000
    C38      C        0.16480    0.30600    0.97373    1.000
    H33      H        0.23960    0.34710    0.96110    1.000
    H34      H        0.05880    0.33700    0.96830    1.000
    C39      C        0.19920    0.37660    0.99929    1.000
    H35      H        0.30830    0.34850    0.00400    1.000
    O18      O        0.09770    0.31510    0.01832    1.000
    H36      H        0.04970    0.38840    0.02540    1.000
    C40      C        0.18930    0.55210    0.99762    1.000
    O19      O        0.31390    0.61870    0.98886    1.000
    O20      O        0.06960    0.62300    0.00361    1.000
    N5       N        0.08290    0.06330    0.19721    1.000
    C41      C        0.99700    0.15080    0.18151    1.000
    H37      H        0.92810    0.22570    0.18850    1.000
    C42      C        0.00520    0.13610    0.15554    1.000
    H38      H        0.94570    0.20400    0.14510    1.000
    C43      C        0.09800    0.02470    0.14432    1.000
    C44      C        0.18100    0.92780    0.16085    1.000
    H39      H        0.24420    0.84610    0.15440    1.000
    C45      C        0.16990    0.95270    0.18696    1.000
    H40      H        0.22780    0.88690    0.19790    1.000
    C46      C        0.11040    0.01430    0.11673    1.000
    H41      H        0.05030    0.08390    0.10670    1.000
    C47      C        0.20370    0.90980    0.10465    1.000
    H42      H        0.26230    0.83990    0.11480    1.000
    C48      C        0.22030    0.89740    0.07686    1.000
    C49      C        0.12920    0.97480    0.05939    1.000
    H43      H        0.04750    0.04110    0.06500    1.000
    C50      C        0.15640    0.95600    0.03410    1.000
    H44      H        0.09250    0.01080    0.02240    1.000
    C51      C        0.35400    0.78450    0.04151    1.000
    H45      H        0.43250    0.71690    0.03520    1.000
    C52      C        0.33360    0.79540    0.06747    1.000
    H46      H        0.39540    0.73490    0.07870    1.000
    N6       N        0.26880    0.86410    0.02499    1.000
    N7       N        0.10830    0.13740    0.27227    1.000
    C53      C        0.01680    0.05700    0.28807    1.000
    H47      H        0.94240    0.98710    0.28110    1.000
    C54      C        0.02670    0.07210    0.31419    1.000
    H48      H        0.96030    0.01280    0.32490    1.000
    C55      C        0.13590    0.17600    0.32484    1.000
    C56      C        0.22140    0.26240    0.30841    1.000
    H49      H        0.29230    0.33720    0.31490    1.000
    C57      C        0.20840    0.24460    0.28229    1.000
    H50      H        0.26960    0.30740    0.27130    1.000
    C58      C        0.15580    0.20380    0.35186    1.000
    H51      H        0.23250    0.27740    0.35680    1.000
    C59      C        0.07690    0.13590    0.36969    1.000
    H52      H        0.99500    0.06810    0.36470    1.000
    C60      C        0.10530    0.15650    0.39730    1.000
    C61      C        0.21810    0.25200    0.40817    1.000
    H53      H        0.28390    0.31330    0.39770    1.000
    C62      C        0.23430    0.25770    0.43461    1.000
    H54      H        0.30900    0.32560    0.44200    1.000
    C63      C        0.03560    0.07820    0.43913    1.000
    H55      H        0.97130    0.01660    0.44980    1.000
    C64      C        0.01170    0.07130    0.41304    1.000
    H56      H        0.93120    0.00800    0.40620    1.000
    N8       N        0.14440    0.16710    0.44986    1.000
    Cu5      Cu       0.59481    0.39784    0.76518    1.000
    O21      O        0.82440    0.38210    0.76795    1.000
    O22      O        0.79860    0.14990    0.78601    1.000
    C65      C        0.87990    0.25700    0.77759    1.000
    C66      C        0.05900    0.24810    0.77820    1.000
    H57      H        0.09980    0.32530    0.79040    1.000
    H58      H        0.09160    0.14320    0.78390    1.000
    C67      C        0.12670    0.28070    0.75182    1.000
    H59      H        0.10070    0.39060    0.74720    1.000
    O23      O        0.06080    0.18210    0.73330    1.000
    H60      H        0.09980    0.20240    0.71910    1.000
    C68      C        0.30470    0.26680    0.75323    1.000
    O24      O        0.36810    0.38170    0.76479    1.000
    O25      O        0.37080    0.15450    0.74392    1.000
    Cu6      Cu       0.81616    0.65471    0.01241    1.000
    O26      O        0.79900    0.42620    0.01531    1.000
    O27      O        0.56820    0.45260    0.03405    1.000
    C69      C        0.67550    0.37180    0.02571    1.000
    C70      C        0.66480    0.19400    0.02627    1.000
    H61      H        0.73960    0.15290    0.03890    1.000
    H62      H        0.55880    0.16300    0.03170    1.000
    C71      C        0.69920    0.12340    0.00071    1.000
    H63      H        0.80830    0.15150    0.99600    1.000
    O28      O        0.59770    0.18490    0.98168    1.000
    H64      H        0.54970    0.11160    0.97460    1.000
    C72      C        0.68930    0.94790    0.00238    1.000
    O29      O        0.81390    0.88130    0.01114    1.000
    O30      O        0.56960    0.87700    0.99639    1.000
    N9       N        0.58290    0.43670    0.80279    1.000
    C73      C        0.49700    0.34920    0.81849    1.000
    H65      H        0.42810    0.27430    0.81150    1.000
    C74      C        0.50520    0.36390    0.84446    1.000
    H66      H        0.44570    0.29600    0.85490    1.000
    C75      C        0.59800    0.47530    0.85568    1.000
    C76      C        0.68100    0.57220    0.83915    1.000
    H67      H        0.74420    0.65390    0.84560    1.000
    C77      C        0.66990    0.54730    0.81304    1.000
    H68      H        0.72780    0.61310    0.80210    1.000
    C78      C        0.61040    0.48570    0.88327    1.000
    H69      H        0.55030    0.41610    0.89330    1.000
    C79      C        0.70370    0.59020    0.89535    1.000
    H70      H        0.76230    0.66010    0.88520    1.000
    C80      C        0.72030    0.60260    0.92314    1.000
    C81      C        0.62920    0.52520    0.94061    1.000
    H71      H        0.54750    0.45890    0.93500    1.000
    C82      C        0.65640    0.54400    0.96590    1.000
    H72      H        0.59250    0.48920    0.97760    1.000
    C83      C        0.85400    0.71550    0.95849    1.000
    H73      H        0.93250    0.78310    0.96480    1.000
    C84      C        0.83360    0.70460    0.93253    1.000
    H74      H        0.89540    0.76510    0.92130    1.000
    N10      N        0.76880    0.63590    0.97501    1.000
    N11      N        0.60830    0.36260    0.72773    1.000
    C85      C        0.51680    0.44300    0.71193    1.000
    H75      H        0.44240    0.51290    0.71890    1.000
    C86      C        0.52670    0.42790    0.68581    1.000
    H76      H        0.46030    0.48720    0.67510    1.000
    C87      C        0.63590    0.32400    0.67516    1.000
    C88      C        0.72140    0.23760    0.69159    1.000
    H77      H        0.79230    0.16280    0.68510    1.000
    C89      C        0.70840    0.25540    0.71771    1.000
    H78      H        0.76960    0.19260    0.72870    1.000
    C90      C        0.65580    0.29620    0.64814    1.000
    H79      H        0.73250    0.22260    0.64320    1.000
    C91      C        0.57690    0.36410    0.63031    1.000
    H80      H        0.49500    0.43190    0.63530    1.000
    C92      C        0.60530    0.34350    0.60270    1.000
    C93      C        0.71810    0.24800    0.59183    1.000
    H81      H        0.78390    0.18670    0.60230    1.000
    C94      C        0.73430    0.24230    0.56539    1.000
    H82      H        0.80900    0.17440    0.55800    1.000
    C95      C        0.53560    0.42180    0.56087    1.000
    H83      H        0.47130    0.48340    0.55020    1.000
    C96      C        0.51170    0.42870    0.58696    1.000
    H84      H        0.43120    0.49200    0.59380    1.000
    N12      N        0.64440    0.33290    0.55014    1.000
    Cu7      Cu       0.90519    0.60216    0.26518    1.000
    O31      O        0.67560    0.61790    0.26795    1.000
    O32      O        0.70140    0.85010    0.28601    1.000
    C97      C        0.62010    0.74300    0.27759    1.000
    C98      C        0.44100    0.75190    0.27820    1.000
    H85      H        0.40020    0.67470    0.29040    1.000
    H86      H        0.40840    0.85680    0.28390    1.000
    C99      C        0.37330    0.71930    0.25182    1.000
    H87      H        0.39930    0.60940    0.24720    1.000
    O33      O        0.43920    0.81790    0.23330    1.000
    H88      H        0.40020    0.79760    0.21910    1.000
    C100     C        0.19530    0.73320    0.25323    1.000
    O34      O        0.13190    0.61830    0.26479    1.000
    O35      O        0.12920    0.84550    0.24392    1.000
    Cu8      Cu       0.68384    0.34529    0.51241    1.000
    O36      O        0.70100    0.57380    0.51531    1.000
    O37      O        0.93180    0.54740    0.53405    1.000
    C101     C        0.82450    0.62820    0.52571    1.000
    C102     C        0.83520    0.80600    0.52627    1.000
    H89      H        0.76040    0.84710    0.53890    1.000
    H90      H        0.94120    0.83700    0.53170    1.000
    C103     C        0.80080    0.87660    0.50071    1.000
    H91      H        0.69170    0.84850    0.49600    1.000
    O38      O        0.90230    0.81510    0.48168    1.000
    H92      H        0.95030    0.88840    0.47460    1.000
    C104     C        0.81070    0.05210    0.50238    1.000
    O39      O        0.68610    0.11870    0.51114    1.000
    O40      O        0.93040    0.12300    0.49639    1.000
    N13      N        0.91710    0.56330    0.30279    1.000
    C105     C        0.00300    0.65080    0.31849    1.000
    H93      H        0.07190    0.72570    0.31150    1.000
    C106     C        0.99480    0.63610    0.34446    1.000
    H94      H        0.05430    0.70400    0.35490    1.000
    C107     C        0.90200    0.52470    0.35568    1.000
    C108     C        0.81900    0.42780    0.33915    1.000
    H95      H        0.75580    0.34610    0.34560    1.000
    C109     C        0.83010    0.45270    0.31304    1.000
    H96      H        0.77220    0.38690    0.30210    1.000
    C110     C        0.88960    0.51430    0.38327    1.000
    H97      H        0.94970    0.58390    0.39330    1.000
    C111     C        0.79630    0.40980    0.39535    1.000
    H98      H        0.73770    0.33990    0.38520    1.000
    C112     C        0.77970    0.39740    0.42314    1.000
    C113     C        0.87080    0.47480    0.44061    1.000
    H99      H        0.95250    0.54110    0.43500    1.000
    C114     C        0.84360    0.45600    0.46590    1.000
    H100     H        0.90750    0.51080    0.47760    1.000
    C115     C        0.64600    0.28450    0.45849    1.000
    H101     H        0.56750    0.21690    0.46480    1.000
    C116     C        0.66640    0.29540    0.43253    1.000
    H102     H        0.60460    0.23490    0.42130    1.000
    N14      N        0.73120    0.36410    0.47501    1.000
    N15      N        0.89170    0.63740    0.22773    1.000
    C117     C        0.98320    0.55700    0.21193    1.000
    H103     H        0.05760    0.48710    0.21890    1.000
    C118     C        0.97330    0.57210    0.18581    1.000
    H104     H        0.03970    0.51280    0.17510    1.000
    C119     C        0.86410    0.67600    0.17516    1.000
    C120     C        0.77860    0.76240    0.19159    1.000
    H105     H        0.70770    0.83720    0.18510    1.000
    C121     C        0.79160    0.74460    0.21771    1.000
    H106     H        0.73040    0.80740    0.22870    1.000
    C122     C        0.84420    0.70380    0.14814    1.000
    H107     H        0.76750    0.77740    0.14320    1.000
    C123     C        0.92310    0.63590    0.13031    1.000
    H108     H        0.00500    0.56810    0.13530    1.000
    C124     C        0.89470    0.65650    0.10270    1.000
    C125     C        0.78190    0.75200    0.09183    1.000
    H109     H        0.71610    0.81330    0.10230    1.000
    C126     C        0.76570    0.75770    0.06539    1.000
    H110     H        0.69100    0.82560    0.05800    1.000
    C127     C        0.96440    0.57820    0.06087    1.000
    H111     H        0.02870    0.51660    0.05020    1.000
    C128     C        0.98830    0.57130    0.08696    1.000
    H112     H        0.06880    0.50800    0.09380    1.000
    N16      N        0.85560    0.66710    0.05014    1.000
