# CIF file generated by openbabel 3.1.0, see https://openbabel.org
data_I
_chemical_name_common 'OGIYOT_charged'
_cell_length_a 18.9307
_cell_length_b 18.9307
_cell_length_c 20.989
_cell_angle_alpha 90
_cell_angle_beta 90
_cell_angle_gamma 90
_space_group_name_H-M_alt 'P 1'
_space_group_name_Hall 'P 1'
loop_
    _symmetry_equiv_pos_as_xyz
    x,y,z
loop_
    _atom_site_label
    _atom_site_type_symbol
    _atom_site_fract_x
    _atom_site_fract_y
    _atom_site_fract_z
    _atom_site_occupancy
    Nd1      Nd       0.50000    0.00000    0.75000    1.000
    Nd2      Nd       0.00000    0.50000    0.25000    1.000
    Nd3      Nd       0.50000    0.00000    0.25000    1.000
    Nd4      Nd       0.00000    0.50000    0.75000    1.000
    H1       H        0.32240    0.21410    0.79980    1.000
    H2       H        0.43440    0.11170    0.93490    1.000
    H3       H        0.60630    0.92120    0.63470    1.000
    H4       H        0.64830    0.81950    0.58760    1.000
    H5       H        0.61110    0.71080    0.62770    1.000
    H6       H        0.53550    0.64290    0.70860    1.000
    H7       H        0.67760    0.78590    0.79980    1.000
    H8       H        0.56560    0.88830    0.93490    1.000
    H9       H        0.39370    0.07880    0.63470    1.000
    H10      H        0.35170    0.18050    0.58760    1.000
    H11      H        0.38890    0.28920    0.62770    1.000
    H12      H        0.46450    0.35710    0.70860    1.000
    H13      H        0.78590    0.32240    0.29980    1.000
    H14      H        0.88830    0.43440    0.43490    1.000
    H15      H        0.07880    0.60630    0.13470    1.000
    H16      H        0.18050    0.64830    0.08760    1.000
    H17      H        0.28920    0.61110    0.12770    1.000
    H18      H        0.35710    0.53550    0.20860    1.000
    H19      H        0.21410    0.67760    0.29980    1.000
    H20      H        0.11170    0.56560    0.43490    1.000
    H21      H        0.92120    0.39370    0.13470    1.000
    H22      H        0.81950    0.35170    0.08760    1.000
    H23      H        0.71080    0.38890    0.12770    1.000
    H24      H        0.64290    0.46450    0.20860    1.000
    H25      H        0.67760    0.21410    0.70020    1.000
    H26      H        0.56560    0.11170    0.56510    1.000
    H27      H        0.39370    0.92120    0.86530    1.000
    H28      H        0.35170    0.81950    0.91240    1.000
    H29      H        0.38890    0.71080    0.87230    1.000
    H30      H        0.46450    0.64290    0.79140    1.000
    H31      H        0.32240    0.78590    0.70020    1.000
    H32      H        0.43440    0.88830    0.56510    1.000
    H33      H        0.60630    0.07880    0.86530    1.000
    H34      H        0.64830    0.18050    0.91240    1.000
    H35      H        0.61110    0.28920    0.87230    1.000
    H36      H        0.53550    0.35710    0.79140    1.000
    H37      H        0.21410    0.32240    0.20020    1.000
    H38      H        0.11170    0.43440    0.06510    1.000
    H39      H        0.92120    0.60630    0.36530    1.000
    H40      H        0.81950    0.64830    0.41240    1.000
    H41      H        0.71080    0.61110    0.37230    1.000
    H42      H        0.64290    0.53550    0.29140    1.000
    H43      H        0.78590    0.67760    0.20020    1.000
    H44      H        0.88830    0.56560    0.06510    1.000
    H45      H        0.07880    0.39370    0.36530    1.000
    H46      H        0.18050    0.35170    0.41240    1.000
    H47      H        0.28920    0.38890    0.37230    1.000
    H48      H        0.35710    0.46450    0.29140    1.000
    H49      H        0.67760    0.78590    0.20020    1.000
    H50      H        0.56560    0.88830    0.06510    1.000
    H51      H        0.39370    0.07880    0.36530    1.000
    H52      H        0.35170    0.18050    0.41240    1.000
    H53      H        0.38890    0.28920    0.37230    1.000
    H54      H        0.46450    0.35710    0.29140    1.000
    H55      H        0.32240    0.21410    0.20020    1.000
    H56      H        0.43440    0.11170    0.06510    1.000
    H57      H        0.60630    0.92120    0.36530    1.000
    H58      H        0.64830    0.81950    0.41240    1.000
    H59      H        0.61110    0.71080    0.37230    1.000
    H60      H        0.53550    0.64290    0.29140    1.000
    H61      H        0.21410    0.67760    0.70020    1.000
    H62      H        0.11170    0.56560    0.56510    1.000
    H63      H        0.92120    0.39370    0.86530    1.000
    H64      H        0.81950    0.35170    0.91240    1.000
    H65      H        0.71080    0.38890    0.87230    1.000
    H66      H        0.64290    0.46450    0.79140    1.000
    H67      H        0.78590    0.32240    0.70020    1.000
    H68      H        0.88830    0.43440    0.56510    1.000
    H69      H        0.07880    0.60630    0.86530    1.000
    H70      H        0.18050    0.64830    0.91240    1.000
    H71      H        0.28920    0.61110    0.87230    1.000
    H72      H        0.35710    0.53550    0.79140    1.000
    H73      H        0.32240    0.78590    0.29980    1.000
    H74      H        0.43440    0.88830    0.43490    1.000
    H75      H        0.60630    0.07880    0.13470    1.000
    H76      H        0.64830    0.18050    0.08760    1.000
    H77      H        0.61110    0.28920    0.12770    1.000
    H78      H        0.53550    0.35710    0.20860    1.000
    H79      H        0.67760    0.21410    0.29980    1.000
    H80      H        0.56560    0.11170    0.43490    1.000
    H81      H        0.39370    0.92120    0.13470    1.000
    H82      H        0.35170    0.81950    0.08760    1.000
    H83      H        0.38890    0.71080    0.12770    1.000
    H84      H        0.46450    0.64290    0.20860    1.000
    H85      H        0.78590    0.67760    0.79980    1.000
    H86      H        0.88830    0.56560    0.93490    1.000
    H87      H        0.07880    0.39370    0.63470    1.000
    H88      H        0.18050    0.35170    0.58760    1.000
    H89      H        0.28920    0.38890    0.62770    1.000
    H90      H        0.35710    0.46450    0.70860    1.000
    H91      H        0.21410    0.32240    0.79980    1.000
    H92      H        0.11170    0.43440    0.93490    1.000
    H93      H        0.92120    0.60630    0.63470    1.000
    H94      H        0.81950    0.64830    0.58760    1.000
    H95      H        0.71080    0.61110    0.62770    1.000
    H96      H        0.64290    0.53550    0.70860    1.000
    H97      H        0.34100    0.34100    0.78390    1.000
    H98      H        0.38550    0.38550    0.83480    1.000
    H99      H        0.65900    0.65900    0.78390    1.000
    H100     H        0.61450    0.61450    0.83480    1.000
    H101     H        0.65900    0.34100    0.28390    1.000
    H102     H        0.61450    0.38550    0.33480    1.000
    H103     H        0.34100    0.65900    0.28390    1.000
    H104     H        0.38550    0.61450    0.33480    1.000
    H105     H        0.65900    0.34100    0.71610    1.000
    H106     H        0.61450    0.38550    0.66520    1.000
    H107     H        0.34100    0.65900    0.71610    1.000
    H108     H        0.38550    0.61450    0.66520    1.000
    H109     H        0.34100    0.34100    0.21610    1.000
    H110     H        0.38550    0.38550    0.16520    1.000
    H111     H        0.65900    0.65900    0.21610    1.000
    H112     H        0.61450    0.61450    0.16520    1.000
    H113     H        0.51730    0.17370    0.00000    1.000
    H114     H        0.51950    0.25840    0.00000    1.000
    H115     H        0.48270    0.82630    0.00000    1.000
    H116     H        0.48050    0.74160    0.00000    1.000
    H117     H        0.82630    0.51730    0.50000    1.000
    H118     H        0.74160    0.51950    0.50000    1.000
    H119     H        0.17370    0.48270    0.50000    1.000
    H120     H        0.25840    0.48050    0.50000    1.000
    H121     H        0.48270    0.17370    0.50000    1.000
    H122     H        0.48050    0.25840    0.50000    1.000
    H123     H        0.51730    0.82630    0.50000    1.000
    H124     H        0.51950    0.74160    0.50000    1.000
    H125     H        0.17370    0.51730    0.00000    1.000
    H126     H        0.25840    0.51950    0.00000    1.000
    H127     H        0.82630    0.48270    0.00000    1.000
    H128     H        0.74160    0.48050    0.00000    1.000
    C1       C        0.37470    0.28120    0.85950    1.000
    C2       C        0.35230    0.21570    0.83610    1.000
    C3       C        0.37270    0.15340    0.86470    1.000
    C4       C        0.41880    0.15470    0.91630    1.000
    C5       C        0.44170    0.21810    0.94040    1.000
    C6       C        0.42000    0.28170    0.91310    1.000
    C7       C        0.59050    0.87730    0.65140    1.000
    C8       C        0.61640    0.81680    0.62250    1.000
    C9       C        0.59460    0.75360    0.64600    1.000
    C10      C        0.54730    0.75230    0.69750    1.000
    C11      C        0.52100    0.68690    0.72610    1.000
    C12      C        0.52410    0.81770    0.72290    1.000
    C13      C        0.62530    0.71880    0.85950    1.000
    C14      C        0.64770    0.78430    0.83610    1.000
    C15      C        0.62730    0.84660    0.86470    1.000
    C16      C        0.58120    0.84530    0.91630    1.000
    C17      C        0.55830    0.78190    0.94040    1.000
    C18      C        0.58000    0.71830    0.91310    1.000
    C19      C        0.40950    0.12270    0.65140    1.000
    C20      C        0.38360    0.18320    0.62250    1.000
    C21      C        0.40540    0.24640    0.64600    1.000
    C22      C        0.45270    0.24770    0.69750    1.000
    C23      C        0.47900    0.31310    0.72610    1.000
    C24      C        0.47590    0.18230    0.72290    1.000
    C25      C        0.71880    0.37470    0.35950    1.000
    C26      C        0.78430    0.35230    0.33610    1.000
    C27      C        0.84660    0.37270    0.36470    1.000
    C28      C        0.84530    0.41880    0.41630    1.000
    C29      C        0.78190    0.44170    0.44040    1.000
    C30      C        0.71830    0.42000    0.41310    1.000
    C31      C        0.12270    0.59050    0.15140    1.000
    C32      C        0.18320    0.61640    0.12250    1.000
    C33      C        0.24640    0.59460    0.14600    1.000
    C34      C        0.24770    0.54730    0.19750    1.000
    C35      C        0.31310    0.52100    0.22610    1.000
    C36      C        0.18230    0.52410    0.22290    1.000
    C37      C        0.28120    0.62530    0.35950    1.000
    C38      C        0.21570    0.64770    0.33610    1.000
    C39      C        0.15340    0.62730    0.36470    1.000
    C40      C        0.15470    0.58120    0.41630    1.000
    C41      C        0.21810    0.55830    0.44040    1.000
    C42      C        0.28170    0.58000    0.41310    1.000
    C43      C        0.87730    0.40950    0.15140    1.000
    C44      C        0.81680    0.38360    0.12250    1.000
    C45      C        0.75360    0.40540    0.14600    1.000
    C46      C        0.75230    0.45270    0.19750    1.000
    C47      C        0.68690    0.47900    0.22610    1.000
    C48      C        0.81770    0.47590    0.22290    1.000
    C49      C        0.62530    0.28120    0.64050    1.000
    C50      C        0.64770    0.21570    0.66390    1.000
    C51      C        0.62730    0.15340    0.63530    1.000
    C52      C        0.58120    0.15470    0.58370    1.000
    C53      C        0.55830    0.21810    0.55960    1.000
    C54      C        0.58000    0.28170    0.58690    1.000
    C55      C        0.40950    0.87730    0.84860    1.000
    C56      C        0.38360    0.81680    0.87750    1.000
    C57      C        0.40540    0.75360    0.85400    1.000
    C58      C        0.45270    0.75230    0.80250    1.000
    C59      C        0.47900    0.68690    0.77390    1.000
    C60      C        0.47590    0.81770    0.77710    1.000
    C61      C        0.37470    0.71880    0.64050    1.000
    C62      C        0.35230    0.78430    0.66390    1.000
    C63      C        0.37270    0.84660    0.63530    1.000
    C64      C        0.41880    0.84530    0.58370    1.000
    C65      C        0.44170    0.78190    0.55960    1.000
    C66      C        0.42000    0.71830    0.58690    1.000
    C67      C        0.59050    0.12270    0.84860    1.000
    C68      C        0.61640    0.18320    0.87750    1.000
    C69      C        0.59460    0.24640    0.85400    1.000
    C70      C        0.54730    0.24770    0.80250    1.000
    C71      C        0.52100    0.31310    0.77390    1.000
    C72      C        0.52410    0.18230    0.77710    1.000
    C73      C        0.28120    0.37470    0.14050    1.000
    C74      C        0.21570    0.35230    0.16390    1.000
    C75      C        0.15340    0.37270    0.13530    1.000
    C76      C        0.15470    0.41880    0.08370    1.000
    C77      C        0.21810    0.44170    0.05960    1.000
    C78      C        0.28170    0.42000    0.08690    1.000
    C79      C        0.87730    0.59050    0.34860    1.000
    C80      C        0.81680    0.61640    0.37750    1.000
    C81      C        0.75360    0.59460    0.35400    1.000
    C82      C        0.75230    0.54730    0.30250    1.000
    C83      C        0.68690    0.52100    0.27390    1.000
    C84      C        0.81770    0.52410    0.27710    1.000
    C85      C        0.71880    0.62530    0.14050    1.000
    C86      C        0.78430    0.64770    0.16390    1.000
    C87      C        0.84660    0.62730    0.13530    1.000
    C88      C        0.84530    0.58120    0.08370    1.000
    C89      C        0.78190    0.55830    0.05960    1.000
    C90      C        0.71830    0.58000    0.08690    1.000
    C91      C        0.12270    0.40950    0.34860    1.000
    C92      C        0.18320    0.38360    0.37750    1.000
    C93      C        0.24640    0.40540    0.35400    1.000
    C94      C        0.24770    0.45270    0.30250    1.000
    C95      C        0.31310    0.47900    0.27390    1.000
    C96      C        0.18230    0.47590    0.27710    1.000
    C97      C        0.62530    0.71880    0.14050    1.000
    C98      C        0.64770    0.78430    0.16390    1.000
    C99      C        0.62730    0.84660    0.13530    1.000
    C100     C        0.58120    0.84530    0.08370    1.000
    C101     C        0.55830    0.78190    0.05960    1.000
    C102     C        0.58000    0.71830    0.08690    1.000
    C103     C        0.40950    0.12270    0.34860    1.000
    C104     C        0.38360    0.18320    0.37750    1.000
    C105     C        0.40540    0.24640    0.35400    1.000
    C106     C        0.45270    0.24770    0.30250    1.000
    C107     C        0.47900    0.31310    0.27390    1.000
    C108     C        0.47590    0.18230    0.27710    1.000
    C109     C        0.37470    0.28120    0.14050    1.000
    C110     C        0.35230    0.21570    0.16390    1.000
    C111     C        0.37270    0.15340    0.13530    1.000
    C112     C        0.41880    0.15470    0.08370    1.000
    C113     C        0.44170    0.21810    0.05960    1.000
    C114     C        0.42000    0.28170    0.08690    1.000
    C115     C        0.59050    0.87730    0.34860    1.000
    C116     C        0.61640    0.81680    0.37750    1.000
    C117     C        0.59460    0.75360    0.35400    1.000
    C118     C        0.54730    0.75230    0.30250    1.000
    C119     C        0.52100    0.68690    0.27390    1.000
    C120     C        0.52410    0.81770    0.27710    1.000
    C121     C        0.28120    0.62530    0.64050    1.000
    C122     C        0.21570    0.64770    0.66390    1.000
    C123     C        0.15340    0.62730    0.63530    1.000
    C124     C        0.15470    0.58120    0.58370    1.000
    C125     C        0.21810    0.55830    0.55960    1.000
    C126     C        0.28170    0.58000    0.58690    1.000
    C127     C        0.87730    0.40950    0.84860    1.000
    C128     C        0.81680    0.38360    0.87750    1.000
    C129     C        0.75360    0.40540    0.85400    1.000
    C130     C        0.75230    0.45270    0.80250    1.000
    C131     C        0.68690    0.47900    0.77390    1.000
    C132     C        0.81770    0.47590    0.77710    1.000
    C133     C        0.71880    0.37470    0.64050    1.000
    C134     C        0.78430    0.35230    0.66390    1.000
    C135     C        0.84660    0.37270    0.63530    1.000
    C136     C        0.84530    0.41880    0.58370    1.000
    C137     C        0.78190    0.44170    0.55960    1.000
    C138     C        0.71830    0.42000    0.58690    1.000
    C139     C        0.12270    0.59050    0.84860    1.000
    C140     C        0.18320    0.61640    0.87750    1.000
    C141     C        0.24640    0.59460    0.85400    1.000
    C142     C        0.24770    0.54730    0.80250    1.000
    C143     C        0.31310    0.52100    0.77390    1.000
    C144     C        0.18230    0.52410    0.77710    1.000
    C145     C        0.37470    0.71880    0.35950    1.000
    C146     C        0.35230    0.78430    0.33610    1.000
    C147     C        0.37270    0.84660    0.36470    1.000
    C148     C        0.41880    0.84530    0.41630    1.000
    C149     C        0.44170    0.78190    0.44040    1.000
    C150     C        0.42000    0.71830    0.41310    1.000
    C151     C        0.59050    0.12270    0.15140    1.000
    C152     C        0.61640    0.18320    0.12250    1.000
    C153     C        0.59460    0.24640    0.14600    1.000
    C154     C        0.54730    0.24770    0.19750    1.000
    C155     C        0.52100    0.31310    0.22610    1.000
    C156     C        0.52410    0.18230    0.22290    1.000
    C157     C        0.62530    0.28120    0.35950    1.000
    C158     C        0.64770    0.21570    0.33610    1.000
    C159     C        0.62730    0.15340    0.36470    1.000
    C160     C        0.58120    0.15470    0.41630    1.000
    C161     C        0.55830    0.21810    0.44040    1.000
    C162     C        0.58000    0.28170    0.41310    1.000
    C163     C        0.40950    0.87730    0.15140    1.000
    C164     C        0.38360    0.81680    0.12250    1.000
    C165     C        0.40540    0.75360    0.14600    1.000
    C166     C        0.45270    0.75230    0.19750    1.000
    C167     C        0.47900    0.68690    0.22610    1.000
    C168     C        0.47590    0.81770    0.22290    1.000
    C169     C        0.71880    0.62530    0.85950    1.000
    C170     C        0.78430    0.64770    0.83610    1.000
    C171     C        0.84660    0.62730    0.86470    1.000
    C172     C        0.84530    0.58120    0.91630    1.000
    C173     C        0.78190    0.55830    0.94040    1.000
    C174     C        0.71830    0.58000    0.91310    1.000
    C175     C        0.12270    0.40950    0.65140    1.000
    C176     C        0.18320    0.38360    0.62250    1.000
    C177     C        0.24640    0.40540    0.64600    1.000
    C178     C        0.24770    0.45270    0.69750    1.000
    C179     C        0.31310    0.47900    0.72610    1.000
    C180     C        0.18230    0.47590    0.72290    1.000
    C181     C        0.28120    0.37470    0.85950    1.000
    C182     C        0.21570    0.35230    0.83610    1.000
    C183     C        0.15340    0.37270    0.86470    1.000
    C184     C        0.15470    0.41880    0.91630    1.000
    C185     C        0.21810    0.44170    0.94040    1.000
    C186     C        0.28170    0.42000    0.91310    1.000
    C187     C        0.87730    0.59050    0.65140    1.000
    C188     C        0.81680    0.61640    0.62250    1.000
    C189     C        0.75360    0.59460    0.64600    1.000
    C190     C        0.75230    0.54730    0.69750    1.000
    C191     C        0.68690    0.52100    0.72610    1.000
    C192     C        0.81770    0.52410    0.72290    1.000
    C193     C        0.34870    0.34870    0.83000    1.000
    C194     C        0.65130    0.65130    0.83000    1.000
    C195     C        0.65130    0.34870    0.33000    1.000
    C196     C        0.34870    0.65130    0.33000    1.000
    C197     C        0.65130    0.34870    0.67000    1.000
    C198     C        0.34870    0.65130    0.67000    1.000
    C199     C        0.34870    0.34870    0.17000    1.000
    C200     C        0.65130    0.65130    0.17000    1.000
    C201     C        0.48770    0.21690    0.00000    1.000
    C202     C        0.51230    0.78310    0.00000    1.000
    C203     C        0.78310    0.48770    0.50000    1.000
    C204     C        0.21690    0.51230    0.50000    1.000
    C205     C        0.51230    0.21690    0.50000    1.000
    C206     C        0.48770    0.78310    0.50000    1.000
    C207     C        0.21690    0.48770    0.00000    1.000
    C208     C        0.78310    0.51230    0.00000    1.000
    S1       S        0.34335    0.07257    0.83539    1.000
    S2       S        0.65665    0.92743    0.83539    1.000
    S3       S        0.92743    0.34335    0.33539    1.000
    S4       S        0.07257    0.65665    0.33539    1.000
    S5       S        0.65665    0.07257    0.66461    1.000
    S6       S        0.34335    0.92743    0.66461    1.000
    S7       S        0.07257    0.34335    0.16461    1.000
    S8       S        0.92743    0.65665    0.16461    1.000
    S9       S        0.65665    0.92743    0.16461    1.000
    S10      S        0.34335    0.07257    0.16461    1.000
    S11      S        0.07257    0.65665    0.66461    1.000
    S12      S        0.92743    0.34335    0.66461    1.000
    S13      S        0.34335    0.92743    0.33539    1.000
    S14      S        0.65665    0.07257    0.33539    1.000
    S15      S        0.92743    0.65665    0.83539    1.000
    S16      S        0.07257    0.34335    0.83539    1.000
    N1       N        0.54610    0.88020    0.69980    1.000
    N2       N        0.45390    0.11980    0.69980    1.000
    N3       N        0.11980    0.54610    0.19980    1.000
    N4       N        0.88020    0.45390    0.19980    1.000
    N5       N        0.45390    0.88020    0.80020    1.000
    N6       N        0.54610    0.11980    0.80020    1.000
    N7       N        0.88020    0.54610    0.30020    1.000
    N8       N        0.11980    0.45390    0.30020    1.000
    N9       N        0.45390    0.11980    0.30020    1.000
    N10      N        0.54610    0.88020    0.30020    1.000
    N11      N        0.88020    0.45390    0.80020    1.000
    N12      N        0.11980    0.54610    0.80020    1.000
    N13      N        0.54610    0.11980    0.19980    1.000
    N14      N        0.45390    0.88020    0.19980    1.000
    N15      N        0.11980    0.45390    0.69980    1.000
    N16      N        0.88020    0.54610    0.69980    1.000
    O1       O        0.44360    0.34450    0.93670    1.000
    O2       O        0.30710    0.03800    0.88710    1.000
    O3       O        0.40850    0.03440    0.81893    1.000
    O4       O        0.30070    0.08690    0.78030    1.000
    O5       O        0.55640    0.65550    0.93670    1.000
    O6       O        0.69290    0.96200    0.88710    1.000
    O7       O        0.59150    0.96560    0.81893    1.000
    O8       O        0.69930    0.91310    0.78030    1.000
    O9       O        0.65550    0.44360    0.43670    1.000
    O10      O        0.96200    0.30710    0.38710    1.000
    O11      O        0.96560    0.40850    0.31893    1.000
    O12      O        0.91310    0.30070    0.28030    1.000
    O13      O        0.34450    0.55640    0.43670    1.000
    O14      O        0.03800    0.69290    0.38710    1.000
    O15      O        0.03440    0.59150    0.31893    1.000
    O16      O        0.08690    0.69930    0.28030    1.000
    O17      O        0.55640    0.34450    0.56330    1.000
    O18      O        0.69290    0.03800    0.61290    1.000
    O19      O        0.59150    0.03440    0.68107    1.000
    O20      O        0.69930    0.08690    0.71970    1.000
    O21      O        0.44360    0.65550    0.56330    1.000
    O22      O        0.30710    0.96200    0.61290    1.000
    O23      O        0.40850    0.96560    0.68107    1.000
    O24      O        0.30070    0.91310    0.71970    1.000
    O25      O        0.34450    0.44360    0.06330    1.000
    O26      O        0.03800    0.30710    0.11290    1.000
    O27      O        0.03440    0.40850    0.18107    1.000
    O28      O        0.08690    0.30070    0.21970    1.000
    O29      O        0.65550    0.55640    0.06330    1.000
    O30      O        0.96200    0.69290    0.11290    1.000
    O31      O        0.96560    0.59150    0.18107    1.000
    O32      O        0.91310    0.69930    0.21970    1.000
    O33      O        0.55640    0.65550    0.06330    1.000
    O34      O        0.69290    0.96200    0.11290    1.000
    O35      O        0.59150    0.96560    0.18107    1.000
    O36      O        0.69930    0.91310    0.21970    1.000
    O37      O        0.44360    0.34450    0.06330    1.000
    O38      O        0.30710    0.03800    0.11290    1.000
    O39      O        0.40850    0.03440    0.18107    1.000
    O40      O        0.30070    0.08690    0.21970    1.000
    O41      O        0.34450    0.55640    0.56330    1.000
    O42      O        0.03800    0.69290    0.61290    1.000
    O43      O        0.03440    0.59150    0.68107    1.000
    O44      O        0.08690    0.69930    0.71970    1.000
    O45      O        0.65550    0.44360    0.56330    1.000
    O46      O        0.96200    0.30710    0.61290    1.000
    O47      O        0.96560    0.40850    0.68107    1.000
    O48      O        0.91310    0.30070    0.71970    1.000
    O49      O        0.44360    0.65550    0.43670    1.000
    O50      O        0.30710    0.96200    0.38710    1.000
    O51      O        0.40850    0.96560    0.31893    1.000
    O52      O        0.30070    0.91310    0.28030    1.000
    O53      O        0.55640    0.34450    0.43670    1.000
    O54      O        0.69290    0.03800    0.38710    1.000
    O55      O        0.59150    0.03440    0.31893    1.000
    O56      O        0.69930    0.08690    0.28030    1.000
    O57      O        0.65550    0.55640    0.93670    1.000
    O58      O        0.96200    0.69290    0.88710    1.000
    O59      O        0.96560    0.59150    0.81893    1.000
    O60      O        0.91310    0.69930    0.78030    1.000
    O61      O        0.34450    0.44360    0.93670    1.000
    O62      O        0.03800    0.30710    0.88710    1.000
    O63      O        0.03440    0.40850    0.81893    1.000
    O64      O        0.08690    0.30070    0.78030    1.000
