# CIF file generated by openbabel 3.1.0, see https://openbabel.org
data_I
_chemical_name_common 'XEQLEM_clean'
_cell_length_a 9.8836
_cell_length_b 10.9817
_cell_length_c 12.8681
_cell_angle_alpha 90
_cell_angle_beta 90
_cell_angle_gamma 99.384
_space_group_name_H-M_alt 'P 1'
_space_group_name_Hall 'P 1'
loop_
    _symmetry_equiv_pos_as_xyz
    x,y,z
loop_
    _atom_site_label
    _atom_site_type_symbol
    _atom_site_fract_x
    _atom_site_fract_y
    _atom_site_fract_z
    _atom_site_occupancy
    Mg1      Mg       0.62790    0.74970    0.76510    1.000
    Mg2      Mg       0.12500    0.75260    0.76430    1.000
    Mg3      Mg       0.37210    0.25030    0.26510    1.000
    Mg4      Mg       0.87500    0.24740    0.26430    1.000
    H1       H        0.09950    0.01150    0.53880    1.000
    H2       H        0.08650    0.13860    0.39990    1.000
    H3       H        0.69340    0.99710    0.58210    1.000
    H4       H        0.69480    0.12360    0.44180    1.000
    H5       H        0.05040    0.49610    0.93370    1.000
    H6       H        0.05340    0.36350    0.07220    1.000
    H7       H        0.65360    0.49820    0.99260    1.000
    H8       H        0.66670    0.36520    0.12810    1.000
    H9       H        0.38390    0.37360    0.87570    1.000
    H10      H        0.37660    0.24660    0.01810    1.000
    H11      H        0.33310    0.64880    0.06480    1.000
    H12      H        0.35050    0.52440    0.20130    1.000
    H13      H        0.39290    0.84760    0.46110    1.000
    H14      H        0.38150    0.98050    0.32260    1.000
    H15      H        0.39820    0.13510    0.65060    1.000
    H16      H        0.38450    0.25790    0.50730    1.000
    H17      H        0.90050    0.98850    0.03880    1.000
    H18      H        0.91350    0.86140    0.89990    1.000
    H19      H        0.30660    0.00290    0.08210    1.000
    H20      H        0.30520    0.87640    0.94180    1.000
    H21      H        0.94960    0.50390    0.43370    1.000
    H22      H        0.94660    0.63650    0.57220    1.000
    H23      H        0.34640    0.50180    0.49260    1.000
    H24      H        0.33330    0.63480    0.62810    1.000
    H25      H        0.61610    0.62640    0.37570    1.000
    H26      H        0.62340    0.75340    0.51810    1.000
    H27      H        0.66690    0.35120    0.56480    1.000
    H28      H        0.64950    0.47560    0.70130    1.000
    H29      H        0.60710    0.15240    0.96110    1.000
    H30      H        0.61850    0.01950    0.82260    1.000
    H31      H        0.60180    0.86490    0.15060    1.000
    H32      H        0.61550    0.74210    0.00730    1.000
    C1       C        0.90350    0.89900    0.66610    1.000
    C2       C        0.89570    0.98410    0.57640    1.000
    C3       C        0.01530    0.03180    0.51960    1.000
    C4       C        0.00690    0.10790    0.43620    1.000
    C5       C        0.77450    0.02260    0.54590    1.000
    C6       C        0.77670    0.09880    0.46130    1.000
    C7       C        0.84710    0.60290    0.85900    1.000
    C8       C        0.84910    0.51210    0.94790    1.000
    C9       C        0.97140    0.47140    0.97260    1.000
    C10      C        0.97220    0.39250    0.05740    1.000
    C11      C        0.73650    0.47240    0.00750    1.000
    C12      C        0.74580    0.39350    0.09030    1.000
    C13      C        0.34820    0.60700    0.85930    1.000
    C14      C        0.35050    0.52210    0.95230    1.000
    C15      C        0.37040    0.40470    0.94140    1.000
    C16      C        0.37080    0.32940    0.02860    1.000
    C17      C        0.34360    0.56720    0.05370    1.000
    C18      C        0.35220    0.49190    0.13460    1.000
    C19      C        0.40360    0.89350    0.66550    1.000
    C20      C        0.39230    0.97590    0.57430    1.000
    C21      C        0.39040    0.93060    0.47330    1.000
    C22      C        0.38460    0.01200    0.38980    1.000
    C23      C        0.39320    0.09990    0.58470    1.000
    C24      C        0.38670    0.17430    0.49770    1.000
    C25      C        0.09650    0.10100    0.16610    1.000
    C26      C        0.10430    0.01590    0.07640    1.000
    C27      C        0.98470    0.96820    0.01960    1.000
    C28      C        0.99310    0.89210    0.93620    1.000
    C29      C        0.22550    0.97740    0.04590    1.000
    C30      C        0.22330    0.90120    0.96130    1.000
    C31      C        0.15290    0.39710    0.35900    1.000
    C32      C        0.15090    0.48790    0.44790    1.000
    C33      C        0.02860    0.52860    0.47260    1.000
    C34      C        0.02780    0.60750    0.55740    1.000
    C35      C        0.26350    0.52760    0.50750    1.000
    C36      C        0.25420    0.60650    0.59030    1.000
    C37      C        0.65180    0.39300    0.35930    1.000
    C38      C        0.64950    0.47790    0.45230    1.000
    C39      C        0.62960    0.59530    0.44140    1.000
    C40      C        0.62920    0.67060    0.52860    1.000
    C41      C        0.65640    0.43280    0.55370    1.000
    C42      C        0.64780    0.50810    0.63460    1.000
    C43      C        0.59640    0.10650    0.16550    1.000
    C44      C        0.60770    0.02410    0.07430    1.000
    C45      C        0.60960    0.06940    0.97330    1.000
    C46      C        0.61540    0.98800    0.88980    1.000
    C47      C        0.60680    0.90010    0.08470    1.000
    C48      C        0.61330    0.82570    0.99770    1.000
    N1       N        0.88810    0.13980    0.40510    1.000
    N2       N        0.86360    0.35550    0.11910    1.000
    N3       N        0.36360    0.36780    0.12420    1.000
    N4       N        0.38350    0.13050    0.40240    1.000
    N5       N        0.11190    0.86020    0.90510    1.000
    N6       N        0.13640    0.64450    0.61910    1.000
    N7       N        0.63640    0.63220    0.62420    1.000
    N8       N        0.61650    0.86950    0.90240    1.000
    O1       O        0.79600    0.86630    0.71950    1.000
    O2       O        0.01760    0.86470    0.68320    1.000
    O3       O        0.73540    0.64240    0.85090    1.000
    O4       O        0.94970    0.62870    0.80640    1.000
    O5       O        0.45290    0.63000    0.80730    1.000
    O6       O        0.23620    0.64100    0.84580    1.000
    O7       O        0.51500    0.85400    0.67540    1.000
    O8       O        0.30260    0.87120    0.72750    1.000
    O9       O        0.20400    0.13370    0.21950    1.000
    O10      O        0.98240    0.13530    0.18320    1.000
    O11      O        0.26460    0.35760    0.35090    1.000
    O12      O        0.05030    0.37130    0.30640    1.000
    O13      O        0.54710    0.37000    0.30730    1.000
    O14      O        0.76380    0.35900    0.34580    1.000
    O15      O        0.48500    0.14600    0.17540    1.000
    O16      O        0.69740    0.12880    0.22750    1.000
