data_functionalizedCrystal
_audit_creation_method	'EQeq! by Chris Wilmer'
_symmetry_space_group_name_H-M	'P1'
_symmetry_Int_Tables_number	1
_symmetry_cell_setting	triclinic
loop_
_symmetry_equiv_pos_as_xyz
  x,y,z
_cell_length_a	11.497
_cell_length_b	33.542
_cell_length_c	12.106
_cell_angle_alpha	90
_cell_angle_beta	116.84
_cell_angle_gamma	90
loop_
_atom_site_label
_atom_site_type_symbol
_atom_site_fract_x
_atom_site_fract_y
_atom_site_fract_z
_atom_site_charge
Mof_C 	C 	0.9732	0.1126	0.6817	0.078
Mof_H 	H 	0.0114	0.107	0.7661	0.009
Mof_C 	C 	0.0481	0.1086	0.6195	-0.129
Mof_H 	H 	0.1349	0.1008	0.661	0.084
Mof_C 	C 	0.9908	0.1165	0.4948	0.058
Mof_C 	C 	0.8636	0.1276	0.4364	-0.135
Mof_H 	H 	0.8229	0.1327	0.3518	0.061
Mof_C 	C 	0.7957	0.1314	0.506	0.072
Mof_H 	H 	0.709	0.1395	0.4663	-0.021
Mof_C 	C 	0.07	0.1148	0.4225	0.06
Mof_C 	C 	0.1666	0.0863	0.4473	-0.133
Mof_H 	H 	0.1863	0.0678	0.5104	0.08
Mof_C 	C 	0.2325	0.0861	0.376	0.08
Mof_H 	H 	0.2938	0.0663	0.3887	0.012
Mof_C 	C 	0.1183	0.1422	0.2673	0.073
Mof_H 	H 	0.1029	0.1616	0.2073	0.017
Mof_C 	C 	0.0475	0.1427	0.3323	-0.127
Mof_H 	H 	0.9837	0.1621	0.3153	0.051
Mof_C 	C 	0.2836	0.1146	0.2165	0.193
Mof_H 	H 	0.649	0.1801	0.8372	0.317
Mof_C 	C 	0.4168	0.1104	0.2777	-0.223
Mof_H 	H 	0.4607	0.1073	0.3631	0.124
Mof_C 	C 	0.4832	0.1112	0.205	0.123
Mof_H 	H 	0.5733	0.1082	0.2422	-0.006
Mof_C 	C 	0.4156	0.1163	0.0783	-0.188
Mof_C 	C 	0.2832	0.1203	0.0214	0.123
Mof_H 	H 	0.239	0.124	0.9362	0.007
Mof_C 	C 	0.2139	0.1189	0.0912	-0.218
Mof_H 	H 	0.1235	0.1209	0.0536	0.117
Mof_C 	C 	0.4861	0.1195	0.9977	0.426
Mof_C 	C 	0.3184	0.1823	0.5591	0.324
Mof_C 	C 	0.2162	0.2145	0.5228	-0.049
Mof_C 	C 	0.1457	0.2192	0.5903	-0.058
Mof_H 	H 	0.1585	0.2019	0.6547	0.062
Mof_C 	C 	0.0566	0.25	0.56	0.015
Mof_H 	H 	0.0102	0.2535	0.6054	0.021
Mof_C 	C 	0.0355	0.27574	0.4635	-0.123
Mof_C 	C 	0.1037	0.2697	0.3935	0.009
Mof_H 	H 	0.0875	0.286	0.3258	0.033
Mof_C 	C 	0.1945	0.2397	0.4255	-0.055
Mof_H 	H 	0.2419	0.2364	0.3809	0.054
Mof_C 	C 	0.9398	0.30906	0.4318	0.405
Mof_C 	C 	0.535	0.07371	0.6332	0.365
Mof_C 	C 	0.5192	0.03532	0.5669	-0.08
Mof_C 	C 	0.4348	0.00619	0.5709	-0.017
Mof_H 	H 	0.3913	0.0104	0.6186	0.052
Mof_C 	C 	0.5851	0.02875	0.4951	-0.02
Mof_H 	H 	0.6419	0.0479	0.4921	0.048
Mof_C 	C 	0.8655	0.07688	0.9485	0.364
Mof_C 	C 	0.937	0.0371	0.977	-0.071
Mof_C 	C 	0.9973	0.0218	0.0958	-0.012
Mof_H 	H 	0.9956	0.0362	0.1607	0.052
Mof_C 	C 	0.9399	0.0147	0.8805	-0.022
Mof_H 	H 	0.8993	0.0244	0.7999	0.053
Mof_N 	N 	0.8489	0.12398	0.6263	-0.238
Mof_N 	N 	0.2099	0.11419	0.2881	-0.155
Mof_O 	O 	0.6068	0.11776	0.0486	-0.48
Mof_O 	O 	0.4133	0.1225	0.8856	-0.493
Mof_O 	O 	0.3304	0.16151	0.6509	-0.464
Mof_O 	O 	0.3807	0.17762	0.4984	-0.305
Mof_O 	O 	0.9132	0.32093	0.5157	-0.499
Mof_O 	O 	0.896	0.32267	0.3251	-0.498
Mof_O 	O 	0.5937	0.10164	0.6103	-0.474
Mof_O 	O 	0.4833	0.07616	0.7055	-0.467
Mof_O 	O 	0.8263	0.08962	0.842	-0.462
Mof_O 	O 	0.8519	0.09381	0.0383	-0.452
Mof_O 	O 	0.6452	0.15645	0.8333	-0.98
Mof_Zn	Zn	0.74584	0.13947	0.73011	1.206
Mof_Zn	Zn	0.47635	0.13019	0.76194	1.232
Mof_Zn	Zn	0.75869	0.14582	0.01157	1.195
Mof_C 	C 	0.0268	0.6126	0.8183	0.089
Mof_H 	H 	0.9886	0.607	0.7339	0.002
Mof_C 	C 	0.9519	0.6086	0.8805	-0.142
Mof_H 	H 	0.8651	0.6008	0.839	0.087
Mof_C 	C 	0.0092	0.6165	0.0052	0.064
Mof_C 	C 	0.1364	0.6276	0.0636	-0.142
Mof_H 	H 	0.1771	0.6327	0.1482	0.064
Mof_C 	C 	0.2043	0.6314	0.994	0.077
Mof_H 	H 	0.291	0.6395	0.0337	-0.023
Mof_C 	C 	0.93	0.6148	0.0775	0.055
Mof_C 	C 	0.8334	0.5863	0.0527	-0.125
Mof_H 	H 	0.8137	0.5678	0.9896	0.076
Mof_C 	C 	0.7675	0.5861	0.124	0.077
Mof_H 	H 	0.7062	0.5663	0.1113	0.014
Mof_C 	C 	0.8817	0.6422	0.2327	0.068
Mof_H 	H 	0.8971	0.6616	0.2927	0.019
Mof_C 	C 	0.9525	0.6427	0.1677	-0.118
Mof_H 	H 	0.0163	0.6621	0.1847	0.046
Mof_C 	C 	0.7164	0.6146	0.2835	0.194
Mof_H 	H 	0.351	0.6801	0.6628	0.317
Mof_C 	C 	0.5832	0.6104	0.2223	-0.224
Mof_H 	H 	0.5393	0.6073	0.1369	0.125
Mof_C 	C 	0.5168	0.6112	0.295	0.124
Mof_H 	H 	0.4267	0.6082	0.2578	-0.007
Mof_C 	C 	0.5844	0.6163	0.4217	-0.19
Mof_C 	C 	0.7168	0.6203	0.4786	0.127
Mof_H 	H 	0.761	0.624	0.5638	0.004
Mof_C 	C 	0.7861	0.6189	0.4088	-0.22
Mof_H 	H 	0.8765	0.6209	0.4464	0.119
Mof_C 	C 	0.5139	0.6195	0.5023	0.425
Mof_C 	C 	0.6816	0.6823	0.9409	0.325
Mof_C 	C 	0.7838	0.7145	0.9772	-0.058
Mof_C 	C 	0.8543	0.7192	0.9097	-0.049
Mof_H 	H 	0.8415	0.7019	0.8453	0.059
Mof_C 	C 	0.9434	0.75	0.94	0.002
Mof_H 	H 	0.9898	0.7535	0.8946	0.025
Mof_C 	C 	0.9645	0.77574	0.0365	-0.11
Mof_C 	C 	0.8963	0.7697	0.1065	-0.001
Mof_H 	H 	0.9125	0.786	0.1742	0.037
Mof_C 	C 	0.8055	0.7397	0.0745	-0.044
Mof_H 	H 	0.7581	0.7364	0.1191	0.05
Mof_C 	C 	0.0602	0.80906	0.0682	0.398
Mof_C 	C 	0.465	0.57371	0.8668	0.365
Mof_C 	C 	0.4808	0.53532	0.9331	-0.08
Mof_C 	C 	0.5652	0.50619	0.9291	-0.017
Mof_H 	H 	0.6087	0.5104	0.8814	0.052
Mof_C 	C 	0.4149	0.52875	0.0049	-0.019
Mof_H 	H 	0.3581	0.5479	0.0079	0.048
Mof_C 	C 	0.1345	0.57688	0.5515	0.365
Mof_C 	C 	0.063	0.5371	0.523	-0.069
Mof_C 	C 	0.0027	0.5218	0.4042	-0.018
Mof_H 	H 	0.0044	0.5362	0.3393	0.054
Mof_C 	C 	0.0601	0.5147	0.6195	-0.018
Mof_H 	H 	0.1007	0.5244	0.7001	0.052
Mof_N 	N 	0.1511	0.62398	0.8737	-0.24
Mof_N 	N 	0.7901	0.61419	0.2119	-0.154
Mof_O 	O 	0.3932	0.61776	0.4514	-0.48
Mof_O 	O 	0.5867	0.6225	0.6144	-0.493
Mof_O 	O 	0.6696	0.66151	0.8491	-0.465
Mof_O 	O 	0.6193	0.67762	0.0016	-0.304
Mof_O 	O 	0.0868	0.82093	0.9843	-0.495
Mof_O 	O 	0.104	0.82267	0.1749	-0.497
Mof_O 	O 	0.4063	0.60164	0.8897	-0.474
Mof_O 	O 	0.5167	0.57616	0.7945	-0.467
Mof_O 	O 	0.1737	0.58962	0.658	-0.461
Mof_O 	O 	0.1481	0.59381	0.4617	-0.453
Mof_O 	O 	0.3548	0.65645	0.6667	-0.98
Mof_Zn	Zn	0.25416	0.63947	0.76989	1.206
Mof_Zn	Zn	0.52365	0.63019	0.73806	1.232
Mof_Zn	Zn	0.24131	0.64582	0.48843	1.195
Mof_C 	C 	0.0268	0.8874	0.3183	0.077
Mof_H 	H 	0.9886	0.893	0.2339	0.008
Mof_C 	C 	0.9519	0.8914	0.3805	-0.13
Mof_H 	H 	0.8651	0.8992	0.339	0.083
Mof_C 	C 	0.0092	0.8835	0.5052	0.058
Mof_C 	C 	0.1364	0.8724	0.5636	-0.135
Mof_H 	H 	0.1771	0.8673	0.6482	0.061
Mof_C 	C 	0.2043	0.8686	0.494	0.072
Mof_H 	H 	0.291	0.8605	0.5337	-0.021
Mof_C 	C 	0.93	0.8852	0.5775	0.06
Mof_C 	C 	0.8334	0.9137	0.5527	-0.133
Mof_H 	H 	0.8137	0.9322	0.4896	0.08
Mof_C 	C 	0.7675	0.9139	0.624	0.08
Mof_H 	H 	0.7062	0.9337	0.6113	0.012
Mof_C 	C 	0.8817	0.8578	0.7327	0.073
Mof_H 	H 	0.8971	0.8384	0.7927	0.017
Mof_C 	C 	0.9525	0.8573	0.6677	-0.127
Mof_H 	H 	0.0163	0.8379	0.6847	0.051
Mof_C 	C 	0.7164	0.8854	0.7835	0.193
Mof_H 	H 	0.351	0.8199	0.1628	0.317
Mof_C 	C 	0.5832	0.8896	0.7223	-0.223
Mof_H 	H 	0.5393	0.8927	0.6369	0.124
Mof_C 	C 	0.5168	0.8888	0.795	0.123
Mof_H 	H 	0.4267	0.8918	0.7578	-0.006
Mof_C 	C 	0.5844	0.8837	0.9217	-0.188
Mof_C 	C 	0.7168	0.8797	0.9786	0.123
Mof_H 	H 	0.761	0.876	0.0638	0.007
Mof_C 	C 	0.7861	0.8811	0.9088	-0.218
Mof_H 	H 	0.8765	0.8791	0.9464	0.117
Mof_C 	C 	0.5139	0.8805	0.0023	0.426
Mof_C 	C 	0.6816	0.8177	0.4409	0.324
Mof_C 	C 	0.7838	0.7855	0.4772	-0.049
Mof_C 	C 	0.8543	0.7808	0.4097	-0.058
Mof_H 	H 	0.8415	0.7981	0.3453	0.062
Mof_C 	C 	0.9434	0.75	0.44	0.015
Mof_H 	H 	0.9898	0.7465	0.3946	0.021
Mof_C 	C 	0.9645	0.72426	0.5365	-0.123
Mof_C 	C 	0.8963	0.7303	0.6065	0.009
Mof_H 	H 	0.9125	0.714	0.6742	0.033
Mof_C 	C 	0.8055	0.7603	0.5745	-0.055
Mof_H 	H 	0.7581	0.7636	0.6191	0.054
Mof_C 	C 	0.0602	0.69094	0.5682	0.405
Mof_C 	C 	0.465	0.92629	0.3668	0.365
Mof_C 	C 	0.4808	0.96468	0.4331	-0.08
Mof_C 	C 	0.5652	0.99381	0.4291	-0.017
Mof_H 	H 	0.6087	0.9896	0.3814	0.052
Mof_C 	C 	0.4149	0.97125	0.5049	-0.02
Mof_H 	H 	0.3581	0.9521	0.5079	0.048
Mof_C 	C 	0.1345	0.92312	0.0515	0.364
Mof_C 	C 	0.063	0.9629	0.023	-0.071
Mof_C 	C 	0.0027	0.9782	0.9042	-0.012
Mof_H 	H 	0.0044	0.9638	0.8393	0.052
Mof_C 	C 	0.0601	0.9853	0.1195	-0.022
Mof_H 	H 	0.1007	0.9756	0.2001	0.053
Mof_N 	N 	0.1511	0.87602	0.3737	-0.238
Mof_N 	N 	0.7901	0.88581	0.7119	-0.155
Mof_O 	O 	0.3932	0.88224	0.9514	-0.48
Mof_O 	O 	0.5867	0.8775	0.1144	-0.493
Mof_O 	O 	0.6696	0.83849	0.3491	-0.464
Mof_O 	O 	0.6193	0.82238	0.5016	-0.305
Mof_O 	O 	0.0868	0.67907	0.4843	-0.499
Mof_O 	O 	0.104	0.67733	0.6749	-0.498
Mof_O 	O 	0.4063	0.89836	0.3897	-0.474
Mof_O 	O 	0.5167	0.92384	0.2945	-0.467
Mof_O 	O 	0.1737	0.91038	0.158	-0.462
Mof_O 	O 	0.1481	0.90619	0.9617	-0.452
Mof_O 	O 	0.3548	0.84355	0.1667	-0.98
Mof_Zn	Zn	0.25416	0.86053	0.26989	1.206
Mof_Zn	Zn	0.52365	0.86981	0.23806	1.232
Mof_Zn	Zn	0.24131	0.85418	0.98843	1.195
Mof_C 	C 	0.9732	0.3874	0.1817	0.089
Mof_H 	H 	0.0114	0.393	0.2661	0.002
Mof_C 	C 	0.0481	0.3914	0.1195	-0.142
Mof_H 	H 	0.1349	0.3992	0.161	0.087
Mof_C 	C 	0.9908	0.3835	0.9948	0.064
Mof_C 	C 	0.8636	0.3724	0.9364	-0.142
Mof_H 	H 	0.8229	0.3673	0.8518	0.064
Mof_C 	C 	0.7957	0.3686	0.006	0.077
Mof_H 	H 	0.709	0.3605	0.9663	-0.023
Mof_C 	C 	0.07	0.3852	0.9225	0.055
Mof_C 	C 	0.1666	0.4137	0.9473	-0.125
Mof_H 	H 	0.1863	0.4322	0.0104	0.076
Mof_C 	C 	0.2325	0.4139	0.876	0.077
Mof_H 	H 	0.2938	0.4337	0.8887	0.014
Mof_C 	C 	0.1183	0.3578	0.7673	0.068
Mof_H 	H 	0.1029	0.3384	0.7073	0.019
Mof_C 	C 	0.0475	0.3573	0.8323	-0.118
Mof_H 	H 	0.9837	0.3379	0.8153	0.046
Mof_C 	C 	0.2836	0.3854	0.7165	0.194
Mof_H 	H 	0.649	0.3199	0.3372	0.317
Mof_C 	C 	0.4168	0.3896	0.7777	-0.224
Mof_H 	H 	0.4607	0.3927	0.8631	0.125
Mof_C 	C 	0.4832	0.3888	0.705	0.124
Mof_H 	H 	0.5733	0.3918	0.7422	-0.007
Mof_C 	C 	0.4156	0.3837	0.5783	-0.19
Mof_C 	C 	0.2832	0.3797	0.5214	0.127
Mof_H 	H 	0.239	0.376	0.4362	0.004
Mof_C 	C 	0.2139	0.3811	0.5912	-0.22
Mof_H 	H 	0.1235	0.3791	0.5536	0.119
Mof_C 	C 	0.4861	0.3805	0.4977	0.425
Mof_C 	C 	0.3184	0.3177	0.0591	0.325
Mof_C 	C 	0.2162	0.2855	0.0228	-0.058
Mof_C 	C 	0.1457	0.2808	0.0903	-0.049
Mof_H 	H 	0.1585	0.2981	0.1547	0.059
Mof_C 	C 	0.0566	0.25	0.06	0.002
Mof_H 	H 	0.0102	0.2465	0.1054	0.025
Mof_C 	C 	0.0355	0.22426	0.9635	-0.11
Mof_C 	C 	0.1037	0.2303	0.8935	-0.001
Mof_H 	H 	0.0875	0.214	0.8258	0.037
Mof_C 	C 	0.1945	0.2603	0.9255	-0.044
Mof_H 	H 	0.2419	0.2636	0.8809	0.05
Mof_C 	C 	0.9398	0.19094	0.9318	0.398
Mof_C 	C 	0.535	0.42629	0.1332	0.365
Mof_C 	C 	0.5192	0.46468	0.0669	-0.08
Mof_C 	C 	0.4348	0.49381	0.0709	-0.017
Mof_H 	H 	0.3913	0.4896	0.1186	0.052
Mof_C 	C 	0.5851	0.47125	0.9951	-0.019
Mof_H 	H 	0.6419	0.4521	0.9921	0.048
Mof_C 	C 	0.8655	0.42312	0.4485	0.365
Mof_C 	C 	0.937	0.4629	0.477	-0.069
Mof_C 	C 	0.9973	0.4782	0.5958	-0.018
Mof_H 	H 	0.9956	0.4638	0.6607	0.054
Mof_C 	C 	0.9399	0.4853	0.3805	-0.018
Mof_H 	H 	0.8993	0.4756	0.2999	0.052
Mof_N 	N 	0.8489	0.37602	0.1263	-0.24
Mof_N 	N 	0.2099	0.38581	0.7881	-0.154
Mof_O 	O 	0.6068	0.38224	0.5486	-0.48
Mof_O 	O 	0.4133	0.3775	0.3856	-0.493
Mof_O 	O 	0.3304	0.33849	0.1509	-0.465
Mof_O 	O 	0.3807	0.32238	0.9984	-0.304
Mof_O 	O 	0.9132	0.17907	0.0157	-0.495
Mof_O 	O 	0.896	0.17733	0.8251	-0.497
Mof_O 	O 	0.5937	0.39836	0.1103	-0.474
Mof_O 	O 	0.4833	0.42384	0.2055	-0.467
Mof_O 	O 	0.8263	0.41038	0.342	-0.461
Mof_O 	O 	0.8519	0.40619	0.5383	-0.453
Mof_O 	O 	0.6452	0.34355	0.3333	-0.98
Mof_Zn	Zn	0.74584	0.36053	0.23011	1.206
Mof_Zn	Zn	0.47635	0.36981	0.26194	1.232
Mof_Zn	Zn	0.75869	0.35418	0.51157	1.195
_end
