data_functionalizedCrystal
_audit_creation_method	'EQeq! by Chris Wilmer'
_symmetry_space_group_name_H-M	'P1'
_symmetry_Int_Tables_number	1
_symmetry_cell_setting	triclinic
loop_
_symmetry_equiv_pos_as_xyz
  x,y,z
_cell_length_a	15.291
_cell_length_b	15.291
_cell_length_c	15.573
_cell_angle_alpha	90
_cell_angle_beta	90
_cell_angle_gamma	120
loop_
_atom_site_label
_atom_site_type_symbol
_atom_site_fract_x
_atom_site_fract_y
_atom_site_fract_z
_atom_site_charge
Mof_Gd	Gd	0.66667	0.33334	0.75	1.738
Mof_Gd	Gd	0.33333	0.66666	0.75	1.738
Mof_Gd	Gd	0.33333	0.66666	0.25	1.728
Mof_Gd	Gd	0.66667	0.33334	0.25	1.727
Mof_Fe	Fe	0.5	0	-0	0.624
Mof_Fe	Fe	0.5	0.5	-0	0.691
Mof_Fe	Fe	-0	0.5	-0	0.624
Mof_Fe	Fe	0.5	-8.00527e-33	0.5	0.741
Mof_Fe	Fe	9.74342e-18	0.5	0.5	0.741
Mof_Fe	Fe	0.5	0.5	0.5	0.811
Mof_H 	H 	0.2869	0.0528	0.8419	0.057
Mof_H 	H 	0.7659	0.7131	0.8419	0.076
Mof_H 	H 	0.9472	0.2341	0.8419	0.082
Mof_H 	H 	0.7131	0.9472	0.8419	0.086
Mof_H 	H 	0.2341	0.2869	0.8419	0.066
Mof_H 	H 	0.0528	0.7659	0.8419	0.062
Mof_H 	H 	0.2341	0.9472	0.6581	0.069
Mof_H 	H 	0.0528	0.2869	0.6581	0.044
Mof_H 	H 	0.7131	0.7659	0.6581	0.064
Mof_H 	H 	0.7659	0.0528	0.6581	0.049
Mof_H 	H 	0.9472	0.7131	0.6581	0.074
Mof_H 	H 	0.2869	0.2341	0.6581	0.053
Mof_H 	H 	0.7131	0.9472	0.1581	0.063
Mof_H 	H 	0.2341	0.2869	0.1581	0.041
Mof_H 	H 	0.0528	0.7659	0.1581	0.038
Mof_H 	H 	0.2869	0.0528	0.1581	0.032
Mof_H 	H 	0.7659	0.7131	0.1581	0.052
Mof_H 	H 	0.9472	0.2341	0.1581	0.058
Mof_H 	H 	0.7659	0.0528	0.3419	0.047
Mof_H 	H 	0.9472	0.7131	0.3419	0.072
Mof_H 	H 	0.2869	0.2341	0.3419	0.051
Mof_H 	H 	0.2341	0.9472	0.3419	0.068
Mof_H 	H 	0.0528	0.2869	0.3419	0.042
Mof_H 	H 	0.7131	0.7659	0.3419	0.062
Mof_H 	H 	0.2001	0.10005	0.75	0.021
Mof_H 	H 	0.89995	0.7999	0.75	0.053
Mof_H 	H 	0.89995	0.10005	0.75	0.037
Mof_H 	H 	0.7999	0.89995	0.75	0.053
Mof_H 	H 	0.10005	0.2001	0.75	0.021
Mof_H 	H 	0.10005	0.89995	0.75	0.036
Mof_H 	H 	0.7999	0.89995	0.25	0.05
Mof_H 	H 	0.10005	0.2001	0.25	0.017
Mof_H 	H 	0.10005	0.89995	0.25	0.033
Mof_H 	H 	0.2001	0.10005	0.25	0.017
Mof_H 	H 	0.89995	0.7999	0.25	0.05
Mof_H 	H 	0.89995	0.10005	0.25	0.033
Mof_C 	C 	0.3215	0.1073	0.8048	-0.048
Mof_C 	C 	0.426	0.1617	0.8041	-0.009
Mof_C 	C 	0.4916	0.1389	0.8615	0.335
Mof_C 	C 	0.7858	0.6785	0.8048	-0.041
Mof_C 	C 	0.7357	0.574	0.8041	0.001
Mof_C 	C 	0.6473	0.5084	0.8615	0.339
Mof_C 	C 	0.8927	0.2142	0.8048	-0.046
Mof_C 	C 	0.8383	0.2643	0.8041	0.004
Mof_C 	C 	0.8611	0.3527	0.8615	0.333
Mof_C 	C 	0.6785	0.8927	0.8048	-0.042
Mof_C 	C 	0.574	0.8383	0.8041	0.007
Mof_C 	C 	0.5084	0.8611	0.8615	0.333
Mof_C 	C 	0.2142	0.3215	0.8048	-0.048
Mof_C 	C 	0.2643	0.426	0.8041	-0.006
Mof_C 	C 	0.3527	0.4916	0.8615	0.337
Mof_C 	C 	0.1073	0.7858	0.8048	-0.046
Mof_C 	C 	0.1617	0.7357	0.8041	-0.004
Mof_C 	C 	0.1389	0.6473	0.8615	0.336
Mof_C 	C 	0.2142	0.8927	0.6952	-0.044
Mof_C 	C 	0.2643	0.8383	0.6959	-0.007
Mof_C 	C 	0.3527	0.8611	0.6385	0.34
Mof_C 	C 	0.1073	0.3215	0.6952	-0.047
Mof_C 	C 	0.1617	0.426	0.6959	-0.02
Mof_C 	C 	0.1389	0.4916	0.6385	0.343
Mof_C 	C 	0.6785	0.7858	0.6952	-0.039
Mof_C 	C 	0.574	0.7357	0.6959	-0.009
Mof_C 	C 	0.5084	0.6473	0.6385	0.347
Mof_C 	C 	0.7858	0.1073	0.6952	-0.044
Mof_C 	C 	0.7357	0.1617	0.6959	-0.015
Mof_C 	C 	0.6473	0.1389	0.6385	0.344
Mof_C 	C 	0.8927	0.6785	0.6952	-0.04
Mof_C 	C 	0.8383	0.574	0.6959	-0.004
Mof_C 	C 	0.8611	0.5084	0.6385	0.341
Mof_C 	C 	0.3215	0.2142	0.6952	-0.046
Mof_C 	C 	0.426	0.2643	0.6959	-0.017
Mof_C 	C 	0.4916	0.3527	0.6385	0.345
Mof_C 	C 	0.6785	0.8927	0.1952	-0.036
Mof_C 	C 	0.574	0.8383	0.1959	-0.012
Mof_C 	C 	0.5084	0.8611	0.1385	0.336
Mof_C 	C 	0.2142	0.3215	0.1952	-0.041
Mof_C 	C 	0.2643	0.426	0.1959	-0.026
Mof_C 	C 	0.3527	0.4916	0.1385	0.341
Mof_C 	C 	0.1073	0.7858	0.1952	-0.04
Mof_C 	C 	0.1617	0.7357	0.1959	-0.024
Mof_C 	C 	0.1389	0.6473	0.1385	0.339
Mof_C 	C 	0.3215	0.1073	0.1952	-0.042
Mof_C 	C 	0.426	0.1617	0.1959	-0.029
Mof_C 	C 	0.4916	0.1389	0.1385	0.339
Mof_C 	C 	0.7858	0.6785	0.1952	-0.035
Mof_C 	C 	0.7357	0.574	0.1959	-0.018
Mof_C 	C 	0.6473	0.5084	0.1385	0.342
Mof_C 	C 	0.8927	0.2142	0.1952	-0.04
Mof_C 	C 	0.8383	0.2643	0.1959	-0.015
Mof_C 	C 	0.8611	0.3527	0.1385	0.336
Mof_C 	C 	0.7858	0.1073	0.3048	-0.039
Mof_C 	C 	0.7357	0.1617	0.3041	-0.02
Mof_C 	C 	0.6473	0.1389	0.3615	0.344
Mof_C 	C 	0.8927	0.6785	0.3048	-0.035
Mof_C 	C 	0.8383	0.574	0.3041	-0.008
Mof_C 	C 	0.8611	0.5084	0.3615	0.342
Mof_C 	C 	0.3215	0.2142	0.3048	-0.041
Mof_C 	C 	0.426	0.2643	0.3041	-0.021
Mof_C 	C 	0.4916	0.3527	0.3615	0.346
Mof_C 	C 	0.2142	0.8927	0.3048	-0.039
Mof_C 	C 	0.2643	0.8383	0.3041	-0.011
Mof_C 	C 	0.3527	0.8611	0.3615	0.341
Mof_C 	C 	0.1073	0.3215	0.3048	-0.042
Mof_C 	C 	0.1617	0.426	0.3041	-0.024
Mof_C 	C 	0.1389	0.4916	0.3615	0.344
Mof_C 	C 	0.6785	0.7858	0.3048	-0.034
Mof_C 	C 	0.574	0.7357	0.3041	-0.014
Mof_C 	C 	0.5084	0.6473	0.3615	0.347
Mof_C 	C 	0.2703	0.13515	0.75	-0.024
Mof_C 	C 	0.86485	0.7297	0.75	-0.012
Mof_C 	C 	0.86485	0.13515	0.75	-0.017
Mof_C 	C 	0.7297	0.86485	0.75	-0.012
Mof_C 	C 	0.13515	0.2703	0.75	-0.024
Mof_C 	C 	0.13515	0.86485	0.75	-0.017
Mof_C 	C 	0.7297	0.86485	0.25	-0.025
Mof_C 	C 	0.13515	0.2703	0.25	-0.038
Mof_C 	C 	0.13515	0.86485	0.25	-0.03
Mof_C 	C 	0.2703	0.13515	0.25	-0.038
Mof_C 	C 	0.86485	0.7297	0.25	-0.025
Mof_C 	C 	0.86485	0.13515	0.25	-0.03
Mof_N 	N 	0.4777	0.23885	0.75	-0.18
Mof_N 	N 	0.76115	0.5223	0.75	-0.18
Mof_N 	N 	0.76115	0.23885	0.75	-0.18
Mof_N 	N 	0.5223	0.76115	0.75	-0.18
Mof_N 	N 	0.23885	0.4777	0.75	-0.18
Mof_N 	N 	0.23885	0.76115	0.75	-0.18
Mof_N 	N 	0.5223	0.76115	0.25	-0.178
Mof_N 	N 	0.23885	0.4777	0.25	-0.178
Mof_N 	N 	0.23885	0.76115	0.25	-0.178
Mof_N 	N 	0.4777	0.23885	0.25	-0.178
Mof_N 	N 	0.76115	0.5223	0.25	-0.178
Mof_N 	N 	0.76115	0.23885	0.25	-0.178
Mof_O 	O 	0.5862	0.1993	0.8567	-0.383
Mof_O 	O 	0.4471	0.0624	0.9079	-0.304
Mof_O 	O 	0.6131	0.4138	0.8567	-0.379
Mof_O 	O 	0.6153	0.5529	0.9079	-0.294
Mof_O 	O 	0.8007	0.3869	0.8567	-0.37
Mof_O 	O 	0.9376	0.3847	0.9079	-0.265
Mof_O 	O 	0.4138	0.8007	0.8567	-0.37
Mof_O 	O 	0.5529	0.9376	0.9079	-0.263
Mof_O 	O 	0.3869	0.5862	0.8567	-0.38
Mof_O 	O 	0.3847	0.4471	0.9079	-0.298
Mof_O 	O 	0.1993	0.6131	0.8567	-0.382
Mof_O 	O 	0.0624	0.6153	0.9079	-0.302
Mof_O 	O 	0.3869	0.8007	0.6433	-0.393
Mof_O 	O 	0.3847	0.9376	0.5921	-0.318
Mof_O 	O 	0.1993	0.5862	0.6433	-0.406
Mof_O 	O 	0.0624	0.4471	0.5921	-0.358
Mof_O 	O 	0.4138	0.6131	0.6433	-0.402
Mof_O 	O 	0.5529	0.6153	0.5921	-0.348
Mof_O 	O 	0.6131	0.1993	0.6433	-0.406
Mof_O 	O 	0.6153	0.0624	0.5921	-0.356
Mof_O 	O 	0.8007	0.4138	0.6433	-0.393
Mof_O 	O 	0.9376	0.5529	0.5921	-0.316
Mof_O 	O 	0.5862	0.3869	0.6433	-0.403
Mof_O 	O 	0.4471	0.3847	0.5921	-0.352
Mof_O 	O 	0.4138	0.8007	0.1433	-0.4
Mof_O 	O 	0.5529	0.9376	0.0921	-0.323
Mof_O 	O 	0.3869	0.5862	0.1433	-0.411
Mof_O 	O 	0.3847	0.4471	0.0921	-0.36
Mof_O 	O 	0.1993	0.6131	0.1433	-0.414
Mof_O 	O 	0.0624	0.6153	0.0921	-0.363
Mof_O 	O 	0.5862	0.1993	0.1433	-0.414
Mof_O 	O 	0.4471	0.0624	0.0921	-0.365
Mof_O 	O 	0.6131	0.4138	0.1433	-0.41
Mof_O 	O 	0.6153	0.5529	0.0921	-0.355
Mof_O 	O 	0.8007	0.3869	0.1433	-0.401
Mof_O 	O 	0.9376	0.3847	0.0921	-0.325
Mof_O 	O 	0.6131	0.1993	0.3567	-0.404
Mof_O 	O 	0.6153	0.0624	0.4079	-0.356
Mof_O 	O 	0.8007	0.4138	0.3567	-0.391
Mof_O 	O 	0.9376	0.5529	0.4079	-0.316
Mof_O 	O 	0.5862	0.3869	0.3567	-0.402
Mof_O 	O 	0.4471	0.3847	0.4079	-0.353
Mof_O 	O 	0.3869	0.8007	0.3567	-0.392
Mof_O 	O 	0.3847	0.9376	0.4079	-0.318
Mof_O 	O 	0.1993	0.5862	0.3567	-0.405
Mof_O 	O 	0.0624	0.4471	0.4079	-0.358
Mof_O 	O 	0.4138	0.6131	0.3567	-0.401
Mof_O 	O 	0.5529	0.6153	0.4079	-0.348
_end
