data_functionalizedCrystal
_audit_creation_method	'EQeq! by Chris Wilmer'
_symmetry_space_group_name_H-M	'P1'
_symmetry_Int_Tables_number	1
_symmetry_cell_setting	triclinic
loop_
_symmetry_equiv_pos_as_xyz
  x,y,z
_cell_length_a	15.8475
_cell_length_b	15.8475
_cell_length_c	21.601
_cell_angle_alpha	90
_cell_angle_beta	90
_cell_angle_gamma	90
loop_
_atom_site_label
_atom_site_type_symbol
_atom_site_fract_x
_atom_site_fract_y
_atom_site_fract_z
_atom_site_charge
Mof_C 	C 	0.5373	0.2555	0.036	0.066
Mof_H 	H 	0.506	0.2603	0.0733	0.01
Mof_C 	C 	0.567	0.3016	0.9394	0.078
Mof_H 	H 	0.5574	0.3402	0.9065	0.013
Mof_C 	C 	0.2834	0.2644	0.8857	-0.13
Mof_H 	H 	0.261	0.2103	0.895	0.071
Mof_C 	C 	0.2983	0.3824	0.8205	-0.132
Mof_H 	H 	0.2859	0.4127	0.7836	0.076
Mof_C 	C 	0.2551	0.3076	0.8336	0.065
Mof_C 	C 	0.1833	0.2767	0.7966	0.017
Mof_C 	C 	0.168	0.3044	0.7368	-0.078
Mof_H 	H 	0.2053	0.3439	0.7182	0.058
Mof_C 	C 	0.0989	0.2753	0.7039	-0.002
Mof_H 	H 	0.0891	0.295	0.663	0.029
Mof_C 	C 	0.0434	0.2171	0.7304	-0.073
Mof_H 	H 	0.9953	0.1982	0.7082	0.062
Mof_C 	C 	0.0593	0.1874	0.7894	0.014
Mof_C 	C 	0.1284	0.2173	0.822	-0.078
Mof_H 	H 	0.1386	0.1968	0.8627	0.056
Mof_C 	C 	0.0045	0.1256	0.81986	0.094
Mof_C 	C 	0.9081	0.0743	0.882	0.095
Mof_C 	C 	0.8385	0.0658	0.9254	0.016
Mof_C 	C 	0.8342	0.9932	0.9621	-0.067
Mof_H 	H 	0.877	0.9515	0.9589	0.057
Mof_C 	C 	0.7699	0.982	0.0019	-0.006
Mof_H 	H 	0.7682	0.9325	0.0266	0.026
Mof_C 	C 	0.7064	0.0411	0.0075	-0.082
Mof_H 	H 	0.6621	0.0324	0.0364	0.054
Mof_C 	C 	0.7069	0.1139	0.9706	0.019
Mof_C 	C 	0.7736	0.1246	0.9295	-0.077
Mof_H 	H 	0.7748	0.1731	0.9037	0.06
Mof_C 	C 	0.6408	0.1795	0.977	0.074
Mof_C 	C 	0.6244	0.2371	0.9299	-0.131
Mof_H 	H 	0.6526	0.2322	0.8912	0.07
Mof_C 	C 	0.5942	0.1891	0.0302	-0.138
Mof_H 	H 	0.6008	0.1501	0.0633	0.073
Mof_C 	C 	0.3584	0.4122	0.8602	0.078
Mof_H 	H 	0.3868	0.4628	0.8495	0.013
Mof_C 	C 	0.3432	0.2992	0.9239	0.07
Mof_H 	H 	0.36	0.2687	0.9597	0.01
Mof_N 	N 	0.0066	0.0435	0.81671	-0.116
Mof_N 	N 	0.946	0.0109	0.85546	-0.102
Mof_N 	N 	0.9436	0.1479	0.86076	-0.107
Mof_N 	N 	0.9241	0.2292	0.8811	-0.209
Mof_H 	H 	0.973	0.257	0.8897	0.112
Mof_H 	H 	0.8957	0.2571	0.8508	0.11
Mof_N 	N 	0.3792	0.3747	0.91282	-0.152
Mof_N 	N 	0.5244	0.313	0.99166	-0.146
Mof_C 	C 	0.4627	0.7445	0.536	0.071
Mof_H 	H 	0.494	0.7397	0.5733	0.009
Mof_C 	C 	0.433	0.6984	0.4394	0.075
Mof_H 	H 	0.4426	0.6598	0.4065	0.013
Mof_C 	C 	0.7166	0.7356	0.3857	-0.131
Mof_H 	H 	0.739	0.7897	0.395	0.071
Mof_C 	C 	0.7017	0.6176	0.3205	-0.132
Mof_H 	H 	0.7141	0.5873	0.2836	0.076
Mof_C 	C 	0.7449	0.6924	0.3336	0.065
Mof_C 	C 	0.8167	0.7233	0.2966	0.016
Mof_C 	C 	0.832	0.6956	0.2368	-0.078
Mof_H 	H 	0.7947	0.6561	0.2182	0.058
Mof_C 	C 	0.9011	0.7247	0.2039	-0.002
Mof_H 	H 	0.9109	0.705	0.163	0.028
Mof_C 	C 	0.9566	0.7829	0.2304	-0.073
Mof_H 	H 	0.0047	0.8018	0.2082	0.062
Mof_C 	C 	0.9407	0.8126	0.2894	0.014
Mof_C 	C 	0.8716	0.7827	0.322	-0.077
Mof_H 	H 	0.8614	0.8032	0.3627	0.055
Mof_C 	C 	0.9955	0.8744	0.31986	0.094
Mof_C 	C 	0.0919	0.9257	0.382	0.093
Mof_C 	C 	0.1615	0.9342	0.4254	0.017
Mof_C 	C 	0.1658	0.0068	0.4621	-0.077
Mof_H 	H 	0.123	0.0485	0.4589	0.059
Mof_C 	C 	0.2301	0.018	0.5019	0.003
Mof_H 	H 	0.2318	0.0675	0.5266	0.024
Mof_C 	C 	0.2936	0.9589	0.5075	-0.077
Mof_H 	H 	0.3379	0.9676	0.5364	0.053
Mof_C 	C 	0.2931	0.8861	0.4706	0.015
Mof_C 	C 	0.2264	0.8754	0.4295	-0.078
Mof_H 	H 	0.2252	0.8269	0.4037	0.06
Mof_C 	C 	0.3592	0.8205	0.477	0.066
Mof_C 	C 	0.3756	0.7629	0.4299	-0.128
Mof_H 	H 	0.3474	0.7678	0.3912	0.069
Mof_C 	C 	0.4058	0.8109	0.5302	-0.13
Mof_H 	H 	0.3992	0.8499	0.5633	0.071
Mof_C 	C 	0.6416	0.5878	0.3602	0.078
Mof_H 	H 	0.6132	0.5372	0.3495	0.012
Mof_C 	C 	0.6568	0.7008	0.4239	0.07
Mof_H 	H 	0.64	0.7313	0.4597	0.008
Mof_N 	N 	0.9934	0.9565	0.31671	-0.116
Mof_N 	N 	0.054	0.9891	0.35546	-0.102
Mof_N 	N 	0.0564	0.8521	0.36076	-0.107
Mof_N 	N 	0.0759	0.7708	0.3811	-0.209
Mof_H 	H 	0.027	0.743	0.3897	0.111
Mof_H 	H 	0.1043	0.7429	0.3508	0.11
Mof_N 	N 	0.6208	0.6253	0.41282	-0.153
Mof_N 	N 	0.4756	0.687	0.49166	-0.15
Mof_C 	C 	0.2445	0.0373	0.786	0.071
Mof_H 	H 	0.2397	0.006	0.8233	0.01
Mof_C 	C 	0.1984	0.067	0.6894	0.075
Mof_H 	H 	0.1598	0.0574	0.6565	0.014
Mof_C 	C 	0.2356	0.7834	0.6357	-0.131
Mof_H 	H 	0.2897	0.761	0.645	0.071
Mof_C 	C 	0.1176	0.7983	0.5705	-0.132
Mof_H 	H 	0.0873	0.7859	0.5336	0.076
Mof_C 	C 	0.1924	0.7551	0.5836	0.065
Mof_C 	C 	0.2233	0.6833	0.5466	0.017
Mof_C 	C 	0.1956	0.668	0.4868	-0.078
Mof_H 	H 	0.1561	0.7053	0.4682	0.058
Mof_C 	C 	0.2247	0.5989	0.4539	-0.002
Mof_H 	H 	0.205	0.5891	0.413	0.029
Mof_C 	C 	0.2829	0.5434	0.4804	-0.075
Mof_H 	H 	0.3018	0.4953	0.4582	0.063
Mof_C 	C 	0.3126	0.5593	0.5394	0.015
Mof_C 	C 	0.2827	0.6284	0.572	-0.078
Mof_H 	H 	0.3032	0.6386	0.6127	0.055
Mof_C 	C 	0.3744	0.5045	0.56986	0.093
Mof_C 	C 	0.4257	0.4081	0.632	0.093
Mof_C 	C 	0.4342	0.3385	0.6754	0.018
Mof_C 	C 	0.5068	0.3342	0.7121	-0.078
Mof_H 	H 	0.5485	0.377	0.7089	0.059
Mof_C 	C 	0.518	0.2699	0.7519	0.002
Mof_H 	H 	0.5675	0.2682	0.7766	0.024
Mof_C 	C 	0.4589	0.2064	0.7575	-0.076
Mof_H 	H 	0.4676	0.1621	0.7864	0.054
Mof_C 	C 	0.3861	0.2069	0.7206	0.015
Mof_C 	C 	0.3754	0.2736	0.6795	-0.078
Mof_H 	H 	0.3269	0.2748	0.6537	0.06
Mof_C 	C 	0.3205	0.1408	0.727	0.066
Mof_C 	C 	0.2629	0.1244	0.6799	-0.128
Mof_H 	H 	0.2678	0.1526	0.6412	0.07
Mof_C 	C 	0.3109	0.0942	0.7802	-0.129
Mof_H 	H 	0.3499	0.1008	0.8133	0.072
Mof_C 	C 	0.0878	0.8584	0.6102	0.078
Mof_H 	H 	0.0372	0.8868	0.5995	0.012
Mof_C 	C 	0.2008	0.8432	0.6739	0.07
Mof_H 	H 	0.2313	0.86	0.7097	0.008
Mof_N 	N 	0.4565	0.5066	0.56671	-0.116
Mof_N 	N 	0.4891	0.446	0.60546	-0.102
Mof_N 	N 	0.3521	0.4436	0.61076	-0.107
Mof_N 	N 	0.2708	0.4241	0.6311	-0.209
Mof_H 	H 	0.243	0.473	0.6397	0.111
Mof_H 	H 	0.2429	0.3957	0.6008	0.11
Mof_N 	N 	0.1253	0.8792	0.66282	-0.153
Mof_N 	N 	0.187	0.0244	0.74166	-0.15
Mof_C 	C 	0.7555	0.9627	0.286	0.071
Mof_H 	H 	0.7603	0.994	0.3233	0.01
Mof_C 	C 	0.8016	0.933	0.1894	0.075
Mof_H 	H 	0.8402	0.9426	0.1565	0.013
Mof_C 	C 	0.7644	0.2166	0.1357	-0.136
Mof_H 	H 	0.7103	0.239	0.145	0.072
Mof_C 	C 	0.8824	0.2017	0.0705	-0.138
Mof_H 	H 	0.9127	0.2141	0.0336	0.076
Mof_C 	C 	0.8076	0.2449	0.0836	0.073
Mof_C 	C 	0.7767	0.3167	0.0466	-0.004
Mof_C 	C 	0.8044	0.332	0.9868	-0.053
Mof_H 	H 	0.8439	0.2947	0.9682	0.052
Mof_C 	C 	0.7753	0.4011	0.9539	-0.021
Mof_H 	H 	0.795	0.4109	0.913	0.036
Mof_C 	C 	0.7171	0.4566	0.9804	-0.051
Mof_H 	H 	0.6982	0.5047	0.9582	0.056
Mof_C 	C 	0.6874	0.4407	0.0394	-0.005
Mof_C 	C 	0.7173	0.3716	0.072	-0.063
Mof_H 	H 	0.6968	0.3614	0.1127	0.05
Mof_C 	C 	0.6256	0.4955	0.06986	0.098
Mof_C 	C 	0.5743	0.5919	0.132	0.093
Mof_C 	C 	0.5658	0.6615	0.1754	0.018
Mof_C 	C 	0.4932	0.6658	0.2121	-0.078
Mof_H 	H 	0.4515	0.623	0.2089	0.059
Mof_C 	C 	0.482	0.7301	0.2519	0.002
Mof_H 	H 	0.4325	0.7318	0.2766	0.024
Mof_C 	C 	0.5411	0.7936	0.2575	-0.076
Mof_H 	H 	0.5324	0.8379	0.2864	0.053
Mof_C 	C 	0.6139	0.7931	0.2206	0.014
Mof_C 	C 	0.6246	0.7264	0.1795	-0.078
Mof_H 	H 	0.6731	0.7252	0.1537	0.06
Mof_C 	C 	0.6795	0.8592	0.227	0.066
Mof_C 	C 	0.7371	0.8756	0.1799	-0.128
Mof_H 	H 	0.7322	0.8474	0.1412	0.069
Mof_C 	C 	0.6891	0.9058	0.2802	-0.129
Mof_H 	H 	0.6501	0.8992	0.3133	0.071
Mof_C 	C 	0.9122	0.1416	0.1102	0.08
Mof_H 	H 	0.9628	0.1132	0.0995	0.011
Mof_C 	C 	0.7992	0.1568	0.1739	0.072
Mof_H 	H 	0.7687	0.14	0.2097	0.007
Mof_N 	N 	0.5435	0.4934	0.06671	-0.118
Mof_N 	N 	0.5109	0.554	0.10546	-0.102
Mof_N 	N 	0.6479	0.5564	0.11076	-0.108
Mof_N 	N 	0.7292	0.5759	0.1311	-0.209
Mof_H 	H 	0.757	0.527	0.1397	0.111
Mof_H 	H 	0.7571	0.6043	0.1008	0.108
Mof_N 	N 	0.8747	0.1208	0.16282	-0.154
Mof_N 	N 	0.813	0.9756	0.24166	-0.15
Mof_C 	C 	0.9627	0.7555	0.714	0.071
Mof_H 	H 	0.994	0.7603	0.6767	0.01
Mof_C 	C 	0.933	0.8016	0.8106	0.075
Mof_H 	H 	0.9426	0.8402	0.8435	0.014
Mof_C 	C 	0.2166	0.7644	0.8643	-0.126
Mof_H 	H 	0.239	0.7103	0.855	0.069
Mof_C 	C 	0.2017	0.8824	0.9295	-0.127
Mof_H 	H 	0.2141	0.9127	0.9664	0.076
Mof_C 	C 	0.2449	0.8076	0.9164	0.058
Mof_C 	C 	0.3167	0.7767	0.9534	0.035
Mof_C 	C 	0.332	0.8044	0.0132	-0.1
Mof_H 	H 	0.2947	0.8439	0.0318	0.064
Mof_C 	C 	0.4011	0.7753	0.0461	0.016
Mof_H 	H 	0.4109	0.795	0.087	0.022
Mof_C 	C 	0.4566	0.7171	0.0196	-0.097
Mof_H 	H 	0.5047	0.6982	0.0418	0.069
Mof_C 	C 	0.4407	0.6874	0.9606	0.033
Mof_C 	C 	0.3716	0.7173	0.928	-0.092
Mof_H 	H 	0.3614	0.6968	0.8873	0.06
Mof_C 	C 	0.4955	0.6256	0.93014	0.089
Mof_C 	C 	0.5919	0.5743	0.868	0.094
Mof_C 	C 	0.6615	0.5658	0.8246	0.019
Mof_C 	C 	0.6658	0.4932	0.7879	-0.078
Mof_H 	H 	0.623	0.4515	0.7911	0.059
Mof_C 	C 	0.7301	0.482	0.7481	0.002
Mof_H 	H 	0.7318	0.4325	0.7234	0.024
Mof_C 	C 	0.7936	0.5411	0.7425	-0.076
Mof_H 	H 	0.8379	0.5324	0.7136	0.053
Mof_C 	C 	0.7931	0.6139	0.7794	0.015
Mof_C 	C 	0.7264	0.6246	0.8205	-0.078
Mof_H 	H 	0.7252	0.6731	0.8463	0.061
Mof_C 	C 	0.8592	0.6795	0.773	0.066
Mof_C 	C 	0.8756	0.7371	0.8201	-0.128
Mof_H 	H 	0.8474	0.7322	0.8588	0.07
Mof_C 	C 	0.9058	0.6891	0.7198	-0.13
Mof_H 	H 	0.8992	0.6501	0.6867	0.071
Mof_C 	C 	0.1416	0.9122	0.8898	0.076
Mof_H 	H 	0.1132	0.9628	0.9005	0.014
Mof_C 	C 	0.1568	0.7992	0.8261	0.068
Mof_H 	H 	0.14	0.7687	0.7903	0.008
Mof_N 	N 	0.4934	0.5435	0.93329	-0.113
Mof_N 	N 	0.554	0.5109	0.89454	-0.101
Mof_N 	N 	0.5564	0.6479	0.88924	-0.106
Mof_N 	N 	0.5759	0.7292	0.8689	-0.21
Mof_H 	H 	0.527	0.757	0.8603	0.112
Mof_H 	H 	0.6043	0.7571	0.8992	0.111
Mof_N 	N 	0.1208	0.8747	0.83718	-0.152
Mof_N 	N 	0.9756	0.813	0.75834	-0.15
Mof_C 	C 	0.0373	0.2445	0.214	0.071
Mof_H 	H 	0.006	0.2397	0.1767	0.009
Mof_C 	C 	0.067	0.1984	0.3106	0.075
Mof_H 	H 	0.0574	0.1598	0.3435	0.014
Mof_C 	C 	0.7834	0.2356	0.3643	-0.131
Mof_H 	H 	0.761	0.2897	0.355	0.071
Mof_C 	C 	0.7983	0.1176	0.4295	-0.132
Mof_H 	H 	0.7859	0.0873	0.4664	0.076
Mof_C 	C 	0.7551	0.1924	0.4164	0.065
Mof_C 	C 	0.6833	0.2233	0.4534	0.017
Mof_C 	C 	0.668	0.1956	0.5132	-0.078
Mof_H 	H 	0.7053	0.1561	0.5318	0.058
Mof_C 	C 	0.5989	0.2247	0.5461	-0.002
Mof_H 	H 	0.5891	0.205	0.587	0.029
Mof_C 	C 	0.5434	0.2829	0.5196	-0.075
Mof_H 	H 	0.4953	0.3018	0.5418	0.063
Mof_C 	C 	0.5593	0.3126	0.4606	0.015
Mof_C 	C 	0.6284	0.2827	0.428	-0.078
Mof_H 	H 	0.6386	0.3032	0.3873	0.055
Mof_C 	C 	0.5045	0.3744	0.43014	0.093
Mof_C 	C 	0.4081	0.4257	0.368	0.093
Mof_C 	C 	0.3385	0.4342	0.3246	0.018
Mof_C 	C 	0.3342	0.5068	0.2879	-0.078
Mof_H 	H 	0.377	0.5485	0.2911	0.059
Mof_C 	C 	0.2699	0.518	0.2481	0.002
Mof_H 	H 	0.2682	0.5675	0.2234	0.024
Mof_C 	C 	0.2064	0.4589	0.2425	-0.076
Mof_H 	H 	0.1621	0.4676	0.2136	0.053
Mof_C 	C 	0.2069	0.3861	0.2794	0.014
Mof_C 	C 	0.2736	0.3754	0.3205	-0.078
Mof_H 	H 	0.2748	0.3269	0.3463	0.06
Mof_C 	C 	0.1408	0.3205	0.273	0.066
Mof_C 	C 	0.1244	0.2629	0.3201	-0.128
Mof_H 	H 	0.1526	0.2678	0.3588	0.07
Mof_C 	C 	0.0942	0.3109	0.2198	-0.129
Mof_H 	H 	0.1008	0.3499	0.1867	0.071
Mof_C 	C 	0.8584	0.0878	0.3898	0.078
Mof_H 	H 	0.8868	0.0372	0.4005	0.012
Mof_C 	C 	0.8432	0.2008	0.3261	0.07
Mof_H 	H 	0.86	0.2313	0.2903	0.008
Mof_N 	N 	0.5066	0.4565	0.43329	-0.116
Mof_N 	N 	0.446	0.4891	0.39454	-0.102
Mof_N 	N 	0.4436	0.3521	0.38924	-0.107
Mof_N 	N 	0.4241	0.2708	0.3689	-0.209
Mof_H 	H 	0.473	0.243	0.3603	0.111
Mof_H 	H 	0.3957	0.2429	0.3992	0.11
Mof_N 	N 	0.8792	0.1253	0.33718	-0.153
Mof_N 	N 	0.0244	0.187	0.25834	-0.15
Mof_C 	C 	0.2555	0.5373	0.964	0.074
Mof_H 	H 	0.2603	0.506	0.9267	0.009
Mof_C 	C 	0.3016	0.567	0.0606	0.072
Mof_H 	H 	0.3402	0.5574	0.0935	0.014
Mof_C 	C 	0.2644	0.2834	0.1143	-0.131
Mof_H 	H 	0.2103	0.261	0.105	0.07
Mof_C 	C 	0.3824	0.2983	0.1795	-0.132
Mof_H 	H 	0.4127	0.2859	0.2164	0.076
Mof_C 	C 	0.3076	0.2551	0.1664	0.065
Mof_C 	C 	0.2767	0.1833	0.2034	0.016
Mof_C 	C 	0.3044	0.168	0.2632	-0.077
Mof_H 	H 	0.3439	0.2053	0.2818	0.058
Mof_C 	C 	0.2753	0.0989	0.2961	-0.003
Mof_H 	H 	0.295	0.0891	0.337	0.029
Mof_C 	C 	0.2171	0.0434	0.2696	-0.073
Mof_H 	H 	0.1982	0.9953	0.2918	0.062
Mof_C 	C 	0.1874	0.0593	0.2106	0.014
Mof_C 	C 	0.2173	0.1284	0.178	-0.077
Mof_H 	H 	0.1968	0.1386	0.1373	0.055
Mof_C 	C 	0.1256	0.0045	0.18014	0.094
Mof_C 	C 	0.0743	0.9081	0.118	0.091
Mof_C 	C 	0.0658	0.8385	0.0746	0.023
Mof_C 	C 	0.9932	0.8342	0.0379	-0.092
Mof_H 	H 	0.9515	0.877	0.0411	0.062
Mof_C 	C 	0.982	0.7699	0.9981	0.018
Mof_H 	H 	0.9325	0.7682	0.9734	0.021
Mof_C 	C 	0.0411	0.7064	0.9925	-0.077
Mof_H 	H 	0.0324	0.6621	0.9636	0.055
Mof_C 	C 	0.1139	0.7069	0.0294	0.014
Mof_C 	C 	0.1246	0.7736	0.0705	-0.082
Mof_H 	H 	0.1731	0.7748	0.0963	0.061
Mof_C 	C 	0.1795	0.6408	0.023	0.057
Mof_C 	C 	0.2371	0.6244	0.0701	-0.125
Mof_H 	H 	0.2322	0.6526	0.1088	0.068
Mof_C 	C 	0.1891	0.5942	0.9698	-0.121
Mof_H 	H 	0.1501	0.6008	0.9367	0.069
Mof_C 	C 	0.4122	0.3584	0.1398	0.078
Mof_H 	H 	0.4628	0.3868	0.1505	0.013
Mof_C 	C 	0.2992	0.3432	0.0761	0.07
Mof_H 	H 	0.2687	0.36	0.0403	0.006
Mof_N 	N 	0.0435	0.0066	0.18329	-0.116
Mof_N 	N 	0.0109	0.946	0.14454	-0.102
Mof_N 	N 	0.1479	0.9436	0.13924	-0.107
Mof_N 	N 	0.2292	0.9241	0.1189	-0.21
Mof_H 	H 	0.257	0.973	0.1103	0.111
Mof_H 	H 	0.2571	0.8957	0.1492	0.11
Mof_N 	N 	0.3747	0.3792	0.08718	-0.153
Mof_N 	N 	0.313	0.5244	0.00834	-0.153
Mof_C 	C 	0.7445	0.4627	0.464	0.071
Mof_H 	H 	0.7397	0.494	0.4267	0.009
Mof_C 	C 	0.6984	0.433	0.5606	0.075
Mof_H 	H 	0.6598	0.4426	0.5935	0.013
Mof_C 	C 	0.7356	0.7166	0.6143	-0.131
Mof_H 	H 	0.7897	0.739	0.605	0.071
Mof_C 	C 	0.6176	0.7017	0.6795	-0.132
Mof_H 	H 	0.5873	0.7141	0.7164	0.076
Mof_C 	C 	0.6924	0.7449	0.6664	0.065
Mof_C 	C 	0.7233	0.8167	0.7034	0.016
Mof_C 	C 	0.6956	0.832	0.7632	-0.077
Mof_H 	H 	0.6561	0.7947	0.7818	0.058
Mof_C 	C 	0.7247	0.9011	0.7961	-0.003
Mof_H 	H 	0.705	0.9109	0.837	0.03
Mof_C 	C 	0.7829	0.9566	0.7696	-0.073
Mof_H 	H 	0.8018	0.0047	0.7918	0.062
Mof_C 	C 	0.8126	0.9407	0.7106	0.014
Mof_C 	C 	0.7827	0.8716	0.678	-0.077
Mof_H 	H 	0.8032	0.8614	0.6373	0.055
Mof_C 	C 	0.8744	0.9955	0.68014	0.094
Mof_C 	C 	0.9257	0.0919	0.618	0.093
Mof_C 	C 	0.9342	0.1615	0.5746	0.018
Mof_C 	C 	0.0068	0.1658	0.5379	-0.077
Mof_H 	H 	0.0485	0.123	0.5411	0.059
Mof_C 	C 	0.018	0.2301	0.4981	0.003
Mof_H 	H 	0.0675	0.2318	0.4734	0.024
Mof_C 	C 	0.9589	0.2936	0.4925	-0.076
Mof_H 	H 	0.9676	0.3379	0.4636	0.053
Mof_C 	C 	0.8861	0.2931	0.5294	0.015
Mof_C 	C 	0.8754	0.2264	0.5705	-0.078
Mof_H 	H 	0.8269	0.2252	0.5963	0.06
Mof_C 	C 	0.8205	0.3592	0.523	0.066
Mof_C 	C 	0.7629	0.3756	0.5701	-0.128
Mof_H 	H 	0.7678	0.3474	0.6088	0.069
Mof_C 	C 	0.8109	0.4058	0.4698	-0.13
Mof_H 	H 	0.8499	0.3992	0.4367	0.071
Mof_C 	C 	0.5878	0.6416	0.6398	0.078
Mof_H 	H 	0.5372	0.6132	0.6505	0.012
Mof_C 	C 	0.7008	0.6568	0.5761	0.07
Mof_H 	H 	0.7313	0.64	0.5403	0.008
Mof_N 	N 	0.9565	0.9934	0.68329	-0.116
Mof_N 	N 	0.9891	0.054	0.64454	-0.102
Mof_N 	N 	0.8521	0.0564	0.63924	-0.107
Mof_N 	N 	0.7708	0.0759	0.6189	-0.209
Mof_H 	H 	0.743	0.027	0.6103	0.111
Mof_H 	H 	0.7429	0.1043	0.6492	0.11
Mof_N 	N 	0.6253	0.6208	0.58718	-0.153
Mof_N 	N 	0.687	0.4756	0.50834	-0.15
Mof_Cd	Cd	0.05931	0.94069	0.75	0.381
Mof_Cd	Cd	0.94069	0.05931	0.25	0.381
Mof_Cd	Cd	0.55931	0.55931	0.5	0.383
Mof_Cd	Cd	0.44069	0.44069	-0	0.376
_end
