# CIF file generated by openbabel 3.1.0, see https://openbabel.org
data_I
_chemical_name_common 'image0'
_cell_length_a 14.703
_cell_length_b 15.2876
_cell_length_c 15.7014
_cell_angle_alpha 67.499
_cell_angle_beta 64.547
_cell_angle_gamma 69.969
_space_group_name_H-M_alt 'P 1'
_space_group_name_Hall 'P 1'
loop_
    _symmetry_equiv_pos_as_xyz
    x,y,z
loop_
    _atom_site_label
    _atom_site_type_symbol
    _atom_site_fract_x
    _atom_site_fract_y
    _atom_site_fract_z
    _atom_site_occupancy
    Co1      Co       0.74141    0.07227    0.02417    1.000
    O1       O        0.84474    0.01259    0.10238    1.000
    O2       O        0.96004    0.13849    0.92080    1.000
    O3       O        0.70091    0.96153    0.17003    1.000
    O4       O        0.79898    0.96172    0.96066    1.000
    O5       O        0.97053    0.93991    0.91932    1.000
    O6       O        0.81451    0.16121    0.89436    1.000
    N1       N        0.32060    0.80507    0.91538    1.000
    N2       N        0.61041    0.10311    0.98695    1.000
    C1       C        0.78760    0.95710    0.17176    1.000
    O7       O        0.36770    0.19393    0.80610    1.000
    H1       H        0.34540    0.14690    0.81310    1.000
    C2       C        0.88150    0.77798    0.41917    1.000
    C3       C        0.92310    0.85960    0.35493    1.000
    H2       H        0.97210    0.87630    0.36710    1.000
    C4       C        0.89510    0.18646    0.87915    1.000
    C5       C        0.89190    0.93243    0.91243    1.000
    C6       C        0.90880    0.88374    0.83856    1.000
    C7       C        0.89370    0.91569    0.27454    1.000
    H3       H        0.92290    0.97020    0.23130    1.000
    C8       C        0.91170    0.28318    0.80763    1.000
    C9       C        0.90710    0.72331    0.51005    1.000
    C10      C        0.91620    0.62318    0.54898    1.000
    H4       H        0.91090    0.58710    0.51430    1.000
    C11      C        0.98600    0.32339    0.80340    1.000
    H5       H        0.02980    0.28680    0.84090    1.000
    C12      C        0.91450    0.77584    0.56203    1.000
    H6       H        0.90770    0.84410    0.53630    1.000
    C13      C        0.83990    0.91614    0.78849    1.000
    H7       H        0.78520    0.97090    0.79850    1.000
    C14      C        0.85120    0.86831    0.72374    1.000
    H8       H        0.80570    0.89220    0.68760    1.000
    C15      C        0.94090    0.62957    0.68820    1.000
    H9       H        0.95280    0.59760    0.74870    1.000
    C16      C        0.35680    0.71900    0.97020    1.000
    H10      H        0.36010    0.71650    0.03020    1.000
    C17      C        0.93170    0.72940    0.65086    1.000
    C18      C        0.82100    0.89219    0.25685    1.000
    C19      C        0.61890    0.13590    0.89160    1.000
    H11      H        0.68550    0.13820    0.84320    1.000
    C20      C        0.81170    0.75350    0.39873    1.000
    H12      H        0.78500    0.69720    0.43990    1.000
    C21      C        0.93290    0.47069    0.68873    1.000
    C22      C        0.99800    0.75440    0.76080    1.000
    H13      H        0.05170    0.69870    0.75230    1.000
    C23      C        0.78060    0.81080    0.31850    1.000
    H14      H        0.73180    0.79420    0.30600    1.000
    C24      C        0.98920    0.80420    0.82280    1.000
    H15      H        0.03830    0.78380    0.85440    1.000
    C25      C        0.99620    0.41640    0.74480    1.000
    H16      H        0.04660    0.44350    0.74280    1.000
    C26      C        0.92870    0.78563    0.71139    1.000
    C27      C        0.85160    0.33510    0.74880    1.000
    H17      H        0.80250    0.30720    0.74960    1.000
    C28      C        0.38950    0.63380    0.94400    1.000
    H18      H        0.41350    0.57460    0.98600    1.000
    C29      C        0.93300    0.57524    0.63856    1.000
    C30      C        0.43870    0.16380    0.93010    1.000
    C31      C        0.42940    0.12500    0.02830    1.000
    H19      H        0.36400    0.11810    0.07760    1.000
    C32      C        0.53570    0.16610    0.86130    1.000
    H20      H        0.54510    0.18840    0.79330    1.000
    C33      C        0.86310    0.42730    0.68900    1.000
    H21      H        0.82290    0.46170    0.64760    1.000
    C34      C        0.30330    0.31430    0.89560    1.000
    C35      C        0.32020    0.80640    0.83000    1.000
    H22      H        0.29720    0.86680    0.78880    1.000
    C36      C        0.34050    0.48680    0.85960    1.000
    C37      C        0.38720    0.63520    0.85560    1.000
    C38      C        0.34400    0.20490    0.89920    1.000
    H23      H        0.28880    0.16890    0.94840    1.000
    C39      C        0.51690    0.09630    0.05360    1.000
    H24      H        0.50990    0.07080    0.12110    1.000
    O8       O        0.51140    0.48140    0.85090    1.000
    H25      H        0.51660    0.49940    0.89260    1.000
    C40      C        0.42440    0.54470    0.82190    1.000
    H26      H        0.44830    0.56500    0.74860    1.000
    C41      C        0.35160    0.72420    0.79830    1.000
    H27      H        0.34860    0.72890    0.73740    1.000
    B1       B        0.37160    0.39640    0.80550    1.000
    H28      H        0.44690    0.37730    0.74760    1.000
    B2       B        0.36180    0.37010    0.92890    1.000
    H29      H        0.43080    0.33420    0.95240    1.000
    B3       B        0.25400    0.39000    0.80520    1.000
    H30      H        0.25070    0.36660    0.74730    1.000
    B4       B        0.23930    0.34300    0.00560    1.000
    H31      H        0.22750    0.28820    0.07920    1.000
    B5       B        0.26350    0.45850    0.98130    1.000
    H32      H        0.26700    0.48200    0.03900    1.000
    B6       B        0.21210    0.54230    0.88960    1.000
    H33      H        0.18170    0.62090    0.88700    1.000
    B7       B        0.27940    0.50350    0.78130    1.000
    H34      H        0.29410    0.55670    0.70670    1.000
    B8       B        0.17130    0.35690    0.92940    1.000
    H35      H        0.11400    0.31180    0.95330    1.000
    B9       B        0.15590    0.48010    0.85660    1.000
    H36      H        0.08780    0.51790    0.83190    1.000
    B10      B        0.14440    0.44990    0.98300    1.000
    H37      H        0.06910    0.46670    0.04200    1.000
    H38      H        0.48390    0.50200    0.84340    1.000
    O9       O        0.45560    0.56930    0.71990    1.000
    H39      H        0.51750    0.54140    0.69800    1.000
    Co2      Co       0.25859    0.92773    0.97583    1.000
    O10      O        0.15526    0.98741    0.89762    1.000
    O11      O        0.03996    0.86151    0.07920    1.000
    O12      O        0.29909    0.03847    0.82997    1.000
    O13      O        0.20102    0.03828    0.03934    1.000
    O14      O        0.02947    0.06009    0.08068    1.000
    O15      O        0.18549    0.83879    0.10564    1.000
    N3       N        0.67940    0.19493    0.08462    1.000
    N4       N        0.38959    0.89689    0.01305    1.000
    C42      C        0.21240    0.04290    0.82824    1.000
    O16      O        0.63230    0.80607    0.19390    1.000
    H40      H        0.65460    0.85310    0.18690    1.000
    C43      C        0.11850    0.22202    0.58083    1.000
    C44      C        0.07690    0.14040    0.64507    1.000
    H41      H        0.02790    0.12370    0.63290    1.000
    C45      C        0.10490    0.81354    0.12085    1.000
    C46      C        0.10810    0.06757    0.08757    1.000
    C47      C        0.09120    0.11626    0.16144    1.000
    C48      C        0.10630    0.08431    0.72546    1.000
    H42      H        0.07710    0.02980    0.76870    1.000
    C49      C        0.08830    0.71682    0.19237    1.000
    C50      C        0.09290    0.27669    0.48995    1.000
    C51      C        0.08380    0.37682    0.45102    1.000
    H43      H        0.08910    0.41290    0.48570    1.000
    C52      C        0.01400    0.67661    0.19660    1.000
    H44      H        0.97020    0.71320    0.15910    1.000
    C53      C        0.08550    0.22416    0.43797    1.000
    H45      H        0.09230    0.15590    0.46370    1.000
    C54      C        0.16010    0.08386    0.21151    1.000
    H46      H        0.21480    0.02910    0.20150    1.000
    C55      C        0.14880    0.13169    0.27626    1.000
    H47      H        0.19430    0.10780    0.31240    1.000
    C56      C        0.05910    0.37043    0.31180    1.000
    H48      H        0.04720    0.40240    0.25130    1.000
    C57      C        0.64320    0.28100    0.02980    1.000
    H49      H        0.63990    0.28350    0.96980    1.000
    C58      C        0.06830    0.27060    0.34914    1.000
    C59      C        0.17900    0.10781    0.74315    1.000
    C60      C        0.38110    0.86410    0.10840    1.000
    H50      H        0.31450    0.86180    0.15680    1.000
    C61      C        0.18830    0.24650    0.60127    1.000
    H51      H        0.21500    0.30280    0.56010    1.000
    C62      C        0.06710    0.52931    0.31127    1.000
    C63      C        0.00200    0.24560    0.23920    1.000
    H52      H        0.94830    0.30130    0.24770    1.000
    C64      C        0.21940    0.18920    0.68150    1.000
    H53      H        0.26820    0.20580    0.69400    1.000
    C65      C        0.01080    0.19580    0.17720    1.000
    H54      H        0.96170    0.21620    0.14560    1.000
    C66      C        0.00380    0.58360    0.25520    1.000
    H55      H        0.95340    0.55650    0.25720    1.000
    C67      C        0.07130    0.21437    0.28861    1.000
    C68      C        0.14840    0.66490    0.25120    1.000
    H56      H        0.19750    0.69280    0.25040    1.000
    C69      C        0.61050    0.36620    0.05600    1.000
    H57      H        0.58650    0.42540    0.01400    1.000
    C70      C        0.06700    0.42476    0.36144    1.000
    C71      C        0.56130    0.83620    0.06990    1.000
    C72      C        0.57060    0.87500    0.97170    1.000
    H58      H        0.63600    0.88190    0.92240    1.000
    C73      C        0.46430    0.83390    0.13870    1.000
    H59      H        0.45490    0.81160    0.20670    1.000
    C74      C        0.13690    0.57270    0.31100    1.000
    H60      H        0.17710    0.53830    0.35240    1.000
    C75      C        0.69670    0.68570    0.10440    1.000
    C76      C        0.67980    0.19360    0.17000    1.000
    H61      H        0.70280    0.13320    0.21120    1.000
    C77      C        0.65950    0.51320    0.14040    1.000
    C78      C        0.61280    0.36480    0.14440    1.000
    C79      C        0.65600    0.79510    0.10080    1.000
    H62      H        0.71120    0.83110    0.05160    1.000
    C80      C        0.48310    0.90370    0.94640    1.000
    H63      H        0.49010    0.92920    0.87890    1.000
    O17      O        0.48860    0.51860    0.14910    1.000
    H64      H        0.48340    0.50060    0.10740    1.000
    C81      C        0.57560    0.45530    0.17810    1.000
    H65      H        0.55170    0.43500    0.25140    1.000
    C82      C        0.64840    0.27580    0.20170    1.000
    H66      H        0.65140    0.27110    0.26260    1.000
    B11      B        0.62840    0.60360    0.19450    1.000
    H67      H        0.55310    0.62270    0.25240    1.000
    B12      B        0.63820    0.62990    0.07110    1.000
    H68      H        0.56920    0.66580    0.04760    1.000
    B13      B        0.74600    0.61000    0.19480    1.000
    H69      H        0.74930    0.63340    0.25270    1.000
    B14      B        0.76070    0.65700    0.99440    1.000
    H70      H        0.77250    0.71180    0.92080    1.000
    B15      B        0.73650    0.54150    0.01870    1.000
    H71      H        0.73300    0.51800    0.96100    1.000
    B16      B        0.78790    0.45770    0.11040    1.000
    H72      H        0.81830    0.37910    0.11300    1.000
    B17      B        0.72060    0.49650    0.21870    1.000
    H73      H        0.70590    0.44330    0.29330    1.000
    B18      B        0.82870    0.64310    0.07060    1.000
    H74      H        0.88600    0.68820    0.04670    1.000
    B19      B        0.84410    0.51990    0.14340    1.000
    H75      H        0.91220    0.48210    0.16810    1.000
    B20      B        0.85560    0.55010    0.01700    1.000
    H76      H        0.93090    0.53330    0.95800    1.000
    H77      H        0.51610    0.49800    0.15660    1.000
    O18      O        0.54440    0.43070    0.28010    1.000
    H78      H        0.48250    0.45860    0.30200    1.000
    Co3      Co       0.00000    0.00000    0.00000    1.000
