data_functionalizedCrystal
_audit_creation_method	'EQeq! by Chris Wilmer'
_symmetry_space_group_name_H-M	'P1'
_symmetry_Int_Tables_number	1
_symmetry_cell_setting	triclinic
loop_
_symmetry_equiv_pos_as_xyz
  x,y,z
_cell_length_a	12.0115
_cell_length_b	12.102
_cell_length_c	13.6788
_cell_angle_alpha	98.6833
_cell_angle_beta	116.044
_cell_angle_gamma	69.8879
loop_
_atom_site_label
_atom_site_type_symbol
_atom_site_fract_x
_atom_site_fract_y
_atom_site_fract_z
_atom_site_charge
Mof_Fe	Fe	-0	0	-0	0.589
Mof_Fe	Fe	0.10664	0.25873	-0	0.596
Mof_Fe	Fe	0.89336	0.74127	-0	0.616
Mof_H 	H 	0.9052	0.9201	0.5754	0.045
Mof_H 	H 	0.1345	0.1117	0.6076	0.046
Mof_H 	H 	0.6702	0.0799	0.5754	0.081
Mof_H 	H 	0.4731	0.8883	0.6076	0.083
Mof_H 	H 	0.0948	0.0799	0.4246	0.081
Mof_H 	H 	0.8655	0.8883	0.3924	0.08
Mof_H 	H 	0.3298	0.9201	0.4246	0.047
Mof_H 	H 	0.5269	0.1117	0.3924	0.043
Mof_H 	H 	0.5278	0.3009	-0	0.044
Mof_H 	H 	0.6646	0.5592	-0	0.044
Mof_H 	H 	0.4722	0.6991	-0	0.049
Mof_H 	H 	0.3354	0.4408	-0	0.043
Mof_C 	C 	0.94415	0.9532	0.5449	0.039
Mof_C 	C 	0.02258	0.0193	0.60936	-0.06
Mof_C 	C 	0.07931	0.0662	0.56402	0.016
Mof_C 	C 	0.04409	0.0424	0.72418	0.125
Mof_C 	C 	0.60075	0.0468	0.5449	-0.096
Mof_C 	C 	0.58678	0.9807	0.60936	0.054
Mof_C 	C 	0.48471	0.9338	0.56402	-0.079
Mof_C 	C 	0.68009	0.9576	0.72418	0.126
Mof_C 	C 	0.05585	0.0468	0.4551	-0.118
Mof_C 	C 	0.97742	0.9807	0.39064	0.066
Mof_C 	C 	0.92069	0.9338	0.43598	-0.091
Mof_C 	C 	0.95591	0.9576	0.27582	0.113
Mof_C 	C 	0.39925	0.9532	0.4551	0.023
Mof_C 	C 	0.41322	0.0193	0.39064	-0.048
Mof_C 	C 	0.51529	0.0662	0.43598	0.004
Mof_C 	C 	0.31991	0.0424	0.27582	0.113
Mof_C 	C 	0.5172	0.3823	-0	-0.045
Mof_C 	C 	0.6145	0.4173	-0	-0.008
Mof_C 	C 	0.5979	0.5339	-0	-0.04
Mof_C 	C 	0.7365	0.3306	-0	0.111
Mof_C 	C 	0.4828	0.6177	-0	-0.047
Mof_C 	C 	0.3855	0.5827	-0	-0.005
Mof_C 	C 	0.4021	0.4661	-0	-0.043
Mof_C 	C 	0.2635	0.6694	-0	0.111
Mof_C 	C 	0.96864	0.5	0.93728	0.322
Mof_C 	C 	0.03136	0.5	0.06272	0.145
Mof_N 	N 	0.02139	0.9802	0.78198	-0.059
Mof_N 	N 	0.04248	0.0363	0.87716	-0.077
Mof_N 	N 	0.07694	0.1283	0.87528	-0.073
Mof_N 	N 	0.07874	0.1351	0.77968	-0.082
Mof_N 	N 	0.76059	0.0198	0.78198	-0.084
Mof_N 	N 	0.83468	0.9637	0.87716	-0.056
Mof_N 	N 	0.79834	0.8717	0.87528	-0.071
Mof_N 	N 	0.70094	0.8649	0.77968	-0.078
Mof_N 	N 	0.97861	0.0198	0.21802	-0.092
Mof_N 	N 	0.95752	0.9637	0.12284	-0.09
Mof_N 	N 	0.92306	0.8717	0.12472	-0.105
Mof_N 	N 	0.92126	0.8649	0.22032	-0.088
Mof_N 	N 	0.23941	0.9802	0.21802	-0.068
Mof_N 	N 	0.16532	0.0363	0.12284	-0.112
Mof_N 	N 	0.20166	0.1283	0.12472	-0.109
Mof_N 	N 	0.29906	0.1351	0.22032	-0.093
Mof_N 	N 	0.7665	0.2127	-0	-0.099
Mof_N 	N 	0.8862	0.1737	-0	-0.108
Mof_N 	N 	0.9239	0.2631	-0	-0.097
Mof_N 	N 	0.8315	0.3641	-0	-0.099
Mof_N 	N 	0.2335	0.7873	-0	-0.094
Mof_N 	N 	0.1138	0.8263	-0	-0.105
Mof_N 	N 	0.0761	0.7369	-0	-0.103
Mof_N 	N 	0.1685	0.6359	-0	-0.101
Mof_O 	O 	0.99697	0.40361	0.89032	-0.248
Mof_O 	O 	0.89335	0.59639	0.89032	-0.252
Mof_O 	O 	0.00303	0.59639	0.10968	-0.267
Mof_O 	O 	0.10665	0.40361	0.10968	-0.265
_end
