data_functionalizedCrystal
_audit_creation_method	'EQeq! by Chris Wilmer'
_symmetry_space_group_name_H-M	'P1'
_symmetry_Int_Tables_number	1
_symmetry_cell_setting	triclinic
loop_
_symmetry_equiv_pos_as_xyz
  x,y,z
_cell_length_a	9.2987
_cell_length_b	16.67
_cell_length_c	11.4189
_cell_angle_alpha	90
_cell_angle_beta	108.481
_cell_angle_gamma	90
loop_
_atom_site_label
_atom_site_type_symbol
_atom_site_fract_x
_atom_site_fract_y
_atom_site_fract_z
_atom_site_charge
Mof_Zn	Zn	0.62127	0.09336	0.95985	1.238
Mof_C 	C 	0.9633	0.9054	0.1836	0.065
Mof_H 	H 	0.9777	0.9462	0.133	0.051
Mof_O 	O 	0.2315	0.9085	0.1284	-0.428
Mof_C 	C 	0.8223	0.8971	0.2004	-0.127
Mof_O 	O 	0.7268	0.005	0.0684	-0.446
Mof_O 	O 	0.5721	0.9468	0.1569	-0.46
Mof_C 	C 	0.6966	0.954	0.1369	0.409
Mof_C 	C 	0.9181	0.7833	0.3317	-0.1
Mof_C 	C 	0.2336	0.8645	0.2189	0.361
Mof_O 	O 	0.992	0.6644	0.4475	-0.416
Mof_C 	C 	0.8008	0.8355	0.2745	0.061
Mof_H 	H 	0.7069	0.8291	0.2861	0.044
Mof_C 	C 	0.0575	0.7931	0.3162	0.05
Mof_H 	H 	0.1366	0.7588	0.3562	0.054
Mof_O 	O 	0.7735	0.711	0.4352	-0.349
Mof_C 	C 	0.0818	0.855	0.2399	-0.1
Mof_O 	O 	0.345	0.8284	0.2847	-0.267
Mof_C 	C 	0.8923	0.7145	0.4107	0.352
Mof_Zn	Zn	0.87873	0.59336	0.54015	1.241
Mof_C 	C 	0.5367	0.4054	0.3164	0.067
Mof_H 	H 	0.5223	0.4462	0.367	0.052
Mof_O 	O 	0.2685	0.4085	0.3716	-0.425
Mof_C 	C 	0.6777	0.3971	0.2996	-0.129
Mof_O 	O 	0.7732	0.505	0.4316	-0.457
Mof_O 	O 	0.9279	0.4468	0.3431	-0.46
Mof_C 	C 	0.8034	0.454	0.3631	0.42
Mof_C 	C 	0.5819	0.2833	0.1683	-0.099
Mof_C 	C 	0.2664	0.3645	0.2811	0.361
Mof_O 	O 	0.508	0.1644	0.0525	-0.412
Mof_C 	C 	0.6992	0.3355	0.2255	0.062
Mof_H 	H 	0.7931	0.3291	0.2139	0.045
Mof_C 	C 	0.4425	0.2931	0.1838	0.049
Mof_H 	H 	0.3634	0.2588	0.1438	0.055
Mof_O 	O 	0.7265	0.211	0.0648	-0.346
Mof_C 	C 	0.4182	0.355	0.2601	-0.1
Mof_O 	O 	0.155	0.3284	0.2153	-0.267
Mof_C 	C 	0.6077	0.2145	0.0893	0.351
Mof_Zn	Zn	0.37873	0.90664	0.04015	1.238
Mof_C 	C 	0.0367	0.0946	0.8164	0.065
Mof_H 	H 	0.0223	0.0538	0.867	0.051
Mof_O 	O 	0.7685	0.0915	0.8716	-0.428
Mof_C 	C 	0.1777	0.1029	0.7996	-0.127
Mof_O 	O 	0.2732	0.995	0.9316	-0.446
Mof_O 	O 	0.4279	0.0532	0.8431	-0.46
Mof_C 	C 	0.3034	0.046	0.8631	0.409
Mof_C 	C 	0.0819	0.2167	0.6683	-0.1
Mof_C 	C 	0.7664	0.1355	0.7811	0.361
Mof_O 	O 	0.008	0.3356	0.5525	-0.416
Mof_C 	C 	0.1992	0.1645	0.7255	0.061
Mof_H 	H 	0.2931	0.1709	0.7139	0.044
Mof_C 	C 	0.9425	0.2069	0.6838	0.05
Mof_H 	H 	0.8634	0.2412	0.6438	0.054
Mof_O 	O 	0.2265	0.289	0.5648	-0.349
Mof_C 	C 	0.9182	0.145	0.7601	-0.1
Mof_O 	O 	0.655	0.1716	0.7153	-0.267
Mof_C 	C 	0.1077	0.2855	0.5893	0.352
Mof_Zn	Zn	0.12127	0.40664	0.45985	1.241
Mof_C 	C 	0.4633	0.5946	0.6836	0.067
Mof_H 	H 	0.4777	0.5538	0.633	0.052
Mof_O 	O 	0.7315	0.5915	0.6284	-0.425
Mof_C 	C 	0.3223	0.6029	0.7004	-0.129
Mof_O 	O 	0.2268	0.495	0.5684	-0.457
Mof_O 	O 	0.0721	0.5532	0.6569	-0.46
Mof_C 	C 	0.1966	0.546	0.6369	0.42
Mof_C 	C 	0.4181	0.7167	0.8317	-0.099
Mof_C 	C 	0.7336	0.6355	0.7189	0.361
Mof_O 	O 	0.492	0.8356	0.9475	-0.412
Mof_C 	C 	0.3008	0.6645	0.7745	0.062
Mof_H 	H 	0.2069	0.6709	0.7861	0.045
Mof_C 	C 	0.5575	0.7069	0.8162	0.049
Mof_H 	H 	0.6366	0.7412	0.8562	0.055
Mof_O 	O 	0.2735	0.789	0.9352	-0.346
Mof_C 	C 	0.5818	0.645	0.7399	-0.1
Mof_O 	O 	0.845	0.6716	0.7847	-0.267
Mof_C 	C 	0.3923	0.7855	0.9107	0.351
_end
