# CIF file generated by openbabel 3.1.0, see https://openbabel.org
data_I
_chemical_name_common 'image0'
_cell_length_a 16.9643
_cell_length_b 16.9643
_cell_length_c 7.6067
_cell_angle_alpha 90
_cell_angle_beta 90
_cell_angle_gamma 90
_space_group_name_H-M_alt 'P 1'
_space_group_name_Hall 'P 1'
loop_
    _symmetry_equiv_pos_as_xyz
    x,y,z
loop_
    _atom_site_label
    _atom_site_type_symbol
    _atom_site_fract_x
    _atom_site_fract_y
    _atom_site_fract_z
    _atom_site_occupancy
    O1       O        0.53480    0.38070    0.01690    1.000
    N1       N        0.42300    0.31350    0.07770    1.000
    H1       H        0.39800    0.35560    0.04860    1.000
    C1       C        0.50380    0.31680    0.07200    1.000
    O2       O        0.03480    0.88070    0.51690    1.000
    N2       N        0.92300    0.81350    0.57770    1.000
    H2       H        0.89800    0.85560    0.54860    1.000
    C2       C        0.00380    0.81680    0.57200    1.000
    O3       O        0.46520    0.61930    0.01690    1.000
    N3       N        0.57700    0.68650    0.07770    1.000
    H3       H        0.60200    0.64440    0.04860    1.000
    C3       C        0.49620    0.68320    0.07200    1.000
    O4       O        0.96520    0.11930    0.51690    1.000
    N4       N        0.07700    0.18650    0.57770    1.000
    H4       H        0.10200    0.14440    0.54860    1.000
    C4       C        0.99620    0.18320    0.57200    1.000
    O5       O        0.38070    0.46520    0.98310    1.000
    N5       N        0.31350    0.57700    0.92230    1.000
    H5       H        0.35560    0.60200    0.95140    1.000
    C5       C        0.31680    0.49620    0.92800    1.000
    O6       O        0.88070    0.96520    0.48310    1.000
    N6       N        0.81350    0.07700    0.42230    1.000
    H6       H        0.85560    0.10200    0.45140    1.000
    C6       C        0.81680    0.99620    0.42800    1.000
    O7       O        0.61930    0.53480    0.98310    1.000
    N7       N        0.68650    0.42300    0.92230    1.000
    H7       H        0.64440    0.39800    0.95140    1.000
    C7       C        0.68320    0.50380    0.92800    1.000
    O8       O        0.11930    0.03480    0.48310    1.000
    N8       N        0.18650    0.92300    0.42230    1.000
    H8       H        0.14440    0.89800    0.45140    1.000
    C8       C        0.18320    0.00380    0.42800    1.000
    O9       O        0.96520    0.38070    0.73310    1.000
    N9       N        0.07700    0.31350    0.67230    1.000
    H9       H        0.10200    0.35560    0.70140    1.000
    C9       C        0.99620    0.31680    0.67800    1.000
    O10      O        0.46520    0.88070    0.23310    1.000
    N10      N        0.57700    0.81350    0.17230    1.000
    H10      H        0.60200    0.85560    0.20140    1.000
    C10      C        0.49620    0.81680    0.17800    1.000
    O11      O        0.03480    0.61930    0.73310    1.000
    N11      N        0.92300    0.68650    0.67230    1.000
    H11      H        0.89800    0.64440    0.70140    1.000
    C11      C        0.00380    0.68320    0.67800    1.000
    O12      O        0.53480    0.11930    0.23310    1.000
    N12      N        0.42300    0.18650    0.17230    1.000
    H12      H        0.39800    0.14440    0.20140    1.000
    C12      C        0.50380    0.18320    0.17800    1.000
    O13      O        0.11930    0.46520    0.76690    1.000
    N13      N        0.18650    0.57700    0.82770    1.000
    H13      H        0.14440    0.60200    0.79860    1.000
    C13      C        0.18320    0.49620    0.82200    1.000
    O14      O        0.61930    0.96520    0.26690    1.000
    N14      N        0.68650    0.07700    0.32770    1.000
    H14      H        0.64440    0.10200    0.29860    1.000
    C14      C        0.68320    0.99620    0.32200    1.000
    O15      O        0.88070    0.53480    0.76690    1.000
    N15      N        0.81350    0.42300    0.82770    1.000
    H15      H        0.85560    0.39800    0.79860    1.000
    C15      C        0.81680    0.50380    0.82200    1.000
    O16      O        0.38070    0.03480    0.26690    1.000
    N16      N        0.31350    0.92300    0.32770    1.000
    H16      H        0.35560    0.89800    0.29860    1.000
    C16      C        0.31680    0.00380    0.32200    1.000
    Mg1      Mg       0.50000    0.50000    0.00000    1.000
    Mg2      Mg       0.00000    0.00000    0.50000    1.000
    Mg3      Mg       0.00000    0.50000    0.75000    1.000
    Mg4      Mg       0.50000    0.00000    0.25000    1.000
    S1       S        0.28243    0.25000    0.12500    1.000
    C17      C        0.37840    0.25000    0.12500    1.000
    C18      C        0.54580    0.25000    0.12500    1.000
    H17      H        0.60060    0.25000    0.12500    1.000
    S2       S        0.71757    0.75000    0.12500    1.000
    C19      C        0.62160    0.75000    0.12500    1.000
    C20      C        0.45420    0.75000    0.12500    1.000
    H18      H        0.39940    0.75000    0.12500    1.000
    S3       S        0.21757    0.25000    0.62500    1.000
    C21      C        0.12160    0.25000    0.62500    1.000
    C22      C        0.95420    0.25000    0.62500    1.000
    H19      H        0.89940    0.25000    0.62500    1.000
    S4       S        0.25000    0.71757    0.87500    1.000
    C23      C        0.25000    0.62160    0.87500    1.000
    C24      C        0.25000    0.45420    0.87500    1.000
    H20      H        0.25000    0.39940    0.87500    1.000
    S5       S        0.75000    0.21757    0.37500    1.000
    C25      C        0.75000    0.12160    0.37500    1.000
    C26      C        0.75000    0.95420    0.37500    1.000
    H21      H        0.75000    0.89940    0.37500    1.000
    S6       S        0.75000    0.28243    0.87500    1.000
    C27      C        0.75000    0.37840    0.87500    1.000
    C28      C        0.75000    0.54580    0.87500    1.000
    H22      H        0.75000    0.60060    0.87500    1.000
    S7       S        0.25000    0.78243    0.37500    1.000
    C29      C        0.25000    0.87840    0.37500    1.000
    C30      C        0.25000    0.04580    0.37500    1.000
    H23      H        0.25000    0.10060    0.37500    1.000
    S8       S        0.78243    0.75000    0.62500    1.000
    C31      C        0.87840    0.75000    0.62500    1.000
    C32      C        0.04580    0.75000    0.62500    1.000
    H24      H        0.10060    0.75000    0.62500    1.000
