data_functionalizedCrystal
_audit_creation_method	'EQeq! by Chris Wilmer'
_symmetry_space_group_name_H-M	'P1'
_symmetry_Int_Tables_number	1
_symmetry_cell_setting	triclinic
loop_
_symmetry_equiv_pos_as_xyz
  x,y,z
_cell_length_a	7.2389
_cell_length_b	22.164
_cell_length_c	10.633
_cell_angle_alpha	90
_cell_angle_beta	90.8
_cell_angle_gamma	90
loop_
_atom_site_label
_atom_site_type_symbol
_atom_site_fract_x
_atom_site_fract_y
_atom_site_fract_z
_atom_site_charge
Mof_Ho	Ho	0.26317	0.25037	0.84882	1.595
Mof_Sb	Sb	0.45267	0.99257	0.13905	0.543
Mof_Sb	Sb	0.57508	0.48219	0.59598	0.55
Mof_N 	N 	0.1901	0.051	0.1299	-0.055
Mof_N 	N 	0.2199	0.9227	0.1666	-0.057
Mof_N 	N 	0.8085	0.4119	0.6326	-0.04
Mof_N 	N 	0.8393	0.5413	0.5945	-0.078
Mof_O 	O 	0.3708	0.0119	0.3358	-0.303
Mof_O 	O 	0.2566	0.0839	0.4589	-0.27
Mof_O 	O 	0.5123	0.0888	0.0372	-0.308
Mof_O 	O 	0.382	0.1595	0.9165	-0.508
Mof_O 	O 	0.5732	0.8874	0.1893	-0.322
Mof_O 	O 	0.5027	0.8034	0.2966	-0.502
Mof_O 	O 	0.3615	0.9729	0.954	-0.297
Mof_O 	O 	0.22	0.9078	0.8253	-0.266
Mof_O 	O 	0.4528	0.3776	0.6549	-0.324
Mof_O 	O 	0.5221	0.3012	0.7845	-0.514
Mof_O 	O 	0.68	0.4626	0.4142	-0.302
Mof_O 	O 	0.8248	0.397	0.2919	-0.291
Mof_O 	O 	0.6481	0.5013	0.7946	-0.302
Mof_O 	O 	0.7685	0.5701	0.9241	-0.289
Mof_O 	O 	0.5171	0.5793	0.495	-0.307
Mof_O 	O 	0.6456	0.6555	0.3927	-0.506
Mof_C 	C 	0.1968	0.0916	0.2414	-0.264
Mof_H 	H 	0.2715	0.1277	0.2215	0.107
Mof_H 	H 	0.0701	0.1053	0.2607	0.137
Mof_C 	C 	0.2788	0.0607	0.3548	0.37
Mof_C 	C 	0.1856	0.0881	0.0123	-0.298
Mof_H 	H 	0.0942	0.121	0.021	0.113
Mof_H 	H 	0.1468	0.0626	0.9403	0.143
Mof_C 	C 	0.3719	0.1145	0.9877	0.43
Mof_C 	C 	0.0283	0.009	0.1285	-0.016
Mof_H 	H 	0.005	0.9956	0.0409	0.076
Mof_H 	H 	0.9179	0.0315	0.156	0.03
Mof_C 	C 	0.0501	0.9552	0.2086	-0.032
Mof_H 	H 	0.0635	0.9672	0.298	0.081
Mof_H 	H 	0.9406	0.9287	0.1998	0.03
Mof_C 	C 	0.2687	0.8779	0.2661	-0.284
Mof_H 	H 	0.2613	0.8973	0.3498	0.136
Mof_H 	H 	0.1794	0.8441	0.2634	0.121
Mof_C 	C 	0.4634	0.8537	0.247	0.415
Mof_C 	C 	0.1909	0.8909	0.044	-0.265
Mof_H 	H 	0.2546	0.8514	0.0479	0.111
Mof_H 	H 	0.0572	0.883	0.032	0.135
Mof_C 	C 	0.2595	0.9252	0.9319	0.362
Mof_C 	C 	0.7599	0.3689	0.7334	-0.288
Mof_H 	H 	0.779	0.3886	0.8161	0.128
Mof_H 	H 	0.8435	0.3336	0.7297	0.099
Mof_C 	C 	0.5624	0.3475	0.7226	0.427
Mof_C 	C 	0.8352	0.3791	0.5131	-0.247
Mof_H 	H 	0.7621	0.3414	0.5151	0.1
Mof_H 	H 	0.967	0.3678	0.5068	0.098
Mof_C 	C 	0.7796	0.4148	0.3956	0.352
Mof_C 	C 	0.977	0.4466	0.6712	-0.213
Mof_H 	H 	0.9663	0.4584	0.7606	0.104
Mof_H 	H 	0.0867	0.4202	0.6639	0.13
Mof_C 	C 	0.0049	0.5018	0.5937	0.052
Mof_H 	H 	0.1128	0.5244	0.6269	0.044
Mof_H 	H 	0.0315	0.4898	0.506	0.061
Mof_C 	C 	0.8372	0.5801	0.7089	-0.25
Mof_H 	H 	0.7683	0.6176	0.6897	0.099
Mof_H 	H 	0.9656	0.5914	0.732	0.107
Mof_C 	C 	0.7491	0.5488	0.8192	0.358
Mof_C 	C 	0.8465	0.5804	0.4831	-0.267
Mof_H 	H 	0.8861	0.5565	0.4095	0.117
Mof_H 	H 	0.9381	0.6129	0.4975	0.082
Mof_C 	C 	0.6548	0.6083	0.4557	0.423
Mof_Ho	Ho	0.76317	0.74963	0.34882	1.552
Mof_Sb	Sb	0.95267	0.00743	0.63905	0.502
Mof_Sb	Sb	0.07508	0.5178	0.09598	0.579
Mof_N 	N 	0.6901	0.949	0.6299	-0.053
Mof_N 	N 	0.7199	0.0773	0.6666	-0.06
Mof_N 	N 	0.3085	0.5881	0.1326	-0.05
Mof_N 	N 	0.3393	0.4587	0.0945	-0.054
Mof_O 	O 	0.8708	0.9881	0.8358	-0.315
Mof_O 	O 	0.7566	0.9161	0.9589	-0.286
Mof_O 	O 	0.0123	0.9112	0.5372	-0.257
Mof_O 	O 	0.882	0.8405	0.4165	-0.503
Mof_O 	O 	0.0732	0.1126	0.6893	-0.257
Mof_O 	O 	0.0027	0.1966	0.7966	-0.448
Mof_O 	O 	0.8615	0.0271	0.454	-0.307
Mof_O 	O 	0.72	0.0922	0.3253	-0.284
Mof_O 	O 	0.9528	0.6224	0.1549	-0.369
Mof_O 	O 	0.0221	0.6988	0.2845	-0.498
Mof_O 	O 	0.18	0.5374	0.9142	-0.292
Mof_O 	O 	0.3248	0.603	0.7919	-0.271
Mof_O 	O 	0.1481	0.4987	0.2946	-0.292
Mof_O 	O 	0.2685	0.4299	0.4241	-0.275
Mof_O 	O 	0.0171	0.4207	0.995	-0.295
Mof_O 	O 	0.1456	0.3445	0.8927	-0.5
Mof_C 	C 	0.6968	0.9084	0.7414	-0.261
Mof_H 	H 	0.7715	0.8723	0.7215	0.099
Mof_H 	H 	0.5701	0.8947	0.7607	0.124
Mof_C 	C 	0.7788	0.9393	0.8548	0.363
Mof_C 	C 	0.6856	0.9119	0.5123	-0.28
Mof_H 	H 	0.5942	0.879	0.521	0.099
Mof_H 	H 	0.6468	0.9374	0.4403	0.13
Mof_C 	C 	0.8719	0.8855	0.4877	0.381
Mof_C 	C 	0.5283	0.991	0.6285	-0.077
Mof_H 	H 	0.505	0.0044	0.5409	0.083
Mof_H 	H 	0.4179	0.9685	0.656	0.076
Mof_C 	C 	0.5501	0.0448	0.7086	-0.067
Mof_H 	H 	0.5635	0.0328	0.798	0.08
Mof_H 	H 	0.4406	0.0713	0.6998	0.067
Mof_C 	C 	0.7687	0.1221	0.7661	-0.237
Mof_H 	H 	0.7613	0.1027	0.8498	0.113
Mof_H 	H 	0.6794	0.1559	0.7634	0.095
Mof_C 	C 	0.9634	0.1463	0.747	0.306
Mof_C 	C 	0.6909	0.1091	0.544	-0.257
Mof_H 	H 	0.7546	0.1486	0.5479	0.101
Mof_H 	H 	0.5572	0.117	0.532	0.12
Mof_C 	C 	0.7595	0.0748	0.4319	0.353
Mof_C 	C 	0.2599	0.6311	0.2334	-0.309
Mof_H 	H 	0.279	0.6114	0.3161	0.145
Mof_H 	H 	0.3435	0.6664	0.2297	0.117
Mof_C 	C 	0.0624	0.6525	0.2226	0.476
Mof_C 	C 	0.3352	0.6209	0.0131	-0.248
Mof_H 	H 	0.2621	0.6586	0.0151	0.108
Mof_H 	H 	0.467	0.6322	0.0068	0.111
Mof_C 	C 	0.2796	0.5852	0.8956	0.359
Mof_C 	C 	0.477	0.5534	0.1712	-0.072
Mof_H 	H 	0.4663	0.5416	0.2606	0.078
Mof_H 	H 	0.5867	0.5798	0.1639	0.065
Mof_C 	C 	0.5049	0.4982	0.0937	-0.073
Mof_H 	H 	0.6128	0.4756	0.1269	0.066
Mof_H 	H 	0.5315	0.5102	0.006	0.082
Mof_C 	C 	0.3372	0.4199	0.2089	-0.258
Mof_H 	H 	0.2683	0.3824	0.1897	0.107
Mof_H 	H 	0.4656	0.4086	0.232	0.123
Mof_C 	C 	0.2491	0.4512	0.3192	0.367
Mof_C 	C 	0.3465	0.4196	0.9831	-0.276
Mof_H 	H 	0.3861	0.4435	0.9095	0.131
Mof_H 	H 	0.4381	0.3871	0.9975	0.095
Mof_C 	C 	0.1548	0.3917	0.9557	0.427
_end
