# CIF file generated by openbabel 3.1.0, see https://openbabel.org
data_I
_chemical_name_common 'image0'
_cell_length_a 22.0532
_cell_length_b 16.3828
_cell_length_c 25.6809
_cell_angle_alpha 90
_cell_angle_beta 115.391
_cell_angle_gamma 90
_space_group_name_H-M_alt 'P 1'
_space_group_name_Hall 'P 1'
loop_
    _symmetry_equiv_pos_as_xyz
    x,y,z
loop_
    _atom_site_label
    _atom_site_type_symbol
    _atom_site_fract_x
    _atom_site_fract_y
    _atom_site_fract_z
    _atom_site_occupancy
    Ag1      Ag       0.34389    0.45794    0.36796    1.000
    Ag2      Ag       0.82301    0.25006    0.86755    1.000
    C1       C        0.62426    0.25730    0.50269    1.000
    C2       C        0.00246    0.38280    0.99685    1.000
    H1       H        0.02180    0.38200    0.03690    1.000
    C3       C        0.53329    0.31160    0.41154    1.000
    H2       H        0.55470    0.28980    0.39040    1.000
    C4       C        0.27767    0.63710    0.00952    1.000
    H3       H        0.29850    0.63390    0.04950    1.000
    C5       C        0.73574    0.06670    0.38882    1.000
    H4       H        0.71400    0.06090    0.34900    1.000
    C6       C        0.56003    0.30250    0.47056    1.000
    C7       C        0.09731    0.46910    0.00160    1.000
    C8       C        0.21965    0.65060    0.89287    1.000
    H5       H        0.19930    0.65580    0.85300    1.000
    C9       C        0.71001    0.22650    0.58794    1.000
    C10      C        0.94336    0.34240    0.96570    1.000
    H6       H        0.92320    0.31490    0.98580    1.000
    C11      C        0.52662    0.33590    0.50049    1.000
    H7       H        0.54390    0.33100    0.54030    1.000
    C12      C        0.74322    0.23680    0.65183    1.000
    C13      C        0.17820    0.45720    0.18188    1.000
    H8       H        0.13410    0.43950    0.16200    1.000
    C14      C        0.30610    0.50680    0.24296    1.000
    H9       H        0.35030    0.52370    0.26380    1.000
    C15      C        0.21544    0.60030    0.97815    1.000
    C16      C        0.46710    0.37650    0.46970    1.000
    H10      H        0.44490    0.39910    0.49000    1.000
    C17      C        0.17955    0.50240    0.08870    1.000
    C18      C        0.03272    0.42480    0.96747    1.000
    C19      C        0.82586    0.04070    0.47462    1.000
    H11      H        0.86760    0.01640    0.49500    1.000
    C20      C        0.82700    0.20280    0.74480    1.000
    H12      H        0.86550    0.17360    0.76740    1.000
    C21      C        0.18608    0.60800    0.91861    1.000
    H13      H        0.14440    0.58470    0.89650    1.000
    C22      C        0.79855    0.08420    0.50551    1.000
    H14      H        0.82090    0.08840    0.54540    1.000
    C23      C        0.70600    0.17250    0.50584    1.000
    C24      C        0.18210    0.55090    0.00720    1.000
    C25      C        0.30779    0.67840    0.97975    1.000
    H15      H        0.34930    0.70260    0.00080    1.000
    C26      C        0.47327    0.35450    0.38447    1.000
    H16      H        0.45590    0.36200    0.34480    1.000
    C27      C        0.21077    0.44840    0.24078    1.000
    H17      H        0.18780    0.42450    0.25990    1.000
    C28      C        0.00208    0.42470    0.90778    1.000
    H18      H        0.02080    0.45320    0.88690    1.000
    C29      C        0.27737    0.51830    0.18389    1.000
    H19      H        0.30140    0.54250    0.16580    1.000
    C30      C        0.70463    0.11110    0.41562    1.000
    H20      H        0.66260    0.13390    0.39420    1.000
    C31      C        0.94299    0.38130    0.87979    1.000
    H21      H        0.92310    0.38030    0.83970    1.000
    C32      C        0.21120    0.49250    0.15223    1.000
    C33      C        0.73634    0.12190    0.47507    1.000
    C34      C        0.74520    0.29350    0.73782    1.000
    H22      H        0.72660    0.32860    0.75540    1.000
    C35      C        0.71564    0.28840    0.67849    1.000
    H23      H        0.67780    0.31930    0.65680    1.000
    C36      C        0.80146    0.19460    0.68548    1.000
    H24      H        0.82270    0.16180    0.66880    1.000
    N1       N        0.43924    0.38540    0.41206    1.000
    N2       N        0.79631    0.03108    0.41731    1.000
    N3       N        0.79971    0.25010    0.77150    1.000
    N4       N        0.64818    0.21080    0.47294    1.000
    N5       N        0.73866    0.17717    0.56336    1.000
    N6       N        0.65333    0.26830    0.55991    1.000
    N7       N        0.91294    0.34040    0.90776    1.000
    N8       N        0.28001    0.68530    0.92195    1.000
    N9       N        0.27483    0.47310    0.27201    1.000
    N10      N        0.12603    0.50990    0.97341    1.000
    N11      N        0.21081    0.54910    0.06505    1.000
    N12      N        0.12185    0.46240    0.05918    1.000
    Ag3      Ag       0.84389    0.95794    0.36796    1.000
    Ag4      Ag       0.32301    0.75006    0.86755    1.000
    C37      C        0.12426    0.75730    0.50269    1.000
    C38      C        0.50246    0.88280    0.99685    1.000
    H25      H        0.52180    0.88200    0.03690    1.000
    C39      C        0.03329    0.81160    0.41154    1.000
    H26      H        0.05470    0.78980    0.39040    1.000
    C40      C        0.77767    0.13710    0.00952    1.000
    H27      H        0.79850    0.13390    0.04950    1.000
    C41      C        0.23574    0.56670    0.38882    1.000
    H28      H        0.21400    0.56090    0.34900    1.000
    C42      C        0.06003    0.80250    0.47056    1.000
    C43      C        0.59731    0.96910    0.00160    1.000
    C44      C        0.71965    0.15060    0.89287    1.000
    H29      H        0.69930    0.15580    0.85300    1.000
    C45      C        0.21001    0.72650    0.58794    1.000
    C46      C        0.44336    0.84240    0.96570    1.000
    H30      H        0.42320    0.81490    0.98580    1.000
    C47      C        0.02662    0.83590    0.50049    1.000
    H31      H        0.04390    0.83100    0.54030    1.000
    C48      C        0.24322    0.73680    0.65183    1.000
    C49      C        0.67820    0.95720    0.18188    1.000
    H32      H        0.63410    0.93950    0.16200    1.000
    C50      C        0.80610    0.00680    0.24296    1.000
    H33      H        0.85030    0.02370    0.26380    1.000
    C51      C        0.71544    0.10030    0.97815    1.000
    C52      C        0.96710    0.87650    0.46970    1.000
    H34      H        0.94490    0.89910    0.49000    1.000
    C53      C        0.67955    0.00240    0.08870    1.000
    C54      C        0.53272    0.92480    0.96747    1.000
    C55      C        0.32586    0.54070    0.47462    1.000
    H35      H        0.36760    0.51640    0.49500    1.000
    C56      C        0.32700    0.70280    0.74480    1.000
    H36      H        0.36550    0.67360    0.76740    1.000
    C57      C        0.68608    0.10800    0.91861    1.000
    H37      H        0.64440    0.08470    0.89650    1.000
    C58      C        0.29855    0.58420    0.50551    1.000
    H38      H        0.32090    0.58840    0.54540    1.000
    C59      C        0.20600    0.67250    0.50584    1.000
    C60      C        0.68210    0.05090    0.00720    1.000
    C61      C        0.80779    0.17840    0.97975    1.000
    H39      H        0.84930    0.20260    0.00080    1.000
    C62      C        0.97327    0.85450    0.38447    1.000
    H40      H        0.95590    0.86200    0.34480    1.000
    C63      C        0.71077    0.94840    0.24078    1.000
    H41      H        0.68780    0.92450    0.25990    1.000
    C64      C        0.50208    0.92470    0.90778    1.000
    H42      H        0.52080    0.95320    0.88690    1.000
    C65      C        0.77737    0.01830    0.18389    1.000
    H43      H        0.80140    0.04250    0.16580    1.000
    C66      C        0.20463    0.61110    0.41562    1.000
    H44      H        0.16260    0.63390    0.39420    1.000
    C67      C        0.44299    0.88130    0.87979    1.000
    H45      H        0.42310    0.88030    0.83970    1.000
    C68      C        0.71120    0.99250    0.15223    1.000
    C69      C        0.23634    0.62190    0.47507    1.000
    C70      C        0.24520    0.79350    0.73782    1.000
    H46      H        0.22660    0.82860    0.75540    1.000
    C71      C        0.21564    0.78840    0.67849    1.000
    H47      H        0.17780    0.81930    0.65680    1.000
    C72      C        0.30146    0.69460    0.68548    1.000
    H48      H        0.32270    0.66180    0.66880    1.000
    N13      N        0.93924    0.88540    0.41206    1.000
    N14      N        0.29631    0.53108    0.41731    1.000
    N15      N        0.29971    0.75010    0.77150    1.000
    N16      N        0.14818    0.71080    0.47294    1.000
    N17      N        0.23866    0.67717    0.56336    1.000
    N18      N        0.15333    0.76830    0.55991    1.000
    N19      N        0.41294    0.84040    0.90776    1.000
    N20      N        0.78001    0.18530    0.92195    1.000
    N21      N        0.77483    0.97310    0.27201    1.000
    N22      N        0.62603    0.00990    0.97341    1.000
    N23      N        0.71081    0.04910    0.06505    1.000
    N24      N        0.62185    0.96240    0.05918    1.000
    Ag5      Ag       0.65611    0.45794    0.13204    1.000
    Ag6      Ag       0.17699    0.25006    0.63245    1.000
    C73      C        0.37574    0.25730    0.99731    1.000
    C74      C        0.99754    0.38280    0.50315    1.000
    H49      H        0.97820    0.38200    0.46310    1.000
    C75      C        0.46671    0.31160    0.08846    1.000
    H50      H        0.44530    0.28980    0.10960    1.000
    C76      C        0.72233    0.63710    0.49048    1.000
    H51      H        0.70150    0.63390    0.45050    1.000
    C77      C        0.26426    0.06670    0.11118    1.000
    H52      H        0.28600    0.06090    0.15100    1.000
    C78      C        0.43997    0.30250    0.02944    1.000
    C79      C        0.90269    0.46910    0.49840    1.000
    C80      C        0.78035    0.65060    0.60713    1.000
    H53      H        0.80070    0.65580    0.64700    1.000
    C81      C        0.28999    0.22650    0.91206    1.000
    C82      C        0.05664    0.34240    0.53430    1.000
    H54      H        0.07680    0.31490    0.51420    1.000
    C83      C        0.47338    0.33590    0.99951    1.000
    H55      H        0.45610    0.33100    0.95970    1.000
    C84      C        0.25678    0.23680    0.84817    1.000
    C85      C        0.82180    0.45720    0.31812    1.000
    H56      H        0.86590    0.43950    0.33800    1.000
    C86      C        0.69390    0.50680    0.25704    1.000
    H57      H        0.64970    0.52370    0.23620    1.000
    C87      C        0.78456    0.60030    0.52185    1.000
    C88      C        0.53290    0.37650    0.03030    1.000
    H58      H        0.55510    0.39910    0.01000    1.000
    C89      C        0.82045    0.50240    0.41130    1.000
    C90      C        0.96728    0.42480    0.53253    1.000
    C91      C        0.17414    0.04070    0.02538    1.000
    H59      H        0.13240    0.01640    0.00500    1.000
    C92      C        0.17300    0.20280    0.75520    1.000
    H60      H        0.13450    0.17360    0.73260    1.000
    C93      C        0.81392    0.60800    0.58139    1.000
    H61      H        0.85560    0.58470    0.60350    1.000
    C94      C        0.20145    0.08420    0.99449    1.000
    H62      H        0.17910    0.08840    0.95460    1.000
    C95      C        0.29400    0.17250    0.99416    1.000
    C96      C        0.81790    0.55090    0.49280    1.000
    C97      C        0.69221    0.67840    0.52025    1.000
    H63      H        0.65070    0.70260    0.49920    1.000
    C98      C        0.52673    0.35450    0.11553    1.000
    H64      H        0.54410    0.36200    0.15520    1.000
    C99      C        0.78923    0.44840    0.25922    1.000
    H65      H        0.81220    0.42450    0.24010    1.000
    C100     C        0.99792    0.42470    0.59222    1.000
    H66      H        0.97920    0.45320    0.61310    1.000
    C101     C        0.72263    0.51830    0.31611    1.000
    H67      H        0.69860    0.54250    0.33420    1.000
    C102     C        0.29537    0.11110    0.08438    1.000
    H68      H        0.33740    0.13390    0.10580    1.000
    C103     C        0.05701    0.38130    0.62021    1.000
    H69      H        0.07690    0.38030    0.66030    1.000
    C104     C        0.78880    0.49250    0.34777    1.000
    C105     C        0.26366    0.12190    0.02493    1.000
    C106     C        0.25480    0.29350    0.76218    1.000
    H70      H        0.27340    0.32860    0.74460    1.000
    C107     C        0.28436    0.28840    0.82151    1.000
    H71      H        0.32220    0.31930    0.84320    1.000
    C108     C        0.19854    0.19460    0.81452    1.000
    H72      H        0.17730    0.16180    0.83120    1.000
    N25      N        0.56076    0.38540    0.08794    1.000
    N26      N        0.20369    0.03108    0.08269    1.000
    N27      N        0.20029    0.25010    0.72850    1.000
    N28      N        0.35182    0.21080    0.02706    1.000
    N29      N        0.26134    0.17717    0.93664    1.000
    N30      N        0.34667    0.26830    0.94009    1.000
    N31      N        0.08706    0.34040    0.59224    1.000
    N32      N        0.71999    0.68530    0.57805    1.000
    N33      N        0.72517    0.47310    0.22799    1.000
    N34      N        0.87397    0.50990    0.52659    1.000
    N35      N        0.78919    0.54910    0.43495    1.000
    N36      N        0.87815    0.46240    0.44082    1.000
    Ag7      Ag       0.15611    0.95794    0.13204    1.000
    Ag8      Ag       0.67699    0.75006    0.63245    1.000
    C109     C        0.87574    0.75730    0.99731    1.000
    C110     C        0.49754    0.88280    0.50315    1.000
    H73      H        0.47820    0.88200    0.46310    1.000
    C111     C        0.96671    0.81160    0.08846    1.000
    H74      H        0.94530    0.78980    0.10960    1.000
    C112     C        0.22233    0.13710    0.49048    1.000
    H75      H        0.20150    0.13390    0.45050    1.000
    C113     C        0.76426    0.56670    0.11118    1.000
    H76      H        0.78600    0.56090    0.15100    1.000
    C114     C        0.93997    0.80250    0.02944    1.000
    C115     C        0.40269    0.96910    0.49840    1.000
    C116     C        0.28035    0.15060    0.60713    1.000
    H77      H        0.30070    0.15580    0.64700    1.000
    C117     C        0.78999    0.72650    0.91206    1.000
    C118     C        0.55664    0.84240    0.53430    1.000
    H78      H        0.57680    0.81490    0.51420    1.000
    C119     C        0.97338    0.83590    0.99951    1.000
    H79      H        0.95610    0.83100    0.95970    1.000
    C120     C        0.75678    0.73680    0.84817    1.000
    C121     C        0.32180    0.95720    0.31812    1.000
    H80      H        0.36590    0.93950    0.33800    1.000
    C122     C        0.19390    0.00680    0.25704    1.000
    H81      H        0.14970    0.02370    0.23620    1.000
    C123     C        0.28456    0.10030    0.52185    1.000
    C124     C        0.03290    0.87650    0.03030    1.000
    H82      H        0.05510    0.89910    0.01000    1.000
    C125     C        0.32045    0.00240    0.41130    1.000
    C126     C        0.46728    0.92480    0.53253    1.000
    C127     C        0.67414    0.54070    0.02538    1.000
    H83      H        0.63240    0.51640    0.00500    1.000
    C128     C        0.67300    0.70280    0.75520    1.000
    H84      H        0.63450    0.67360    0.73260    1.000
    C129     C        0.31392    0.10800    0.58139    1.000
    H85      H        0.35560    0.08470    0.60350    1.000
    C130     C        0.70145    0.58420    0.99449    1.000
    H86      H        0.67910    0.58840    0.95460    1.000
    C131     C        0.79400    0.67250    0.99416    1.000
    C132     C        0.31790    0.05090    0.49280    1.000
    C133     C        0.19221    0.17840    0.52025    1.000
    H87      H        0.15070    0.20260    0.49920    1.000
    C134     C        0.02673    0.85450    0.11553    1.000
    H88      H        0.04410    0.86200    0.15520    1.000
    C135     C        0.28923    0.94840    0.25922    1.000
    H89      H        0.31220    0.92450    0.24010    1.000
    C136     C        0.49792    0.92470    0.59222    1.000
    H90      H        0.47920    0.95320    0.61310    1.000
    C137     C        0.22263    0.01830    0.31611    1.000
    H91      H        0.19860    0.04250    0.33420    1.000
    C138     C        0.79537    0.61110    0.08438    1.000
    H92      H        0.83740    0.63390    0.10580    1.000
    C139     C        0.55701    0.88130    0.62021    1.000
    H93      H        0.57690    0.88030    0.66030    1.000
    C140     C        0.28880    0.99250    0.34777    1.000
    C141     C        0.76366    0.62190    0.02493    1.000
    C142     C        0.75480    0.79350    0.76218    1.000
    H94      H        0.77340    0.82860    0.74460    1.000
    C143     C        0.78436    0.78840    0.82151    1.000
    H95      H        0.82220    0.81930    0.84320    1.000
    C144     C        0.69854    0.69460    0.81452    1.000
    H96      H        0.67730    0.66180    0.83120    1.000
    N37      N        0.06076    0.88540    0.08794    1.000
    N38      N        0.70369    0.53108    0.08269    1.000
    N39      N        0.70029    0.75010    0.72850    1.000
    N40      N        0.85182    0.71080    0.02706    1.000
    N41      N        0.76134    0.67717    0.93664    1.000
    N42      N        0.84667    0.76830    0.94009    1.000
    N43      N        0.58706    0.84040    0.59224    1.000
    N44      N        0.21999    0.18530    0.57805    1.000
    N45      N        0.22517    0.97310    0.22799    1.000
    N46      N        0.37397    0.00990    0.52659    1.000
    N47      N        0.28919    0.04910    0.43495    1.000
    N48      N        0.37815    0.96240    0.44082    1.000
    Ag9      Ag       0.65611    0.54206    0.63204    1.000
    Ag10     Ag       0.17699    0.74994    0.13245    1.000
    C145     C        0.37574    0.74270    0.49731    1.000
    C146     C        0.99754    0.61720    0.00315    1.000
    H97      H        0.97820    0.61800    0.96310    1.000
    C147     C        0.46671    0.68840    0.58846    1.000
    H98      H        0.44530    0.71020    0.60960    1.000
    C148     C        0.72233    0.36290    0.99048    1.000
    H99      H        0.70150    0.36610    0.95050    1.000
    C149     C        0.26426    0.93330    0.61118    1.000
    H100     H        0.28600    0.93910    0.65100    1.000
    C150     C        0.43997    0.69750    0.52944    1.000
    C151     C        0.90269    0.53090    0.99840    1.000
    C152     C        0.78035    0.34940    0.10713    1.000
    H101     H        0.80070    0.34420    0.14700    1.000
    C153     C        0.28999    0.77350    0.41206    1.000
    C154     C        0.05664    0.65760    0.03430    1.000
    H102     H        0.07680    0.68510    0.01420    1.000
    C155     C        0.47338    0.66410    0.49951    1.000
    H103     H        0.45610    0.66900    0.45970    1.000
    C156     C        0.25678    0.76320    0.34817    1.000
    C157     C        0.82180    0.54280    0.81812    1.000
    H104     H        0.86590    0.56050    0.83800    1.000
    C158     C        0.69390    0.49320    0.75704    1.000
    H105     H        0.64970    0.47630    0.73620    1.000
    C159     C        0.78456    0.39970    0.02185    1.000
    C160     C        0.53290    0.62350    0.53030    1.000
    H106     H        0.55510    0.60090    0.51000    1.000
    C161     C        0.82045    0.49760    0.91130    1.000
    C162     C        0.96728    0.57520    0.03253    1.000
    C163     C        0.17414    0.95930    0.52538    1.000
    H107     H        0.13240    0.98360    0.50500    1.000
    C164     C        0.17300    0.79720    0.25520    1.000
    H108     H        0.13450    0.82640    0.23260    1.000
    C165     C        0.81392    0.39200    0.08139    1.000
    H109     H        0.85560    0.41530    0.10350    1.000
    C166     C        0.20145    0.91580    0.49449    1.000
    H110     H        0.17910    0.91160    0.45460    1.000
    C167     C        0.29400    0.82750    0.49416    1.000
    C168     C        0.81790    0.44910    0.99280    1.000
    C169     C        0.69221    0.32160    0.02025    1.000
    H111     H        0.65070    0.29740    0.99920    1.000
    C170     C        0.52673    0.64550    0.61553    1.000
    H112     H        0.54410    0.63800    0.65520    1.000
    C171     C        0.78923    0.55160    0.75922    1.000
    H113     H        0.81220    0.57550    0.74010    1.000
    C172     C        0.99792    0.57530    0.09222    1.000
    H114     H        0.97920    0.54680    0.11310    1.000
    C173     C        0.72263    0.48170    0.81611    1.000
    H115     H        0.69860    0.45750    0.83420    1.000
    C174     C        0.29537    0.88890    0.58438    1.000
    H116     H        0.33740    0.86610    0.60580    1.000
    C175     C        0.05701    0.61870    0.12021    1.000
    H117     H        0.07690    0.61970    0.16030    1.000
    C176     C        0.78880    0.50750    0.84777    1.000
    C177     C        0.26366    0.87810    0.52493    1.000
    C178     C        0.25480    0.70650    0.26218    1.000
    H118     H        0.27340    0.67140    0.24460    1.000
    C179     C        0.28436    0.71160    0.32151    1.000
    H119     H        0.32220    0.68070    0.34320    1.000
    C180     C        0.19854    0.80540    0.31452    1.000
    H120     H        0.17730    0.83820    0.33120    1.000
    N49      N        0.56076    0.61460    0.58794    1.000
    N50      N        0.20369    0.96892    0.58269    1.000
    N51      N        0.20029    0.74990    0.22850    1.000
    N52      N        0.35182    0.78920    0.52706    1.000
    N53      N        0.26134    0.82283    0.43664    1.000
    N54      N        0.34667    0.73170    0.44009    1.000
    N55      N        0.08706    0.65960    0.09224    1.000
    N56      N        0.71999    0.31470    0.07805    1.000
    N57      N        0.72517    0.52690    0.72799    1.000
    N58      N        0.87397    0.49010    0.02659    1.000
    N59      N        0.78919    0.45090    0.93495    1.000
    N60      N        0.87815    0.53760    0.94082    1.000
    Ag11     Ag       0.15611    0.04206    0.63204    1.000
    Ag12     Ag       0.67699    0.24994    0.13245    1.000
    C181     C        0.87574    0.24270    0.49731    1.000
    C182     C        0.49754    0.11720    0.00315    1.000
    H121     H        0.47820    0.11800    0.96310    1.000
    C183     C        0.96671    0.18840    0.58846    1.000
    H122     H        0.94530    0.21020    0.60960    1.000
    C184     C        0.22233    0.86290    0.99048    1.000
    H123     H        0.20150    0.86610    0.95050    1.000
    C185     C        0.76426    0.43330    0.61118    1.000
    H124     H        0.78600    0.43910    0.65100    1.000
    C186     C        0.93997    0.19750    0.52944    1.000
    C187     C        0.40269    0.03090    0.99840    1.000
    C188     C        0.28035    0.84940    0.10713    1.000
    H125     H        0.30070    0.84420    0.14700    1.000
    C189     C        0.78999    0.27350    0.41206    1.000
    C190     C        0.55664    0.15760    0.03430    1.000
    H126     H        0.57680    0.18510    0.01420    1.000
    C191     C        0.97338    0.16410    0.49951    1.000
    H127     H        0.95610    0.16900    0.45970    1.000
    C192     C        0.75678    0.26320    0.34817    1.000
    C193     C        0.32180    0.04280    0.81812    1.000
    H128     H        0.36590    0.06050    0.83800    1.000
    C194     C        0.19390    0.99320    0.75704    1.000
    H129     H        0.14970    0.97630    0.73620    1.000
    C195     C        0.28456    0.89970    0.02185    1.000
    C196     C        0.03290    0.12350    0.53030    1.000
    H130     H        0.05510    0.10090    0.51000    1.000
    C197     C        0.32045    0.99760    0.91130    1.000
    C198     C        0.46728    0.07520    0.03253    1.000
    C199     C        0.67414    0.45930    0.52538    1.000
    H131     H        0.63240    0.48360    0.50500    1.000
    C200     C        0.67300    0.29720    0.25520    1.000
    H132     H        0.63450    0.32640    0.23260    1.000
    C201     C        0.31392    0.89200    0.08139    1.000
    H133     H        0.35560    0.91530    0.10350    1.000
    C202     C        0.70145    0.41580    0.49449    1.000
    H134     H        0.67910    0.41160    0.45460    1.000
    C203     C        0.79400    0.32750    0.49416    1.000
    C204     C        0.31790    0.94910    0.99280    1.000
    C205     C        0.19221    0.82160    0.02025    1.000
    H135     H        0.15070    0.79740    0.99920    1.000
    C206     C        0.02673    0.14550    0.61553    1.000
    H136     H        0.04410    0.13800    0.65520    1.000
    C207     C        0.28923    0.05160    0.75922    1.000
    H137     H        0.31220    0.07550    0.74010    1.000
    C208     C        0.49792    0.07530    0.09222    1.000
    H138     H        0.47920    0.04680    0.11310    1.000
    C209     C        0.22263    0.98170    0.81611    1.000
    H139     H        0.19860    0.95750    0.83420    1.000
    C210     C        0.79537    0.38890    0.58438    1.000
    H140     H        0.83740    0.36610    0.60580    1.000
    C211     C        0.55701    0.11870    0.12021    1.000
    H141     H        0.57690    0.11970    0.16030    1.000
    C212     C        0.28880    0.00750    0.84777    1.000
    C213     C        0.76366    0.37810    0.52493    1.000
    C214     C        0.75480    0.20650    0.26218    1.000
    H142     H        0.77340    0.17140    0.24460    1.000
    C215     C        0.78436    0.21160    0.32151    1.000
    H143     H        0.82220    0.18070    0.34320    1.000
    C216     C        0.69854    0.30540    0.31452    1.000
    H144     H        0.67730    0.33820    0.33120    1.000
    N61      N        0.06076    0.11460    0.58794    1.000
    N62      N        0.70369    0.46892    0.58269    1.000
    N63      N        0.70029    0.24990    0.22850    1.000
    N64      N        0.85182    0.28920    0.52706    1.000
    N65      N        0.76134    0.32283    0.43664    1.000
    N66      N        0.84667    0.23170    0.44009    1.000
    N67      N        0.58706    0.15960    0.09224    1.000
    N68      N        0.21999    0.81470    0.07805    1.000
    N69      N        0.22517    0.02690    0.72799    1.000
    N70      N        0.37397    0.99010    0.02659    1.000
    N71      N        0.28919    0.95090    0.93495    1.000
    N72      N        0.37815    0.03760    0.94082    1.000
    Ag13     Ag       0.34389    0.54206    0.86796    1.000
    Ag14     Ag       0.82301    0.74994    0.36755    1.000
    C217     C        0.62426    0.74270    0.00269    1.000
    C218     C        0.00246    0.61720    0.49685    1.000
    H145     H        0.02180    0.61800    0.53690    1.000
    C219     C        0.53329    0.68840    0.91154    1.000
    H146     H        0.55470    0.71020    0.89040    1.000
    C220     C        0.27767    0.36290    0.50952    1.000
    H147     H        0.29850    0.36610    0.54950    1.000
    C221     C        0.73574    0.93330    0.88882    1.000
    H148     H        0.71400    0.93910    0.84900    1.000
    C222     C        0.56003    0.69750    0.97056    1.000
    C223     C        0.09731    0.53090    0.50160    1.000
    C224     C        0.21965    0.34940    0.39287    1.000
    H149     H        0.19930    0.34420    0.35300    1.000
    C225     C        0.71001    0.77350    0.08794    1.000
    C226     C        0.94336    0.65760    0.46570    1.000
    H150     H        0.92320    0.68510    0.48580    1.000
    C227     C        0.52662    0.66410    0.00049    1.000
    H151     H        0.54390    0.66900    0.04030    1.000
    C228     C        0.74322    0.76320    0.15183    1.000
    C229     C        0.17820    0.54280    0.68188    1.000
    H152     H        0.13410    0.56050    0.66200    1.000
    C230     C        0.30610    0.49320    0.74296    1.000
    H153     H        0.35030    0.47630    0.76380    1.000
    C231     C        0.21544    0.39970    0.47815    1.000
    C232     C        0.46710    0.62350    0.96970    1.000
    H154     H        0.44490    0.60090    0.99000    1.000
    C233     C        0.17955    0.49760    0.58870    1.000
    C234     C        0.03272    0.57520    0.46747    1.000
    C235     C        0.82586    0.95930    0.97462    1.000
    H155     H        0.86760    0.98360    0.99500    1.000
    C236     C        0.82700    0.79720    0.24480    1.000
    H156     H        0.86550    0.82640    0.26740    1.000
    C237     C        0.18608    0.39200    0.41861    1.000
    H157     H        0.14440    0.41530    0.39650    1.000
    C238     C        0.79855    0.91580    0.00551    1.000
    H158     H        0.82090    0.91160    0.04540    1.000
    C239     C        0.70600    0.82750    0.00584    1.000
    C240     C        0.18210    0.44910    0.50720    1.000
    C241     C        0.30779    0.32160    0.47975    1.000
    H159     H        0.34930    0.29740    0.50080    1.000
    C242     C        0.47327    0.64550    0.88447    1.000
    H160     H        0.45590    0.63800    0.84480    1.000
    C243     C        0.21077    0.55160    0.74078    1.000
    H161     H        0.18780    0.57550    0.75990    1.000
    C244     C        0.00208    0.57530    0.40778    1.000
    H162     H        0.02080    0.54680    0.38690    1.000
    C245     C        0.27737    0.48170    0.68389    1.000
    H163     H        0.30140    0.45750    0.66580    1.000
    C246     C        0.70463    0.88890    0.91562    1.000
    H164     H        0.66260    0.86610    0.89420    1.000
    C247     C        0.94299    0.61870    0.37979    1.000
    H165     H        0.92310    0.61970    0.33970    1.000
    C248     C        0.21120    0.50750    0.65223    1.000
    C249     C        0.73634    0.87810    0.97507    1.000
    C250     C        0.74520    0.70650    0.23782    1.000
    H166     H        0.72660    0.67140    0.25540    1.000
    C251     C        0.71564    0.71160    0.17849    1.000
    H167     H        0.67780    0.68070    0.15680    1.000
    C252     C        0.80146    0.80540    0.18548    1.000
    H168     H        0.82270    0.83820    0.16880    1.000
    N73      N        0.43924    0.61460    0.91206    1.000
    N74      N        0.79631    0.96892    0.91731    1.000
    N75      N        0.79971    0.74990    0.27150    1.000
    N76      N        0.64818    0.78920    0.97294    1.000
    N77      N        0.73866    0.82283    0.06336    1.000
    N78      N        0.65333    0.73170    0.05991    1.000
    N79      N        0.91294    0.65960    0.40776    1.000
    N80      N        0.28001    0.31470    0.42195    1.000
    N81      N        0.27483    0.52690    0.77201    1.000
    N82      N        0.12603    0.49010    0.47341    1.000
    N83      N        0.21081    0.45090    0.56505    1.000
    N84      N        0.12185    0.53760    0.55918    1.000
    Ag15     Ag       0.84389    0.04206    0.86796    1.000
    Ag16     Ag       0.32301    0.24994    0.36755    1.000
    C253     C        0.12426    0.24270    0.00269    1.000
    C254     C        0.50246    0.11720    0.49685    1.000
    H169     H        0.52180    0.11800    0.53690    1.000
    C255     C        0.03329    0.18840    0.91154    1.000
    H170     H        0.05470    0.21020    0.89040    1.000
    C256     C        0.77767    0.86290    0.50952    1.000
    H171     H        0.79850    0.86610    0.54950    1.000
    C257     C        0.23574    0.43330    0.88882    1.000
    H172     H        0.21400    0.43910    0.84900    1.000
    C258     C        0.06003    0.19750    0.97056    1.000
    C259     C        0.59731    0.03090    0.50160    1.000
    C260     C        0.71965    0.84940    0.39287    1.000
    H173     H        0.69930    0.84420    0.35300    1.000
    C261     C        0.21001    0.27350    0.08794    1.000
    C262     C        0.44336    0.15760    0.46570    1.000
    H174     H        0.42320    0.18510    0.48580    1.000
    C263     C        0.02662    0.16410    0.00049    1.000
    H175     H        0.04390    0.16900    0.04030    1.000
    C264     C        0.24322    0.26320    0.15183    1.000
    C265     C        0.67820    0.04280    0.68188    1.000
    H176     H        0.63410    0.06050    0.66200    1.000
    C266     C        0.80610    0.99320    0.74296    1.000
    H177     H        0.85030    0.97630    0.76380    1.000
    C267     C        0.71544    0.89970    0.47815    1.000
    C268     C        0.96710    0.12350    0.96970    1.000
    H178     H        0.94490    0.10090    0.99000    1.000
    C269     C        0.67955    0.99760    0.58870    1.000
    C270     C        0.53272    0.07520    0.46747    1.000
    C271     C        0.32586    0.45930    0.97462    1.000
    H179     H        0.36760    0.48360    0.99500    1.000
    C272     C        0.32700    0.29720    0.24480    1.000
    H180     H        0.36550    0.32640    0.26740    1.000
    C273     C        0.68608    0.89200    0.41861    1.000
    H181     H        0.64440    0.91530    0.39650    1.000
    C274     C        0.29855    0.41580    0.00551    1.000
    H182     H        0.32090    0.41160    0.04540    1.000
    C275     C        0.20600    0.32750    0.00584    1.000
    C276     C        0.68210    0.94910    0.50720    1.000
    C277     C        0.80779    0.82160    0.47975    1.000
    H183     H        0.84930    0.79740    0.50080    1.000
    C278     C        0.97327    0.14550    0.88447    1.000
    H184     H        0.95590    0.13800    0.84480    1.000
    C279     C        0.71077    0.05160    0.74078    1.000
    H185     H        0.68780    0.07550    0.75990    1.000
    C280     C        0.50208    0.07530    0.40778    1.000
    H186     H        0.52080    0.04680    0.38690    1.000
    C281     C        0.77737    0.98170    0.68389    1.000
    H187     H        0.80140    0.95750    0.66580    1.000
    C282     C        0.20463    0.38890    0.91562    1.000
    H188     H        0.16260    0.36610    0.89420    1.000
    C283     C        0.44299    0.11870    0.37979    1.000
    H189     H        0.42310    0.11970    0.33970    1.000
    C284     C        0.71120    0.00750    0.65223    1.000
    C285     C        0.23634    0.37810    0.97507    1.000
    C286     C        0.24520    0.20650    0.23782    1.000
    H190     H        0.22660    0.17140    0.25540    1.000
    C287     C        0.21564    0.21160    0.17849    1.000
    H191     H        0.17780    0.18070    0.15680    1.000
    C288     C        0.30146    0.30540    0.18548    1.000
    H192     H        0.32270    0.33820    0.16880    1.000
    N85      N        0.93924    0.11460    0.91206    1.000
    N86      N        0.29631    0.46892    0.91731    1.000
    N87      N        0.29971    0.24990    0.27150    1.000
    N88      N        0.14818    0.28920    0.97294    1.000
    N89      N        0.23866    0.32283    0.06336    1.000
    N90      N        0.15333    0.23170    0.05991    1.000
    N91      N        0.41294    0.15960    0.40776    1.000
    N92      N        0.78001    0.81470    0.42195    1.000
    N93      N        0.77483    0.02690    0.77201    1.000
    N94      N        0.62603    0.99010    0.47341    1.000
    N95      N        0.71081    0.95090    0.56505    1.000
    N96      N        0.62185    0.03760    0.55918    1.000
