data_functionalizedCrystal
_audit_creation_method	'EQeq! by Chris Wilmer'
_symmetry_space_group_name_H-M	'P1'
_symmetry_Int_Tables_number	1
_symmetry_cell_setting	triclinic
loop_
_symmetry_equiv_pos_as_xyz
  x,y,z
_cell_length_a	8.5832
_cell_length_b	8.5832
_cell_length_c	52.61
_cell_angle_alpha	90
_cell_angle_beta	90
_cell_angle_gamma	120
loop_
_atom_site_label
_atom_site_type_symbol
_atom_site_fract_x
_atom_site_fract_y
_atom_site_fract_z
_atom_site_charge
Mof_Zn	Zn	0.96943	0.70358	0.00999	1.218
Mof_P 	P 	0.985	0.9456	0.96105	0.506
Mof_P 	P 	0.6318	0.3045	0.00363	0.546
Mof_O 	O 	0.9642	0.8798	0.93314	-0.257
Mof_O 	O 	0.8163	0.9404	0.96952	-0.441
Mof_O 	O 	0.7646	0.4747	0.01719	-0.449
Mof_O 	O 	0.5075	0.1671	0.02531	-0.389
Mof_H 	H 	0.396	0.155	0.0237	0.201
Mof_O 	O 	0.5108	0.3347	0.98548	-0.421
Mof_O 	O 	0.7233	0.2173	0.98964	-0.439
Mof_O 	O 	0.149	0.1362	0.96213	-0.416
Mof_O 	O 	0.018	0.814	0.97651	-0.416
Mof_Zn	Zn	0.29642	0.26585	0.67666	1.235
Mof_P 	P 	0.0544	0.0394	0.62772	0.531
Mof_P 	P 	0.6955	0.3273	0.6703	0.547
Mof_O 	O 	0.1202	0.0844	0.59981	-0.244
Mof_O 	O 	0.0596	0.8759	0.63619	-0.5
Mof_O 	O 	0.5253	0.2899	0.68386	-0.431
Mof_O 	O 	0.8329	0.3404	0.69198	-0.361
Mof_H 	H 	0.845	0.241	0.69037	0.214
Mof_O 	O 	0.6653	0.1761	0.65215	-0.397
Mof_O 	O 	0.7827	0.506	0.65631	-0.401
Mof_O 	O 	0.8638	0.0128	0.6288	-0.371
Mof_O 	O 	0.186	0.204	0.64318	-0.473
Mof_Zn	Zn	0.73415	0.03057	0.34332	1.199
Mof_P 	P 	0.9606	0.015	0.29438	0.475
Mof_P 	P 	0.6727	0.3682	0.33696	0.546
Mof_O 	O 	0.9156	0.0358	0.26647	-0.228
Mof_O 	O 	0.1241	0.1837	0.30285	-0.52
Mof_O 	O 	0.7101	0.2354	0.35052	-0.449
Mof_O 	O 	0.6596	0.4925	0.35864	-0.37
Mof_H 	H 	0.759	0.604	0.35703	0.214
Mof_O 	O 	0.8239	0.4892	0.31881	-0.392
Mof_O 	O 	0.494	0.2767	0.32297	-0.443
Mof_O 	O 	0.9872	0.851	0.29546	-0.32
Mof_O 	O 	0.796	0.982	0.30984	-0.369
Mof_Zn	Zn	0.03057	0.29642	0.50999	1.189
Mof_P 	P 	0.015	0.0544	0.46105	0.37
Mof_P 	P 	0.3682	0.6955	0.50363	0.547
Mof_O 	O 	0.0358	0.1202	0.43314	-0.269
Mof_O 	O 	0.1837	0.0596	0.46952	-0.467
Mof_O 	O 	0.2354	0.5253	0.51719	-0.47
Mof_O 	O 	0.4925	0.8329	0.52531	-0.374
Mof_H 	H 	0.604	0.845	0.5237	0.209
Mof_O 	O 	0.4892	0.6653	0.48548	-0.418
Mof_O 	O 	0.2767	0.7827	0.48964	-0.429
Mof_O 	O 	0.851	0.8638	0.46213	-0.318
Mof_O 	O 	0.982	0.186	0.47651	-0.364
Mof_Zn	Zn	0.70358	0.73415	0.17666	1.24
Mof_P 	P 	0.9456	0.9606	0.12772	0.629
Mof_P 	P 	0.3045	0.6727	0.1703	0.547
Mof_O 	O 	0.8798	0.9156	0.09981	-0.201
Mof_O 	O 	0.9404	0.1241	0.13619	-0.525
Mof_O 	O 	0.4747	0.7101	0.18386	-0.421
Mof_O 	O 	0.1671	0.6596	0.19198	-0.377
Mof_H 	H 	0.155	0.759	0.19037	0.209
Mof_O 	O 	0.3347	0.8239	0.15215	-0.384
Mof_O 	O 	0.2173	0.494	0.15631	-0.428
Mof_O 	O 	0.1362	0.9872	0.1288	-0.396
Mof_O 	O 	0.814	0.796	0.14318	-0.466
Mof_Zn	Zn	0.26585	0.96943	0.84332	1.222
Mof_P 	P 	0.0394	0.985	0.79438	0.509
Mof_P 	P 	0.3273	0.6318	0.83696	0.547
Mof_O 	O 	0.0844	0.9642	0.76647	-0.262
Mof_O 	O 	0.8759	0.8163	0.80285	-0.471
Mof_O 	O 	0.2899	0.7646	0.85052	-0.439
Mof_O 	O 	0.3404	0.5075	0.85864	-0.371
Mof_H 	H 	0.241	0.396	0.85703	0.209
Mof_O 	O 	0.1761	0.5108	0.81881	-0.411
Mof_O 	O 	0.506	0.7233	0.82297	-0.43
Mof_O 	O 	0.0128	0.149	0.79546	-0.393
Mof_O 	O 	0.204	0.018	0.80984	-0.427
Mof_Zn	Zn	0.70358	0.96943	0.65668	1.217
Mof_P 	P 	0.9456	0.985	0.70562	0.505
Mof_P 	P 	0.3045	0.6318	0.66304	0.546
Mof_O 	O 	0.8798	0.9642	0.73353	-0.258
Mof_O 	O 	0.9404	0.8163	0.69715	-0.442
Mof_O 	O 	0.4747	0.7646	0.64948	-0.45
Mof_O 	O 	0.1671	0.5075	0.64136	-0.39
Mof_H 	H 	0.155	0.396	0.64297	0.2
Mof_O 	O 	0.3347	0.5108	0.68119	-0.423
Mof_O 	O 	0.2173	0.7233	0.67703	-0.44
Mof_O 	O 	0.1362	0.149	0.70454	-0.416
Mof_O 	O 	0.814	0.018	0.69016	-0.416
Mof_Zn	Zn	0.26585	0.29642	0.99001	1.235
Mof_P 	P 	0.0394	0.0544	0.03895	0.531
Mof_P 	P 	0.3273	0.6955	0.99637	0.548
Mof_O 	O 	0.0844	0.1202	0.06686	-0.244
Mof_O 	O 	0.8759	0.0596	0.03048	-0.5
Mof_O 	O 	0.2899	0.5253	0.98281	-0.431
Mof_O 	O 	0.3404	0.8329	0.97469	-0.361
Mof_H 	H 	0.241	0.845	0.9763	0.214
Mof_O 	O 	0.1761	0.6653	0.01452	-0.397
Mof_O 	O 	0.506	0.7827	0.01036	-0.401
Mof_O 	O 	0.0128	0.8638	0.03787	-0.371
Mof_O 	O 	0.204	0.186	0.02349	-0.473
Mof_Zn	Zn	0.03057	0.73415	0.32334	1.199
Mof_P 	P 	0.015	0.9606	0.37228	0.475
Mof_P 	P 	0.3682	0.6727	0.3297	0.546
Mof_O 	O 	0.0358	0.9156	0.40019	-0.228
Mof_O 	O 	0.1837	0.1241	0.36381	-0.52
Mof_O 	O 	0.2354	0.7101	0.31614	-0.449
Mof_O 	O 	0.4925	0.6596	0.30802	-0.37
Mof_H 	H 	0.604	0.759	0.30963	0.214
Mof_O 	O 	0.4892	0.8239	0.34785	-0.392
Mof_O 	O 	0.2767	0.494	0.34369	-0.443
Mof_O 	O 	0.851	0.9872	0.3712	-0.32
Mof_O 	O 	0.982	0.796	0.35682	-0.369
Mof_Zn	Zn	0.29642	0.03057	0.15668	1.189
Mof_P 	P 	0.0544	0.015	0.20562	0.37
Mof_P 	P 	0.6955	0.3682	0.16304	0.547
Mof_O 	O 	0.1202	0.0358	0.23353	-0.269
Mof_O 	O 	0.0596	0.1837	0.19715	-0.467
Mof_O 	O 	0.5253	0.2354	0.14948	-0.47
Mof_O 	O 	0.8329	0.4925	0.14136	-0.374
Mof_H 	H 	0.845	0.604	0.14297	0.209
Mof_O 	O 	0.6653	0.4892	0.18119	-0.418
Mof_O 	O 	0.7827	0.2767	0.17703	-0.429
Mof_O 	O 	0.8638	0.851	0.20454	-0.318
Mof_O 	O 	0.186	0.982	0.19016	-0.364
Mof_Zn	Zn	0.73415	0.70358	0.49001	1.24
Mof_P 	P 	0.9606	0.9456	0.53895	0.629
Mof_P 	P 	0.6727	0.3045	0.49637	0.547
Mof_O 	O 	0.9156	0.8798	0.56686	-0.201
Mof_O 	O 	0.1241	0.9404	0.53048	-0.525
Mof_O 	O 	0.7101	0.4747	0.48281	-0.421
Mof_O 	O 	0.6596	0.1671	0.47469	-0.377
Mof_H 	H 	0.759	0.155	0.4763	0.209
Mof_O 	O 	0.8239	0.3347	0.51452	-0.384
Mof_O 	O 	0.494	0.2173	0.51036	-0.428
Mof_O 	O 	0.9872	0.1362	0.53787	-0.396
Mof_O 	O 	0.796	0.814	0.52349	-0.466
Mof_Zn	Zn	0.96943	0.26585	0.82334	1.222
Mof_P 	P 	0.985	0.0394	0.87228	0.509
Mof_P 	P 	0.6318	0.3273	0.8297	0.547
Mof_O 	O 	0.9642	0.0844	0.90019	-0.262
Mof_O 	O 	0.8163	0.8759	0.86381	-0.471
Mof_O 	O 	0.7646	0.2899	0.81614	-0.439
Mof_O 	O 	0.5075	0.3404	0.80802	-0.371
Mof_H 	H 	0.396	0.241	0.80963	0.209
Mof_O 	O 	0.5108	0.1761	0.84785	-0.411
Mof_O 	O 	0.7233	0.506	0.84369	-0.43
Mof_O 	O 	0.149	0.0128	0.8712	-0.393
Mof_O 	O 	0.018	0.204	0.85682	-0.427
Mof_Zn	Zn	0.72969	0	-0	1.215
Mof_Zn	Zn	4.14899e-17	0.72969	0.66667	1.215
Mof_Zn	Zn	0.27031	0.27031	0.33333	1.222
Mof_Zn	Zn	0.27031	0	0.5	1.22
Mof_Zn	Zn	-6.56431e-18	0.27031	0.16667	1.22
Mof_Zn	Zn	0.72969	0.72969	0.83333	1.229
Mof_H 	H 	0.969	0.9845	0.91667	0.202
Mof_H 	H 	0.0155	0.9845	0.58333	0.142
Mof_H 	H 	0.0155	0.031	0.25	0.149
Mof_H 	H 	0.031	0.0155	0.41667	0.149
Mof_H 	H 	0.9845	0.0155	0.08333	0.142
Mof_H 	H 	0.9845	0.969	0.75	0.202
_end
