data_functionalizedCrystal
_audit_creation_method	'EQeq! by Chris Wilmer'
_symmetry_space_group_name_H-M	'P1'
_symmetry_Int_Tables_number	1
_symmetry_cell_setting	triclinic
loop_
_symmetry_equiv_pos_as_xyz
  x,y,z
_cell_length_a	12.484
_cell_length_b	14.275
_cell_length_c	22.272
_cell_angle_alpha	92.713
_cell_angle_beta	90
_cell_angle_gamma	90
loop_
_atom_site_label
_atom_site_type_symbol
_atom_site_fract_x
_atom_site_fract_y
_atom_site_fract_z
_atom_site_charge
Mof_Co	Co	0.72792	0.18964	0.22835	1.14
Mof_Co	Co	0.5504	0.00026	0.24875	1.19
Mof_Co	Co	0.87783	0.19152	0.72632	1.142
Mof_Co	Co	0.22792	0.81036	0.77165	1.141
Mof_Co	Co	0.0504	0.99974	0.75125	1.198
Mof_Co	Co	0.37783	0.80848	0.27368	1.148
Mof_H 	H 	0.9326	0.3125	0.9056	-0.029
Mof_H 	H 	0.9989	0.4015	0.9858	0.257
Mof_H 	H 	0.2658	0.2474	0.9746	0.193
Mof_H 	H 	0.1947	0.1605	0.8937	-0.054
Mof_H 	H 	0.1835	0.2257	0.0892	0.232
Mof_H 	H 	0.2868	0.1378	0.1411	-0.089
Mof_H 	H 	0.5128	0.3312	0.1351	-0.06
Mof_H 	H 	0.4161	0.4195	0.0753	0.269
Mof_H 	H 	0.6727	0.3145	0.4026	0.034
Mof_H 	H 	0.598	0.4019	0.4831	0.239
Mof_H 	H 	0.3329	0.2382	0.475	0.15
Mof_H 	H 	0.4139	0.1454	0.3996	-0.002
Mof_H 	H 	0.4345	0.2207	0.5863	0.166
Mof_H 	H 	0.3152	0.1321	0.6458	-0.006
Mof_H 	H 	0.0983	0.3408	0.6447	0.001
Mof_H 	H 	0.2166	0.4275	0.5883	0.223
Mof_H 	H 	0.877	0.2701	0.3275	0.009
Mof_H 	H 	0.051	0.2937	0.3479	0.191
Mof_H 	H 	0.1323	0.113	0.2212	0.132
Mof_H 	H 	0.9498	0.0902	0.1968	-0.028
Mof_H 	H 	0.2635	0.1723	0.2705	0.151
Mof_H 	H 	0.241	0.2071	0.3378	0.153
Mof_H 	H 	0.2543	0.3395	0.2339	0.062
Mof_H 	H 	0.1938	0.3766	0.2926	0.074
Mof_H 	H 	0.4132	0.3167	0.2897	0.131
Mof_H 	H 	0.3528	0.3452	0.3504	0.15
Mof_H 	H 	0.2905	0.5033	0.3679	0.221
Mof_H 	H 	0.2812	0.6611	0.3499	-0.004
Mof_H 	H 	0.4555	0.623	0.2114	-0.028
Mof_H 	H 	0.4259	0.4645	0.2108	0.16
Mof_H 	H 	0.6443	0.3747	0.2874	-0.053
Mof_H 	H 	0.6476	0.5323	0.2769	0.195
Mof_H 	H 	0.875	0.49	0.1531	0.271
Mof_H 	H 	0.8528	0.3325	0.1621	-0.039
Mof_H 	H 	0.7259	0.6407	0.1601	0.287
Mof_H 	H 	0.6973	0.6634	0.228	0.265
Mof_H 	H 	0.8759	0.6718	0.2513	-0.139
Mof_H 	H 	0.9058	0.6461	0.185	-0.14
Mof_H 	H 	0.8303	0.809	0.2262	0.281
Mof_H 	H 	0.8659	0.7824	0.1602	0.282
Mof_H 	H 	0.9856	0.8898	0.2924	0.112
Mof_H 	H 	0.1608	0.8926	0.313	-0.026
Mof_H 	H 	0.2378	0.7306	0.1776	0.007
Mof_H 	H 	0.0639	0.7177	0.1454	0.187
Mof_H 	H 	0.4326	0.6875	0.0944	-0.001
Mof_H 	H 	0.4989	0.5985	0.0142	0.281
Mof_H 	H 	0.7658	0.7526	0.0254	0.189
Mof_H 	H 	0.6947	0.8395	0.1063	-0.049
Mof_H 	H 	0.6835	0.7743	0.9108	0.215
Mof_H 	H 	0.7868	0.8622	0.8589	-0.073
Mof_H 	H 	0.0128	0.6688	0.8649	-0.01
Mof_H 	H 	0.9161	0.5805	0.9247	0.242
Mof_H 	H 	0.1727	0.6855	0.5974	0.053
Mof_H 	H 	0.098	0.5981	0.5169	0.22
Mof_H 	H 	0.8329	0.7618	0.525	0.133
Mof_H 	H 	0.9139	0.8546	0.6004	0.016
Mof_H 	H 	0.9345	0.7793	0.4137	0.161
Mof_H 	H 	0.8152	0.8679	0.3542	-0.006
Mof_H 	H 	0.5983	0.6592	0.3553	-0.004
Mof_H 	H 	0.7166	0.5725	0.4117	0.222
Mof_H 	H 	0.377	0.7299	0.6725	-0.014
Mof_H 	H 	0.551	0.7063	0.6521	0.22
Mof_H 	H 	0.6323	0.887	0.7788	0.157
Mof_H 	H 	0.4498	0.9098	0.8032	-0.044
Mof_H 	H 	0.7635	0.8277	0.7295	0.164
Mof_H 	H 	0.741	0.7929	0.6622	0.166
Mof_H 	H 	0.7543	0.6605	0.7661	0.056
Mof_H 	H 	0.6938	0.6234	0.7074	0.067
Mof_H 	H 	0.9132	0.6833	0.7103	0.127
Mof_H 	H 	0.8528	0.6548	0.6496	0.149
Mof_H 	H 	0.7905	0.4967	0.6321	0.219
Mof_H 	H 	0.7812	0.3389	0.6501	-0.006
Mof_H 	H 	0.9555	0.377	0.7886	-0.034
Mof_H 	H 	0.9259	0.5355	0.7892	0.156
Mof_H 	H 	0.1443	0.6253	0.7126	-0.057
Mof_H 	H 	0.1476	0.4677	0.7231	0.209
Mof_H 	H 	0.375	0.51	0.8469	0.288
Mof_H 	H 	0.3528	0.6675	0.8379	-0.041
Mof_H 	H 	0.2259	0.3593	0.8399	0.319
Mof_H 	H 	0.1973	0.3366	0.772	0.297
Mof_H 	H 	0.3759	0.3282	0.7487	-0.183
Mof_H 	H 	0.4058	0.3539	0.815	-0.182
Mof_H 	H 	0.3303	0.191	0.7738	0.331
Mof_H 	H 	0.3659	0.2176	0.8398	0.333
Mof_H 	H 	0.4856	0.1102	0.7076	0.177
Mof_H 	H 	0.6608	0.1074	0.687	-0.057
Mof_H 	H 	0.7378	0.2694	0.8224	-0.01
Mof_H 	H 	0.5639	0.2823	0.8546	0.212
Mof_C 	C 	0.0061	0.1716	0.8381	0.52
Mof_C 	C 	0.0529	0.2258	0.8916	-0.318
Mof_C 	C 	0.0006	0.2983	0.9197	0.319
Mof_C 	C 	0.04	0.3535	0.9679	-0.359
Mof_C 	C 	0.1421	0.335	0.9884	0.448
Mof_C 	C 	0.1978	0.2618	0.9607	-0.395
Mof_C 	C 	0.1543	0.2084	0.9122	0.265
Mof_C 	C 	0.2005	0.3938	0.0386	-0.608
Mof_C 	C 	0.277	0.3368	0.0744	0.48
Mof_C 	C 	0.252	0.2484	0.0977	-0.48
Mof_C 	C 	0.3117	0.1954	0.129	0.388
Mof_C 	C 	0.4147	0.2265	0.1443	-0.372
Mof_C 	C 	0.445	0.3098	0.124	0.357
Mof_C 	C 	0.3871	0.3647	0.0895	-0.416
Mof_C 	C 	0.4888	0.1714	0.1815	0.508
Mof_C 	C 	0.246	0.4755	0.007	0.984
Mof_C 	C 	0.1166	0.4323	0.086	1.04
Mof_C 	C 	0.5919	0.1661	0.3372	0.393
Mof_C 	C 	0.5478	0.2254	0.3919	-0.174
Mof_C 	C 	0.6056	0.2992	0.4175	0.161
Mof_C 	C 	0.561	0.3505	0.4663	-0.259
Mof_C 	C 	0.4622	0.3264	0.4905	0.323
Mof_C 	C 	0.402	0.2513	0.4622	-0.266
Mof_C 	C 	0.4484	0.1987	0.4155	0.142
Mof_C 	C 	0.414	0.3892	0.5434	-0.448
Mof_C 	C 	0.3302	0.3298	0.5803	0.346
Mof_C 	C 	0.3671	0.2434	0.5974	-0.269
Mof_C 	C 	0.2944	0.1908	0.6335	0.148
Mof_C 	C 	0.195	0.2254	0.6504	-0.186
Mof_C 	C 	0.1644	0.3158	0.6332	0.168
Mof_C 	C 	0.235	0.3672	0.5987	-0.28
Mof_C 	C 	0.1178	0.1661	0.6883	0.395
Mof_C 	C 	0.501	0.4263	0.5897	0.996
Mof_C 	C 	0.352	0.4707	0.5115	1.015
Mof_C 	C 	0.9281	0.2391	0.3035	0.152
Mof_C 	C 	0.0326	0.2519	0.3163	-0.275
Mof_C 	C 	0.1112	0.2076	0.2858	0.31
Mof_C 	C 	0.0806	0.1476	0.2426	-0.255
Mof_C 	C 	0.969	0.1336	0.2274	0.131
Mof_C 	C 	0.2233	0.2166	0.2961	-0.363
Mof_C 	C 	0.2491	0.3344	0.277	0.025
Mof_C 	C 	0.356	0.3544	0.3076	-0.293
Mof_C 	C 	0.3681	0.4673	0.2929	0.272
Mof_C 	C 	0.3209	0.5257	0.3333	-0.274
Mof_C 	C 	0.318	0.622	0.3224	0.202
Mof_C 	C 	0.412	0.5993	0.2411	0.205
Mof_C 	C 	0.405	0.5033	0.2434	-0.292
Mof_C 	C 	0.6886	0.3983	0.2582	0.281
Mof_C 	C 	0.692	0.4931	0.2535	-0.423
Mof_C 	C 	0.762	0.5289	0.2141	0.484
Mof_C 	C 	0.8248	0.4678	0.1798	-0.408
Mof_C 	C 	0.812	0.3737	0.1861	0.279
Mof_C 	C 	0.7501	0.6344	0.2011	-0.773
Mof_C 	C 	0.8557	0.6822	0.2101	0.719
Mof_C 	C 	0.8785	0.7696	0.202	-0.827
Mof_C 	C 	0.998	0.797	0.2187	0.299
Mof_C 	C 	0.033	0.855	0.2684	-0.229
Mof_C 	C 	0.1387	0.8571	0.2791	0.158
Mof_C 	C 	0.1854	0.7627	0.1999	0.179
Mof_C 	C 	0.081	0.7519	0.1807	-0.242
Mof_C 	C 	0.5061	0.8284	0.1619	0.481
Mof_C 	C 	0.5529	0.7742	0.1084	-0.295
Mof_C 	C 	0.5006	0.7017	0.0803	0.275
Mof_C 	C 	0.54	0.6465	0.0321	-0.379
Mof_C 	C 	0.6421	0.665	0.0116	0.447
Mof_C 	C 	0.6978	0.7382	0.0393	-0.386
Mof_C 	C 	0.6543	0.7916	0.0878	0.25
Mof_C 	C 	0.7005	0.6062	0.9614	-0.598
Mof_C 	C 	0.777	0.6632	0.9256	0.447
Mof_C 	C 	0.752	0.7516	0.9023	-0.437
Mof_C 	C 	0.8117	0.8046	0.871	0.335
Mof_C 	C 	0.9147	0.7735	0.8557	-0.315
Mof_C 	C 	0.945	0.6902	0.876	0.257
Mof_C 	C 	0.8871	0.6353	0.9105	-0.355
Mof_C 	C 	0.9888	0.8286	0.8185	0.458
Mof_C 	C 	0.746	0.5245	0.993	0.983
Mof_C 	C 	0.6166	0.5677	0.914	1.038
Mof_C 	C 	0.0919	0.8339	0.6628	0.377
Mof_C 	C 	0.0478	0.7746	0.6081	-0.115
Mof_C 	C 	0.1056	0.7008	0.5825	0.111
Mof_C 	C 	0.061	0.6495	0.5337	-0.191
Mof_C 	C 	0.9622	0.6736	0.5095	0.273
Mof_C 	C 	0.902	0.7487	0.5378	-0.22
Mof_C 	C 	0.9484	0.8013	0.5845	0.074
Mof_C 	C 	0.914	0.6108	0.4566	-0.454
Mof_C 	C 	0.8302	0.6702	0.4197	0.346
Mof_C 	C 	0.8671	0.7566	0.4026	-0.27
Mof_C 	C 	0.7944	0.8092	0.3665	0.147
Mof_C 	C 	0.695	0.7746	0.3496	-0.188
Mof_C 	C 	0.6644	0.6842	0.3668	0.169
Mof_C 	C 	0.735	0.6328	0.4013	-0.283
Mof_C 	C 	0.6178	0.8339	0.3117	0.398
Mof_C 	C 	0.001	0.5737	0.4103	1.026
Mof_C 	C 	0.852	0.5293	0.4885	1.016
Mof_C 	C 	0.4281	0.7609	0.6965	0.23
Mof_C 	C 	0.5326	0.7481	0.6837	-0.377
Mof_C 	C 	0.6112	0.7924	0.7142	0.387
Mof_C 	C 	0.5806	0.8524	0.7574	-0.342
Mof_C 	C 	0.469	0.8664	0.7726	0.196
Mof_C 	C 	0.7233	0.7834	0.7039	-0.414
Mof_C 	C 	0.7491	0.6656	0.723	0.04
Mof_C 	C 	0.856	0.6456	0.6924	-0.297
Mof_C 	C 	0.8681	0.5327	0.7071	0.269
Mof_C 	C 	0.8209	0.4743	0.6667	-0.276
Mof_C 	C 	0.818	0.378	0.6776	0.199
Mof_C 	C 	0.912	0.4007	0.7589	0.202
Mof_C 	C 	0.905	0.4967	0.7566	-0.294
Mof_C 	C 	0.1886	0.6017	0.7418	0.3
Mof_C 	C 	0.192	0.5069	0.7465	-0.454
Mof_C 	C 	0.262	0.4711	0.7859	0.532
Mof_C 	C 	0.3248	0.5322	0.8202	-0.439
Mof_C 	C 	0.312	0.6263	0.8139	0.298
Mof_C 	C 	0.2501	0.3656	0.7989	-0.878
Mof_C 	C 	0.3557	0.3178	0.7899	0.881
Mof_C 	C 	0.3785	0.2304	0.798	-0.997
Mof_C 	C 	0.498	0.203	0.7813	0.428
Mof_C 	C 	0.533	0.145	0.7316	-0.38
Mof_C 	C 	0.6387	0.1429	0.7209	0.233
Mof_C 	C 	0.6854	0.2373	0.8001	0.224
Mof_C 	C 	0.581	0.2481	0.8193	-0.333
Mof_N 	N 	0.8953	0.1819	0.2565	-0.254
Mof_N 	N 	0.3624	0.6603	0.2773	-0.275
Mof_N 	N 	0.7438	0.338	0.224	-0.302
Mof_N 	N 	0.2171	0.8134	0.2462	-0.268
Mof_N 	N 	0.3953	0.8181	0.7435	-0.276
Mof_N 	N 	0.8624	0.3397	0.7227	-0.277
Mof_N 	N 	0.2438	0.662	0.776	-0.309
Mof_N 	N 	0.7171	0.1866	0.7538	-0.292
Mof_O 	O 	0.0532	0.0988	0.8215	-0.457
Mof_O 	O 	0.9229	0.2008	0.8161	-0.476
Mof_O 	O 	0.571	0.2114	0.2003	-0.484
Mof_O 	O 	0.4653	0.0901	0.1921	-0.44
Mof_O 	O 	0.5357	0.0989	0.3181	-0.43
Mof_O 	O 	0.6781	0.2001	0.3172	-0.422
Mof_O 	O 	0.0349	0.2123	0.7035	-0.451
Mof_O 	O 	0.1433	0.085	0.6976	-0.421
Mof_O 	O 	0.7146	0.037	0.2237	-0.398
Mof_O 	O 	0.8895	0.0402	0.7243	-0.408
Mof_O 	O 	0.5532	0.9012	0.1785	-0.452
Mof_O 	O 	0.4229	0.7992	0.1839	-0.45
Mof_O 	O 	0.071	0.7886	0.7997	-0.457
Mof_O 	O 	0.9653	0.9099	0.8079	-0.437
Mof_O 	O 	0.0357	0.9011	0.6819	-0.416
Mof_O 	O 	0.1781	0.7999	0.6828	-0.417
Mof_O 	O 	0.5349	0.7877	0.2965	-0.462
Mof_O 	O 	0.6433	0.915	0.3024	-0.423
Mof_O 	O 	0.2146	0.963	0.7763	-0.396
Mof_O 	O 	0.3895	0.9598	0.2757	-0.395
Mof_F 	F 	0.2949	0.5416	0.0456	-0.465
Mof_F 	F 	0.1873	0.5177	0.9711	-0.523
Mof_F 	F 	0.3374	0.4428	0.9732	-0.458
Mof_F 	F 	0.051	0.3711	0.1023	-0.56
Mof_F 	F 	0.1622	0.4708	0.1339	-0.506
Mof_F 	F 	0.0561	0.5054	0.0657	-0.442
Mof_F 	F 	0.5585	0.4927	0.5685	-0.478
Mof_F 	F 	0.4503	0.4623	0.6395	-0.476
Mof_F 	F 	0.5653	0.357	0.6038	-0.53
Mof_F 	F 	0.3299	0.5369	0.5554	-0.48
Mof_F 	F 	0.2732	0.4465	0.4827	-0.575
Mof_F 	F 	0.4275	0.516	0.478	-0.47
Mof_F 	F 	0.7949	0.4584	0.9544	-0.466
Mof_F 	F 	0.6873	0.4823	0.0289	-0.528
Mof_F 	F 	0.8374	0.5572	0.0268	-0.461
Mof_F 	F 	0.551	0.6289	0.8977	-0.566
Mof_F 	F 	0.6622	0.5292	0.8661	-0.508
Mof_F 	F 	0.5561	0.4946	0.9343	-0.451
Mof_F 	F 	0.0585	0.5073	0.4315	-0.475
Mof_F 	F 	0.9503	0.5377	0.3605	-0.494
Mof_F 	F 	0.0653	0.643	0.3962	-0.527
Mof_F 	F 	0.8299	0.4631	0.4446	-0.484
Mof_F 	F 	0.7732	0.5535	0.5173	-0.577
Mof_F 	F 	0.9275	0.484	0.522	-0.478
_end
