data_functionalizedCrystal
_audit_creation_method	'EQeq! by Chris Wilmer'
_symmetry_space_group_name_H-M	'P1'
_symmetry_Int_Tables_number	1
_symmetry_cell_setting	triclinic
loop_
_symmetry_equiv_pos_as_xyz
  x,y,z
_cell_length_a	10.949
_cell_length_b	13.371
_cell_length_c	14.453
_cell_angle_alpha	64.427
_cell_angle_beta	71.905
_cell_angle_gamma	74.327
loop_
_atom_site_label
_atom_site_type_symbol
_atom_site_fract_x
_atom_site_fract_y
_atom_site_fract_z
_atom_site_charge
Mof_La	La	0.22356	0.82017	0.76843	2.349
Mof_La	La	0.77644	0.17983	0.23157	2.349
Mof_Cu	Cu	0.68128	0.60255	0.93726	0.915
Mof_Cu	Cu	0.19037	0.12325	0.43856	0.92
Mof_Cu	Cu	0.31872	0.39745	0.06274	0.915
Mof_Cu	Cu	0.80963	0.87675	0.56144	0.92
Mof_H 	H 	0.3949	0.6434	0.0608	0.165
Mof_H 	H 	0.4062	0.7583	0.0602	0.191
Mof_H 	H 	0.6141	0.8129	0.9963	0.134
Mof_H 	H 	0.6209	0.747	0.1149	0.148
Mof_H 	H 	0.6371	0.5614	0.1897	0.16
Mof_H 	H 	0.4914	0.5581	0.1995	0.164
Mof_H 	H 	0.9131	0.449	0.91	0.025
Mof_H 	H 	0.0293	0.3573	0.7992	0.105
Mof_H 	H 	0.7788	0.5329	0.6115	0.079
Mof_H 	H 	0.6722	0.6237	0.7245	0.013
Mof_H 	H 	0.1565	0.9092	0.4169	0.146
Mof_H 	H 	0.3026	0.8514	0.4068	0.154
Mof_H 	H 	0.4608	0.9386	0.3848	0.165
Mof_H 	H 	0.463	0.0276	0.27	0.165
Mof_H 	H 	0.2775	0.1319	0.2127	0.152
Mof_H 	H 	0.2418	0.0161	0.2349	0.185
Mof_H 	H 	0.9495	0.2918	0.45	0.016
Mof_H 	H 	0.848	0.4082	0.5411	0.079
Mof_H 	H 	0.1463	0.3006	0.6824	0.087
Mof_H 	H 	0.2392	0.186	0.5899	0.003
Mof_H 	H 	0.6051	0.3566	0.9392	0.166
Mof_H 	H 	0.5938	0.2417	0.9398	0.192
Mof_H 	H 	0.3859	0.1871	0.0037	0.134
Mof_H 	H 	0.3791	0.253	0.8851	0.148
Mof_H 	H 	0.3629	0.4386	0.8103	0.16
Mof_H 	H 	0.5086	0.4419	0.8005	0.164
Mof_H 	H 	0.0869	0.551	0.09	0.025
Mof_H 	H 	0.9707	0.6427	0.2008	0.105
Mof_H 	H 	0.2212	0.4671	0.3885	0.079
Mof_H 	H 	0.3278	0.3763	0.2755	0.013
Mof_H 	H 	0.8435	0.0908	0.5831	0.146
Mof_H 	H 	0.6974	0.1486	0.5932	0.154
Mof_H 	H 	0.5392	0.0614	0.6152	0.165
Mof_H 	H 	0.537	0.9724	0.73	0.165
Mof_H 	H 	0.7225	0.8681	0.7873	0.152
Mof_H 	H 	0.7582	0.9839	0.7651	0.185
Mof_H 	H 	0.0505	0.7082	0.55	0.016
Mof_H 	H 	0.152	0.5918	0.4589	0.079
Mof_H 	H 	0.8537	0.6994	0.3176	0.087
Mof_H 	H 	0.7608	0.814	0.4101	0.003
Mof_C 	C 	0.4481	0.7023	0.0296	-0.415
Mof_C 	C 	0.4582	0.7559	0.9116	0.47
Mof_C 	C 	0.6439	0.7408	0.0469	-0.337
Mof_C 	C 	0.7907	0.7125	0.0144	0.36
Mof_C 	C 	0.578	0.5563	0.1545	-0.396
Mof_C 	C 	0.6182	0.4468	0.1392	0.454
Mof_C 	C 	0.8864	0.4661	0.849	0.087
Mof_C 	C 	0.9555	0.4097	0.7834	-0.12
Mof_C 	C 	0.9143	0.4313	0.6936	0.067
Mof_C 	C 	0.8076	0.5141	0.672	-0.126
Mof_C 	C 	0.744	0.5686	0.7401	0.064
Mof_C 	C 	0.2398	0.9087	0.4278	-0.347
Mof_C 	C 	0.2276	0.8807	0.5436	0.405
Mof_C 	C 	0.4238	0.0137	0.3437	-0.413
Mof_C 	C 	0.4573	0.0971	0.3725	0.505
Mof_C 	C 	0.2304	0.0716	0.2646	-0.41
Mof_C 	C 	0.0863	0.1174	0.2927	0.479
Mof_C 	C 	0.9886	0.2926	0.4983	0.075
Mof_C 	C 	0.9267	0.3624	0.5534	-0.119
Mof_C 	C 	0.9824	0.3637	0.6269	0.07
Mof_C 	C 	0.1031	0.2986	0.6372	-0.124
Mof_C 	C 	0.1592	0.2307	0.5806	0.096
Mof_C 	C 	0.5519	0.2977	0.9704	-0.415
Mof_C 	C 	0.5418	0.2441	0.0884	0.47
Mof_C 	C 	0.3561	0.2592	0.9531	-0.337
Mof_C 	C 	0.2093	0.2875	0.9856	0.36
Mof_C 	C 	0.422	0.4437	0.8455	-0.396
Mof_C 	C 	0.3818	0.5532	0.8608	0.454
Mof_C 	C 	0.1136	0.5339	0.151	0.087
Mof_C 	C 	0.0445	0.5903	0.2166	-0.12
Mof_C 	C 	0.0857	0.5687	0.3064	0.067
Mof_C 	C 	0.1924	0.4859	0.328	-0.126
Mof_C 	C 	0.256	0.4314	0.2599	0.064
Mof_C 	C 	0.7602	0.0913	0.5722	-0.347
Mof_C 	C 	0.7724	0.1193	0.4564	0.405
Mof_C 	C 	0.5762	0.9863	0.6563	-0.413
Mof_C 	C 	0.5427	0.9029	0.6275	0.505
Mof_C 	C 	0.7696	0.9284	0.7354	-0.41
Mof_C 	C 	0.9137	0.8826	0.7073	0.479
Mof_C 	C 	0.0114	0.7074	0.5017	0.075
Mof_C 	C 	0.0733	0.6376	0.4466	-0.119
Mof_C 	C 	0.0176	0.6363	0.3731	0.07
Mof_C 	C 	0.8969	0.7014	0.3628	-0.124
Mof_C 	C 	0.8408	0.7693	0.4194	0.096
Mof_N 	N 	0.5779	0.6545	0.0535	-0.057
Mof_N 	N 	0.782	0.5449	0.8276	-0.225
Mof_N 	N 	0.2815	0.0194	0.362	-0.053
Mof_N 	N 	0.1024	0.2268	0.5124	-0.221
Mof_N 	N 	0.4221	0.3455	0.9465	-0.057
Mof_N 	N 	0.218	0.4551	0.1724	-0.225
Mof_N 	N 	0.7185	0.9806	0.638	-0.053
Mof_N 	N 	0.8976	0.7732	0.4876	-0.221
Mof_O 	O 	0.3617	0.8186	0.8791	-0.485
Mof_O 	O 	0.5664	0.731	0.8532	-0.439
Mof_O 	O 	0.8573	0.7526	0.0417	-0.232
Mof_O 	O 	0.8357	0.6535	0.9587	-0.343
Mof_O 	O 	0.615	0.3586	0.22	-0.473
Mof_O 	O 	0.6559	0.4493	0.0467	-0.451
Mof_O 	O 	0.2475	0.7801	0.6038	-0.43
Mof_O 	O 	0.196	0.9608	0.5745	-0.494
Mof_O 	O 	0.5736	0.1052	0.3534	-0.498
Mof_O 	O 	0.3651	0.1525	0.4183	-0.429
Mof_O 	O 	0.015	0.1238	0.2377	-0.461
Mof_O 	O 	0.0496	0.1473	0.3703	-0.441
Mof_O 	O 	0.1518	0.0105	0.7838	-0.286
Mof_O 	O 	0.1018	0.781	0.9569	-0.276
Mof_O 	O 	0.1046	0.6431	0.8387	-0.272
Mof_O 	O 	0.6383	0.1814	0.1209	-0.485
Mof_O 	O 	0.4336	0.269	0.1468	-0.439
Mof_O 	O 	0.1427	0.2474	0.9583	-0.232
Mof_O 	O 	0.1643	0.3465	0.0413	-0.343
Mof_O 	O 	0.385	0.6414	0.78	-0.473
Mof_O 	O 	0.3441	0.5507	0.9533	-0.451
Mof_O 	O 	0.7525	0.2199	0.3962	-0.43
Mof_O 	O 	0.804	0.0392	0.4255	-0.494
Mof_O 	O 	0.4264	0.8948	0.6466	-0.498
Mof_O 	O 	0.6349	0.8475	0.5817	-0.429
Mof_O 	O 	0.985	0.8762	0.7623	-0.461
Mof_O 	O 	0.9504	0.8527	0.6297	-0.441
Mof_O 	O 	0.8482	0.9895	0.2162	-0.286
Mof_O 	O 	0.8982	0.219	0.0431	-0.276
Mof_O 	O 	0.8954	0.3569	0.1613	-0.272
Mof_N 	N 	0.848	0.1535	0.8186	0.044
Mof_O 	O 	0.8949	0.1217	0.8973	-0.075
Mof_O 	O 	0.7591	0.2386	0.799	-0.134
Mof_O 	O 	0.9011	0.1115	0.7494	-0.115
Mof_N 	N 	0.152	0.8465	0.1814	0.044
Mof_O 	O 	0.1051	0.8783	0.1027	-0.075
Mof_O 	O 	0.2409	0.7614	0.201	-0.134
Mof_O 	O 	0.0989	0.8885	0.2506	-0.115
_end
