# CIF file generated by openbabel 3.1.0, see https://openbabel.org
data_I
_chemical_name_common 'image0'
_cell_length_a 14.6111
_cell_length_b 15.9358
_cell_length_c 32.313
_cell_angle_alpha 90
_cell_angle_beta 90
_cell_angle_gamma 90
_space_group_name_H-M_alt 'P 1'
_space_group_name_Hall 'P 1'
loop_
    _symmetry_equiv_pos_as_xyz
    x,y,z
loop_
    _atom_site_label
    _atom_site_type_symbol
    _atom_site_fract_x
    _atom_site_fract_y
    _atom_site_fract_z
    _atom_site_occupancy
    C1       C        0.94180    0.23630    0.93410    1.000
    N1       N        0.05960    0.45170    0.87364    1.000
    C2       C        0.87030    0.23880    0.96740    1.000
    C3       C        0.13390    0.49420    0.86500    1.000
    H1       H        0.18870    0.46390    0.85980    1.000
    C4       C        0.87310    0.30610    0.99411    1.000
    H2       H        0.91860    0.34800    0.99030    1.000
    C5       C        0.98820    0.49690    0.88260    1.000
    H3       H        0.93360    0.46900    0.89070    1.000
    C6       C        0.81130    0.31450    0.02642    1.000
    H4       H        0.81520    0.36200    0.04410    1.000
    C7       C        0.74450    0.25550    0.03330    1.000
    C8       C        0.66420    0.12560    0.00975    1.000
    H5       H        0.62030    0.13220    0.03120    1.000
    C9       C        0.65670    0.05950    0.98313    1.000
    H6       H        0.60900    0.01970    0.98660    1.000
    C10      C        0.71960    0.05030    0.95053    1.000
    H7       H        0.71390    0.00420    0.93210    1.000
    C11      C        0.78850    0.10680    0.94514    1.000
    H8       H        0.82980    0.09990    0.92270    1.000
    C12      C        0.80010    0.17610    0.97249    1.000
    C13      C        0.73650    0.18490    0.00590    1.000
    C14      C        0.68380    0.26620    0.07019    1.000
    C15      C        0.92540    0.22790    0.82316    1.000
    C16      C        0.85110    0.22780    0.79117    1.000
    C17      C        0.85090    0.29380    0.76353    1.000
    H9       H        0.89360    0.33830    0.76670    1.000
    C18      C        0.78830    0.29550    0.73101    1.000
    H10      H        0.78860    0.34160    0.71230    1.000
    C19      C        0.72660    0.23210    0.72555    1.000
    C20      C        0.65200    0.10360    0.75293    1.000
    H11      H        0.60890    0.10450    0.73090    1.000
    C21      C        0.64650    0.04250    0.78245    1.000
    H12      H        0.59980    0.00120    0.78080    1.000
    C22      C        0.70950    0.04010    0.81520    1.000
    H13      H        0.70520    0.99710    0.83550    1.000
    C23      C        0.77640    0.09900    0.81822    1.000
    H14      H        0.81840    0.09700    0.84060    1.000
    C24      C        0.78390    0.16350    0.78801    1.000
    C25      C        0.72100    0.16570    0.75480    1.000
    C26      C        0.66700    0.23580    0.68756    1.000
    C27      C        0.11660    0.97110    0.90010    1.000
    H15      H        0.14740    0.99990    0.92180    1.000
    C28      C        0.12420    0.88430    0.89760    1.000
    H16      H        0.16240    0.85510    0.91650    1.000
    C29      C        0.07820    0.84160    0.86880    1.000
    C30      C        0.03110    0.88500    0.84130    1.000
    H17      H        0.99940    0.85680    0.81980    1.000
    C31      C        0.02790    0.97160    0.84390    1.000
    H18      H        0.99510    0.00180    0.82340    1.000
    N2       N        0.06850    0.01380    0.87370    1.000
    O1       O        0.96220    0.16650    0.91815    1.000
    O2       O        0.97920    0.30450    0.92510    1.000
    O3       O        0.65490    0.33862    0.07757    1.000
    O4       O        0.66800    0.20200    0.09180    1.000
    O5       O        0.94210    0.29700    0.84049    1.000
    O6       O        0.96720    0.16010    0.83030    1.000
    O7       O        0.65830    0.16950    0.66698    1.000
    O8       O        0.63070    0.30570    0.67898    1.000
    Zn1      Zn       0.06180    0.14106    0.87641    1.000
    Zn2      Zn       0.05626    0.32493    0.87364    1.000
    N3       N        0.10580    0.75430    0.87470    1.000
    N4       N        0.03740    0.71370    0.86740    1.000
    C32      C        0.06200    0.62510    0.87000    1.000
    C33      C        0.13680    0.58120    0.86320    1.000
    H19      H        0.19270    0.60900    0.85710    1.000
    C34      C        0.98800    0.58310    0.88100    1.000
    H20      H        0.93370    0.61280    0.88780    1.000
    N5       N        0.05290    0.75410    0.86170    1.000
    N6       N        0.09790    0.71060    0.87090    1.000
    C35      C        0.44180    0.26370    0.06590    1.000
    N7       N        0.55960    0.04830    0.12636    1.000
    C36      C        0.37030    0.26120    0.03260    1.000
    C37      C        0.63390    0.00580    0.13500    1.000
    H21      H        0.68870    0.03610    0.14020    1.000
    C38      C        0.37310    0.19390    0.00589    1.000
    H22      H        0.41860    0.15200    0.00970    1.000
    C39      C        0.48820    0.00310    0.11740    1.000
    H23      H        0.43360    0.03100    0.10930    1.000
    C40      C        0.31130    0.18550    0.97358    1.000
    H24      H        0.31520    0.13800    0.95590    1.000
    C41      C        0.24450    0.24450    0.96670    1.000
    C42      C        0.16420    0.37440    0.99025    1.000
    H25      H        0.12030    0.36780    0.96880    1.000
    C43      C        0.15670    0.44050    0.01687    1.000
    H26      H        0.10900    0.48030    0.01340    1.000
    C44      C        0.21960    0.44970    0.04947    1.000
    H27      H        0.21390    0.49580    0.06790    1.000
    C45      C        0.28850    0.39320    0.05486    1.000
    H28      H        0.32980    0.40010    0.07730    1.000
    C46      C        0.30010    0.32390    0.02751    1.000
    C47      C        0.23650    0.31510    0.99410    1.000
    C48      C        0.18380    0.23380    0.92981    1.000
    C49      C        0.42540    0.27210    0.17684    1.000
    C50      C        0.35110    0.27220    0.20883    1.000
    C51      C        0.35090    0.20620    0.23647    1.000
    H29      H        0.39360    0.16170    0.23330    1.000
    C52      C        0.28830    0.20450    0.26899    1.000
    H30      H        0.28860    0.15840    0.28770    1.000
    C53      C        0.22660    0.26790    0.27445    1.000
    C54      C        0.15200    0.39640    0.24707    1.000
    H31      H        0.10890    0.39550    0.26910    1.000
    C55      C        0.14650    0.45750    0.21755    1.000
    H32      H        0.09980    0.49880    0.21920    1.000
    C56      C        0.20950    0.45990    0.18480    1.000
    H33      H        0.20520    0.50290    0.16450    1.000
    C57      C        0.27640    0.40100    0.18178    1.000
    H34      H        0.31840    0.40300    0.15940    1.000
    C58      C        0.28390    0.33650    0.21199    1.000
    C59      C        0.22100    0.33430    0.24520    1.000
    C60      C        0.16700    0.26420    0.31244    1.000
    C61      C        0.61660    0.52890    0.09990    1.000
    H35      H        0.64740    0.50010    0.07820    1.000
    C62      C        0.62420    0.61570    0.10240    1.000
    H36      H        0.66240    0.64490    0.08350    1.000
    C63      C        0.57820    0.65840    0.13120    1.000
    C64      C        0.53110    0.61500    0.15870    1.000
    H37      H        0.49940    0.64320    0.18020    1.000
    C65      C        0.52790    0.52840    0.15610    1.000
    H38      H        0.49510    0.49820    0.17660    1.000
    N8       N        0.56850    0.48620    0.12630    1.000
    O9       O        0.46220    0.33350    0.08185    1.000
    O10      O        0.47920    0.19550    0.07490    1.000
    O11      O        0.15490    0.16138    0.92243    1.000
    O12      O        0.16800    0.29800    0.90820    1.000
    O13      O        0.44210    0.20300    0.15951    1.000
    O14      O        0.46720    0.33990    0.16970    1.000
    O15      O        0.15830    0.33050    0.33302    1.000
    O16      O        0.13070    0.19430    0.32102    1.000
    Zn3      Zn       0.56180    0.35894    0.12359    1.000
    Zn4      Zn       0.55626    0.17507    0.12636    1.000
    N9       N        0.60580    0.74570    0.12530    1.000
    N10      N        0.53740    0.78630    0.13260    1.000
    C66      C        0.56200    0.87490    0.13000    1.000
    C67      C        0.63680    0.91880    0.13680    1.000
    H39      H        0.69270    0.89100    0.14290    1.000
    C68      C        0.48800    0.91690    0.11900    1.000
    H40      H        0.43370    0.88720    0.11220    1.000
    N11      N        0.55290    0.74590    0.13830    1.000
    N12      N        0.59790    0.78940    0.12910    1.000
    C69      C        0.44180    0.23630    0.56590    1.000
    N13      N        0.55960    0.45170    0.62636    1.000
    C70      C        0.37030    0.23880    0.53260    1.000
    C71      C        0.63390    0.49420    0.63500    1.000
    H41      H        0.68870    0.46390    0.64020    1.000
    C72      C        0.37310    0.30610    0.50589    1.000
    H42      H        0.41860    0.34800    0.50970    1.000
    C73      C        0.48820    0.49690    0.61740    1.000
    H43      H        0.43360    0.46900    0.60930    1.000
    C74      C        0.31130    0.31450    0.47358    1.000
    H44      H        0.31520    0.36200    0.45590    1.000
    C75      C        0.24450    0.25550    0.46670    1.000
    C76      C        0.16420    0.12560    0.49025    1.000
    H45      H        0.12030    0.13220    0.46880    1.000
    C77      C        0.15670    0.05950    0.51687    1.000
    H46      H        0.10900    0.01970    0.51340    1.000
    C78      C        0.21960    0.05030    0.54947    1.000
    H47      H        0.21390    0.00420    0.56790    1.000
    C79      C        0.28850    0.10680    0.55486    1.000
    H48      H        0.32980    0.09990    0.57730    1.000
    C80      C        0.30010    0.17610    0.52751    1.000
    C81      C        0.23650    0.18490    0.49410    1.000
    C82      C        0.18380    0.26620    0.42981    1.000
    C83      C        0.42540    0.22790    0.67684    1.000
    C84      C        0.35110    0.22780    0.70883    1.000
    C85      C        0.35090    0.29380    0.73647    1.000
    H49      H        0.39360    0.33830    0.73330    1.000
    C86      C        0.28830    0.29550    0.76899    1.000
    H50      H        0.28860    0.34160    0.78770    1.000
    C87      C        0.22660    0.23210    0.77445    1.000
    C88      C        0.15200    0.10360    0.74707    1.000
    H51      H        0.10890    0.10450    0.76910    1.000
    C89      C        0.14650    0.04250    0.71755    1.000
    H52      H        0.09980    0.00120    0.71920    1.000
    C90      C        0.20950    0.04010    0.68480    1.000
    H53      H        0.20520    0.99710    0.66450    1.000
    C91      C        0.27640    0.09900    0.68178    1.000
    H54      H        0.31840    0.09700    0.65940    1.000
    C92      C        0.28390    0.16350    0.71199    1.000
    C93      C        0.22100    0.16570    0.74520    1.000
    C94      C        0.16700    0.23580    0.81244    1.000
    C95      C        0.61660    0.97110    0.59990    1.000
    H55      H        0.64740    0.99990    0.57820    1.000
    C96      C        0.62420    0.88430    0.60240    1.000
    H56      H        0.66240    0.85510    0.58350    1.000
    C97      C        0.57820    0.84160    0.63120    1.000
    C98      C        0.53110    0.88500    0.65870    1.000
    H57      H        0.49940    0.85680    0.68020    1.000
    C99      C        0.52790    0.97160    0.65610    1.000
    H58      H        0.49510    0.00180    0.67660    1.000
    N14      N        0.56850    0.01380    0.62630    1.000
    O17      O        0.46220    0.16650    0.58185    1.000
    O18      O        0.47920    0.30450    0.57490    1.000
    O19      O        0.15490    0.33862    0.42243    1.000
    O20      O        0.16800    0.20200    0.40820    1.000
    O21      O        0.44210    0.29700    0.65951    1.000
    O22      O        0.46720    0.16010    0.66970    1.000
    O23      O        0.15830    0.16950    0.83302    1.000
    O24      O        0.13070    0.30570    0.82102    1.000
    Zn5      Zn       0.56180    0.14106    0.62359    1.000
    Zn6      Zn       0.55626    0.32493    0.62636    1.000
    N15      N        0.60580    0.75430    0.62530    1.000
    N16      N        0.53740    0.71370    0.63260    1.000
    C100     C        0.56200    0.62510    0.63000    1.000
    C101     C        0.63680    0.58120    0.63680    1.000
    H59      H        0.69270    0.60900    0.64290    1.000
    C102     C        0.48800    0.58310    0.61900    1.000
    H60      H        0.43370    0.61280    0.61220    1.000
    N17      N        0.55290    0.75410    0.63830    1.000
    N18      N        0.59790    0.71060    0.62910    1.000
    C103     C        0.94180    0.26370    0.43410    1.000
    N19      N        0.05960    0.04830    0.37364    1.000
    C104     C        0.87030    0.26120    0.46740    1.000
    C105     C        0.13390    0.00580    0.36500    1.000
    H61      H        0.18870    0.03610    0.35980    1.000
    C106     C        0.87310    0.19390    0.49411    1.000
    H62      H        0.91860    0.15200    0.49030    1.000
    C107     C        0.98820    0.00310    0.38260    1.000
    H63      H        0.93360    0.03100    0.39070    1.000
    C108     C        0.81130    0.18550    0.52642    1.000
    H64      H        0.81520    0.13800    0.54410    1.000
    C109     C        0.74450    0.24450    0.53330    1.000
    C110     C        0.66420    0.37440    0.50975    1.000
    H65      H        0.62030    0.36780    0.53120    1.000
    C111     C        0.65670    0.44050    0.48313    1.000
    H66      H        0.60900    0.48030    0.48660    1.000
    C112     C        0.71960    0.44970    0.45053    1.000
    H67      H        0.71390    0.49580    0.43210    1.000
    C113     C        0.78850    0.39320    0.44514    1.000
    H68      H        0.82980    0.40010    0.42270    1.000
    C114     C        0.80010    0.32390    0.47249    1.000
    C115     C        0.73650    0.31510    0.50590    1.000
    C116     C        0.68380    0.23380    0.57019    1.000
    C117     C        0.92540    0.27210    0.32316    1.000
    C118     C        0.85110    0.27220    0.29117    1.000
    C119     C        0.85090    0.20620    0.26353    1.000
    H69      H        0.89360    0.16170    0.26670    1.000
    C120     C        0.78830    0.20450    0.23101    1.000
    H70      H        0.78860    0.15840    0.21230    1.000
    C121     C        0.72660    0.26790    0.22555    1.000
    C122     C        0.65200    0.39640    0.25293    1.000
    H71      H        0.60890    0.39550    0.23090    1.000
    C123     C        0.64650    0.45750    0.28245    1.000
    H72      H        0.59980    0.49880    0.28080    1.000
    C124     C        0.70950    0.45990    0.31520    1.000
    H73      H        0.70520    0.50290    0.33550    1.000
    C125     C        0.77640    0.40100    0.31822    1.000
    H74      H        0.81840    0.40300    0.34060    1.000
    C126     C        0.78390    0.33650    0.28801    1.000
    C127     C        0.72100    0.33430    0.25480    1.000
    C128     C        0.66700    0.26420    0.18756    1.000
    C129     C        0.11660    0.52890    0.40010    1.000
    H75      H        0.14740    0.50010    0.42180    1.000
    C130     C        0.12420    0.61570    0.39760    1.000
    H76      H        0.16240    0.64490    0.41650    1.000
    C131     C        0.07820    0.65840    0.36880    1.000
    C132     C        0.03110    0.61500    0.34130    1.000
    H77      H        0.99940    0.64320    0.31980    1.000
    C133     C        0.02790    0.52840    0.34390    1.000
    H78      H        0.99510    0.49820    0.32340    1.000
    N20      N        0.06850    0.48620    0.37370    1.000
    O25      O        0.96220    0.33350    0.41815    1.000
    O26      O        0.97920    0.19550    0.42510    1.000
    O27      O        0.65490    0.16138    0.57757    1.000
    O28      O        0.66800    0.29800    0.59180    1.000
    O29      O        0.94210    0.20300    0.34049    1.000
    O30      O        0.96720    0.33990    0.33030    1.000
    O31      O        0.65830    0.33050    0.16698    1.000
    O32      O        0.63070    0.19430    0.17898    1.000
    Zn7      Zn       0.06180    0.35894    0.37641    1.000
    Zn8      Zn       0.05626    0.17507    0.37364    1.000
    N21      N        0.10580    0.74570    0.37470    1.000
    N22      N        0.03740    0.78630    0.36740    1.000
    C134     C        0.06200    0.87490    0.37000    1.000
    C135     C        0.13680    0.91880    0.36320    1.000
    H79      H        0.19270    0.89100    0.35710    1.000
    C136     C        0.98800    0.91690    0.38100    1.000
    H80      H        0.93370    0.88720    0.38780    1.000
    N23      N        0.05290    0.74590    0.36170    1.000
    N24      N        0.09790    0.78940    0.37090    1.000
    C137     C        0.55820    0.76370    0.43410    1.000
    N25      N        0.44040    0.54830    0.37364    1.000
    C138     C        0.62970    0.76120    0.46740    1.000
    C139     C        0.36610    0.50580    0.36500    1.000
    H81      H        0.31130    0.53610    0.35980    1.000
    C140     C        0.62690    0.69390    0.49411    1.000
    H82      H        0.58140    0.65200    0.49030    1.000
    C141     C        0.51180    0.50310    0.38260    1.000
    H83      H        0.56640    0.53100    0.39070    1.000
    C142     C        0.68870    0.68550    0.52642    1.000
    H84      H        0.68480    0.63800    0.54410    1.000
    C143     C        0.75550    0.74450    0.53330    1.000
    C144     C        0.83580    0.87440    0.50975    1.000
    H85      H        0.87970    0.86780    0.53120    1.000
    C145     C        0.84330    0.94050    0.48313    1.000
    H86      H        0.89100    0.98030    0.48660    1.000
    C146     C        0.78040    0.94970    0.45053    1.000
    H87      H        0.78610    0.99580    0.43210    1.000
    C147     C        0.71150    0.89320    0.44514    1.000
    H88      H        0.67020    0.90010    0.42270    1.000
    C148     C        0.69990    0.82390    0.47249    1.000
    C149     C        0.76350    0.81510    0.50590    1.000
    C150     C        0.81620    0.73380    0.57019    1.000
    C151     C        0.57460    0.77210    0.32316    1.000
    C152     C        0.64890    0.77220    0.29117    1.000
    C153     C        0.64910    0.70620    0.26353    1.000
    H89      H        0.60640    0.66170    0.26670    1.000
    C154     C        0.71170    0.70450    0.23101    1.000
    H90      H        0.71140    0.65840    0.21230    1.000
    C155     C        0.77340    0.76790    0.22555    1.000
    C156     C        0.84800    0.89640    0.25293    1.000
    H91      H        0.89110    0.89550    0.23090    1.000
    C157     C        0.85350    0.95750    0.28245    1.000
    H92      H        0.90020    0.99880    0.28080    1.000
    C158     C        0.79050    0.95990    0.31520    1.000
    H93      H        0.79480    0.00290    0.33550    1.000
    C159     C        0.72360    0.90100    0.31822    1.000
    H94      H        0.68160    0.90300    0.34060    1.000
    C160     C        0.71610    0.83650    0.28801    1.000
    C161     C        0.77900    0.83430    0.25480    1.000
    C162     C        0.83300    0.76420    0.18756    1.000
    C163     C        0.38340    0.02890    0.40010    1.000
    H95      H        0.35260    0.00010    0.42180    1.000
    C164     C        0.37580    0.11570    0.39760    1.000
    H96      H        0.33760    0.14490    0.41650    1.000
    C165     C        0.42180    0.15840    0.36880    1.000
    C166     C        0.46890    0.11500    0.34130    1.000
    H97      H        0.50060    0.14320    0.31980    1.000
    C167     C        0.47210    0.02840    0.34390    1.000
    H98      H        0.50490    0.99820    0.32340    1.000
    N26      N        0.43150    0.98620    0.37370    1.000
    O33      O        0.53780    0.83350    0.41815    1.000
    O34      O        0.52080    0.69550    0.42510    1.000
    O35      O        0.84510    0.66138    0.57757    1.000
    O36      O        0.83200    0.79800    0.59180    1.000
    O37      O        0.55790    0.70300    0.34049    1.000
    O38      O        0.53280    0.83990    0.33030    1.000
    O39      O        0.84170    0.83050    0.16698    1.000
    O40      O        0.86930    0.69430    0.17898    1.000
    Zn9      Zn       0.43820    0.85894    0.37641    1.000
    Zn10     Zn       0.44374    0.67507    0.37364    1.000
    N27      N        0.39420    0.24570    0.37470    1.000
    N28      N        0.46260    0.28630    0.36740    1.000
    C168     C        0.43800    0.37490    0.37000    1.000
    C169     C        0.36320    0.41880    0.36320    1.000
    H99      H        0.30730    0.39100    0.35710    1.000
    C170     C        0.51200    0.41690    0.38100    1.000
    H100     H        0.56630    0.38720    0.38780    1.000
    N29      N        0.44710    0.24590    0.36170    1.000
    N30      N        0.40210    0.28940    0.37090    1.000
    C171     C        0.05820    0.73630    0.56590    1.000
    N31      N        0.94040    0.95170    0.62636    1.000
    C172     C        0.12970    0.73880    0.53260    1.000
    C173     C        0.86610    0.99420    0.63500    1.000
    H101     H        0.81130    0.96390    0.64020    1.000
    C174     C        0.12690    0.80610    0.50589    1.000
    H102     H        0.08140    0.84800    0.50970    1.000
    C175     C        0.01180    0.99690    0.61740    1.000
    H103     H        0.06640    0.96900    0.60930    1.000
    C176     C        0.18870    0.81450    0.47358    1.000
    H104     H        0.18480    0.86200    0.45590    1.000
    C177     C        0.25550    0.75550    0.46670    1.000
    C178     C        0.33580    0.62560    0.49025    1.000
    H105     H        0.37970    0.63220    0.46880    1.000
    C179     C        0.34330    0.55950    0.51687    1.000
    H106     H        0.39100    0.51970    0.51340    1.000
    C180     C        0.28040    0.55030    0.54947    1.000
    H107     H        0.28610    0.50420    0.56790    1.000
    C181     C        0.21150    0.60680    0.55486    1.000
    H108     H        0.17020    0.59990    0.57730    1.000
    C182     C        0.19990    0.67610    0.52751    1.000
    C183     C        0.26350    0.68490    0.49410    1.000
    C184     C        0.31620    0.76620    0.42981    1.000
    C185     C        0.07460    0.72790    0.67684    1.000
    C186     C        0.14890    0.72780    0.70883    1.000
    C187     C        0.14910    0.79380    0.73647    1.000
    H109     H        0.10640    0.83830    0.73330    1.000
    C188     C        0.21170    0.79550    0.76899    1.000
    H110     H        0.21140    0.84160    0.78770    1.000
    C189     C        0.27340    0.73210    0.77445    1.000
    C190     C        0.34800    0.60360    0.74707    1.000
    H111     H        0.39110    0.60450    0.76910    1.000
    C191     C        0.35350    0.54250    0.71755    1.000
    H112     H        0.40020    0.50120    0.71920    1.000
    C192     C        0.29050    0.54010    0.68480    1.000
    H113     H        0.29480    0.49710    0.66450    1.000
    C193     C        0.22360    0.59900    0.68178    1.000
    H114     H        0.18160    0.59700    0.65940    1.000
    C194     C        0.21610    0.66350    0.71199    1.000
    C195     C        0.27900    0.66570    0.74520    1.000
    C196     C        0.33300    0.73580    0.81244    1.000
    C197     C        0.88340    0.47110    0.59990    1.000
    H115     H        0.85260    0.49990    0.57820    1.000
    C198     C        0.87580    0.38430    0.60240    1.000
    H116     H        0.83760    0.35510    0.58350    1.000
    C199     C        0.92180    0.34160    0.63120    1.000
    C200     C        0.96890    0.38500    0.65870    1.000
    H117     H        0.00060    0.35680    0.68020    1.000
    C201     C        0.97210    0.47160    0.65610    1.000
    H118     H        0.00490    0.50180    0.67660    1.000
    N32      N        0.93150    0.51380    0.62630    1.000
    O41      O        0.03780    0.66650    0.58185    1.000
    O42      O        0.02080    0.80450    0.57490    1.000
    O43      O        0.34510    0.83862    0.42243    1.000
    O44      O        0.33200    0.70200    0.40820    1.000
    O45      O        0.05790    0.79700    0.65951    1.000
    O46      O        0.03280    0.66010    0.66970    1.000
    O47      O        0.34170    0.66950    0.83302    1.000
    O48      O        0.36930    0.80570    0.82102    1.000
    Zn11     Zn       0.93820    0.64106    0.62359    1.000
    Zn12     Zn       0.94374    0.82493    0.62636    1.000
    N33      N        0.89420    0.25430    0.62530    1.000
    N34      N        0.96260    0.21370    0.63260    1.000
    C202     C        0.93800    0.12510    0.63000    1.000
    C203     C        0.86320    0.08120    0.63680    1.000
    H119     H        0.80730    0.10900    0.64290    1.000
    C204     C        0.01200    0.08310    0.61900    1.000
    H120     H        0.06630    0.11280    0.61220    1.000
    N35      N        0.94710    0.25410    0.63830    1.000
    N36      N        0.90210    0.21060    0.62910    1.000
    C205     C        0.05820    0.76370    0.06590    1.000
    N37      N        0.94040    0.54830    0.12636    1.000
    C206     C        0.12970    0.76120    0.03260    1.000
    C207     C        0.86610    0.50580    0.13500    1.000
    H121     H        0.81130    0.53610    0.14020    1.000
    C208     C        0.12690    0.69390    0.00589    1.000
    H122     H        0.08140    0.65200    0.00970    1.000
    C209     C        0.01180    0.50310    0.11740    1.000
    H123     H        0.06640    0.53100    0.10930    1.000
    C210     C        0.18870    0.68550    0.97358    1.000
    H124     H        0.18480    0.63800    0.95590    1.000
    C211     C        0.25550    0.74450    0.96670    1.000
    C212     C        0.33580    0.87440    0.99025    1.000
    H125     H        0.37970    0.86780    0.96880    1.000
    C213     C        0.34330    0.94050    0.01687    1.000
    H126     H        0.39100    0.98030    0.01340    1.000
    C214     C        0.28040    0.94970    0.04947    1.000
    H127     H        0.28610    0.99580    0.06790    1.000
    C215     C        0.21150    0.89320    0.05486    1.000
    H128     H        0.17020    0.90010    0.07730    1.000
    C216     C        0.19990    0.82390    0.02751    1.000
    C217     C        0.26350    0.81510    0.99410    1.000
    C218     C        0.31620    0.73380    0.92981    1.000
    C219     C        0.07460    0.77210    0.17684    1.000
    C220     C        0.14890    0.77220    0.20883    1.000
    C221     C        0.14910    0.70620    0.23647    1.000
    H129     H        0.10640    0.66170    0.23330    1.000
    C222     C        0.21170    0.70450    0.26899    1.000
    H130     H        0.21140    0.65840    0.28770    1.000
    C223     C        0.27340    0.76790    0.27445    1.000
    C224     C        0.34800    0.89640    0.24707    1.000
    H131     H        0.39110    0.89550    0.26910    1.000
    C225     C        0.35350    0.95750    0.21755    1.000
    H132     H        0.40020    0.99880    0.21920    1.000
    C226     C        0.29050    0.95990    0.18480    1.000
    H133     H        0.29480    0.00290    0.16450    1.000
    C227     C        0.22360    0.90100    0.18178    1.000
    H134     H        0.18160    0.90300    0.15940    1.000
    C228     C        0.21610    0.83650    0.21199    1.000
    C229     C        0.27900    0.83430    0.24520    1.000
    C230     C        0.33300    0.76420    0.31244    1.000
    C231     C        0.88340    0.02890    0.09990    1.000
    H135     H        0.85260    0.00010    0.07820    1.000
    C232     C        0.87580    0.11570    0.10240    1.000
    H136     H        0.83760    0.14490    0.08350    1.000
    C233     C        0.92180    0.15840    0.13120    1.000
    C234     C        0.96890    0.11500    0.15870    1.000
    H137     H        0.00060    0.14320    0.18020    1.000
    C235     C        0.97210    0.02840    0.15610    1.000
    H138     H        0.00490    0.99820    0.17660    1.000
    N38      N        0.93150    0.98620    0.12630    1.000
    O49      O        0.03780    0.83350    0.08185    1.000
    O50      O        0.02080    0.69550    0.07490    1.000
    O51      O        0.34510    0.66138    0.92243    1.000
    O52      O        0.33200    0.79800    0.90820    1.000
    O53      O        0.05790    0.70300    0.15951    1.000
    O54      O        0.03280    0.83990    0.16970    1.000
    O55      O        0.34170    0.83050    0.33302    1.000
    O56      O        0.36930    0.69430    0.32102    1.000
    Zn13     Zn       0.93820    0.85894    0.12359    1.000
    Zn14     Zn       0.94374    0.67507    0.12636    1.000
    N39      N        0.89420    0.24570    0.12530    1.000
    N40      N        0.96260    0.28630    0.13260    1.000
    C236     C        0.93800    0.37490    0.13000    1.000
    C237     C        0.86320    0.41880    0.13680    1.000
    H139     H        0.80730    0.39100    0.14290    1.000
    C238     C        0.01200    0.41690    0.11900    1.000
    H140     H        0.06630    0.38720    0.11220    1.000
    N41      N        0.94710    0.24590    0.13830    1.000
    N42      N        0.90210    0.28940    0.12910    1.000
    C239     C        0.55820    0.73630    0.93410    1.000
    N43      N        0.44040    0.95170    0.87364    1.000
    C240     C        0.62970    0.73880    0.96740    1.000
    C241     C        0.36610    0.99420    0.86500    1.000
    H141     H        0.31130    0.96390    0.85980    1.000
    C242     C        0.62690    0.80610    0.99411    1.000
    H142     H        0.58140    0.84800    0.99030    1.000
    C243     C        0.51180    0.99690    0.88260    1.000
    H143     H        0.56640    0.96900    0.89070    1.000
    C244     C        0.68870    0.81450    0.02642    1.000
    H144     H        0.68480    0.86200    0.04410    1.000
    C245     C        0.75550    0.75550    0.03330    1.000
    C246     C        0.83580    0.62560    0.00975    1.000
    H145     H        0.87970    0.63220    0.03120    1.000
    C247     C        0.84330    0.55950    0.98313    1.000
    H146     H        0.89100    0.51970    0.98660    1.000
    C248     C        0.78040    0.55030    0.95053    1.000
    H147     H        0.78610    0.50420    0.93210    1.000
    C249     C        0.71150    0.60680    0.94514    1.000
    H148     H        0.67020    0.59990    0.92270    1.000
    C250     C        0.69990    0.67610    0.97249    1.000
    C251     C        0.76350    0.68490    0.00590    1.000
    C252     C        0.81620    0.76620    0.07019    1.000
    C253     C        0.57460    0.72790    0.82316    1.000
    C254     C        0.64890    0.72780    0.79117    1.000
    C255     C        0.64910    0.79380    0.76353    1.000
    H149     H        0.60640    0.83830    0.76670    1.000
    C256     C        0.71170    0.79550    0.73101    1.000
    H150     H        0.71140    0.84160    0.71230    1.000
    C257     C        0.77340    0.73210    0.72555    1.000
    C258     C        0.84800    0.60360    0.75293    1.000
    H151     H        0.89110    0.60450    0.73090    1.000
    C259     C        0.85350    0.54250    0.78245    1.000
    H152     H        0.90020    0.50120    0.78080    1.000
    C260     C        0.79050    0.54010    0.81520    1.000
    H153     H        0.79480    0.49710    0.83550    1.000
    C261     C        0.72360    0.59900    0.81822    1.000
    H154     H        0.68160    0.59700    0.84060    1.000
    C262     C        0.71610    0.66350    0.78801    1.000
    C263     C        0.77900    0.66570    0.75480    1.000
    C264     C        0.83300    0.73580    0.68756    1.000
    C265     C        0.38340    0.47110    0.90010    1.000
    H155     H        0.35260    0.49990    0.92180    1.000
    C266     C        0.37580    0.38430    0.89760    1.000
    H156     H        0.33760    0.35510    0.91650    1.000
    C267     C        0.42180    0.34160    0.86880    1.000
    C268     C        0.46890    0.38500    0.84130    1.000
    H157     H        0.50060    0.35680    0.81980    1.000
    C269     C        0.47210    0.47160    0.84390    1.000
    H158     H        0.50490    0.50180    0.82340    1.000
    N44      N        0.43150    0.51380    0.87370    1.000
    O57      O        0.53780    0.66650    0.91815    1.000
    O58      O        0.52080    0.80450    0.92510    1.000
    O59      O        0.84510    0.83862    0.07757    1.000
    O60      O        0.83200    0.70200    0.09180    1.000
    O61      O        0.55790    0.79700    0.84049    1.000
    O62      O        0.53280    0.66010    0.83030    1.000
    O63      O        0.84170    0.66950    0.66698    1.000
    O64      O        0.86930    0.80570    0.67898    1.000
    Zn15     Zn       0.43820    0.64106    0.87641    1.000
    Zn16     Zn       0.44374    0.82493    0.87364    1.000
    N45      N        0.39420    0.25430    0.87470    1.000
    N46      N        0.46260    0.21370    0.86740    1.000
    C270     C        0.43800    0.12510    0.87000    1.000
    C271     C        0.36320    0.08120    0.86320    1.000
    H159     H        0.30730    0.10900    0.85710    1.000
    C272     C        0.51200    0.08310    0.88100    1.000
    H160     H        0.56630    0.11280    0.88780    1.000
    N47      N        0.44710    0.25410    0.86170    1.000
    N48      N        0.40210    0.21060    0.87090    1.000
