data_functionalizedCrystal
_audit_creation_method	'EQeq! by Chris Wilmer'
_symmetry_space_group_name_H-M	'P1'
_symmetry_Int_Tables_number	1
_symmetry_cell_setting	triclinic
loop_
_symmetry_equiv_pos_as_xyz
  x,y,z
_cell_length_a	16.5413
_cell_length_b	16.5957
_cell_length_c	16.5957
_cell_angle_alpha	70.4625
_cell_angle_beta	70.5951
_cell_angle_gamma	109.405
loop_
_atom_site_label
_atom_site_type_symbol
_atom_site_fract_x
_atom_site_fract_y
_atom_site_fract_z
_atom_site_charge
Mof_Fe	Fe	0.07241	0.59857	0.40143	0.767
Mof_Fe	Fe	0.47384	0.40143	-0	0.752
Mof_Fe	Fe	0.47384	0	0.59857	0.754
Mof_Fe	Fe	0.52616	0	0.40143	0.751
Mof_Fe	Fe	0.52616	0.59857	-0	0.754
Mof_Fe	Fe	0.92759	0.40143	0.59857	0.766
Mof_H 	H 	0.9691	0.5036	0.2325	0.032
Mof_H 	H 	0.04	0.3623	0.174	-0.063
Mof_H 	H 	0.1704	0.3501	0.073	0.236
Mof_H 	H 	0.2016	0.2325	0.2639	0.03
Mof_H 	H 	0.214	0.174	0.4637	-0.061
Mof_H 	H 	0.2434	0.073	0.5769	0.231
Mof_H 	H 	0.4655	0.2639	0.5036	0.05
Mof_H 	H 	0.6777	0.4637	0.3623	0.066
Mof_H 	H 	0.8203	0.5769	0.3501	0.039
Mof_H 	H 	0.7984	0.2639	0.2325	0.03
Mof_H 	H 	0.786	0.4637	0.174	-0.061
Mof_H 	H 	0.7566	0.5769	0.073	0.231
Mof_H 	H 	0.5345	0.5036	0.2639	0.05
Mof_H 	H 	0.3223	0.3623	0.4637	0.066
Mof_H 	H 	0.1797	0.3501	0.5769	0.039
Mof_H 	H 	0.0309	0.2325	0.5036	0.032
Mof_H 	H 	0.96	0.174	0.3623	-0.063
Mof_H 	H 	0.8296	0.073	0.3501	0.236
Mof_H 	H 	0.0309	0.4964	0.7675	0.07
Mof_H 	H 	0.96	0.6377	0.826	0.177
Mof_H 	H 	0.8296	0.6499	0.927	-0.137
Mof_H 	H 	0.7984	0.7675	0.7361	0.073
Mof_H 	H 	0.786	0.826	0.5363	0.183
Mof_H 	H 	0.7566	0.927	0.4231	-0.144
Mof_H 	H 	0.5345	0.7361	0.4964	0.053
Mof_H 	H 	0.3223	0.5363	0.6377	0.053
Mof_H 	H 	0.1797	0.4231	0.6499	0.054
Mof_H 	H 	0.2016	0.7361	0.7675	0.073
Mof_H 	H 	0.214	0.5363	0.826	0.183
Mof_H 	H 	0.2434	0.4231	0.927	-0.144
Mof_H 	H 	0.4655	0.4964	0.7361	0.053
Mof_H 	H 	0.6777	0.6377	0.5363	0.053
Mof_H 	H 	0.8203	0.6499	0.4231	0.054
Mof_H 	H 	0.9691	0.7675	0.4964	0.07
Mof_H 	H 	0.04	0.826	0.6377	0.177
Mof_H 	H 	0.1704	0.927	0.6499	-0.137
Mof_H 	H 	0.7546	0.2546	0.4908	0.036
Mof_H 	H 	0.2454	0.4908	0.2546	0.036
Mof_H 	H 	0.5	0.2546	0.2546	0.043
Mof_H 	H 	0.2454	0.7454	0.5092	0.053
Mof_H 	H 	0.7546	0.5092	0.7454	0.053
Mof_H 	H 	0.5	0.7454	0.7454	0.047
Mof_C 	C 	0.9049	0.4308	0.4234	0.381
Mof_C 	C 	0.8709	0.385	0.3692	-0.126
Mof_C 	C 	0.9182	0.4366	0.2672	0.032
Mof_C 	C 	0.0345	0.4465	0.0536	-0.242
Mof_C 	C 	0.0683	0.3936	0.1042	0.297
Mof_C 	C 	0.1491	0.3911	0.0417	-0.608
Mof_C 	C 	0.3283	0.4234	0.1458	0.38
Mof_C 	C 	0.2401	0.3692	0.2458	-0.127
Mof_C 	C 	0.1854	0.2672	0.2962	0.032
Mof_C 	C 	0.0881	0.0536	0.4999	-0.236
Mof_C 	C 	0.1725	0.1042	0.5022	0.287
Mof_C 	C 	0.1908	0.0417	0.5672	-0.589
Mof_C 	C 	0.4741	0.1458	0.4308	0.37
Mof_C 	C 	0.4859	0.2458	0.385	-0.1
Mof_C 	C 	0.4816	0.2962	0.4366	-0.021
Mof_C 	C 	0.588	0.4999	0.4465	0.028
Mof_C 	C 	0.6747	0.5022	0.3936	-0.08
Mof_C 	C 	0.758	0.5672	0.3911	-0.002
Mof_C 	C 	0.6717	0.1458	0.4234	0.38
Mof_C 	C 	0.7599	0.2458	0.3692	-0.127
Mof_C 	C 	0.8146	0.2962	0.2672	0.032
Mof_C 	C 	0.9119	0.4999	0.0536	-0.236
Mof_C 	C 	0.8275	0.5022	0.1042	0.287
Mof_C 	C 	0.8092	0.5672	0.0417	-0.589
Mof_C 	C 	0.5259	0.4308	0.1458	0.37
Mof_C 	C 	0.5141	0.385	0.2458	-0.1
Mof_C 	C 	0.5184	0.4366	0.2962	-0.021
Mof_C 	C 	0.412	0.4465	0.4999	0.028
Mof_C 	C 	0.3253	0.3936	0.5022	-0.08
Mof_C 	C 	0.242	0.3911	0.5672	-0.002
Mof_C 	C 	0.0951	0.4234	0.4308	0.381
Mof_C 	C 	0.1291	0.3692	0.385	-0.126
Mof_C 	C 	0.0818	0.2672	0.4366	0.032
Mof_C 	C 	0.9655	0.0536	0.4465	-0.242
Mof_C 	C 	0.9317	0.1042	0.3936	0.297
Mof_C 	C 	0.8509	0.0417	0.3911	-0.608
Mof_C 	C 	0.0951	0.5692	0.5766	0.361
Mof_C 	C 	0.1291	0.615	0.6308	-0.074
Mof_C 	C 	0.0818	0.5634	0.7328	-0.072
Mof_C 	C 	0.9655	0.5535	0.9464	0.271
Mof_C 	C 	0.9317	0.6064	0.8958	-0.416
Mof_C 	C 	0.8509	0.6089	0.9583	0.539
Mof_C 	C 	0.6717	0.5766	0.8542	0.359
Mof_C 	C 	0.7599	0.6308	0.7542	-0.071
Mof_C 	C 	0.8146	0.7328	0.7038	-0.073
Mof_C 	C 	0.9119	0.9464	0.5001	0.278
Mof_C 	C 	0.8275	0.8958	0.4978	-0.428
Mof_C 	C 	0.8092	0.9583	0.4328	0.559
Mof_C 	C 	0.5259	0.8542	0.5692	0.369
Mof_C 	C 	0.5141	0.7542	0.615	-0.097
Mof_C 	C 	0.5184	0.7038	0.5634	-0.021
Mof_C 	C 	0.412	0.5001	0.5535	0.008
Mof_C 	C 	0.3253	0.4978	0.6064	-0.05
Mof_C 	C 	0.242	0.4328	0.6089	-0.048
Mof_C 	C 	0.3283	0.8542	0.5766	0.359
Mof_C 	C 	0.2401	0.7542	0.6308	-0.071
Mof_C 	C 	0.1854	0.7038	0.7328	-0.073
Mof_C 	C 	0.0881	0.5001	0.9464	0.278
Mof_C 	C 	0.1725	0.4978	0.8958	-0.428
Mof_C 	C 	0.1908	0.4328	0.9583	0.559
Mof_C 	C 	0.4741	0.5692	0.8542	0.369
Mof_C 	C 	0.4859	0.615	0.7542	-0.097
Mof_C 	C 	0.4816	0.5634	0.7038	-0.021
Mof_C 	C 	0.588	0.5535	0.5001	0.008
Mof_C 	C 	0.6747	0.6064	0.4978	-0.05
Mof_C 	C 	0.758	0.6089	0.4328	-0.048
Mof_C 	C 	0.9049	0.5766	0.5692	0.361
Mof_C 	C 	0.8709	0.6308	0.615	-0.074
Mof_C 	C 	0.9182	0.7328	0.5634	-0.072
Mof_C 	C 	0.0345	0.9464	0.5535	0.271
Mof_C 	C 	0.0683	0.8958	0.6064	-0.416
Mof_C 	C 	0.1491	0.9583	0.6089	0.539
Mof_C 	C 	0.7896	0.2896	0.4208	0.059
Mof_C 	C 	0.8931	0.3931	0.2138	-0.073
Mof_C 	C 	0.9485	0.4485	0.103	0.15
Mof_C 	C 	0.2104	0.4208	0.2896	0.059
Mof_C 	C 	0.1069	0.2138	0.3931	-0.073
Mof_C 	C 	0.0515	0.103	0.4485	0.15
Mof_C 	C 	0.5	0.2896	0.2896	0.035
Mof_C 	C 	0.5	0.3931	0.3931	0.009
Mof_C 	C 	0.5	0.4485	0.4485	-0.036
Mof_C 	C 	0.2104	0.7104	0.5792	0.006
Mof_C 	C 	0.1069	0.6069	0.7862	0.086
Mof_C 	C 	0.0515	0.5515	0.897	-0.207
Mof_C 	C 	0.7896	0.5792	0.7104	0.006
Mof_C 	C 	0.8931	0.7862	0.6069	0.086
Mof_C 	C 	0.9485	0.897	0.5515	-0.207
Mof_C 	C 	0.5	0.7104	0.7104	0.029
Mof_C 	C 	0.5	0.6069	0.6069	0.005
Mof_C 	C 	0.5	0.5515	0.5515	-0.022
Mof_O 	O 	0.97077	0.51909	0.37438	-0.383
Mof_O 	O 	0.8626	0.3768	0.5164	-0.368
Mof_O 	O 	0.34515	0.37438	0.10653	-0.386
Mof_O 	O 	0.379	0.5164	0.1068	-0.368
Mof_O 	O 	0.45168	0.10653	0.51909	-0.383
Mof_O 	O 	0.4858	0.1068	0.3768	-0.366
Mof_O 	O 	0.65485	0.10653	0.37438	-0.386
Mof_O 	O 	0.621	0.1068	0.5164	-0.368
Mof_O 	O 	0.54832	0.51909	0.10653	-0.383
Mof_O 	O 	0.5142	0.3768	0.1068	-0.366
Mof_O 	O 	0.02923	0.37438	0.51909	-0.383
Mof_O 	O 	0.1374	0.5164	0.3768	-0.368
Mof_O 	O 	0.02923	0.48091	0.62562	-0.378
Mof_O 	O 	0.1374	0.6232	0.4836	-0.363
Mof_O 	O 	0.65485	0.62562	0.89347	-0.368
Mof_O 	O 	0.621	0.4836	0.8932	-0.357
Mof_O 	O 	0.54832	0.89347	0.48091	-0.371
Mof_O 	O 	0.5142	0.8932	0.6232	-0.358
Mof_O 	O 	0.34515	0.89347	0.62562	-0.368
Mof_O 	O 	0.379	0.8932	0.4836	-0.357
Mof_O 	O 	0.45168	0.48091	0.89347	-0.371
Mof_O 	O 	0.4858	0.6232	0.8932	-0.358
Mof_O 	O 	0.97077	0.62562	0.48091	-0.378
Mof_O 	O 	0.8626	0.4836	0.6232	-0.363
_end
