# CIF file generated by openbabel 3.1.0, see https://openbabel.org
data_I
_chemical_name_common 'SEYDUW_clean'
_cell_length_a 8.9108
_cell_length_b 9.0223
_cell_length_c 15.6837
_cell_angle_alpha 90
_cell_angle_beta 90
_cell_angle_gamma 90
_space_group_name_H-M_alt 'P 1'
_space_group_name_Hall 'P 1'
loop_
    _symmetry_equiv_pos_as_xyz
    x,y,z
loop_
    _atom_site_label
    _atom_site_type_symbol
    _atom_site_fract_x
    _atom_site_fract_y
    _atom_site_fract_z
    _atom_site_occupancy
    Y1       Y        0.39073    0.03133    0.39609    1.000
    Y2       Y        0.60927    0.46867    0.89609    1.000
    Y3       Y        0.89073    0.96867    0.10391    1.000
    Y4       Y        0.10927    0.53133    0.60391    1.000
    P1       P        0.06799    0.12751    0.29399    1.000
    P2       P        0.93201    0.37249    0.79399    1.000
    P3       P        0.56799    0.87249    0.20601    1.000
    P4       P        0.43201    0.62751    0.70601    1.000
    H1       H        0.25240    0.14410    0.18960    1.000
    H2       H        0.17750    0.30000    0.20320    1.000
    H3       H        0.22120    0.44070    0.31280    1.000
    H4       H        0.39140    0.45990    0.33460    1.000
    H5       H        0.48070    0.37650    0.21630    1.000
    H6       H        0.48810    0.20570    0.19720    1.000
    H7       H        0.90390    0.26920    0.32240    1.000
    H8       H        0.74760    0.35590    0.68960    1.000
    H9       H        0.82250    0.20000    0.70320    1.000
    H10      H        0.77880    0.05930    0.81280    1.000
    H11      H        0.60860    0.04010    0.83460    1.000
    H12      H        0.51930    0.12350    0.71630    1.000
    H13      H        0.51190    0.29430    0.69720    1.000
    H14      H        0.09610    0.23080    0.82240    1.000
    H15      H        0.75240    0.85590    0.31040    1.000
    H16      H        0.67750    0.70000    0.29680    1.000
    H17      H        0.72120    0.55930    0.18720    1.000
    H18      H        0.89140    0.54010    0.16540    1.000
    H19      H        0.98070    0.62350    0.28370    1.000
    H20      H        0.98810    0.79430    0.30280    1.000
    H21      H        0.40390    0.73080    0.17760    1.000
    H22      H        0.24760    0.64410    0.81040    1.000
    H23      H        0.32250    0.80000    0.79680    1.000
    H24      H        0.27880    0.94070    0.68720    1.000
    H25      H        0.10860    0.95990    0.66540    1.000
    H26      H        0.01930    0.87650    0.78370    1.000
    H27      H        0.01190    0.70570    0.80280    1.000
    H28      H        0.59610    0.76920    0.67760    1.000
    C1       C        0.21620    0.21320    0.23230    1.000
    C2       C        0.30690    0.39250    0.33900    1.000
    C3       C        0.27330    0.36870    0.43050    1.000
    C4       C        0.48080    0.27890    0.24230    1.000
    C5       C        0.61500    0.26440    0.30220    1.000
    C6       C        0.78380    0.28680    0.73230    1.000
    C7       C        0.69310    0.10750    0.83900    1.000
    C8       C        0.72670    0.13130    0.93050    1.000
    C9       C        0.51920    0.22110    0.74230    1.000
    C10      C        0.38500    0.23560    0.80220    1.000
    C11      C        0.71620    0.78680    0.26770    1.000
    C12      C        0.80690    0.60750    0.16100    1.000
    C13      C        0.77330    0.63130    0.06950    1.000
    C14      C        0.98080    0.72110    0.25770    1.000
    C15      C        0.11500    0.73560    0.19780    1.000
    C16      C        0.28380    0.71320    0.76770    1.000
    C17      C        0.19310    0.89250    0.66100    1.000
    C18      C        0.22670    0.86870    0.56950    1.000
    C19      C        0.01920    0.77890    0.75770    1.000
    C20      C        0.88500    0.76440    0.69780    1.000
    N1       N        0.34210    0.25700    0.28980    1.000
    N2       N        0.65790    0.24300    0.78980    1.000
    N3       N        0.84210    0.74300    0.21020    1.000
    N4       N        0.15790    0.75700    0.71020    1.000
    O1       O        0.31370    0.24490    0.46521    1.000
    O2       O        0.20800    0.46840    0.47071    1.000
    O3       O        0.73940    0.31650    0.27640    1.000
    O4       O        0.59920    0.18790    0.37018    1.000
    O5       O        0.98320    0.24900    0.34630    1.000
    O6       O        0.96490    0.05100    0.23265    1.000
    O7       O        0.14580    0.02570    0.35531    1.000
    O8       O        0.68630    0.25510    0.96521    1.000
    O9       O        0.79200    0.03160    0.97071    1.000
    O10      O        0.26060    0.18350    0.77640    1.000
    O11      O        0.40080    0.31210    0.87018    1.000
    O12      O        0.01680    0.25100    0.84630    1.000
    O13      O        0.03510    0.44900    0.73265    1.000
    O14      O        0.85420    0.47430    0.85531    1.000
    O15      O        0.81370    0.75510    0.03479    1.000
    O16      O        0.70800    0.53160    0.02929    1.000
    O17      O        0.23940    0.68350    0.22360    1.000
    O18      O        0.09920    0.81210    0.12982    1.000
    O19      O        0.48320    0.75100    0.15370    1.000
    O20      O        0.46490    0.94900    0.26735    1.000
    O21      O        0.64580    0.97430    0.14469    1.000
    O22      O        0.18630    0.74490    0.53479    1.000
    O23      O        0.29200    0.96840    0.52929    1.000
    O24      O        0.76060    0.81650    0.72360    1.000
    O25      O        0.90080    0.68790    0.62982    1.000
    O26      O        0.51680    0.74900    0.65370    1.000
    O27      O        0.53510    0.55100    0.76735    1.000
    O28      O        0.35420    0.52570    0.64469    1.000
