data_functionalizedCrystal
_audit_creation_method	'EQeq! by Chris Wilmer'
_symmetry_space_group_name_H-M	'P1'
_symmetry_Int_Tables_number	1
_symmetry_cell_setting	triclinic
loop_
_symmetry_equiv_pos_as_xyz
  x,y,z
_cell_length_a	11.0031
_cell_length_b	11.2217
_cell_length_c	11.6959
_cell_angle_alpha	69.193
_cell_angle_beta	79.676
_cell_angle_gamma	81.008
loop_
_atom_site_label
_atom_site_type_symbol
_atom_site_fract_x
_atom_site_fract_y
_atom_site_fract_z
_atom_site_charge
Mof_Ni	Ni	0.98467	0.2453	0.23813	1.13
Mof_Ni	Ni	0.86347	0.0176	0.50069	1.066
Mof_Ni	Ni	0.02843	0.5735	0.07488	1.072
Mof_O 	O 	0.0131	0.0709	0.371	-0.75
Mof_H 	H 	0.0195	0.0191	0.3316	0.254
Mof_O 	O 	0.9424	0.4165	0.1033	-0.761
Mof_H 	H 	0.8653	0.4371	0.1195	0.28
Mof_O 	O 	0.8239	0.1883	0.2039	-0.412
Mof_O 	O 	0.7268	0.0988	0.3979	-0.452
Mof_O 	O 	0.2009	0.4688	0.0939	-0.434
Mof_O 	O 	0.1519	0.2972	0.2585	-0.438
Mof_O 	O 	0.1396	0.8218	0.4556	-0.444
Mof_O 	O 	0.1158	0.6673	0.6405	-0.441
Mof_O 	O 	0.9084	0.8445	0.8789	-0.434
Mof_O 	O 	0.8644	0.6899	0.0571	-0.45
Mof_C 	C 	0.7273	0.1615	0.2848	0.343
Mof_C 	C 	0.6002	0.2182	0.2474	-0.079
Mof_C 	C 	0.5471	0.1873	0.1596	0.002
Mof_C 	C 	0.4297	0.2443	0.135	-0.027
Mof_H 	H 	0.3937	0.2245	0.0787	0.047
Mof_C 	C 	0.3622	0.3303	0.1905	-0.088
Mof_C 	C 	0.2266	0.366	0.1829	0.369
Mof_C 	C 	0.4173	0.3597	0.2783	0.002
Mof_C 	C 	0.5356	0.3048	0.2992	-0.03
Mof_H 	H 	0.5739	0.328	0.3517	0.047
Mof_C 	C 	0.3494	0.446	0.3417	0.071
Mof_C 	C 	0.3368	0.4121	0.4708	-0.14
Mof_H 	H 	0.3722	0.3324	0.5166	0.074
Mof_C 	C 	0.275	0.4916	0.5305	0.059
Mof_H 	H 	0.266	0.4646	0.6162	0.01
Mof_C 	C 	0.223	0.6175	0.4627	-0.147
Mof_C 	C 	0.1578	0.7035	0.5296	0.378
Mof_C 	C 	0.2387	0.6532	0.3329	0.059
Mof_H 	H 	0.2074	0.7344	0.2859	0.005
Mof_C 	C 	0.2996	0.5693	0.2755	-0.147
Mof_H 	H 	0.3082	0.5949	0.1899	0.076
Mof_C 	C 	0.6085	0.0843	0.112	0.066
Mof_C 	C 	0.6405	0.1004	0.9873	-0.142
Mof_H 	H 	0.6136	0.1773	0.9297	0.079
Mof_C 	C 	0.7073	0.0112	0.9467	0.061
Mof_H 	H 	0.723	0.0269	0.8621	0.008
Mof_C 	C 	0.756	0.8928	0.0272	-0.137
Mof_C 	C 	0.8508	0.8021	0.9839	0.387
Mof_C 	C 	0.7227	0.8709	0.1519	0.053
Mof_H 	H 	0.7456	0.7914	0.2082	0.011
Mof_C 	C 	0.6552	0.9661	0.1947	-0.122
Mof_H 	H 	0.6405	0.9518	0.2791	0.07
Mof_Ni	Ni	0.01533	0.7547	0.76187	1.129
Mof_Ni	Ni	0.13653	0.9824	0.49931	1.065
Mof_Ni	Ni	0.97157	0.4265	0.92512	1.071
Mof_O 	O 	0.9869	0.9291	0.629	-0.751
Mof_H 	H 	0.9805	0.9809	0.6684	0.253
Mof_O 	O 	0.0576	0.5835	0.8967	-0.762
Mof_H 	H 	0.1347	0.5629	0.8805	0.279
Mof_O 	O 	0.1761	0.8117	0.7961	-0.413
Mof_O 	O 	0.2732	0.9012	0.6021	-0.452
Mof_O 	O 	0.7991	0.5312	0.9061	-0.434
Mof_O 	O 	0.8481	0.7028	0.7415	-0.438
Mof_O 	O 	0.8604	0.1782	0.5444	-0.444
Mof_O 	O 	0.8842	0.3327	0.3595	-0.441
Mof_O 	O 	0.0916	0.1555	0.1211	-0.434
Mof_O 	O 	0.1356	0.3101	0.9429	-0.45
Mof_C 	C 	0.2727	0.8385	0.7152	0.343
Mof_C 	C 	0.3998	0.7818	0.7526	-0.079
Mof_C 	C 	0.4529	0.8127	0.8404	0.002
Mof_C 	C 	0.5703	0.7557	0.865	-0.027
Mof_H 	H 	0.6063	0.7755	0.9213	0.047
Mof_C 	C 	0.6378	0.6697	0.8095	-0.088
Mof_C 	C 	0.7734	0.634	0.8171	0.369
Mof_C 	C 	0.5827	0.6403	0.7217	0.002
Mof_C 	C 	0.4644	0.6952	0.7008	-0.03
Mof_H 	H 	0.4261	0.672	0.6483	0.047
Mof_C 	C 	0.6506	0.554	0.6583	0.071
Mof_C 	C 	0.6632	0.5879	0.5292	-0.14
Mof_H 	H 	0.6278	0.6676	0.4834	0.074
Mof_C 	C 	0.725	0.5084	0.4695	0.059
Mof_H 	H 	0.734	0.5354	0.3838	0.01
Mof_C 	C 	0.777	0.3825	0.5373	-0.147
Mof_C 	C 	0.8422	0.2965	0.4704	0.378
Mof_C 	C 	0.7613	0.3468	0.6671	0.059
Mof_H 	H 	0.7926	0.2656	0.7141	0.005
Mof_C 	C 	0.7004	0.4307	0.7245	-0.147
Mof_H 	H 	0.6918	0.4051	0.8101	0.076
Mof_C 	C 	0.3915	0.9157	0.888	0.066
Mof_C 	C 	0.3595	0.8996	0.0127	-0.142
Mof_H 	H 	0.3864	0.8227	0.0703	0.079
Mof_C 	C 	0.2927	0.9888	0.0533	0.061
Mof_H 	H 	0.277	0.9731	0.1379	0.008
Mof_C 	C 	0.244	0.1072	0.9728	-0.137
Mof_C 	C 	0.1492	0.1979	0.0161	0.387
Mof_C 	C 	0.2773	0.1291	0.8481	0.053
Mof_H 	H 	0.2544	0.2086	0.7918	0.011
Mof_C 	C 	0.3448	0.0339	0.8053	-0.122
Mof_H 	H 	0.3595	0.0482	0.7209	0.07
_end
