data_functionalizedCrystal
_audit_creation_method	'EQeq! by Chris Wilmer'
_symmetry_space_group_name_H-M	'P1'
_symmetry_Int_Tables_number	1
_symmetry_cell_setting	triclinic
loop_
_symmetry_equiv_pos_as_xyz
  x,y,z
_cell_length_a	26.8078
_cell_length_b	26.8078
_cell_length_c	9.9406
_cell_angle_alpha	90
_cell_angle_beta	90
_cell_angle_gamma	120
loop_
_atom_site_label
_atom_site_type_symbol
_atom_site_fract_x
_atom_site_fract_y
_atom_site_fract_z
_atom_site_charge
Mof_N 	N 	0.8921	0.2251	0.8187	-0.186
Mof_C 	C 	0.729	0.1867	0.6754	0.102
Mof_H 	H 	0.7089	0.1466	0.6761	-0.008
Mof_C 	C 	0.6978	0.2139	0.6769	-0.163
Mof_H 	H 	0.6578	0.1929	0.6803	0.095
Mof_C 	C 	0.9297	0.2523	0.8841	0.096
Mof_N 	N 	0.55877	0.55843	0.15203	-0.181
Mof_C 	C 	0.39567	0.52003	0.00873	0.096
Mof_H 	H 	0.37557	0.47993	0.00943	-0.013
Mof_C 	C 	0.36447	0.54723	0.01023	-0.164
Mof_H 	H 	0.32447	0.52623	0.01363	0.092
Mof_C 	C 	0.59637	0.58563	0.21743	0.045
Mof_N 	N 	0.22543	0.89177	0.48537	-0.178
Mof_C 	C 	0.06233	0.85337	0.34207	0.107
Mof_H 	H 	0.04223	0.81327	0.34277	-0.013
Mof_C 	C 	0.03113	0.88057	0.34357	-0.179
Mof_H 	H 	0.99113	0.85957	0.34697	0.104
Mof_C 	C 	0.26303	0.91897	0.55077	0.055
Mof_N 	N 	0.7749	0.667	0.8187	-0.186
Mof_C 	C 	0.8133	0.5423	0.6754	0.101
Mof_H 	H 	0.8534	0.5623	0.6761	-0.008
Mof_C 	C 	0.7861	0.4839	0.6769	-0.164
Mof_H 	H 	0.8071	0.4649	0.6803	0.095
Mof_C 	C 	0.7477	0.6774	0.8841	0.088
Mof_N 	N 	0.44157	0.00033	0.15203	-0.183
Mof_C 	C 	0.47997	0.87563	0.00873	0.096
Mof_H 	H 	0.52007	0.89563	0.00943	-0.011
Mof_C 	C 	0.45277	0.81723	0.01023	-0.163
Mof_H 	H 	0.47377	0.79823	0.01363	0.091
Mof_C 	C 	0.41437	0.01073	0.21743	0.043
Mof_N 	N 	0.10823	0.33367	0.48537	-0.179
Mof_C 	C 	0.14663	0.20897	0.34207	0.105
Mof_H 	H 	0.18673	0.22897	0.34277	-0.011
Mof_C 	C 	0.11943	0.15057	0.34357	-0.172
Mof_H 	H 	0.14043	0.13157	0.34697	0.096
Mof_C 	C 	0.08103	0.34407	0.55077	0.052
Mof_N 	N 	0.333	0.1079	0.8187	-0.187
Mof_C 	C 	0.4577	0.271	0.6754	0.101
Mof_H 	H 	0.4377	0.2911	0.6761	-0.009
Mof_C 	C 	0.5161	0.3022	0.6769	-0.164
Mof_H 	H 	0.5351	0.3422	0.6803	0.094
Mof_C 	C 	0.3226	0.0703	0.8841	0.089
Mof_N 	N 	0.99967	0.44123	0.15203	-0.178
Mof_C 	C 	0.12437	0.60433	0.00873	0.096
Mof_H 	H 	0.10437	0.62443	0.00943	-0.013
Mof_C 	C 	0.18277	0.63553	0.01023	-0.164
Mof_H 	H 	0.20177	0.67553	0.01363	0.092
Mof_C 	C 	0.98927	0.40363	0.21743	0.048
Mof_N 	N 	0.66633	0.77457	0.48537	-0.179
Mof_C 	C 	0.79103	0.93767	0.34207	0.087
Mof_H 	H 	0.77103	0.95777	0.34277	-0.002
Mof_C 	C 	0.84943	0.96887	0.34357	-0.136
Mof_H 	H 	0.86843	0.00887	0.34697	0.079
Mof_C 	C 	0.65593	0.73697	0.55077	0.053
Mof_N 	N 	0.2251	0.8921	0.1813	-0.185
Mof_C 	C 	0.1867	0.729	0.3246	0.103
Mof_H 	H 	0.1466	0.7089	0.3239	-0.009
Mof_C 	C 	0.2139	0.6978	0.3231	-0.163
Mof_H 	H 	0.1929	0.6578	0.3197	0.097
Mof_C 	C 	0.2523	0.9297	0.1159	0.064
Mof_N 	N 	0.89177	0.22543	0.51463	-0.181
Mof_C 	C 	0.85337	0.06233	0.65793	0.113
Mof_H 	H 	0.81327	0.04223	0.65723	-0.012
Mof_C 	C 	0.88057	0.03113	0.65643	-0.181
Mof_H 	H 	0.85957	0.99113	0.65303	0.111
Mof_C 	C 	0.91897	0.26303	0.44923	0.05
Mof_N 	N 	0.55843	0.55877	0.84797	-0.166
Mof_C 	C 	0.52003	0.39567	0.99127	0.103
Mof_H 	H 	0.47993	0.37557	0.99057	0.001
Mof_C 	C 	0.54723	0.36447	0.98977	-0.159
Mof_H 	H 	0.52623	0.32447	0.98637	0.099
Mof_C 	C 	0.58563	0.59637	0.78257	0.057
Mof_N 	N 	0.667	0.7749	0.1813	-0.184
Mof_C 	C 	0.5423	0.8133	0.3246	0.102
Mof_H 	H 	0.5623	0.8534	0.3239	-0.008
Mof_C 	C 	0.4839	0.7861	0.3231	-0.163
Mof_H 	H 	0.4649	0.8071	0.3197	0.097
Mof_C 	C 	0.6774	0.7477	0.1159	0.055
Mof_N 	N 	0.33367	0.10823	0.51463	-0.182
Mof_C 	C 	0.20897	0.14663	0.65793	0.109
Mof_H 	H 	0.22897	0.18673	0.65723	-0.009
Mof_C 	C 	0.15057	0.11943	0.65643	-0.172
Mof_H 	H 	0.13157	0.14043	0.65303	0.102
Mof_C 	C 	0.34407	0.08103	0.44923	0.048
Mof_N 	N 	0.00033	0.44157	0.84797	-0.167
Mof_C 	C 	0.87563	0.47997	0.99127	0.103
Mof_H 	H 	0.89563	0.52007	0.99057	0.002
Mof_C 	C 	0.81723	0.45277	0.98977	-0.158
Mof_H 	H 	0.79823	0.47377	0.98637	0.099
Mof_C 	C 	0.01073	0.41437	0.78257	0.056
Mof_N 	N 	0.1079	0.333	0.1813	-0.184
Mof_C 	C 	0.271	0.4577	0.3246	0.102
Mof_H 	H 	0.2911	0.4377	0.3239	-0.009
Mof_C 	C 	0.3022	0.5161	0.3231	-0.163
Mof_H 	H 	0.3422	0.5351	0.3197	0.097
Mof_C 	C 	0.0703	0.3226	0.1159	0.055
Mof_N 	N 	0.77457	0.66633	0.51463	-0.181
Mof_C 	C 	0.93767	0.79103	0.65793	0.093
Mof_H 	H 	0.95777	0.77103	0.65723	-0.001
Mof_C 	C 	0.96887	0.84943	0.65643	-0.138
Mof_H 	H 	0.00887	0.86843	0.65303	0.086
Mof_C 	C 	0.73697	0.65593	0.44923	0.049
Mof_N 	N 	0.44123	0.99967	0.84797	-0.162
Mof_C 	C 	0.60433	0.12437	0.99127	0.103
Mof_H 	H 	0.62443	0.10437	0.99057	0.001
Mof_C 	C 	0.63553	0.18277	0.98977	-0.159
Mof_H 	H 	0.67553	0.20177	0.98637	0.099
Mof_C 	C 	0.40363	0.98927	0.78257	0.06
Mof_N 	N 	0.1079	0.7749	0.1813	-0.184
Mof_C 	C 	0.271	0.8133	0.3246	0.102
Mof_H 	H 	0.2911	0.8534	0.3239	-0.008
Mof_C 	C 	0.3022	0.7861	0.3231	-0.163
Mof_H 	H 	0.3422	0.8071	0.3197	0.097
Mof_C 	C 	0.0703	0.7477	0.1159	0.056
Mof_N 	N 	0.77457	0.10823	0.51463	-0.182
Mof_C 	C 	0.93767	0.14663	0.65793	0.098
Mof_H 	H 	0.95777	0.18673	0.65723	-0.003
Mof_C 	C 	0.96887	0.11943	0.65643	-0.148
Mof_H 	H 	0.00887	0.14043	0.65303	0.089
Mof_C 	C 	0.73697	0.08103	0.44923	0.048
Mof_N 	N 	0.44123	0.44157	0.84797	-0.166
Mof_C 	C 	0.60433	0.47997	0.99127	0.103
Mof_H 	H 	0.62443	0.52007	0.99057	0.001
Mof_C 	C 	0.63553	0.45277	0.98977	-0.159
Mof_H 	H 	0.67553	0.47377	0.98637	0.099
Mof_C 	C 	0.40363	0.41437	0.78257	0.057
Mof_N 	N 	0.2251	0.333	0.1813	-0.184
Mof_C 	C 	0.1867	0.4577	0.3246	0.103
Mof_H 	H 	0.1466	0.4377	0.3239	-0.009
Mof_C 	C 	0.2139	0.5161	0.3231	-0.163
Mof_H 	H 	0.1929	0.5351	0.3197	0.097
Mof_C 	C 	0.2523	0.3226	0.1159	0.055
Mof_N 	N 	0.89177	0.66633	0.51463	-0.181
Mof_C 	C 	0.85337	0.79103	0.65793	0.1
Mof_H 	H 	0.81327	0.77103	0.65723	-0.005
Mof_C 	C 	0.88057	0.84943	0.65643	-0.154
Mof_H 	H 	0.85957	0.86843	0.65303	0.096
Mof_C 	C 	0.91897	0.65593	0.44923	0.05
Mof_N 	N 	0.55843	0.99967	0.84797	-0.162
Mof_C 	C 	0.52003	0.12437	0.99127	0.103
Mof_H 	H 	0.47993	0.10437	0.99057	0.001
Mof_C 	C 	0.54723	0.18277	0.98977	-0.159
Mof_H 	H 	0.52623	0.20177	0.98637	0.099
Mof_C 	C 	0.58563	0.98927	0.78257	0.06
Mof_N 	N 	0.667	0.8921	0.1813	-0.185
Mof_C 	C 	0.5423	0.729	0.3246	0.102
Mof_H 	H 	0.5623	0.7089	0.3239	-0.009
Mof_C 	C 	0.4839	0.6978	0.3231	-0.163
Mof_H 	H 	0.4649	0.6578	0.3197	0.097
Mof_C 	C 	0.6774	0.9297	0.1159	0.064
Mof_N 	N 	0.33367	0.22543	0.51463	-0.181
Mof_C 	C 	0.20897	0.06233	0.65793	0.117
Mof_H 	H 	0.22897	0.04223	0.65723	-0.014
Mof_C 	C 	0.15057	0.03113	0.65643	-0.189
Mof_H 	H 	0.13157	0.99113	0.65303	0.113
Mof_C 	C 	0.34407	0.26303	0.44923	0.049
Mof_N 	N 	0.00033	0.55877	0.84797	-0.167
Mof_C 	C 	0.87563	0.39567	0.99127	0.103
Mof_H 	H 	0.89563	0.37557	0.99057	0.002
Mof_C 	C 	0.81723	0.36447	0.98977	-0.158
Mof_H 	H 	0.79823	0.32447	0.98637	0.099
Mof_C 	C 	0.01073	0.59637	0.78257	0.056
Mof_N 	N 	0.7749	0.1079	0.8187	-0.187
Mof_C 	C 	0.8133	0.271	0.6754	0.101
Mof_H 	H 	0.8534	0.2911	0.6761	-0.008
Mof_C 	C 	0.7861	0.3022	0.6769	-0.164
Mof_H 	H 	0.8071	0.3422	0.6803	0.095
Mof_C 	C 	0.7477	0.0703	0.8841	0.089
Mof_N 	N 	0.44157	0.44123	0.15203	-0.182
Mof_C 	C 	0.47997	0.60433	0.00873	0.096
Mof_H 	H 	0.52007	0.62443	0.00943	-0.013
Mof_C 	C 	0.45277	0.63553	0.01023	-0.164
Mof_H 	H 	0.47377	0.67553	0.01363	0.092
Mof_C 	C 	0.41437	0.40363	0.21743	0.045
Mof_N 	N 	0.10823	0.77457	0.48537	-0.179
Mof_C 	C 	0.14663	0.93767	0.34207	0.091
Mof_H 	H 	0.18673	0.95777	0.34277	-0.004
Mof_C 	C 	0.11943	0.96887	0.34357	-0.145
Mof_H 	H 	0.14043	0.00887	0.34697	0.081
Mof_C 	C 	0.08103	0.73697	0.55077	0.052
Mof_N 	N 	0.333	0.2251	0.8187	-0.186
Mof_C 	C 	0.4577	0.1867	0.6754	0.101
Mof_H 	H 	0.4377	0.1466	0.6761	-0.009
Mof_C 	C 	0.5161	0.2139	0.6769	-0.164
Mof_H 	H 	0.5351	0.1929	0.6803	0.094
Mof_C 	C 	0.3226	0.2523	0.8841	0.088
Mof_N 	N 	0.99967	0.55843	0.15203	-0.178
Mof_C 	C 	0.12437	0.52003	0.00873	0.096
Mof_H 	H 	0.10437	0.47993	0.00943	-0.013
Mof_C 	C 	0.18277	0.54723	0.01023	-0.164
Mof_H 	H 	0.20177	0.52623	0.01363	0.091
Mof_C 	C 	0.98927	0.58563	0.21743	0.048
Mof_N 	N 	0.66633	0.89177	0.48537	-0.178
Mof_C 	C 	0.79103	0.85337	0.34207	0.095
Mof_H 	H 	0.77103	0.81327	0.34277	-0.007
Mof_C 	C 	0.84943	0.88057	0.34357	-0.154
Mof_H 	H 	0.86843	0.85957	0.34697	0.09
Mof_C 	C 	0.65593	0.91897	0.55077	0.055
Mof_N 	N 	0.8921	0.667	0.8187	-0.187
Mof_C 	C 	0.729	0.5423	0.6754	0.101
Mof_H 	H 	0.7089	0.5623	0.6761	-0.009
Mof_C 	C 	0.6978	0.4839	0.6769	-0.164
Mof_H 	H 	0.6578	0.4649	0.6803	0.094
Mof_C 	C 	0.9297	0.6774	0.8841	0.095
Mof_N 	N 	0.55877	0.00033	0.15203	-0.183
Mof_C 	C 	0.39567	0.87563	0.00873	0.096
Mof_H 	H 	0.37557	0.89563	0.00943	-0.011
Mof_C 	C 	0.36447	0.81723	0.01023	-0.163
Mof_H 	H 	0.32447	0.79823	0.01363	0.091
Mof_C 	C 	0.59637	0.01073	0.21743	0.043
Mof_N 	N 	0.22543	0.33367	0.48537	-0.179
Mof_C 	C 	0.06233	0.20897	0.34207	0.112
Mof_H 	H 	0.04223	0.22897	0.34277	-0.015
Mof_C 	C 	0.03113	0.15057	0.34357	-0.188
Mof_H 	H 	0.99113	0.13157	0.34697	0.107
Mof_C 	C 	0.26303	0.34407	0.55077	0.053
Mof_N 	N 	0.63635	0.2727	0.67	-0.132
Mof_N 	N 	0.30302	0.60603	0.00333	-0.133
Mof_N 	N 	0.96968	0.93937	0.33667	-0.13
Mof_N 	N 	0.7273	0.36365	0.67	-0.132
Mof_N 	N 	0.39397	0.69698	0.00333	-0.133
Mof_N 	N 	0.06063	0.03032	0.33667	-0.135
Mof_N 	N 	0.63635	0.36365	0.67	-0.132
Mof_N 	N 	0.30302	0.69698	0.00333	-0.133
Mof_N 	N 	0.96968	0.03032	0.33667	-0.133
Mof_N 	N 	0.2727	0.63635	0.33	-0.129
Mof_N 	N 	0.93937	0.96968	0.66333	-0.126
Mof_N 	N 	0.60603	0.30302	0.99667	-0.129
Mof_N 	N 	0.36365	0.7273	0.33	-0.129
Mof_N 	N 	0.03032	0.06063	0.66333	-0.131
Mof_N 	N 	0.69698	0.39397	0.99667	-0.129
Mof_N 	N 	0.36365	0.63635	0.33	-0.129
Mof_N 	N 	0.03032	0.96968	0.66333	-0.128
Mof_N 	N 	0.69698	0.30302	0.99667	-0.129
Mof_Au	Au	1.83757e-17	0.29173	-0	-0.03
Mof_Au	Au	0.66667	0.62506	0.33333	0.031
Mof_Au	Au	0.33333	0.9584	0.66667	0.064
Mof_Au	Au	0.70827	0.70827	-0	-0.018
Mof_Au	Au	0.37494	0.0416	0.33333	0.025
Mof_Au	Au	0.0416	0.37494	0.66667	0.053
Mof_Au	Au	0.29173	0	-0	-0.032
Mof_Au	Au	0.9584	0.33333	0.33333	0.037
Mof_Au	Au	0.62506	0.66667	0.66667	0.057
Mof_Au	Au	-0	0.70827	-0	-0.03
Mof_Au	Au	0.66667	0.0416	0.33333	0.026
Mof_Au	Au	0.33333	0.37494	0.66667	0.057
Mof_Au	Au	0.29173	0.29173	-0	-0.019
Mof_Au	Au	0.9584	0.62506	0.33333	0.037
Mof_Au	Au	0.62506	0.9584	0.66667	0.064
Mof_Au	Au	0.70827	0	-0	-0.031
Mof_Au	Au	0.37494	0.33333	0.33333	0.03
Mof_Au	Au	0.0416	0.66667	0.66667	0.053
Mof_Fe	Fe	0.83333	0.16667	0.66667	0.655
Mof_Fe	Fe	0.5	0.5	-0	0.604
Mof_Fe	Fe	0.83333	0.66667	0.66667	0.656
Mof_Fe	Fe	0.5	0	-0	0.594
Mof_Fe	Fe	0.33333	0.16667	0.66667	0.655
Mof_Fe	Fe	3.67515e-17	0.5	-0	0.595
Mof_Fe	Fe	0.16667	0.83333	0.33333	0.652
Mof_Fe	Fe	0.66667	0.83333	0.33333	0.652
Mof_Fe	Fe	0.16667	0.33333	0.33333	0.651
Mof_N 	N 	0.7866	0.2134	0.6729	-0.194
Mof_C 	C 	0.7267	0.2733	0.6734	0.084
Mof_C 	C 	0.695	0.305	0.674	0.084
Mof_N 	N 	0.45327	0.54673	0.00623	-0.195
Mof_C 	C 	0.39337	0.60663	0.00673	0.081
Mof_C 	C 	0.36167	0.63833	0.00733	0.083
Mof_N 	N 	0.11993	0.88007	0.33957	-0.194
Mof_C 	C 	0.06003	0.93997	0.34007	0.082
Mof_C 	C 	0.02833	0.97167	0.34067	0.085
Mof_N 	N 	0.7866	0.5732	0.6729	-0.194
Mof_C 	C 	0.7267	0.4534	0.6734	0.084
Mof_C 	C 	0.695	0.39	0.674	0.084
Mof_N 	N 	0.45327	0.90653	0.00623	-0.192
Mof_C 	C 	0.39337	0.78673	0.00673	0.081
Mof_C 	C 	0.36167	0.72333	0.00733	0.083
Mof_N 	N 	0.11993	0.23987	0.33957	-0.198
Mof_C 	C 	0.06003	0.12007	0.34007	0.095
Mof_C 	C 	0.02833	0.05667	0.34067	0.072
Mof_N 	N 	0.4268	0.2134	0.6729	-0.195
Mof_C 	C 	0.5466	0.2733	0.6734	0.084
Mof_C 	C 	0.61	0.305	0.674	0.084
Mof_N 	N 	0.09347	0.54673	0.00623	-0.195
Mof_C 	C 	0.21327	0.60663	0.00673	0.081
Mof_C 	C 	0.27667	0.63833	0.00733	0.083
Mof_N 	N 	0.76013	0.88007	0.33957	-0.191
Mof_C 	C 	0.87993	0.93997	0.34007	0.07
Mof_C 	C 	0.94333	0.97167	0.34067	0.096
Mof_N 	N 	0.2134	0.7866	0.3271	-0.195
Mof_C 	C 	0.2733	0.7267	0.3266	0.087
Mof_C 	C 	0.305	0.695	0.326	0.088
Mof_N 	N 	0.88007	0.11993	0.66043	-0.195
Mof_C 	C 	0.93997	0.06003	0.65993	0.09
Mof_C 	C 	0.97167	0.02833	0.65933	0.088
Mof_N 	N 	0.54673	0.45327	0.99377	-0.182
Mof_C 	C 	0.60663	0.39337	0.99327	0.088
Mof_C 	C 	0.63833	0.36167	0.99267	0.09
Mof_N 	N 	0.5732	0.7866	0.3271	-0.195
Mof_C 	C 	0.4534	0.7267	0.3266	0.087
Mof_C 	C 	0.39	0.695	0.326	0.088
Mof_N 	N 	0.23987	0.11993	0.66043	-0.198
Mof_C 	C 	0.12007	0.06003	0.65993	0.101
Mof_C 	C 	0.05667	0.02833	0.65933	0.077
Mof_N 	N 	0.90653	0.45327	0.99377	-0.179
Mof_C 	C 	0.78673	0.39337	0.99327	0.087
Mof_C 	C 	0.72333	0.36167	0.99267	0.09
Mof_N 	N 	0.2134	0.4268	0.3271	-0.195
Mof_C 	C 	0.2733	0.5466	0.3266	0.087
Mof_C 	C 	0.305	0.61	0.326	0.088
Mof_N 	N 	0.88007	0.76013	0.66043	-0.191
Mof_C 	C 	0.93997	0.87993	0.65993	0.077
Mof_C 	C 	0.97167	0.94333	0.65933	0.1
Mof_N 	N 	0.54673	0.09347	0.99377	-0.182
Mof_C 	C 	0.60663	0.21327	0.99327	0.087
Mof_C 	C 	0.63833	0.27667	0.99267	0.09
_end
