data_functionalizedCrystal
_audit_creation_method	'EQeq! by Chris Wilmer'
_symmetry_space_group_name_H-M	'P1'
_symmetry_Int_Tables_number	1
_symmetry_cell_setting	triclinic
loop_
_symmetry_equiv_pos_as_xyz
  x,y,z
_cell_length_a	10.337
_cell_length_b	14.437
_cell_length_c	19.42
_cell_angle_alpha	90
_cell_angle_beta	89.731
_cell_angle_gamma	90
loop_
_atom_site_label
_atom_site_type_symbol
_atom_site_fract_x
_atom_site_fract_y
_atom_site_fract_z
_atom_site_charge
Mof_Zn	Zn	0.65443	0.91599	0.75145	1.227
Mof_Zn	Zn	0.96915	0.98504	0.75029	1.219
Mof_Zn	Zn	0.15505	0.7801	0.74861	1.224
Mof_Zn	Zn	0.46994	0.71062	0.74971	1.201
Mof_Zn	Zn	0.34557	0.41599	0.24855	1.228
Mof_Zn	Zn	0.03085	0.48504	0.24971	1.227
Mof_Zn	Zn	0.84495	0.2801	0.25139	1.224
Mof_Zn	Zn	0.53006	0.21062	0.25029	1.203
Mof_H 	H 	0.9553	0.0867	0.9497	0.044
Mof_H 	H 	0.9236	0.1755	0.0544	0.056
Mof_H 	H 	0.5589	0.0565	0.0582	0.053
Mof_H 	H 	0.5738	0.053	0.9346	0.047
Mof_H 	H 	0.575	0.0511	0.5631	0.054
Mof_H 	H 	0.5499	0.0802	0.4493	0.044
Mof_H 	H 	0.9328	0.1749	0.4505	0.047
Mof_H 	H 	0.947	0.0938	0.5565	0.057
Mof_H 	H 	0.286	0.0793	0.7201	0.004
Mof_H 	H 	0.2716	0.0608	0.7984	-0.001
Mof_H 	H 	0.0447	0.5867	0.0503	0.044
Mof_H 	H 	0.0764	0.6755	0.9456	0.053
Mof_H 	H 	0.4411	0.5565	0.9418	0.048
Mof_H 	H 	0.4262	0.553	0.0654	0.043
Mof_H 	H 	0.425	0.5511	0.4369	0.049
Mof_H 	H 	0.4501	0.5802	0.5507	0.04
Mof_H 	H 	0.0672	0.6749	0.5495	0.045
Mof_H 	H 	0.053	0.5938	0.4435	0.055
Mof_H 	H 	0.714	0.5793	0.2799	0.016
Mof_H 	H 	0.7284	0.5608	0.2016	0.01
Mof_C 	C 	0.7918	0.0267	0.8694	0.38
Mof_C 	C 	0.7692	0.0663	0.938	-0.103
Mof_C 	C 	0.8736	0.0956	0.9688	0.002
Mof_C 	C 	0.8557	0.143	0.0345	-0.035
Mof_C 	C 	0.7343	0.1387	0.0672	-0.056
Mof_C 	C 	0.7215	0.1691	0.1443	0.401
Mof_C 	C 	0.6287	0.08	0.0334	-0.04
Mof_C 	C 	0.644	0.0643	0.9631	0.003
Mof_C 	C 	0.7923	0.0248	0.6433	0.468
Mof_C 	C 	0.7564	0.0649	0.5659	-0.065
Mof_C 	C 	0.6471	0.0675	0.537	-0.014
Mof_C 	C 	0.6279	0.0925	0.4712	-0.017
Mof_C 	C 	0.7311	0.1387	0.4357	-0.083
Mof_C 	C 	0.724	0.1725	0.3617	0.404
Mof_C 	C 	0.8623	0.1446	0.4702	-0.017
Mof_C 	C 	0.8678	0.1	0.5345	-0.03
Mof_C 	C 	0.231	0.0493	0.7541	0.204
Mof_C 	C 	0.3649	0.9189	0.7453	0.518
Mof_C 	C 	0.866	0.7918	0.7529	0.365
Mof_C 	C 	0.243	0.969	0.7442	-0.267
Mof_C 	C 	0.2082	0.5267	0.1306	0.357
Mof_C 	C 	0.2308	0.5663	0.062	-0.097
Mof_C 	C 	0.1264	0.5956	0.0312	-0.006
Mof_C 	C 	0.1443	0.643	0.9655	-0.032
Mof_C 	C 	0.2657	0.6387	0.9328	-0.061
Mof_C 	C 	0.2785	0.6691	0.8557	0.401
Mof_C 	C 	0.3713	0.58	0.9666	-0.037
Mof_C 	C 	0.356	0.5643	0.0369	-0.007
Mof_C 	C 	0.2077	0.5248	0.3567	0.44
Mof_C 	C 	0.2436	0.5649	0.4341	-0.063
Mof_C 	C 	0.3529	0.5675	0.463	-0.02
Mof_C 	C 	0.3721	0.5925	0.5288	-0.016
Mof_C 	C 	0.2689	0.6387	0.5643	-0.087
Mof_C 	C 	0.276	0.6725	0.6383	0.404
Mof_C 	C 	0.1377	0.6446	0.5298	-0.017
Mof_C 	C 	0.1322	0.6	0.4655	-0.034
Mof_C 	C 	0.769	0.5493	0.2459	0.136
Mof_C 	C 	0.6351	0.4189	0.2547	0.499
Mof_C 	C 	0.134	0.2918	0.2471	0.367
Mof_C 	C 	0.757	0.469	0.2558	-0.214
Mof_N 	N 	0.1317	0.9144	0.7542	-0.347
Mof_N 	N 	0.6264	0.7825	0.7467	-0.425
Mof_N 	N 	0.8683	0.4144	0.2458	-0.351
Mof_N 	N 	0.3736	0.2825	0.2533	-0.423
Mof_O 	O 	0.8965	0.0316	0.8379	-0.462
Mof_O 	O 	0.6898	0.9879	0.8352	-0.469
Mof_O 	O 	0.6059	0.1633	0.1643	-0.514
Mof_O 	O 	0.8169	0.2107	0.163	-0.489
Mof_O 	O 	0.8951	0.036	0.6657	-0.525
Mof_O 	O 	0.6914	0.9873	0.6672	-0.515
Mof_O 	O 	0.6049	0.1686	0.3367	-0.5
Mof_O 	O 	0.8148	0.212	0.3381	-0.505
Mof_O 	O 	0.1117	0.1022	0.7551	-0.302
Mof_O 	O 	0.3569	0.8334	0.7501	-0.623
Mof_O 	O 	0.4637	0.9615	0.7468	-0.503
Mof_O 	O 	0.971	0.7398	0.7506	-0.455
Mof_O 	O 	0.853	0.871	0.7496	-0.638
Mof_O 	O 	0.1035	0.5316	0.1621	-0.467
Mof_O 	O 	0.3102	0.4879	0.1648	-0.449
Mof_O 	O 	0.3941	0.6633	0.8357	-0.517
Mof_O 	O 	0.1831	0.7107	0.837	-0.491
Mof_O 	O 	0.1049	0.536	0.3343	-0.527
Mof_O 	O 	0.3086	0.4873	0.3328	-0.492
Mof_O 	O 	0.3951	0.6686	0.6633	-0.502
Mof_O 	O 	0.1852	0.712	0.6619	-0.507
Mof_O 	O 	0.8883	0.6022	0.2449	-0.3
Mof_O 	O 	0.6431	0.3334	0.2499	-0.617
Mof_O 	O 	0.5363	0.4615	0.2532	-0.492
Mof_O 	O 	0.029	0.2398	0.2494	-0.452
Mof_O 	O 	0.147	0.371	0.2504	-0.633
_end
