data_functionalizedCrystal
_audit_creation_method	'EQeq! by Chris Wilmer'
_symmetry_space_group_name_H-M	'P1'
_symmetry_Int_Tables_number	1
_symmetry_cell_setting	triclinic
loop_
_symmetry_equiv_pos_as_xyz
  x,y,z
_cell_length_a	12.1025
_cell_length_b	12.6805
_cell_length_c	21.695
_cell_angle_alpha	82.759
_cell_angle_beta	74.685
_cell_angle_gamma	61.4967
loop_
_atom_site_label
_atom_site_type_symbol
_atom_site_fract_x
_atom_site_fract_y
_atom_site_fract_z
_atom_site_charge
Mof_Dy	Dy	0.50849	0.26034	0.47429	1.908
Mof_Dy	Dy	0.23117	0.26034	0.02571	1.902
Mof_Dy	Dy	0.49151	0.73966	0.52571	1.908
Mof_Dy	Dy	0.76883	0.73966	0.97429	1.902
Mof_Dy	Dy	0.75306	0.49388	0.25	2.058
Mof_Dy	Dy	0.24694	0.50612	0.75	2.058
Mof_Dy	Dy	0.21336	0.57328	0.25	1.567
Mof_Dy	Dy	0.78664	0.42672	0.75	1.567
Mof_H 	H 	0.9001	0.1286	0.4147	0.045
Mof_H 	H 	0.1207	0.3006	0.3813	0.053
Mof_H 	H 	0.1064	0.9594	0.4055	0.054
Mof_H 	H 	0.1685	0.196	0.4815	0.052
Mof_H 	H 	0.4714	0.1202	0.3376	0.06
Mof_H 	H 	0.4747	0.9422	0.3462	0.059
Mof_H 	H 	0.9713	0.1286	0.0853	0.045
Mof_H 	H 	0.5787	0.3006	0.1187	0.052
Mof_H 	H 	0.9342	0.9594	0.0945	0.052
Mof_H 	H 	0.6355	0.196	0.0185	0.05
Mof_H 	H 	0.4084	0.1202	0.1624	0.059
Mof_H 	H 	0.5831	0.9422	0.1538	0.059
Mof_H 	H 	0.0999	0.8714	0.5853	0.044
Mof_H 	H 	0.8793	0.6994	0.6187	0.052
Mof_H 	H 	0.8936	0.0406	0.5945	0.053
Mof_H 	H 	0.8315	0.804	0.5185	0.051
Mof_H 	H 	0.5286	0.8798	0.6624	0.059
Mof_H 	H 	0.5253	0.0578	0.6538	0.058
Mof_H 	H 	0.0287	0.8714	0.9147	0.045
Mof_H 	H 	0.4213	0.6994	0.8813	0.052
Mof_H 	H 	0.0658	0.0406	0.9055	0.052
Mof_H 	H 	0.3645	0.804	0.9815	0.05
Mof_H 	H 	0.5916	0.8798	0.8376	0.059
Mof_H 	H 	0.4169	0.0578	0.8462	0.059
Mof_C 	C 	0.3536	0.3628	0.3521	0.423
Mof_C 	C 	0.5823	0.6992	0.3618	0.42
Mof_C 	C 	0.7221	0.2844	0.3469	0.389
Mof_C 	C 	0.843	0.2782	0.3592	-0.046
Mof_C 	C 	0.9203	0.1906	0.3952	-0.034
Mof_C 	C 	0.0302	0.195	0.4024	0.002
Mof_C 	C 	0.0504	0.292	0.3754	-0.04
Mof_C 	C 	0.9674	0.3748	0.3402	-0.037
Mof_C 	C 	0.9833	0.4808	0.3065	0.399
Mof_C 	C 	0.2755	0.757	0.456	0.328
Mof_C 	C 	0.2397	0.8884	0.459	-0.012
Mof_C 	C 	0.1493	0.9782	0.43	-0.066
Mof_C 	C 	0.1207	0.0974	0.4365	0.032
Mof_C 	C 	0.1873	0.1164	0.4736	-0.078
Mof_C 	C 	0.2802	0.0208	0.499	0.019
Mof_C 	C 	0.3796	0.0302	0.5262	0.273
Mof_C 	C 	0.3737	0.2856	0.2998	-0.045
Mof_C 	C 	0.4376	0.1612	0.3018	-0.036
Mof_C 	C 	0.5809	0.778	0.304	-0.048
Mof_C 	C 	0.5175	0.9018	0.3063	-0.042
Mof_C 	C 	0.2836	0.3628	0.1479	0.422
Mof_C 	C 	0.7185	0.6992	0.1382	0.419
Mof_C 	C 	0.9935	0.2844	0.1531	0.391
Mof_C 	C 	0.8788	0.2782	0.1408	-0.046
Mof_C 	C 	0.8891	0.1906	0.1048	-0.036
Mof_C 	C 	0.7748	0.195	0.0976	0.004
Mof_C 	C 	0.6576	0.292	0.1246	-0.041
Mof_C 	C 	0.6578	0.3748	0.1598	-0.037
Mof_C 	C 	0.5359	0.4808	0.1935	0.398
Mof_C 	C 	0.9675	0.757	0.044	0.331
Mof_C 	C 	0.8719	0.8884	0.041	-0.013
Mof_C 	C 	0.8725	0.9782	0.07	-0.061
Mof_C 	C 	0.7819	0.0974	0.0635	0.027
Mof_C 	C 	0.6963	0.1164	0.0264	-0.074
Mof_C 	C 	0.699	0.0208	0.001	0.013
Mof_C 	C 	0.5902	0.0302	0.9738	0.278
Mof_C 	C 	0.3407	0.2856	0.2002	-0.045
Mof_C 	C 	0.4012	0.1612	0.1982	-0.036
Mof_C 	C 	0.6411	0.778	0.196	-0.048
Mof_C 	C 	0.5807	0.9018	0.1937	-0.042
Mof_C 	C 	0.6464	0.6372	0.6479	0.423
Mof_C 	C 	0.4177	0.3008	0.6382	0.42
Mof_C 	C 	0.2779	0.7156	0.6531	0.389
Mof_C 	C 	0.157	0.7218	0.6408	-0.046
Mof_C 	C 	0.0797	0.8094	0.6048	-0.034
Mof_C 	C 	0.9698	0.805	0.5976	0.002
Mof_C 	C 	0.9496	0.708	0.6246	-0.04
Mof_C 	C 	0.0326	0.6252	0.6598	-0.037
Mof_C 	C 	0.0167	0.5192	0.6935	0.399
Mof_C 	C 	0.7245	0.243	0.544	0.328
Mof_C 	C 	0.7603	0.1116	0.541	-0.012
Mof_C 	C 	0.8507	0.0218	0.57	-0.066
Mof_C 	C 	0.8793	0.9026	0.5635	0.032
Mof_C 	C 	0.8127	0.8836	0.5264	-0.078
Mof_C 	C 	0.7198	0.9792	0.501	0.019
Mof_C 	C 	0.6204	0.9698	0.4738	0.273
Mof_C 	C 	0.6263	0.7144	0.7002	-0.045
Mof_C 	C 	0.5624	0.8388	0.6982	-0.036
Mof_C 	C 	0.4191	0.222	0.696	-0.048
Mof_C 	C 	0.4825	0.0982	0.6937	-0.042
Mof_C 	C 	0.7164	0.6372	0.8521	0.422
Mof_C 	C 	0.2815	0.3008	0.8618	0.419
Mof_C 	C 	0.0065	0.7156	0.8469	0.391
Mof_C 	C 	0.1212	0.7218	0.8592	-0.046
Mof_C 	C 	0.1109	0.8094	0.8952	-0.036
Mof_C 	C 	0.2252	0.805	0.9024	0.004
Mof_C 	C 	0.3424	0.708	0.8754	-0.041
Mof_C 	C 	0.3422	0.6252	0.8402	-0.037
Mof_C 	C 	0.4641	0.5192	0.8065	0.398
Mof_C 	C 	0.0325	0.243	0.956	0.331
Mof_C 	C 	0.1281	0.1116	0.959	-0.013
Mof_C 	C 	0.1275	0.0218	0.93	-0.061
Mof_C 	C 	0.2181	0.9026	0.9365	0.027
Mof_C 	C 	0.3037	0.8836	0.9736	-0.074
Mof_C 	C 	0.301	0.9792	0.999	0.013
Mof_C 	C 	0.4098	0.9698	0.0262	0.278
Mof_C 	C 	0.6593	0.7144	0.7998	-0.045
Mof_C 	C 	0.5988	0.8388	0.8018	-0.036
Mof_C 	C 	0.3589	0.222	0.804	-0.048
Mof_C 	C 	0.4193	0.0982	0.8063	-0.042
Mof_C 	C 	0.451	0.098	0.25	0.011
Mof_C 	C 	0.5165	0.967	0.25	0.014
Mof_C 	C 	0.549	0.902	0.75	0.011
Mof_C 	C 	0.4835	0.033	0.75	0.014
Mof_N 	N 	0.867	0.3674	0.3315	-0.203
Mof_N 	N 	0.3007	0.9116	0.4936	-0.197
Mof_N 	N 	0.7656	0.3674	0.1685	-0.203
Mof_N 	N 	0.7877	0.9116	0.0064	-0.193
Mof_N 	N 	0.133	0.6326	0.6685	-0.203
Mof_N 	N 	0.6993	0.0884	0.5064	-0.197
Mof_N 	N 	0.2344	0.6326	0.8315	-0.203
Mof_N 	N 	0.2123	0.0884	0.9936	-0.193
Mof_N 	N 	0.3276	0.3448	0.25	-0.155
Mof_N 	N 	0.6419	0.7162	0.25	-0.202
Mof_N 	N 	0.6724	0.6552	0.75	-0.155
Mof_N 	N 	0.3581	0.2838	0.75	-0.202
Mof_O 	O 	0.681	0.3504	0.3016	-0.469
Mof_O 	O 	0.6742	0.2218	0.3813	-0.468
Mof_O 	O 	0.8998	0.5484	0.2753	-0.489
Mof_O 	O 	0.0764	0.4938	0.3109	-0.467
Mof_O 	O 	0.353	0.6852	0.4899	-0.451
Mof_O 	O 	0.2275	0.725	0.4231	-0.288
Mof_O 	O 	0.3965	0.9536	0.5751	-0.314
Mof_O 	O 	0.4336	0.1048	0.502	-0.367
Mof_O 	O 	0.3054	0.4746	0.3422	-0.443
Mof_O 	O 	0.3818	0.3096	0.4029	-0.52
Mof_O 	O 	0.6294	0.588	0.3525	-0.495
Mof_O 	O 	0.5357	0.7518	0.4141	-0.504
Mof_O 	O 	0.9686	0.3504	0.1984	-0.469
Mof_O 	O 	0.104	0.2218	0.1187	-0.469
Mof_O 	O 	0.5518	0.5484	0.2247	-0.489
Mof_O 	O 	0.4298	0.4938	0.1891	-0.466
Mof_O 	O 	0.9618	0.6852	0.0101	-0.449
Mof_O 	O 	0.0475	0.725	0.0769	-0.29
Mof_O 	O 	0.6499	0.9536	0.9249	-0.317
Mof_O 	O 	0.4616	0.1048	0.998	-0.365
Mof_O 	O 	0.22	0.4746	0.1578	-0.443
Mof_O 	O 	0.3086	0.3096	0.0971	-0.52
Mof_O 	O 	0.7826	0.588	0.1475	-0.494
Mof_O 	O 	0.7125	0.7518	0.0859	-0.503
Mof_O 	O 	0.319	0.6496	0.6984	-0.469
Mof_O 	O 	0.3258	0.7782	0.6187	-0.468
Mof_O 	O 	0.1002	0.4516	0.7247	-0.489
Mof_O 	O 	0.9236	0.5062	0.6891	-0.467
Mof_O 	O 	0.647	0.3148	0.5101	-0.451
Mof_O 	O 	0.7725	0.275	0.5769	-0.288
Mof_O 	O 	0.6035	0.0464	0.4249	-0.314
Mof_O 	O 	0.5664	0.8952	0.498	-0.367
Mof_O 	O 	0.6946	0.5254	0.6578	-0.443
Mof_O 	O 	0.6182	0.6904	0.5971	-0.52
Mof_O 	O 	0.3706	0.412	0.6475	-0.495
Mof_O 	O 	0.4643	0.2482	0.5859	-0.504
Mof_O 	O 	0.0314	0.6496	0.8016	-0.469
Mof_O 	O 	0.896	0.7782	0.8813	-0.469
Mof_O 	O 	0.4482	0.4516	0.7753	-0.489
Mof_O 	O 	0.5702	0.5062	0.8109	-0.466
Mof_O 	O 	0.0382	0.3148	0.9899	-0.449
Mof_O 	O 	0.9525	0.275	0.9231	-0.29
Mof_O 	O 	0.3501	0.0464	0.0751	-0.317
Mof_O 	O 	0.5384	0.8952	0.002	-0.365
Mof_O 	O 	0.78	0.5254	0.8422	-0.443
Mof_O 	O 	0.6914	0.6904	0.9029	-0.52
Mof_O 	O 	0.2174	0.412	0.8525	-0.494
Mof_O 	O 	0.2875	0.2482	0.9141	-0.503
_end
