# CIF file generated by openbabel 3.1.0, see https://openbabel.org
data_I
_chemical_name_common 'image0'
_cell_length_a 18.3223
_cell_length_b 11.4005
_cell_length_c 18.8536
_cell_angle_alpha 90
_cell_angle_beta 108.681
_cell_angle_gamma 90
_space_group_name_H-M_alt 'P 1'
_space_group_name_Hall 'P 1'
loop_
    _symmetry_equiv_pos_as_xyz
    x,y,z
loop_
    _atom_site_label
    _atom_site_type_symbol
    _atom_site_fract_x
    _atom_site_fract_y
    _atom_site_fract_z
    _atom_site_occupancy
    Sm1      Sm       0.50082    0.43320    0.89650    1.000
    O1       O        0.57530    0.33240    0.00010    1.000
    O2       O        0.40500    0.32460    0.92270    1.000
    O3       O        0.91110    0.07490    0.27940    1.000
    O4       O        0.91460    0.03150    0.16560    1.000
    O5       O        0.57900    0.40900    0.11140    1.000
    O6       O        0.42250    0.42960    0.02480    1.000
    N1       N        0.66800    0.30010    0.23900    1.000
    N2       N        0.30180    0.15010    0.88970    1.000
    C1       C        0.60290    0.33960    0.07100    1.000
    C2       C        0.66970    0.26200    0.10910    1.000
    C3       C        0.69960    0.25030    0.18850    1.000
    C4       C        0.76760    0.18550    0.21900    1.000
    H1       H        0.78800    0.17660    0.27180    1.000
    C5       C        0.70620    0.20350    0.06500    1.000
    H2       H        0.68440    0.20630    0.01200    1.000
    C6       C        0.38710    0.35380    0.98020    1.000
    C7       C        0.31630    0.29760    0.98940    1.000
    C8       C        0.27730    0.20300    0.94440    1.000
    C9       C        0.28840    0.34110    0.04520    1.000
    H3       H        0.31560    0.40260    0.07670    1.000
    C10      C        0.88250    0.07660    0.20940    1.000
    C11      C        0.80560    0.13440    0.17440    1.000
    C12      C        0.77380    0.14150    0.09690    1.000
    H4       H        0.79840    0.10360    0.06590    1.000
    Sm2      Sm       0.00082    0.93320    0.89650    1.000
    O7       O        0.07530    0.83240    0.00010    1.000
    O8       O        0.90500    0.82460    0.92270    1.000
    O9       O        0.41110    0.57490    0.27940    1.000
    O10      O        0.41460    0.53150    0.16560    1.000
    O11      O        0.07900    0.90900    0.11140    1.000
    O12      O        0.92250    0.92960    0.02480    1.000
    N3       N        0.16800    0.80010    0.23900    1.000
    N4       N        0.80180    0.65010    0.88970    1.000
    C13      C        0.10290    0.83960    0.07100    1.000
    C14      C        0.16970    0.76200    0.10910    1.000
    C15      C        0.19960    0.75030    0.18850    1.000
    C16      C        0.26760    0.68550    0.21900    1.000
    H5       H        0.28800    0.67660    0.27180    1.000
    C17      C        0.20620    0.70350    0.06500    1.000
    H6       H        0.18440    0.70630    0.01200    1.000
    C18      C        0.88710    0.85380    0.98020    1.000
    C19      C        0.81630    0.79760    0.98940    1.000
    C20      C        0.77730    0.70300    0.94440    1.000
    C21      C        0.78840    0.84110    0.04520    1.000
    H7       H        0.81560    0.90260    0.07670    1.000
    C22      C        0.38250    0.57660    0.20940    1.000
    C23      C        0.30560    0.63440    0.17440    1.000
    C24      C        0.27380    0.64150    0.09690    1.000
    H8       H        0.29840    0.60360    0.06590    1.000
    Sm3      Sm       0.49918    0.43320    0.60350    1.000
    O13      O        0.42470    0.33240    0.49990    1.000
    O14      O        0.59500    0.32460    0.57730    1.000
    O15      O        0.08890    0.07490    0.22060    1.000
    O16      O        0.08540    0.03150    0.33440    1.000
    O17      O        0.42100    0.40900    0.38860    1.000
    O18      O        0.57750    0.42960    0.47520    1.000
    N5       N        0.33200    0.30010    0.26100    1.000
    N6       N        0.69820    0.15010    0.61030    1.000
    C25      C        0.39710    0.33960    0.42900    1.000
    C26      C        0.33030    0.26200    0.39090    1.000
    C27      C        0.30040    0.25030    0.31150    1.000
    C28      C        0.23240    0.18550    0.28100    1.000
    H9       H        0.21200    0.17660    0.22820    1.000
    C29      C        0.29380    0.20350    0.43500    1.000
    H10      H        0.31560    0.20630    0.48800    1.000
    C30      C        0.61290    0.35380    0.51980    1.000
    C31      C        0.68370    0.29760    0.51060    1.000
    C32      C        0.72270    0.20300    0.55560    1.000
    C33      C        0.71160    0.34110    0.45480    1.000
    H11      H        0.68440    0.40260    0.42330    1.000
    C34      C        0.11750    0.07660    0.29060    1.000
    C35      C        0.19440    0.13440    0.32560    1.000
    C36      C        0.22620    0.14150    0.40310    1.000
    H12      H        0.20160    0.10360    0.43410    1.000
    Sm4      Sm       0.99918    0.93320    0.60350    1.000
    O19      O        0.92470    0.83240    0.49990    1.000
    O20      O        0.09500    0.82460    0.57730    1.000
    O21      O        0.58890    0.57490    0.22060    1.000
    O22      O        0.58540    0.53150    0.33440    1.000
    O23      O        0.92100    0.90900    0.38860    1.000
    O24      O        0.07750    0.92960    0.47520    1.000
    N7       N        0.83200    0.80010    0.26100    1.000
    N8       N        0.19820    0.65010    0.61030    1.000
    C37      C        0.89710    0.83960    0.42900    1.000
    C38      C        0.83030    0.76200    0.39090    1.000
    C39      C        0.80040    0.75030    0.31150    1.000
    C40      C        0.73240    0.68550    0.28100    1.000
    H13      H        0.71200    0.67660    0.22820    1.000
    C41      C        0.79380    0.70350    0.43500    1.000
    H14      H        0.81560    0.70630    0.48800    1.000
    C42      C        0.11290    0.85380    0.51980    1.000
    C43      C        0.18370    0.79760    0.51060    1.000
    C44      C        0.22270    0.70300    0.55560    1.000
    C45      C        0.21160    0.84110    0.45480    1.000
    H15      H        0.18440    0.90260    0.42330    1.000
    C46      C        0.61750    0.57660    0.29060    1.000
    C47      C        0.69440    0.63440    0.32560    1.000
    C48      C        0.72620    0.64150    0.40310    1.000
    H16      H        0.70160    0.60360    0.43410    1.000
    Sm5      Sm       0.49918    0.56680    0.10350    1.000
    O25      O        0.42470    0.66760    0.99990    1.000
    O26      O        0.59500    0.67540    0.07730    1.000
    O27      O        0.08890    0.92510    0.72060    1.000
    O28      O        0.08540    0.96850    0.83440    1.000
    O29      O        0.42100    0.59100    0.88860    1.000
    O30      O        0.57750    0.57040    0.97520    1.000
    N9       N        0.33200    0.69990    0.76100    1.000
    N10      N        0.69820    0.84990    0.11030    1.000
    C49      C        0.39710    0.66040    0.92900    1.000
    C50      C        0.33030    0.73800    0.89090    1.000
    C51      C        0.30040    0.74970    0.81150    1.000
    C52      C        0.23240    0.81450    0.78100    1.000
    H17      H        0.21200    0.82340    0.72820    1.000
    C53      C        0.29380    0.79650    0.93500    1.000
    H18      H        0.31560    0.79370    0.98800    1.000
    C54      C        0.61290    0.64620    0.01980    1.000
    C55      C        0.68370    0.70240    0.01060    1.000
    C56      C        0.72270    0.79700    0.05560    1.000
    C57      C        0.71160    0.65890    0.95480    1.000
    H19      H        0.68440    0.59740    0.92330    1.000
    C58      C        0.11750    0.92340    0.79060    1.000
    C59      C        0.19440    0.86560    0.82560    1.000
    C60      C        0.22620    0.85850    0.90310    1.000
    H20      H        0.20160    0.89640    0.93410    1.000
    Sm6      Sm       0.99918    0.06680    0.10350    1.000
    O31      O        0.92470    0.16760    0.99990    1.000
    O32      O        0.09500    0.17540    0.07730    1.000
    O33      O        0.58890    0.42510    0.72060    1.000
    O34      O        0.58540    0.46850    0.83440    1.000
    O35      O        0.92100    0.09100    0.88860    1.000
    O36      O        0.07750    0.07040    0.97520    1.000
    N11      N        0.83200    0.19990    0.76100    1.000
    N12      N        0.19820    0.34990    0.11030    1.000
    C61      C        0.89710    0.16040    0.92900    1.000
    C62      C        0.83030    0.23800    0.89090    1.000
    C63      C        0.80040    0.24970    0.81150    1.000
    C64      C        0.73240    0.31450    0.78100    1.000
    H21      H        0.71200    0.32340    0.72820    1.000
    C65      C        0.79380    0.29650    0.93500    1.000
    H22      H        0.81560    0.29370    0.98800    1.000
    C66      C        0.11290    0.14620    0.01980    1.000
    C67      C        0.18370    0.20240    0.01060    1.000
    C68      C        0.22270    0.29700    0.05560    1.000
    C69      C        0.21160    0.15890    0.95480    1.000
    H23      H        0.18440    0.09740    0.92330    1.000
    C70      C        0.61750    0.42340    0.79060    1.000
    C71      C        0.69440    0.36560    0.82560    1.000
    C72      C        0.72620    0.35850    0.90310    1.000
    H24      H        0.70160    0.39640    0.93410    1.000
    Sm7      Sm       0.50082    0.56680    0.39650    1.000
    O37      O        0.57530    0.66760    0.50010    1.000
    O38      O        0.40500    0.67540    0.42270    1.000
    O39      O        0.91110    0.92510    0.77940    1.000
    O40      O        0.91460    0.96850    0.66560    1.000
    O41      O        0.57900    0.59100    0.61140    1.000
    O42      O        0.42250    0.57040    0.52480    1.000
    N13      N        0.66800    0.69990    0.73900    1.000
    N14      N        0.30180    0.84990    0.38970    1.000
    C73      C        0.60290    0.66040    0.57100    1.000
    C74      C        0.66970    0.73800    0.60910    1.000
    C75      C        0.69960    0.74970    0.68850    1.000
    C76      C        0.76760    0.81450    0.71900    1.000
    H25      H        0.78800    0.82340    0.77180    1.000
    C77      C        0.70620    0.79650    0.56500    1.000
    H26      H        0.68440    0.79370    0.51200    1.000
    C78      C        0.38710    0.64620    0.48020    1.000
    C79      C        0.31630    0.70240    0.48940    1.000
    C80      C        0.27730    0.79700    0.44440    1.000
    C81      C        0.28840    0.65890    0.54520    1.000
    H27      H        0.31560    0.59740    0.57670    1.000
    C82      C        0.88250    0.92340    0.70940    1.000
    C83      C        0.80560    0.86560    0.67440    1.000
    C84      C        0.77380    0.85850    0.59690    1.000
    H28      H        0.79840    0.89640    0.56590    1.000
    Sm8      Sm       0.00082    0.06680    0.39650    1.000
    O43      O        0.07530    0.16760    0.50010    1.000
    O44      O        0.90500    0.17540    0.42270    1.000
    O45      O        0.41110    0.42510    0.77940    1.000
    O46      O        0.41460    0.46850    0.66560    1.000
    O47      O        0.07900    0.09100    0.61140    1.000
    O48      O        0.92250    0.07040    0.52480    1.000
    N15      N        0.16800    0.19990    0.73900    1.000
    N16      N        0.80180    0.34990    0.38970    1.000
    C85      C        0.10290    0.16040    0.57100    1.000
    C86      C        0.16970    0.23800    0.60910    1.000
    C87      C        0.19960    0.24970    0.68850    1.000
    C88      C        0.26760    0.31450    0.71900    1.000
    H29      H        0.28800    0.32340    0.77180    1.000
    C89      C        0.20620    0.29650    0.56500    1.000
    H30      H        0.18440    0.29370    0.51200    1.000
    C90      C        0.88710    0.14620    0.48020    1.000
    C91      C        0.81630    0.20240    0.48940    1.000
    C92      C        0.77730    0.29700    0.44440    1.000
    C93      C        0.78840    0.15890    0.54520    1.000
    H31      H        0.81560    0.09740    0.57670    1.000
    C94      C        0.38250    0.42340    0.70940    1.000
    C95      C        0.30560    0.36560    0.67440    1.000
    C96      C        0.27380    0.35850    0.59690    1.000
    H32      H        0.29840    0.39640    0.56590    1.000
