# CIF file generated by openbabel 3.1.0, see https://openbabel.org
data_I
_chemical_name_common 'image0'
_cell_length_a 18.6777
_cell_length_b 18.6777
_cell_length_c 54.443
_cell_angle_alpha 90
_cell_angle_beta 90
_cell_angle_gamma 120
_space_group_name_H-M_alt 'P 1'
_space_group_name_Hall 'P 1'
loop_
    _symmetry_equiv_pos_as_xyz
    x,y,z
loop_
    _atom_site_label
    _atom_site_type_symbol
    _atom_site_fract_x
    _atom_site_fract_y
    _atom_site_fract_z
    _atom_site_occupancy
    Cu1      Cu       0.47641    0.95275    0.01995    1.000
    C1       C        0.36150    0.90690    0.98067    1.000
    O1       O        0.37141    0.88949    0.00216    1.000
    C2       C        0.28260    0.84730    0.96828    1.000
    C3       C        0.26850    0.86100    0.94429    1.000
    H1       H        0.30610    0.90950    0.93630    1.000
    C4       C        0.19760    0.80200    0.93195    1.000
    C5       C        0.18350    0.81660    0.88435    1.000
    C6       C        0.18690    0.81350    0.90598    1.000
    C7       C        0.23680    0.89140    0.84530    1.000
    C8       C        0.17570    0.82440    0.85883    1.000
    C9       C        0.22530    0.90160    0.82103    1.000
    C10      C        0.22490    0.77570    0.98056    1.000
    H2       H        0.23420    0.76660    0.99670    1.000
    C11      C        0.15250    0.71730    0.96835    1.000
    C12      C        0.13920    0.73180    0.94419    1.000
    H3       H        0.09090    0.69410    0.93620    1.000
    C13      C        0.09300    0.63860    0.98071    1.000
    O2       O        0.11037    0.62849    0.00213    1.000
    O3       O        0.03172    0.58846    0.96861    1.000
    O4       O        0.41164    0.96833    0.96861    1.000
    C14      C        0.28550    0.97200    0.80884    1.000
    H4       H        0.27720    0.97870    0.79240    1.000
    C15      C        0.36020    0.03510    0.82067    1.000
    H5       H        0.39970    0.08100    0.81210    1.000
    C16      C        0.37020    0.02370    0.84524    1.000
    H6       H        0.41630    0.06270    0.85380    1.000
    C17      C        0.30790    0.95050    0.85718    1.000
    H7       H        0.31530    0.94230    0.87360    1.000
    H8       H        0.27930    0.93380    0.85410    1.000
    H9       H        0.26460    0.94970    0.81330    1.000
    Cu2      Cu       0.14308    0.28608    0.35328    1.000
    C18      C        0.02817    0.24023    0.31400    1.000
    O5       O        0.03808    0.22282    0.33549    1.000
    C19      C        0.94927    0.18063    0.30161    1.000
    C20      C        0.93517    0.19433    0.27762    1.000
    H10      H        0.97277    0.24283    0.26963    1.000
    C21      C        0.86427    0.13533    0.26528    1.000
    C22      C        0.85017    0.14993    0.21768    1.000
    C23      C        0.85357    0.14683    0.23931    1.000
    C24      C        0.90347    0.22473    0.17863    1.000
    C25      C        0.84237    0.15773    0.19216    1.000
    C26      C        0.89197    0.23493    0.15436    1.000
    C27      C        0.89157    0.10903    0.31389    1.000
    H11      H        0.90087    0.09993    0.33003    1.000
    C28      C        0.81917    0.05063    0.30168    1.000
    C29      C        0.80587    0.06513    0.27752    1.000
    H12      H        0.75757    0.02743    0.26953    1.000
    C30      C        0.75967    0.97193    0.31404    1.000
    O6       O        0.77704    0.96182    0.33546    1.000
    O7       O        0.69839    0.92179    0.30194    1.000
    O8       O        0.07831    0.30166    0.30194    1.000
    C31      C        0.95217    0.30533    0.14217    1.000
    H13      H        0.94387    0.31203    0.12573    1.000
    C32      C        0.02687    0.36843    0.15400    1.000
    H14      H        0.06637    0.41433    0.14543    1.000
    C33      C        0.03687    0.35703    0.17857    1.000
    H15      H        0.08297    0.39603    0.18713    1.000
    C34      C        0.97457    0.28383    0.19051    1.000
    H16      H        0.98197    0.27563    0.20693    1.000
    H17      H        0.94597    0.26713    0.18743    1.000
    H18      H        0.93127    0.28303    0.14663    1.000
    Cu3      Cu       0.80974    0.61942    0.68661    1.000
    C35      C        0.69483    0.57357    0.64734    1.000
    O9       O        0.70474    0.55616    0.66883    1.000
    C36      C        0.61593    0.51397    0.63495    1.000
    C37      C        0.60183    0.52767    0.61096    1.000
    H19      H        0.63943    0.57617    0.60297    1.000
    C38      C        0.53093    0.46867    0.59862    1.000
    C39      C        0.51683    0.48327    0.55102    1.000
    C40      C        0.52023    0.48017    0.57265    1.000
    C41      C        0.57013    0.55807    0.51197    1.000
    C42      C        0.50903    0.49107    0.52550    1.000
    C43      C        0.55863    0.56827    0.48770    1.000
    C44      C        0.55823    0.44237    0.64723    1.000
    H20      H        0.56753    0.43327    0.66337    1.000
    C45      C        0.48583    0.38397    0.63502    1.000
    C46      C        0.47253    0.39847    0.61086    1.000
    H21      H        0.42423    0.36077    0.60287    1.000
    C47      C        0.42633    0.30527    0.64738    1.000
    O10      O        0.44370    0.29516    0.66880    1.000
    O11      O        0.36505    0.25513    0.63528    1.000
    O12      O        0.74497    0.63500    0.63528    1.000
    C48      C        0.61883    0.63867    0.47551    1.000
    H22      H        0.61053    0.64537    0.45907    1.000
    C49      C        0.69353    0.70177    0.48734    1.000
    H23      H        0.73303    0.74767    0.47877    1.000
    C50      C        0.70353    0.69037    0.51191    1.000
    H24      H        0.74963    0.72937    0.52047    1.000
    C51      C        0.64123    0.61717    0.52385    1.000
    H25      H        0.64863    0.60897    0.54027    1.000
    H26      H        0.61263    0.60047    0.52077    1.000
    H27      H        0.59793    0.61637    0.47997    1.000
    Cu4      Cu       0.04725    0.52366    0.01995    1.000
    C52      C        0.09310    0.45460    0.98067    1.000
    O13      O        0.11051    0.48192    0.00216    1.000
    C53      C        0.15270    0.43530    0.96828    1.000
    C54      C        0.13900    0.40750    0.94429    1.000
    H28      H        0.09050    0.39660    0.93630    1.000
    C55      C        0.19800    0.39560    0.93195    1.000
    C56      C        0.18340    0.36690    0.88435    1.000
    C57      C        0.18650    0.37340    0.90598    1.000
    C58      C        0.10860    0.34540    0.84530    1.000
    C59      C        0.17560    0.35130    0.85883    1.000
    C60      C        0.09840    0.32370    0.82103    1.000
    C61      C        0.22430    0.44920    0.98056    1.000
    H29      H        0.23340    0.46760    0.99670    1.000
    C62      C        0.28270    0.43520    0.96835    1.000
    C63      C        0.26820    0.40740    0.94419    1.000
    H30      H        0.30590    0.39680    0.93620    1.000
    C64      C        0.36140    0.45440    0.98071    1.000
    O14      O        0.37151    0.48188    0.00213    1.000
    O15      O        0.41154    0.44326    0.96861    1.000
    O16      O        0.03167    0.44331    0.96861    1.000
    C65      C        0.02800    0.31350    0.80884    1.000
    H31      H        0.02130    0.29850    0.79240    1.000
    C66      C        0.96490    0.32510    0.82067    1.000
    H32      H        0.91900    0.31870    0.81210    1.000
    C67      C        0.97630    0.34650    0.84524    1.000
    H33      H        0.93730    0.35360    0.85380    1.000
    C68      C        0.04950    0.35740    0.85718    1.000
    H34      H        0.05770    0.37300    0.87360    1.000
    H35      H        0.06620    0.34550    0.85410    1.000
    H36      H        0.05030    0.31490    0.81330    1.000
    Cu5      Cu       0.71392    0.85699    0.35328    1.000
    C69      C        0.75977    0.78793    0.31400    1.000
    O17      O        0.77718    0.81525    0.33549    1.000
    C70      C        0.81937    0.76863    0.30161    1.000
    C71      C        0.80567    0.74083    0.27762    1.000
    H37      H        0.75717    0.72993    0.26963    1.000
    C72      C        0.86467    0.72893    0.26528    1.000
    C73      C        0.85007    0.70023    0.21768    1.000
    C74      C        0.85317    0.70673    0.23931    1.000
    C75      C        0.77527    0.67873    0.17863    1.000
    C76      C        0.84227    0.68463    0.19216    1.000
    C77      C        0.76507    0.65703    0.15436    1.000
    C78      C        0.89097    0.78253    0.31389    1.000
    H38      H        0.90007    0.80093    0.33003    1.000
    C79      C        0.94937    0.76853    0.30168    1.000
    C80      C        0.93487    0.74073    0.27752    1.000
    H39      H        0.97257    0.73013    0.26953    1.000
    C81      C        0.02807    0.78773    0.31404    1.000
    O18      O        0.03818    0.81521    0.33546    1.000
    O19      O        0.07821    0.77659    0.30194    1.000
    O20      O        0.69834    0.77664    0.30194    1.000
    C82      C        0.69467    0.64683    0.14217    1.000
    H40      H        0.68797    0.63183    0.12573    1.000
    C83      C        0.63157    0.65843    0.15400    1.000
    H41      H        0.58567    0.65203    0.14543    1.000
    C84      C        0.64297    0.67983    0.17857    1.000
    H42      H        0.60397    0.68693    0.18713    1.000
    C85      C        0.71617    0.69073    0.19051    1.000
    H43      H        0.72437    0.70633    0.20693    1.000
    H44      H        0.73287    0.67883    0.18743    1.000
    H45      H        0.71697    0.64823    0.14663    1.000
    Cu6      Cu       0.38058    0.19033    0.68661    1.000
    C86      C        0.42643    0.12127    0.64734    1.000
    O21      O        0.44384    0.14859    0.66883    1.000
    C87      C        0.48603    0.10197    0.63495    1.000
    C88      C        0.47233    0.07417    0.61096    1.000
    H46      H        0.42383    0.06327    0.60297    1.000
    C89      C        0.53133    0.06227    0.59862    1.000
    C90      C        0.51673    0.03357    0.55102    1.000
    C91      C        0.51983    0.04007    0.57265    1.000
    C92      C        0.44193    0.01207    0.51197    1.000
    C93      C        0.50893    0.01797    0.52550    1.000
    C94      C        0.43173    0.99037    0.48770    1.000
    C95      C        0.55763    0.11587    0.64723    1.000
    H47      H        0.56673    0.13427    0.66337    1.000
    C96      C        0.61603    0.10187    0.63502    1.000
    C97      C        0.60153    0.07407    0.61086    1.000
    H48      H        0.63923    0.06347    0.60287    1.000
    C98      C        0.69473    0.12107    0.64738    1.000
    O22      O        0.70484    0.14855    0.66880    1.000
    O23      O        0.74487    0.10993    0.63528    1.000
    O24      O        0.36500    0.10998    0.63528    1.000
    C99      C        0.36133    0.98017    0.47551    1.000
    H49      H        0.35463    0.96517    0.45907    1.000
    C100     C        0.29823    0.99177    0.48734    1.000
    H50      H        0.25233    0.98537    0.47877    1.000
    C101     C        0.30963    0.01317    0.51191    1.000
    H51      H        0.27063    0.02027    0.52047    1.000
    C102     C        0.38283    0.02407    0.52385    1.000
    H52      H        0.39103    0.03967    0.54027    1.000
    H53      H        0.39953    0.01217    0.52077    1.000
    H54      H        0.38363    0.98157    0.47997    1.000
    Cu7      Cu       0.47634    0.52359    0.01995    1.000
    C103     C        0.54540    0.63850    0.98067    1.000
    O25      O        0.51808    0.62859    0.00216    1.000
    C104     C        0.56470    0.71740    0.96828    1.000
    C105     C        0.59250    0.73150    0.94429    1.000
    H55      H        0.60340    0.69390    0.93630    1.000
    C106     C        0.60440    0.80240    0.93195    1.000
    C107     C        0.63310    0.81650    0.88435    1.000
    C108     C        0.62660    0.81310    0.90598    1.000
    C109     C        0.65460    0.76320    0.84530    1.000
    C110     C        0.64870    0.82430    0.85883    1.000
    C111     C        0.67630    0.77470    0.82103    1.000
    C112     C        0.55080    0.77510    0.98056    1.000
    H56      H        0.53240    0.76580    0.99670    1.000
    C113     C        0.56480    0.84750    0.96835    1.000
    C114     C        0.59260    0.86080    0.94419    1.000
    H57      H        0.60320    0.90910    0.93620    1.000
    C115     C        0.54560    0.90700    0.98071    1.000
    O26      O        0.51812    0.88963    0.00213    1.000
    O27      O        0.55674    0.96828    0.96861    1.000
    O28      O        0.55669    0.58836    0.96861    1.000
    C116     C        0.68650    0.71450    0.80884    1.000
    H58      H        0.70150    0.72280    0.79240    1.000
    C117     C        0.67490    0.63980    0.82067    1.000
    H59      H        0.68130    0.60030    0.81210    1.000
    C118     C        0.65350    0.62980    0.84524    1.000
    H60      H        0.64640    0.58370    0.85380    1.000
    C119     C        0.64260    0.69210    0.85718    1.000
    H61      H        0.62700    0.68470    0.87360    1.000
    H62      H        0.65450    0.72070    0.85410    1.000
    H63      H        0.68510    0.73540    0.81330    1.000
    Cu8      Cu       0.14301    0.85692    0.35328    1.000
    C120     C        0.21207    0.97183    0.31400    1.000
    O29      O        0.18475    0.96192    0.33549    1.000
    C121     C        0.23137    0.05073    0.30161    1.000
    C122     C        0.25917    0.06483    0.27762    1.000
    H64      H        0.27007    0.02723    0.26963    1.000
    C123     C        0.27107    0.13573    0.26528    1.000
    C124     C        0.29977    0.14983    0.21768    1.000
    C125     C        0.29327    0.14643    0.23931    1.000
    C126     C        0.32127    0.09653    0.17863    1.000
    C127     C        0.31537    0.15763    0.19216    1.000
    C128     C        0.34297    0.10803    0.15436    1.000
    C129     C        0.21747    0.10843    0.31389    1.000
    H65      H        0.19907    0.09913    0.33003    1.000
    C130     C        0.23147    0.18083    0.30168    1.000
    C131     C        0.25927    0.19413    0.27752    1.000
    H66      H        0.26987    0.24243    0.26953    1.000
    C132     C        0.21227    0.24033    0.31404    1.000
    O30      O        0.18479    0.22296    0.33546    1.000
    O31      O        0.22341    0.30161    0.30194    1.000
    O32      O        0.22336    0.92169    0.30194    1.000
    C133     C        0.35317    0.04783    0.14217    1.000
    H67      H        0.36817    0.05613    0.12573    1.000
    C134     C        0.34157    0.97313    0.15400    1.000
    H68      H        0.34797    0.93363    0.14543    1.000
    C135     C        0.32017    0.96313    0.17857    1.000
    H69      H        0.31307    0.91703    0.18713    1.000
    C136     C        0.30927    0.02543    0.19051    1.000
    H70      H        0.29367    0.01803    0.20693    1.000
    H71      H        0.32117    0.05403    0.18743    1.000
    H72      H        0.35177    0.06873    0.14663    1.000
    Cu9      Cu       0.80967    0.19026    0.68661    1.000
    C137     C        0.87873    0.30517    0.64734    1.000
    O33      O        0.85141    0.29526    0.66883    1.000
    C138     C        0.89803    0.38407    0.63495    1.000
    C139     C        0.92583    0.39817    0.61096    1.000
    H73      H        0.93673    0.36057    0.60297    1.000
    C140     C        0.93773    0.46907    0.59862    1.000
    C141     C        0.96643    0.48317    0.55102    1.000
    C142     C        0.95993    0.47977    0.57265    1.000
    C143     C        0.98793    0.42987    0.51197    1.000
    C144     C        0.98203    0.49097    0.52550    1.000
    C145     C        0.00963    0.44137    0.48770    1.000
    C146     C        0.88413    0.44177    0.64723    1.000
    H74      H        0.86573    0.43247    0.66337    1.000
    C147     C        0.89813    0.51417    0.63502    1.000
    C148     C        0.92593    0.52747    0.61086    1.000
    H75      H        0.93653    0.57577    0.60287    1.000
    C149     C        0.87893    0.57367    0.64738    1.000
    O34      O        0.85145    0.55630    0.66880    1.000
    O35      O        0.89007    0.63495    0.63528    1.000
    O36      O        0.89002    0.25503    0.63528    1.000
    C150     C        0.01983    0.38117    0.47551    1.000
    H76      H        0.03483    0.38947    0.45907    1.000
    C151     C        0.00823    0.30647    0.48734    1.000
    H77      H        0.01463    0.26697    0.47877    1.000
    C152     C        0.98683    0.29647    0.51191    1.000
    H78      H        0.97973    0.25037    0.52047    1.000
    C153     C        0.97593    0.35877    0.52385    1.000
    H79      H        0.96033    0.35137    0.54027    1.000
    H80      H        0.98783    0.38737    0.52077    1.000
    H81      H        0.01843    0.40207    0.47997    1.000
    Cu10     Cu       0.52359    0.04725    0.98005    1.000
    C154     C        0.63850    0.09310    0.01933    1.000
    O37      O        0.62859    0.11051    0.99784    1.000
    C155     C        0.71740    0.15270    0.03172    1.000
    C156     C        0.73150    0.13900    0.05571    1.000
    H82      H        0.69390    0.09050    0.06370    1.000
    C157     C        0.80240    0.19800    0.06805    1.000
    C158     C        0.81650    0.18340    0.11565    1.000
    C159     C        0.81310    0.18650    0.09402    1.000
    C160     C        0.76320    0.10860    0.15470    1.000
    C161     C        0.82430    0.17560    0.14117    1.000
    C162     C        0.77470    0.09840    0.17897    1.000
    C163     C        0.77510    0.22430    0.01944    1.000
    H83      H        0.76580    0.23340    0.00330    1.000
    C164     C        0.84750    0.28270    0.03165    1.000
    C165     C        0.86080    0.26820    0.05581    1.000
    H84      H        0.90910    0.30590    0.06380    1.000
    C166     C        0.90700    0.36140    0.01929    1.000
    O38      O        0.88963    0.37151    0.99787    1.000
    O39      O        0.96828    0.41154    0.03139    1.000
    O40      O        0.58836    0.03167    0.03139    1.000
    C167     C        0.71450    0.02800    0.19116    1.000
    H85      H        0.72280    0.02130    0.20760    1.000
    C168     C        0.63980    0.96490    0.17933    1.000
    H86      H        0.60030    0.91900    0.18790    1.000
    C169     C        0.62980    0.97630    0.15476    1.000
    H87      H        0.58370    0.93730    0.14620    1.000
    C170     C        0.69210    0.04950    0.14282    1.000
    H88      H        0.68470    0.05770    0.12640    1.000
    H89      H        0.72070    0.06620    0.14590    1.000
    H90      H        0.73540    0.05030    0.18670    1.000
    Cu11     Cu       0.19026    0.38058    0.31339    1.000
    C171     C        0.30517    0.42643    0.35266    1.000
    O41      O        0.29526    0.44384    0.33117    1.000
    C172     C        0.38407    0.48603    0.36505    1.000
    C173     C        0.39817    0.47233    0.38904    1.000
    H91      H        0.36057    0.42383    0.39703    1.000
    C174     C        0.46907    0.53133    0.40138    1.000
    C175     C        0.48317    0.51673    0.44898    1.000
    C176     C        0.47977    0.51983    0.42735    1.000
    C177     C        0.42987    0.44193    0.48803    1.000
    C178     C        0.49097    0.50893    0.47450    1.000
    C179     C        0.44137    0.43173    0.51230    1.000
    C180     C        0.44177    0.55763    0.35277    1.000
    H92      H        0.43247    0.56673    0.33663    1.000
    C181     C        0.51417    0.61603    0.36498    1.000
    C182     C        0.52747    0.60153    0.38914    1.000
    H93      H        0.57577    0.63923    0.39713    1.000
    C183     C        0.57367    0.69473    0.35262    1.000
    O42      O        0.55630    0.70484    0.33120    1.000
    O43      O        0.63495    0.74487    0.36472    1.000
    O44      O        0.25503    0.36500    0.36472    1.000
    C184     C        0.38117    0.36133    0.52449    1.000
    H94      H        0.38947    0.35463    0.54093    1.000
    C185     C        0.30647    0.29823    0.51266    1.000
    H95      H        0.26697    0.25233    0.52123    1.000
    C186     C        0.29647    0.30963    0.48809    1.000
    H96      H        0.25037    0.27063    0.47953    1.000
    C187     C        0.35877    0.38283    0.47615    1.000
    H97      H        0.35137    0.39103    0.45973    1.000
    H98      H        0.38737    0.39953    0.47923    1.000
    H99      H        0.40207    0.38363    0.52003    1.000
    Cu12     Cu       0.85692    0.71392    0.64672    1.000
    C188     C        0.97183    0.75977    0.68600    1.000
    O45      O        0.96192    0.77718    0.66451    1.000
    C189     C        0.05073    0.81937    0.69839    1.000
    C190     C        0.06483    0.80567    0.72238    1.000
    H100     H        0.02723    0.75717    0.73037    1.000
    C191     C        0.13573    0.86467    0.73472    1.000
    C192     C        0.14983    0.85007    0.78232    1.000
    C193     C        0.14643    0.85317    0.76069    1.000
    C194     C        0.09653    0.77527    0.82137    1.000
    C195     C        0.15763    0.84227    0.80784    1.000
    C196     C        0.10803    0.76507    0.84564    1.000
    C197     C        0.10843    0.89097    0.68611    1.000
    H101     H        0.09913    0.90007    0.66997    1.000
    C198     C        0.18083    0.94937    0.69832    1.000
    C199     C        0.19413    0.93487    0.72248    1.000
    H102     H        0.24243    0.97257    0.73047    1.000
    C200     C        0.24033    0.02807    0.68596    1.000
    O46      O        0.22296    0.03818    0.66454    1.000
    O47      O        0.30161    0.07821    0.69806    1.000
    O48      O        0.92169    0.69834    0.69806    1.000
    C201     C        0.04783    0.69467    0.85783    1.000
    H103     H        0.05613    0.68797    0.87427    1.000
    C202     C        0.97313    0.63157    0.84600    1.000
    H104     H        0.93363    0.58567    0.85457    1.000
    C203     C        0.96313    0.64297    0.82143    1.000
    H105     H        0.91703    0.60397    0.81287    1.000
    C204     C        0.02543    0.71617    0.80949    1.000
    H106     H        0.01803    0.72437    0.79307    1.000
    H107     H        0.05403    0.73287    0.81257    1.000
    H108     H        0.06873    0.71697    0.85337    1.000
    Cu13     Cu       0.95275    0.47634    0.98005    1.000
    C205     C        0.90690    0.54540    0.01933    1.000
    O49      O        0.88949    0.51808    0.99784    1.000
    C206     C        0.84730    0.56470    0.03172    1.000
    C207     C        0.86100    0.59250    0.05571    1.000
    H109     H        0.90950    0.60340    0.06370    1.000
    C208     C        0.80200    0.60440    0.06805    1.000
    C209     C        0.81660    0.63310    0.11565    1.000
    C210     C        0.81350    0.62660    0.09402    1.000
    C211     C        0.89140    0.65460    0.15470    1.000
    C212     C        0.82440    0.64870    0.14117    1.000
    C213     C        0.90160    0.67630    0.17897    1.000
    C214     C        0.77570    0.55080    0.01944    1.000
    H110     H        0.76660    0.53240    0.00330    1.000
    C215     C        0.71730    0.56480    0.03165    1.000
    C216     C        0.73180    0.59260    0.05581    1.000
    H111     H        0.69410    0.60320    0.06380    1.000
    C217     C        0.63860    0.54560    0.01929    1.000
    O50      O        0.62849    0.51812    0.99787    1.000
    O51      O        0.58846    0.55674    0.03139    1.000
    O52      O        0.96833    0.55669    0.03139    1.000
    C218     C        0.97200    0.68650    0.19116    1.000
    H112     H        0.97870    0.70150    0.20760    1.000
    C219     C        0.03510    0.67490    0.17933    1.000
    H113     H        0.08100    0.68130    0.18790    1.000
    C220     C        0.02370    0.65350    0.15476    1.000
    H114     H        0.06270    0.64640    0.14620    1.000
    C221     C        0.95050    0.64260    0.14282    1.000
    H115     H        0.94230    0.62700    0.12640    1.000
    H116     H        0.93380    0.65450    0.14590    1.000
    H117     H        0.94970    0.68510    0.18670    1.000
    Cu14     Cu       0.61942    0.80967    0.31339    1.000
    C222     C        0.57357    0.87873    0.35266    1.000
    O53      O        0.55616    0.85141    0.33117    1.000
    C223     C        0.51397    0.89803    0.36505    1.000
    C224     C        0.52767    0.92583    0.38904    1.000
    H118     H        0.57617    0.93673    0.39703    1.000
    C225     C        0.46867    0.93773    0.40138    1.000
    C226     C        0.48327    0.96643    0.44898    1.000
    C227     C        0.48017    0.95993    0.42735    1.000
    C228     C        0.55807    0.98793    0.48803    1.000
    C229     C        0.49107    0.98203    0.47450    1.000
    C230     C        0.56827    0.00963    0.51230    1.000
    C231     C        0.44237    0.88413    0.35277    1.000
    H119     H        0.43327    0.86573    0.33663    1.000
    C232     C        0.38397    0.89813    0.36498    1.000
    C233     C        0.39847    0.92593    0.38914    1.000
    H120     H        0.36077    0.93653    0.39713    1.000
    C234     C        0.30527    0.87893    0.35262    1.000
    O54      O        0.29516    0.85145    0.33120    1.000
    O55      O        0.25513    0.89007    0.36472    1.000
    O56      O        0.63500    0.89002    0.36472    1.000
    C235     C        0.63867    0.01983    0.52449    1.000
    H121     H        0.64537    0.03483    0.54093    1.000
    C236     C        0.70177    0.00823    0.51266    1.000
    H122     H        0.74767    0.01463    0.52123    1.000
    C237     C        0.69037    0.98683    0.48809    1.000
    H123     H        0.72937    0.97973    0.47953    1.000
    C238     C        0.61717    0.97593    0.47615    1.000
    H124     H        0.60897    0.96033    0.45973    1.000
    H125     H        0.60047    0.98783    0.47923    1.000
    H126     H        0.61637    0.01843    0.52003    1.000
    Cu15     Cu       0.28608    0.14301    0.64672    1.000
    C239     C        0.24023    0.21207    0.68600    1.000
    O57      O        0.22282    0.18475    0.66451    1.000
    C240     C        0.18063    0.23137    0.69839    1.000
    C241     C        0.19433    0.25917    0.72238    1.000
    H127     H        0.24283    0.27007    0.73037    1.000
    C242     C        0.13533    0.27107    0.73472    1.000
    C243     C        0.14993    0.29977    0.78232    1.000
    C244     C        0.14683    0.29327    0.76069    1.000
    C245     C        0.22473    0.32127    0.82137    1.000
    C246     C        0.15773    0.31537    0.80784    1.000
    C247     C        0.23493    0.34297    0.84564    1.000
    C248     C        0.10903    0.21747    0.68611    1.000
    H128     H        0.09993    0.19907    0.66997    1.000
    C249     C        0.05063    0.23147    0.69832    1.000
    C250     C        0.06513    0.25927    0.72248    1.000
    H129     H        0.02743    0.26987    0.73047    1.000
    C251     C        0.97193    0.21227    0.68596    1.000
    O58      O        0.96182    0.18479    0.66454    1.000
    O59      O        0.92179    0.22341    0.69806    1.000
    O60      O        0.30166    0.22336    0.69806    1.000
    C252     C        0.30533    0.35317    0.85783    1.000
    H130     H        0.31203    0.36817    0.87427    1.000
    C253     C        0.36843    0.34157    0.84600    1.000
    H131     H        0.41433    0.34797    0.85457    1.000
    C254     C        0.35703    0.32017    0.82143    1.000
    H132     H        0.39603    0.31307    0.81287    1.000
    C255     C        0.28383    0.30927    0.80949    1.000
    H133     H        0.27563    0.29367    0.79307    1.000
    H134     H        0.26713    0.32117    0.81257    1.000
    H135     H        0.28303    0.35177    0.85337    1.000
    Cu16     Cu       0.52366    0.47641    0.98005    1.000
    C256     C        0.45460    0.36150    0.01933    1.000
    O61      O        0.48192    0.37141    0.99784    1.000
    C257     C        0.43530    0.28260    0.03172    1.000
    C258     C        0.40750    0.26850    0.05571    1.000
    H136     H        0.39660    0.30610    0.06370    1.000
    C259     C        0.39560    0.19760    0.06805    1.000
    C260     C        0.36690    0.18350    0.11565    1.000
    C261     C        0.37340    0.18690    0.09402    1.000
    C262     C        0.34540    0.23680    0.15470    1.000
    C263     C        0.35130    0.17570    0.14117    1.000
    C264     C        0.32370    0.22530    0.17897    1.000
    C265     C        0.44920    0.22490    0.01944    1.000
    H137     H        0.46760    0.23420    0.00330    1.000
    C266     C        0.43520    0.15250    0.03165    1.000
    C267     C        0.40740    0.13920    0.05581    1.000
    H138     H        0.39680    0.09090    0.06380    1.000
    C268     C        0.45440    0.09300    0.01929    1.000
    O62      O        0.48188    0.11037    0.99787    1.000
    O63      O        0.44326    0.03172    0.03139    1.000
    O64      O        0.44331    0.41164    0.03139    1.000
    C269     C        0.31350    0.28550    0.19116    1.000
    H139     H        0.29850    0.27720    0.20760    1.000
    C270     C        0.32510    0.36020    0.17933    1.000
    H140     H        0.31870    0.39970    0.18790    1.000
    C271     C        0.34650    0.37020    0.15476    1.000
    H141     H        0.35360    0.41630    0.14620    1.000
    C272     C        0.35740    0.30790    0.14282    1.000
    H142     H        0.37300    0.31530    0.12640    1.000
    H143     H        0.34550    0.27930    0.14590    1.000
    H144     H        0.31490    0.26460    0.18670    1.000
    Cu17     Cu       0.19033    0.80974    0.31339    1.000
    C273     C        0.12127    0.69483    0.35266    1.000
    O65      O        0.14859    0.70474    0.33117    1.000
    C274     C        0.10197    0.61593    0.36505    1.000
    C275     C        0.07417    0.60183    0.38904    1.000
    H145     H        0.06327    0.63943    0.39703    1.000
    C276     C        0.06227    0.53093    0.40138    1.000
    C277     C        0.03357    0.51683    0.44898    1.000
    C278     C        0.04007    0.52023    0.42735    1.000
    C279     C        0.01207    0.57013    0.48803    1.000
    C280     C        0.01797    0.50903    0.47450    1.000
    C281     C        0.99037    0.55863    0.51230    1.000
    C282     C        0.11587    0.55823    0.35277    1.000
    H146     H        0.13427    0.56753    0.33663    1.000
    C283     C        0.10187    0.48583    0.36498    1.000
    C284     C        0.07407    0.47253    0.38914    1.000
    H147     H        0.06347    0.42423    0.39713    1.000
    C285     C        0.12107    0.42633    0.35262    1.000
    O66      O        0.14855    0.44370    0.33120    1.000
    O67      O        0.10993    0.36505    0.36472    1.000
    O68      O        0.10998    0.74497    0.36472    1.000
    C286     C        0.98017    0.61883    0.52449    1.000
    H148     H        0.96517    0.61053    0.54093    1.000
    C287     C        0.99177    0.69353    0.51266    1.000
    H149     H        0.98537    0.73303    0.52123    1.000
    C288     C        0.01317    0.70353    0.48809    1.000
    H150     H        0.02027    0.74963    0.47953    1.000
    C289     C        0.02407    0.64123    0.47615    1.000
    H151     H        0.03967    0.64863    0.45973    1.000
    H152     H        0.01217    0.61263    0.47923    1.000
    H153     H        0.98157    0.59793    0.52003    1.000
    Cu18     Cu       0.85699    0.14308    0.64672    1.000
    C290     C        0.78793    0.02817    0.68600    1.000
    O69      O        0.81525    0.03808    0.66451    1.000
    C291     C        0.76863    0.94927    0.69839    1.000
    C292     C        0.74083    0.93517    0.72238    1.000
    H154     H        0.72993    0.97277    0.73037    1.000
    C293     C        0.72893    0.86427    0.73472    1.000
    C294     C        0.70023    0.85017    0.78232    1.000
    C295     C        0.70673    0.85357    0.76069    1.000
    C296     C        0.67873    0.90347    0.82137    1.000
    C297     C        0.68463    0.84237    0.80784    1.000
    C298     C        0.65703    0.89197    0.84564    1.000
    C299     C        0.78253    0.89157    0.68611    1.000
    H155     H        0.80093    0.90087    0.66997    1.000
    C300     C        0.76853    0.81917    0.69832    1.000
    C301     C        0.74073    0.80587    0.72248    1.000
    H156     H        0.73013    0.75757    0.73047    1.000
    C302     C        0.78773    0.75967    0.68596    1.000
    O70      O        0.81521    0.77704    0.66454    1.000
    O71      O        0.77659    0.69839    0.69806    1.000
    O72      O        0.77664    0.07831    0.69806    1.000
    C303     C        0.64683    0.95217    0.85783    1.000
    H157     H        0.63183    0.94387    0.87427    1.000
    C304     C        0.65843    0.02687    0.84600    1.000
    H158     H        0.65203    0.06637    0.85457    1.000
    C305     C        0.67983    0.03687    0.82143    1.000
    H159     H        0.68693    0.08297    0.81287    1.000
    C306     C        0.69073    0.97457    0.80949    1.000
    H160     H        0.70633    0.98197    0.79307    1.000
    H161     H        0.67883    0.94597    0.81257    1.000
    H162     H        0.64823    0.93127    0.85337    1.000
