# CIF file generated by openbabel 3.1.0, see https://openbabel.org
data_I
_chemical_name_common 'image0'
_cell_length_a 10.574
_cell_length_b 10.345
_cell_length_c 6.166
_cell_angle_alpha 90
_cell_angle_beta 114.85
_cell_angle_gamma 90
_space_group_name_H-M_alt 'P 1'
_space_group_name_Hall 'P 1'
loop_
    _symmetry_equiv_pos_as_xyz
    x,y,z
loop_
    _atom_site_label
    _atom_site_type_symbol
    _atom_site_fract_x
    _atom_site_fract_y
    _atom_site_fract_z
    _atom_site_occupancy
    C1       C        0.31610    0.21170    0.54800    1.000
    H1       H        0.33230    0.17570    0.70260    1.000
    H2       H        0.39420    0.26720    0.56760    1.000
    N1       N        0.30390    0.10730    0.37930    1.000
    H3       H        0.28290    0.14080    0.23350    1.000
    H4       H        0.23470    0.05340    0.36830    1.000
    C2       C        0.81610    0.71170    0.54800    1.000
    H5       H        0.83230    0.67570    0.70260    1.000
    H6       H        0.89420    0.76720    0.56760    1.000
    N2       N        0.80390    0.60730    0.37930    1.000
    H7       H        0.78290    0.64080    0.23350    1.000
    H8       H        0.73470    0.55340    0.36830    1.000
    C3       C        0.68390    0.21170    0.95200    1.000
    H9       H        0.66770    0.17570    0.79740    1.000
    H10      H        0.60580    0.26720    0.93240    1.000
    N3       N        0.69610    0.10730    0.12070    1.000
    H11      H        0.71710    0.14080    0.26650    1.000
    H12      H        0.76530    0.05340    0.13170    1.000
    C4       C        0.18390    0.71170    0.95200    1.000
    H13      H        0.16770    0.67570    0.79740    1.000
    H14      H        0.10580    0.76720    0.93240    1.000
    N4       N        0.19610    0.60730    0.12070    1.000
    H15      H        0.21710    0.64080    0.26650    1.000
    H16      H        0.26530    0.55340    0.13170    1.000
    C5       C        0.68390    0.78830    0.45200    1.000
    H17      H        0.66770    0.82430    0.29740    1.000
    H18      H        0.60580    0.73280    0.43240    1.000
    N5       N        0.69610    0.89270    0.62070    1.000
    H19      H        0.71710    0.85920    0.76650    1.000
    H20      H        0.76530    0.94660    0.63170    1.000
    C6       C        0.18390    0.28830    0.45200    1.000
    H21      H        0.16770    0.32430    0.29740    1.000
    H22      H        0.10580    0.23280    0.43240    1.000
    N6       N        0.19610    0.39270    0.62070    1.000
    H23      H        0.21710    0.35920    0.76650    1.000
    H24      H        0.26530    0.44660    0.63170    1.000
    C7       C        0.31610    0.78830    0.04800    1.000
    H25      H        0.33230    0.82430    0.20260    1.000
    H26      H        0.39420    0.73280    0.06760    1.000
    N7       N        0.30390    0.89270    0.87930    1.000
    H27      H        0.28290    0.85920    0.73350    1.000
    H28      H        0.23470    0.94660    0.86830    1.000
    C8       C        0.81610    0.28830    0.04800    1.000
    H29      H        0.83230    0.32430    0.20260    1.000
    H30      H        0.89420    0.23280    0.06760    1.000
    N8       N        0.80390    0.39270    0.87930    1.000
    H31      H        0.78290    0.35920    0.73350    1.000
    H32      H        0.73470    0.44660    0.86830    1.000
    Ag1      Ag       0.50000    0.00000    0.50000    1.000
    Ag2      Ag       0.00000    0.50000    0.50000    1.000
    Ag3      Ag       0.50000    0.00000    0.00000    1.000
    Ag4      Ag       0.00000    0.50000    0.00000    1.000
