data_functionalizedCrystal
_audit_creation_method	'EQeq! by Chris Wilmer'
_symmetry_space_group_name_H-M	'P1'
_symmetry_Int_Tables_number	1
_symmetry_cell_setting	triclinic
loop_
_symmetry_equiv_pos_as_xyz
  x,y,z
_cell_length_a	13.393
_cell_length_b	13.393
_cell_length_c	27.338
_cell_angle_alpha	90
_cell_angle_beta	90
_cell_angle_gamma	90
loop_
_atom_site_label
_atom_site_type_symbol
_atom_site_fract_x
_atom_site_fract_y
_atom_site_fract_z
_atom_site_charge
Mof_Zn	Zn	0.91117	0.02289	0.44664	1.186
Mof_O 	O 	0.8606	0.9456	0.36719	-0.364
Mof_O 	O 	0.9533	0.0767	0.38332	-0.468
Mof_N 	N 	0.7672	0.0161	0.46469	-0.293
Mof_N 	N 	0.624	0.0383	0.50405	-0.26
Mof_N 	N 	0.6073	0.9753	0.46508	-0.259
Mof_N 	N 	0.0899	0.1907	0.2236	-0.327
Mof_H 	H 	0.1035	0.2024	0.1934	0.181
Mof_H 	H 	0.1216	0.2218	0.2463	0.143
Mof_C 	C 	0.72	0.0607	0.50249	0.092
Mof_H 	H 	0.7516	0.1025	0.5249	-0.049
Mof_C 	C 	0.6936	0.9642	0.44268	0.094
Mof_H 	H 	0.7028	0.9251	0.4149	-0.014
Mof_C 	C 	0.9125	0.0166	0.35288	0.318
Mof_C 	C 	0.9297	0.0353	0.29994	-0.106
Mof_C 	C 	0.9996	0.1056	0.285	-0.1
Mof_H 	H 	0.0345	0.1417	0.3085	0.076
Mof_C 	C 	0.0188	0.1234	0.23533	0.157
Mof_Zn	Zn	0.58883	0.47711	0.44664	1.185
Mof_O 	O 	0.6394	0.5544	0.36719	-0.368
Mof_O 	O 	0.5467	0.4233	0.38332	-0.469
Mof_N 	N 	0.7328	0.4839	0.46469	-0.293
Mof_N 	N 	0.876	0.4617	0.50405	-0.261
Mof_N 	N 	0.8927	0.5247	0.46508	-0.26
Mof_N 	N 	0.4101	0.3093	0.2236	-0.325
Mof_H 	H 	0.3965	0.2976	0.1934	0.18
Mof_H 	H 	0.3784	0.2782	0.2463	0.143
Mof_C 	C 	0.78	0.4393	0.50249	0.093
Mof_H 	H 	0.7484	0.3975	0.5249	-0.049
Mof_C 	C 	0.8064	0.5358	0.44268	0.092
Mof_H 	H 	0.7972	0.5749	0.4149	-0.014
Mof_C 	C 	0.5875	0.4834	0.35288	0.323
Mof_C 	C 	0.5703	0.4647	0.29994	-0.107
Mof_C 	C 	0.5004	0.3944	0.285	-0.086
Mof_H 	H 	0.4655	0.3583	0.3085	0.069
Mof_C 	C 	0.4812	0.3766	0.23533	0.146
Mof_Zn	Zn	0.47711	0.91117	0.44664	1.185
Mof_O 	O 	0.5544	0.8606	0.36719	-0.368
Mof_O 	O 	0.4233	0.9533	0.38332	-0.469
Mof_N 	N 	0.4839	0.7672	0.46469	-0.293
Mof_N 	N 	0.4617	0.624	0.50405	-0.261
Mof_N 	N 	0.5247	0.6073	0.46508	-0.26
Mof_N 	N 	0.3093	0.0899	0.2236	-0.326
Mof_H 	H 	0.2976	0.1035	0.1934	0.181
Mof_H 	H 	0.2782	0.1216	0.2463	0.143
Mof_C 	C 	0.4393	0.72	0.50249	0.093
Mof_H 	H 	0.3975	0.7516	0.5249	-0.049
Mof_C 	C 	0.5358	0.6936	0.44268	0.092
Mof_H 	H 	0.5749	0.7028	0.4149	-0.014
Mof_C 	C 	0.4834	0.9125	0.35288	0.322
Mof_C 	C 	0.4647	0.9297	0.29994	-0.104
Mof_C 	C 	0.3944	0.9996	0.285	-0.094
Mof_H 	H 	0.3583	0.0345	0.3085	0.072
Mof_C 	C 	0.3766	0.0188	0.23533	0.152
Mof_Zn	Zn	0.02289	0.58883	0.44664	1.185
Mof_O 	O 	0.9456	0.6394	0.36719	-0.367
Mof_O 	O 	0.0767	0.5467	0.38332	-0.469
Mof_N 	N 	0.0161	0.7328	0.46469	-0.294
Mof_N 	N 	0.0383	0.876	0.50405	-0.262
Mof_N 	N 	0.9753	0.8927	0.46508	-0.259
Mof_N 	N 	0.1907	0.4101	0.2236	-0.324
Mof_H 	H 	0.2024	0.3965	0.1934	0.18
Mof_H 	H 	0.2218	0.3784	0.2463	0.143
Mof_C 	C 	0.0607	0.78	0.50249	0.092
Mof_H 	H 	0.1025	0.7484	0.5249	-0.049
Mof_C 	C 	0.9642	0.8064	0.44268	0.095
Mof_H 	H 	0.9251	0.7972	0.4149	-0.014
Mof_C 	C 	0.0166	0.5875	0.35288	0.322
Mof_C 	C 	0.0353	0.5703	0.29994	-0.108
Mof_C 	C 	0.1056	0.5004	0.285	-0.085
Mof_H 	H 	0.1417	0.4655	0.3085	0.068
Mof_C 	C 	0.1234	0.4812	0.23533	0.146
Mof_Zn	Zn	0.08883	0.52289	0.05336	1.185
Mof_O 	O 	0.1394	0.4456	0.13281	-0.368
Mof_O 	O 	0.0467	0.5767	0.11668	-0.469
Mof_N 	N 	0.2328	0.5161	0.03531	-0.293
Mof_N 	N 	0.376	0.5383	0.99595	-0.261
Mof_N 	N 	0.3927	0.4753	0.03492	-0.26
Mof_N 	N 	0.9101	0.6907	0.2764	-0.325
Mof_H 	H 	0.8965	0.7024	0.3066	0.181
Mof_H 	H 	0.8784	0.7218	0.2537	0.143
Mof_C 	C 	0.28	0.5607	0.99751	0.092
Mof_H 	H 	0.2484	0.6025	0.9751	-0.049
Mof_C 	C 	0.3064	0.4642	0.05732	0.092
Mof_H 	H 	0.2972	0.4251	0.0851	-0.014
Mof_C 	C 	0.0875	0.5166	0.14712	0.323
Mof_C 	C 	0.0703	0.5353	0.20006	-0.106
Mof_C 	C 	0.0004	0.6056	0.215	-0.089
Mof_H 	H 	0.9655	0.6417	0.1915	0.07
Mof_C 	C 	0.9812	0.6234	0.26467	0.148
Mof_Zn	Zn	0.41117	0.97711	0.05336	1.185
Mof_O 	O 	0.3606	0.0544	0.13281	-0.367
Mof_O 	O 	0.4533	0.9233	0.11668	-0.469
Mof_N 	N 	0.2672	0.9839	0.03531	-0.295
Mof_N 	N 	0.124	0.9617	0.99595	-0.262
Mof_N 	N 	0.1073	0.0247	0.03492	-0.258
Mof_N 	N 	0.5899	0.8093	0.2764	-0.324
Mof_H 	H 	0.6035	0.7976	0.3066	0.18
Mof_H 	H 	0.6216	0.7782	0.2537	0.142
Mof_C 	C 	0.22	0.9393	0.99751	0.093
Mof_H 	H 	0.2516	0.8975	0.9751	-0.049
Mof_C 	C 	0.1936	0.0358	0.05732	0.096
Mof_H 	H 	0.2028	0.0749	0.0851	-0.014
Mof_C 	C 	0.4125	0.9834	0.14712	0.322
Mof_C 	C 	0.4297	0.9647	0.20006	-0.11
Mof_C 	C 	0.4996	0.8944	0.215	-0.084
Mof_H 	H 	0.5345	0.8583	0.1915	0.068
Mof_C 	C 	0.5188	0.8766	0.26467	0.145
Mof_Zn	Zn	0.52289	0.41117	0.05336	1.185
Mof_O 	O 	0.4456	0.3606	0.13281	-0.368
Mof_O 	O 	0.5767	0.4533	0.11668	-0.469
Mof_N 	N 	0.5161	0.2672	0.03531	-0.292
Mof_N 	N 	0.5383	0.124	0.99595	-0.261
Mof_N 	N 	0.4753	0.1073	0.03492	-0.26
Mof_N 	N 	0.6907	0.5899	0.2764	-0.325
Mof_H 	H 	0.7024	0.6035	0.3066	0.18
Mof_H 	H 	0.7218	0.6216	0.2537	0.142
Mof_C 	C 	0.5607	0.22	0.99751	0.092
Mof_H 	H 	0.6025	0.2516	0.9751	-0.049
Mof_C 	C 	0.4642	0.1936	0.05732	0.092
Mof_H 	H 	0.4251	0.2028	0.0851	-0.014
Mof_C 	C 	0.5166	0.4125	0.14712	0.323
Mof_C 	C 	0.5353	0.4297	0.20006	-0.107
Mof_C 	C 	0.6056	0.4996	0.215	-0.086
Mof_H 	H 	0.6417	0.5345	0.1915	0.068
Mof_C 	C 	0.6234	0.5188	0.26467	0.146
Mof_Zn	Zn	0.97711	0.08883	0.05336	1.184
Mof_O 	O 	0.0544	0.1394	0.13281	-0.364
Mof_O 	O 	0.9233	0.0467	0.11668	-0.469
Mof_N 	N 	0.9839	0.2328	0.03531	-0.295
Mof_N 	N 	0.9617	0.376	0.99595	-0.261
Mof_N 	N 	0.0247	0.3927	0.03492	-0.26
Mof_N 	N 	0.8093	0.9101	0.2764	-0.326
Mof_H 	H 	0.7976	0.8965	0.3066	0.181
Mof_H 	H 	0.7782	0.8784	0.2537	0.143
Mof_C 	C 	0.9393	0.28	0.99751	0.093
Mof_H 	H 	0.8975	0.2484	0.9751	-0.049
Mof_C 	C 	0.0358	0.3064	0.05732	0.096
Mof_H 	H 	0.0749	0.2972	0.0851	-0.015
Mof_C 	C 	0.9834	0.0875	0.14712	0.319
Mof_C 	C 	0.9647	0.0703	0.20006	-0.11
Mof_C 	C 	0.8944	0.0004	0.215	-0.094
Mof_H 	H 	0.8583	0.9655	0.1915	0.073
Mof_C 	C 	0.8766	0.9812	0.26467	0.153
Mof_Zn	Zn	0.08883	0.97711	0.55336	1.185
Mof_O 	O 	0.1394	0.0544	0.63281	-0.365
Mof_O 	O 	0.0467	0.9233	0.61668	-0.469
Mof_N 	N 	0.2328	0.9839	0.53531	-0.294
Mof_N 	N 	0.376	0.9617	0.49595	-0.261
Mof_N 	N 	0.3927	0.0247	0.53492	-0.26
Mof_N 	N 	0.9101	0.8093	0.7764	-0.327
Mof_H 	H 	0.8965	0.7976	0.8066	0.181
Mof_H 	H 	0.8784	0.7782	0.7537	0.143
Mof_C 	C 	0.28	0.9393	0.49751	0.092
Mof_H 	H 	0.2484	0.8975	0.4751	-0.049
Mof_C 	C 	0.3064	0.0358	0.55732	0.094
Mof_H 	H 	0.2972	0.0749	0.5851	-0.014
Mof_C 	C 	0.0875	0.9834	0.64712	0.318
Mof_C 	C 	0.0703	0.9647	0.70006	-0.106
Mof_C 	C 	0.0004	0.8944	0.715	-0.1
Mof_H 	H 	0.9655	0.8583	0.6915	0.076
Mof_C 	C 	0.9812	0.8766	0.76467	0.157
Mof_Zn	Zn	0.41117	0.52289	0.55336	1.185
Mof_O 	O 	0.3606	0.4456	0.63281	-0.368
Mof_O 	O 	0.4533	0.5767	0.61668	-0.469
Mof_N 	N 	0.2672	0.5161	0.53531	-0.293
Mof_N 	N 	0.124	0.5383	0.49595	-0.261
Mof_N 	N 	0.1073	0.4753	0.53492	-0.26
Mof_N 	N 	0.5899	0.6907	0.7764	-0.325
Mof_H 	H 	0.6035	0.7024	0.8066	0.18
Mof_H 	H 	0.6216	0.7218	0.7537	0.143
Mof_C 	C 	0.22	0.5607	0.49751	0.093
Mof_H 	H 	0.2516	0.6025	0.4751	-0.049
Mof_C 	C 	0.1936	0.4642	0.55732	0.092
Mof_H 	H 	0.2028	0.4251	0.5851	-0.014
Mof_C 	C 	0.4125	0.5166	0.64712	0.323
Mof_C 	C 	0.4297	0.5353	0.70006	-0.107
Mof_C 	C 	0.4996	0.6056	0.715	-0.086
Mof_H 	H 	0.5345	0.6417	0.6915	0.069
Mof_C 	C 	0.5188	0.6234	0.76467	0.146
Mof_Zn	Zn	0.52289	0.08883	0.55336	1.185
Mof_O 	O 	0.4456	0.1394	0.63281	-0.368
Mof_O 	O 	0.5767	0.0467	0.61668	-0.469
Mof_N 	N 	0.5161	0.2328	0.53531	-0.293
Mof_N 	N 	0.5383	0.376	0.49595	-0.261
Mof_N 	N 	0.4753	0.3927	0.53492	-0.26
Mof_N 	N 	0.6907	0.9101	0.7764	-0.326
Mof_H 	H 	0.7024	0.8965	0.8066	0.181
Mof_H 	H 	0.7218	0.8784	0.7537	0.143
Mof_C 	C 	0.5607	0.28	0.49751	0.093
Mof_H 	H 	0.6025	0.2484	0.4751	-0.049
Mof_C 	C 	0.4642	0.3064	0.55732	0.092
Mof_H 	H 	0.4251	0.2972	0.5851	-0.014
Mof_C 	C 	0.5166	0.0875	0.64712	0.322
Mof_C 	C 	0.5353	0.0703	0.70006	-0.104
Mof_C 	C 	0.6056	0.0004	0.715	-0.094
Mof_H 	H 	0.6417	0.9655	0.6915	0.072
Mof_C 	C 	0.6234	0.9812	0.76467	0.152
Mof_Zn	Zn	0.97711	0.41117	0.55336	1.185
Mof_O 	O 	0.0544	0.3606	0.63281	-0.367
Mof_O 	O 	0.9233	0.4533	0.61668	-0.469
Mof_N 	N 	0.9839	0.2672	0.53531	-0.294
Mof_N 	N 	0.9617	0.124	0.49595	-0.262
Mof_N 	N 	0.0247	0.1073	0.53492	-0.259
Mof_N 	N 	0.8093	0.5899	0.7764	-0.324
Mof_H 	H 	0.7976	0.6035	0.8066	0.18
Mof_H 	H 	0.7782	0.6216	0.7537	0.143
Mof_C 	C 	0.9393	0.22	0.49751	0.092
Mof_H 	H 	0.8975	0.2516	0.4751	-0.049
Mof_C 	C 	0.0358	0.1936	0.55732	0.095
Mof_H 	H 	0.0749	0.2028	0.5851	-0.014
Mof_C 	C 	0.9834	0.4125	0.64712	0.322
Mof_C 	C 	0.9647	0.4297	0.70006	-0.108
Mof_C 	C 	0.8944	0.4996	0.715	-0.085
Mof_H 	H 	0.8583	0.5345	0.6915	0.068
Mof_C 	C 	0.8766	0.5188	0.76467	0.146
Mof_Zn	Zn	0.91117	0.47711	0.94664	1.185
Mof_O 	O 	0.8606	0.5544	0.86719	-0.368
Mof_O 	O 	0.9533	0.4233	0.88332	-0.469
Mof_N 	N 	0.7672	0.4839	0.96469	-0.293
Mof_N 	N 	0.624	0.4617	0.00405	-0.261
Mof_N 	N 	0.6073	0.5247	0.96508	-0.26
Mof_N 	N 	0.0899	0.3093	0.7236	-0.325
Mof_H 	H 	0.1035	0.2976	0.6934	0.181
Mof_H 	H 	0.1216	0.2782	0.7463	0.143
Mof_C 	C 	0.72	0.4393	0.00249	0.092
Mof_H 	H 	0.7516	0.3975	0.0249	-0.049
Mof_C 	C 	0.6936	0.5358	0.94268	0.092
Mof_H 	H 	0.7028	0.5749	0.9149	-0.014
Mof_C 	C 	0.9125	0.4834	0.85288	0.323
Mof_C 	C 	0.9297	0.4647	0.79994	-0.106
Mof_C 	C 	0.9996	0.3944	0.785	-0.089
Mof_H 	H 	0.0345	0.3583	0.8085	0.07
Mof_C 	C 	0.0188	0.3766	0.73533	0.148
Mof_Zn	Zn	0.58883	0.02289	0.94664	1.185
Mof_O 	O 	0.6394	0.9456	0.86719	-0.367
Mof_O 	O 	0.5467	0.0767	0.88332	-0.469
Mof_N 	N 	0.7328	0.0161	0.96469	-0.295
Mof_N 	N 	0.876	0.0383	0.00405	-0.262
Mof_N 	N 	0.8927	0.9753	0.96508	-0.258
Mof_N 	N 	0.4101	0.1907	0.7236	-0.324
Mof_H 	H 	0.3965	0.2024	0.6934	0.18
Mof_H 	H 	0.3784	0.2218	0.7463	0.142
Mof_C 	C 	0.78	0.0607	0.00249	0.093
Mof_H 	H 	0.7484	0.1025	0.0249	-0.049
Mof_C 	C 	0.8064	0.9642	0.94268	0.096
Mof_H 	H 	0.7972	0.9251	0.9149	-0.014
Mof_C 	C 	0.5875	0.0166	0.85288	0.322
Mof_C 	C 	0.5703	0.0353	0.79994	-0.11
Mof_C 	C 	0.5004	0.1056	0.785	-0.084
Mof_H 	H 	0.4655	0.1417	0.8085	0.068
Mof_C 	C 	0.4812	0.1234	0.73533	0.145
Mof_Zn	Zn	0.47711	0.58883	0.94664	1.185
Mof_O 	O 	0.5544	0.6394	0.86719	-0.368
Mof_O 	O 	0.4233	0.5467	0.88332	-0.469
Mof_N 	N 	0.4839	0.7328	0.96469	-0.292
Mof_N 	N 	0.4617	0.876	0.00405	-0.261
Mof_N 	N 	0.5247	0.8927	0.96508	-0.26
Mof_N 	N 	0.3093	0.4101	0.7236	-0.325
Mof_H 	H 	0.2976	0.3965	0.6934	0.18
Mof_H 	H 	0.2782	0.3784	0.7463	0.142
Mof_C 	C 	0.4393	0.78	0.00249	0.092
Mof_H 	H 	0.3975	0.7484	0.0249	-0.049
Mof_C 	C 	0.5358	0.8064	0.94268	0.092
Mof_H 	H 	0.5749	0.7972	0.9149	-0.014
Mof_C 	C 	0.4834	0.5875	0.85288	0.323
Mof_C 	C 	0.4647	0.5703	0.79994	-0.107
Mof_C 	C 	0.3944	0.5004	0.785	-0.086
Mof_H 	H 	0.3583	0.4655	0.8085	0.068
Mof_C 	C 	0.3766	0.4812	0.73533	0.146
Mof_Zn	Zn	0.02289	0.91117	0.94664	1.184
Mof_O 	O 	0.9456	0.8606	0.86719	-0.364
Mof_O 	O 	0.0767	0.9533	0.88332	-0.469
Mof_N 	N 	0.0161	0.7672	0.96469	-0.295
Mof_N 	N 	0.0383	0.624	0.00405	-0.261
Mof_N 	N 	0.9753	0.6073	0.96508	-0.26
Mof_N 	N 	0.1907	0.0899	0.7236	-0.326
Mof_H 	H 	0.2024	0.1035	0.6934	0.181
Mof_H 	H 	0.2218	0.1216	0.7463	0.143
Mof_C 	C 	0.0607	0.72	0.00249	0.093
Mof_H 	H 	0.1025	0.7516	0.0249	-0.049
Mof_C 	C 	0.9642	0.6936	0.94268	0.096
Mof_H 	H 	0.9251	0.7028	0.9149	-0.015
Mof_C 	C 	0.0166	0.9125	0.85288	0.319
Mof_C 	C 	0.0353	0.9297	0.79994	-0.11
Mof_C 	C 	0.1056	0.9996	0.785	-0.094
Mof_H 	H 	0.1417	0.0345	0.8085	0.073
Mof_C 	C 	0.1234	0.0188	0.73533	0.153
_end
