data_functionalizedCrystal
_audit_creation_method	'EQeq! by Chris Wilmer'
_symmetry_space_group_name_H-M	'P1'
_symmetry_Int_Tables_number	1
_symmetry_cell_setting	triclinic
loop_
_symmetry_equiv_pos_as_xyz
  x,y,z
_cell_length_a	12.016
_cell_length_b	12.167
_cell_length_c	13.85
_cell_angle_alpha	90
_cell_angle_beta	90
_cell_angle_gamma	90
loop_
_atom_site_label
_atom_site_type_symbol
_atom_site_fract_x
_atom_site_fract_y
_atom_site_fract_z
_atom_site_charge
Mof_Cu	Cu	0.53088	0.33357	0.1172	0.857
Mof_Cu	Cu	0.75941	0.24733	0.25195	0.844
Mof_Cu	Cu	0.46912	0.66643	0.1172	0.857
Mof_Cu	Cu	0.24059	0.75267	0.25195	0.844
Mof_Cu	Cu	0.96912	0.83357	0.3828	0.855
Mof_Cu	Cu	0.74059	0.74733	0.24805	0.843
Mof_Cu	Cu	0.03088	0.16643	0.3828	0.855
Mof_Cu	Cu	0.25941	0.25267	0.24805	0.843
Mof_Cu	Cu	0.46912	0.66643	0.8828	0.845
Mof_Cu	Cu	0.24059	0.75267	0.74805	0.84
Mof_Cu	Cu	0.53088	0.33357	0.8828	0.845
Mof_Cu	Cu	0.75941	0.24733	0.74805	0.84
Mof_Cu	Cu	0.03088	0.16643	0.6172	0.853
Mof_Cu	Cu	0.25941	0.25267	0.75195	0.841
Mof_Cu	Cu	0.96912	0.83357	0.6172	0.853
Mof_Cu	Cu	0.74059	0.74733	0.75195	0.841
Mof_H 	H 	0.1695	0.495	0.3069	-0.04
Mof_H 	H 	0.4054	0.1288	0.4084	-0.023
Mof_H 	H 	0.8305	0.505	0.3069	-0.04
Mof_H 	H 	0.5946	0.8712	0.4084	-0.023
Mof_H 	H 	0.3305	0.995	0.1931	-0.038
Mof_H 	H 	0.0946	0.6288	0.0916	-0.016
Mof_H 	H 	0.6695	0.005	0.1931	-0.038
Mof_H 	H 	0.9054	0.3712	0.0916	-0.016
Mof_H 	H 	0.8305	0.505	0.6931	-0.04
Mof_H 	H 	0.5946	0.8712	0.5916	-0.023
Mof_H 	H 	0.1695	0.495	0.6931	-0.04
Mof_H 	H 	0.4054	0.1288	0.5916	-0.023
Mof_H 	H 	0.6695	0.005	0.8069	-0.044
Mof_H 	H 	0.9054	0.3712	0.9084	-0.032
Mof_H 	H 	0.3305	0.995	0.8069	-0.044
Mof_H 	H 	0.0946	0.6288	0.9084	-0.032
Mof_H 	H 	0.1844	0.1637	-0	-0.016
Mof_H 	H 	0.6108	0.4583	-0	0.291
Mof_H 	H 	0.8156	0.8363	-0	-0.016
Mof_H 	H 	0.3892	0.5417	-0	0.291
Mof_H 	H 	0.3156	0.6637	0.5	-0.013
Mof_H 	H 	0.8892	0.9583	0.5	0.286
Mof_H 	H 	0.6844	0.3363	0.5	-0.013
Mof_H 	H 	0.1108	0.0417	0.5	0.286
Mof_C 	C 	0.2334	0.4995	0.2692	0.112
Mof_C 	C 	0.4525	0.161	0.3633	0.091
Mof_C 	C 	0.7666	0.5005	0.2692	0.112
Mof_C 	C 	0.5475	0.839	0.3633	0.091
Mof_C 	C 	0.2666	0.9995	0.2308	0.114
Mof_C 	C 	0.0475	0.661	0.1367	0.094
Mof_C 	C 	0.7334	0.0005	0.2308	0.114
Mof_C 	C 	0.9525	0.339	0.1367	0.094
Mof_C 	C 	0.7666	0.5005	0.7308	0.11
Mof_C 	C 	0.5475	0.839	0.6367	0.091
Mof_C 	C 	0.2334	0.4995	0.7308	0.11
Mof_C 	C 	0.4525	0.161	0.6367	0.091
Mof_C 	C 	0.7334	0.0005	0.7692	0.111
Mof_C 	C 	0.9525	0.339	0.8633	0.09
Mof_C 	C 	0.2666	0.9995	0.7692	0.111
Mof_C 	C 	0.0475	0.661	0.8633	0.09
Mof_C 	C 	0.2553	0.1943	-0	0.143
Mof_C 	C 	0.7447	0.8057	-0	0.143
Mof_C 	C 	0.2447	0.6943	0.5	0.104
Mof_C 	C 	0.7553	0.3057	0.5	0.104
Mof_N 	N 	0.2914	0.4142	0.2376	-0.208
Mof_N 	N 	0.3759	0.4539	0.1862	-0.11
Mof_N 	N 	0.3686	0.5609	0.1873	-0.166
Mof_N 	N 	0.2801	0.5927	0.2391	-0.213
Mof_N 	N 	0.5971	0.2132	0.2891	-0.162
Mof_N 	N 	0.5109	0.2479	0.2405	-0.171
Mof_N 	N 	0.4184	0.2173	0.2859	-0.204
Mof_N 	N 	0.5634	0.1573	0.367	-0.099
Mof_N 	N 	0.4069	0.2567	0.0481	-0.158
Mof_N 	N 	0.3105	0.2181	0.0801	-0.164
Mof_N 	N 	0.7086	0.5858	0.2376	-0.208
Mof_N 	N 	0.6241	0.5461	0.1862	-0.11
Mof_N 	N 	0.6314	0.4391	0.1873	-0.166
Mof_N 	N 	0.7199	0.4073	0.2391	-0.213
Mof_N 	N 	0.4029	0.7868	0.2891	-0.162
Mof_N 	N 	0.4891	0.7521	0.2405	-0.171
Mof_N 	N 	0.5816	0.7827	0.2859	-0.204
Mof_N 	N 	0.4366	0.8427	0.367	-0.099
Mof_N 	N 	0.5931	0.7433	0.0481	-0.158
Mof_N 	N 	0.6895	0.7819	0.0801	-0.164
Mof_N 	N 	0.2086	0.9142	0.2624	-0.208
Mof_N 	N 	0.1241	0.9539	0.3138	-0.109
Mof_N 	N 	0.1314	0.0609	0.3127	-0.168
Mof_N 	N 	0.2199	0.0927	0.2609	-0.214
Mof_N 	N 	0.9029	0.7132	0.2109	-0.162
Mof_N 	N 	0.9891	0.7479	0.2595	-0.172
Mof_N 	N 	0.0816	0.7173	0.2141	-0.202
Mof_N 	N 	0.9366	0.6573	0.133	-0.095
Mof_N 	N 	0.0931	0.7567	0.4519	-0.171
Mof_N 	N 	0.1895	0.7181	0.4199	-0.16
Mof_N 	N 	0.7914	0.0858	0.2624	-0.208
Mof_N 	N 	0.8759	0.0461	0.3138	-0.109
Mof_N 	N 	0.8686	0.9391	0.3127	-0.168
Mof_N 	N 	0.7801	0.9073	0.2609	-0.214
Mof_N 	N 	0.0971	0.2868	0.2109	-0.162
Mof_N 	N 	0.0109	0.2521	0.2595	-0.172
Mof_N 	N 	0.9184	0.2827	0.2141	-0.202
Mof_N 	N 	0.0634	0.3427	0.133	-0.095
Mof_N 	N 	0.9069	0.2433	0.4519	-0.171
Mof_N 	N 	0.8105	0.2819	0.4199	-0.16
Mof_N 	N 	0.7086	0.5858	0.7624	-0.21
Mof_N 	N 	0.6241	0.5461	0.8138	-0.115
Mof_N 	N 	0.6314	0.4391	0.8127	-0.171
Mof_N 	N 	0.7199	0.4073	0.7609	-0.215
Mof_N 	N 	0.4029	0.7868	0.7109	-0.164
Mof_N 	N 	0.4891	0.7521	0.7595	-0.173
Mof_N 	N 	0.5816	0.7827	0.7141	-0.204
Mof_N 	N 	0.4366	0.8427	0.633	-0.099
Mof_N 	N 	0.5931	0.7433	0.9519	-0.19
Mof_N 	N 	0.6895	0.7819	0.9199	-0.181
Mof_N 	N 	0.2914	0.4142	0.7624	-0.21
Mof_N 	N 	0.3759	0.4539	0.8138	-0.115
Mof_N 	N 	0.3686	0.5609	0.8127	-0.171
Mof_N 	N 	0.2801	0.5927	0.7609	-0.215
Mof_N 	N 	0.5971	0.2132	0.7109	-0.164
Mof_N 	N 	0.5109	0.2479	0.7595	-0.173
Mof_N 	N 	0.4184	0.2173	0.7141	-0.204
Mof_N 	N 	0.5634	0.1573	0.633	-0.099
Mof_N 	N 	0.4069	0.2567	0.9519	-0.19
Mof_N 	N 	0.3105	0.2181	0.9199	-0.181
Mof_N 	N 	0.7914	0.0858	0.7376	-0.211
Mof_N 	N 	0.8759	0.0461	0.6862	-0.111
Mof_N 	N 	0.8686	0.9391	0.6873	-0.169
Mof_N 	N 	0.7801	0.9073	0.7391	-0.216
Mof_N 	N 	0.0971	0.2868	0.7891	-0.165
Mof_N 	N 	0.0109	0.2521	0.7405	-0.173
Mof_N 	N 	0.9184	0.2827	0.7859	-0.205
Mof_N 	N 	0.0634	0.3427	0.867	-0.106
Mof_N 	N 	0.9069	0.2433	0.5481	-0.171
Mof_N 	N 	0.8105	0.2819	0.5801	-0.16
Mof_N 	N 	0.2086	0.9142	0.7376	-0.211
Mof_N 	N 	0.1241	0.9539	0.6862	-0.111
Mof_N 	N 	0.1314	0.0609	0.6873	-0.169
Mof_N 	N 	0.2199	0.0927	0.7391	-0.216
Mof_N 	N 	0.9029	0.7132	0.7891	-0.165
Mof_N 	N 	0.9891	0.7479	0.7405	-0.173
Mof_N 	N 	0.0816	0.7173	0.7859	-0.205
Mof_N 	N 	0.9366	0.6573	0.867	-0.106
Mof_N 	N 	0.0931	0.7567	0.5481	-0.171
Mof_N 	N 	0.1895	0.7181	0.5801	-0.16
Mof_O 	O 	0.5615	0.4106	-0	-0.695
Mof_O 	O 	0.4385	0.5894	-0	-0.695
Mof_O 	O 	0.9385	0.9106	0.5	-0.71
Mof_O 	O 	0.0615	0.0894	0.5	-0.71
_end
