# CIF file generated by openbabel 3.1.0, see https://openbabel.org
data_I
_chemical_name_common 'VUNCAJ_clean'
_cell_length_a 8.6296
_cell_length_b 9.608
_cell_length_c 14.497
_cell_angle_alpha 90
_cell_angle_beta 93.097
_cell_angle_gamma 90
_space_group_name_H-M_alt 'P 1'
_space_group_name_Hall 'P 1'
loop_
    _symmetry_equiv_pos_as_xyz
    x,y,z
loop_
    _atom_site_label
    _atom_site_type_symbol
    _atom_site_fract_x
    _atom_site_fract_y
    _atom_site_fract_z
    _atom_site_occupancy
    Zn1      Zn       0.65674    0.50294    0.67169    1.000
    Zn2      Zn       0.84326    0.00294    0.82831    1.000
    Zn3      Zn       0.34326    0.49706    0.32831    1.000
    Zn4      Zn       0.15674    0.99706    0.17169    1.000
    H1       H        0.04400    0.04040    0.59140    1.000
    H2       H        0.16170    0.98520    0.51820    1.000
    H3       H        0.09770    0.18450    0.42310    1.000
    H4       H        0.18310    0.22470    0.52010    1.000
    H5       H        0.71580    0.49580    0.45970    1.000
    H6       H        0.93440    0.26680    0.64840    1.000
    H7       H        0.45030    0.77340    0.45130    1.000
    H8       H        0.45600    0.54040    0.90860    1.000
    H9       H        0.33830    0.48520    0.98180    1.000
    H10      H        0.40230    0.68450    0.07690    1.000
    H11      H        0.31690    0.72470    0.97990    1.000
    H12      H        0.78420    0.99580    0.04030    1.000
    H13      H        0.56560    0.76680    0.85160    1.000
    H14      H        0.04970    0.27340    0.04870    1.000
    H15      H        0.95600    0.95960    0.40860    1.000
    H16      H        0.83830    0.01480    0.48180    1.000
    H17      H        0.90230    0.81550    0.57690    1.000
    H18      H        0.81690    0.77530    0.47990    1.000
    H19      H        0.28420    0.50420    0.54030    1.000
    H20      H        0.06560    0.73320    0.35160    1.000
    H21      H        0.54970    0.22660    0.54870    1.000
    H22      H        0.54400    0.45960    0.09140    1.000
    H23      H        0.66170    0.51480    0.01820    1.000
    H24      H        0.59770    0.31550    0.92310    1.000
    H25      H        0.68310    0.27530    0.02010    1.000
    H26      H        0.21580    0.00420    0.95970    1.000
    H27      H        0.43440    0.23320    0.14840    1.000
    H28      H        0.95030    0.72660    0.95130    1.000
    C1       C        0.06410    0.03760    0.52480    1.000
    C2       C        0.08620    0.18620    0.49070    1.000
    C3       C        0.78420    0.42940    0.48850    1.000
    C4       C        0.90010    0.30790    0.59130    1.000
    C5       C        0.46950    0.86620    0.47150    1.000
    C6       C        0.52620    0.88910    0.56110    1.000
    C7       C        0.56000    0.02530    0.58970    1.000
    C8       C        0.54240    0.76760    0.62660    1.000
    C9       C        0.63830    0.05600    0.68310    1.000
    C10      C        0.43590    0.53760    0.97520    1.000
    C11      C        0.41380    0.68620    0.00930    1.000
    C12      C        0.71580    0.92940    0.01150    1.000
    C13      C        0.59990    0.80790    0.90870    1.000
    C14      C        0.03050    0.36620    0.02850    1.000
    C15      C        0.97380    0.38910    0.93890    1.000
    C16      C        0.94000    0.52530    0.91030    1.000
    C17      C        0.95760    0.26760    0.87340    1.000
    C18      C        0.86170    0.55600    0.81690    1.000
    C19      C        0.93590    0.96240    0.47520    1.000
    C20      C        0.91380    0.81380    0.50930    1.000
    C21      C        0.21580    0.57060    0.51150    1.000
    C22      C        0.09990    0.69210    0.40870    1.000
    C23      C        0.53050    0.13380    0.52850    1.000
    C24      C        0.47380    0.11090    0.43890    1.000
    C25      C        0.44000    0.97470    0.41030    1.000
    C26      C        0.45760    0.23240    0.37340    1.000
    C27      C        0.36170    0.94400    0.31690    1.000
    C28      C        0.56410    0.46240    0.02480    1.000
    C29      C        0.58620    0.31380    0.99070    1.000
    C30      C        0.28420    0.07060    0.98850    1.000
    C31      C        0.40010    0.19210    0.09130    1.000
    C32      C        0.96950    0.63380    0.97150    1.000
    C33      C        0.02620    0.61090    0.06110    1.000
    C34      C        0.06000    0.47470    0.08970    1.000
    C35      C        0.04240    0.73240    0.12660    1.000
    C36      C        0.13830    0.44400    0.18310    1.000
    N1       N        0.95520    0.27860    0.51110    1.000
    N2       N        0.88060    0.35560    0.44290    1.000
    N3       N        0.78940    0.40370    0.58100    1.000
    N4       N        0.54480    0.77860    0.98890    1.000
    N5       N        0.61940    0.85560    0.05710    1.000
    N6       N        0.71060    0.90370    0.91900    1.000
    N7       N        0.04480    0.72140    0.48890    1.000
    N8       N        0.11940    0.64440    0.55710    1.000
    N9       N        0.21060    0.59630    0.41900    1.000
    N10      N        0.45520    0.22140    0.01110    1.000
    N11      N        0.38060    0.14440    0.94290    1.000
    N12      N        0.28940    0.09630    0.08100    1.000
    O1       O        0.60580    0.66080    0.59290    1.000
    O2       O        0.49300    0.77520    0.70460    1.000
    O3       O        0.75810    0.98240    0.70320    1.000
    O4       O        0.59100    0.14930    0.73330    1.000
    O5       O        0.89420    0.16080    0.90710    1.000
    O6       O        0.00700    0.27520    0.79540    1.000
    O7       O        0.74190    0.48240    0.79680    1.000
    O8       O        0.90900    0.64930    0.76670    1.000
    O9       O        0.39420    0.33920    0.40710    1.000
    O10      O        0.50700    0.22480    0.29540    1.000
    O11      O        0.24190    0.01760    0.29680    1.000
    O12      O        0.40900    0.85070    0.26670    1.000
    O13      O        0.10580    0.83920    0.09290    1.000
    O14      O        0.99300    0.72480    0.20460    1.000
    O15      O        0.25810    0.51760    0.20320    1.000
    O16      O        0.09100    0.35070    0.23330    1.000
