# CIF file generated by openbabel 3.1.0, see https://openbabel.org
data_I
_chemical_name_common 'WUNSII01_charged'
_cell_length_a 15.89
_cell_length_b 15.89
_cell_length_c 21.706
_cell_angle_alpha 90
_cell_angle_beta 90
_cell_angle_gamma 90
_space_group_name_H-M_alt 'P 1'
_space_group_name_Hall 'P 1'
loop_
    _symmetry_equiv_pos_as_xyz
    x,y,z
loop_
    _atom_site_label
    _atom_site_type_symbol
    _atom_site_fract_x
    _atom_site_fract_y
    _atom_site_fract_z
    _atom_site_occupancy
    Cd1      Cd       0.05777    0.05777    0.00000    1.000
    Cd2      Cd       0.94223    0.94223    0.50000    1.000
    Cd3      Cd       0.44223    0.55777    0.25000    1.000
    Cd4      Cd       0.55777    0.44223    0.75000    1.000
    H1       H        0.36180    0.72960    0.20890    1.000
    H2       H        0.26110    0.78630    0.14490    1.000
    H3       H        0.28440    0.58120    0.03690    1.000
    H4       H        0.38840    0.53710    0.10130    1.000
    H5       H        0.20190    0.64770    0.97100    1.000
    H6       H        0.08860    0.69860    0.91550    1.000
    H7       H        0.99810    0.79720    0.95830    1.000
    H8       H        0.13930    0.80040    0.11310    1.000
    H9       H        0.88220    0.04260    0.20880    1.000
    H10      H        0.76880    0.06160    0.27600    1.000
    H11      H        0.66730    0.96200    0.28790    1.000
    H12      H        0.77780    0.82220    0.15400    1.000
    H13      H        0.65720    0.76370    0.14100    1.000
    H14      H        0.56340    0.65550    0.15630    1.000
    H15      H        0.50650    0.73820    0.31990    1.000
    H16      H        0.60090    0.84880    0.30840    1.000
    H17      H        0.96810    0.74680    0.15480    1.000
    H18      H        0.91850    0.73350    0.09760    1.000
    H19      H        0.63820    0.27040    0.70890    1.000
    H20      H        0.73890    0.21370    0.64490    1.000
    H21      H        0.71560    0.41880    0.53690    1.000
    H22      H        0.61160    0.46290    0.60130    1.000
    H23      H        0.79810    0.35230    0.47100    1.000
    H24      H        0.91140    0.30140    0.41550    1.000
    H25      H        0.00190    0.20280    0.45830    1.000
    H26      H        0.86070    0.19960    0.61310    1.000
    H27      H        0.11780    0.95740    0.70880    1.000
    H28      H        0.23120    0.93840    0.77600    1.000
    H29      H        0.33270    0.03800    0.78790    1.000
    H30      H        0.22220    0.17780    0.65400    1.000
    H31      H        0.34280    0.23630    0.64100    1.000
    H32      H        0.43660    0.34450    0.65630    1.000
    H33      H        0.49350    0.26180    0.81990    1.000
    H34      H        0.39910    0.15120    0.80840    1.000
    H35      H        0.03190    0.25320    0.65480    1.000
    H36      H        0.08150    0.26650    0.59760    1.000
    H37      H        0.77040    0.86180    0.45890    1.000
    H38      H        0.71370    0.76110    0.39490    1.000
    H39      H        0.91880    0.78440    0.28690    1.000
    H40      H        0.96290    0.88840    0.35130    1.000
    H41      H        0.85230    0.70190    0.22100    1.000
    H42      H        0.80140    0.58860    0.16550    1.000
    H43      H        0.70280    0.49810    0.20830    1.000
    H44      H        0.69960    0.63930    0.36310    1.000
    H45      H        0.45740    0.38220    0.45880    1.000
    H46      H        0.43840    0.26880    0.52600    1.000
    H47      H        0.53800    0.16730    0.53790    1.000
    H48      H        0.67780    0.27780    0.40400    1.000
    H49      H        0.73630    0.15720    0.39100    1.000
    H50      H        0.84450    0.06340    0.40630    1.000
    H51      H        0.76180    0.00650    0.56990    1.000
    H52      H        0.65120    0.10090    0.55840    1.000
    H53      H        0.75320    0.46810    0.40480    1.000
    H54      H        0.76650    0.41850    0.34760    1.000
    H55      H        0.22960    0.13820    0.95890    1.000
    H56      H        0.28630    0.23890    0.89490    1.000
    H57      H        0.08120    0.21560    0.78690    1.000
    H58      H        0.03710    0.11160    0.85130    1.000
    H59      H        0.14770    0.29810    0.72100    1.000
    H60      H        0.19860    0.41140    0.66550    1.000
    H61      H        0.29720    0.50190    0.70830    1.000
    H62      H        0.30040    0.36070    0.86310    1.000
    H63      H        0.54260    0.61780    0.95880    1.000
    H64      H        0.56160    0.73120    0.02600    1.000
    H65      H        0.46200    0.83270    0.03790    1.000
    H66      H        0.32220    0.72220    0.90400    1.000
    H67      H        0.26370    0.84280    0.89100    1.000
    H68      H        0.15550    0.93660    0.90630    1.000
    H69      H        0.23820    0.99350    0.06990    1.000
    H70      H        0.34880    0.89910    0.05840    1.000
    H71      H        0.24680    0.53190    0.90480    1.000
    H72      H        0.23350    0.58150    0.84760    1.000
    H73      H        0.13820    0.22960    0.04110    1.000
    H74      H        0.23890    0.28630    0.10510    1.000
    H75      H        0.21560    0.08120    0.21310    1.000
    H76      H        0.11160    0.03710    0.14870    1.000
    H77      H        0.29810    0.14770    0.27900    1.000
    H78      H        0.41140    0.19860    0.33450    1.000
    H79      H        0.50190    0.29720    0.29170    1.000
    H80      H        0.36070    0.30040    0.13690    1.000
    H81      H        0.61780    0.54260    0.04120    1.000
    H82      H        0.73120    0.56160    0.97400    1.000
    H83      H        0.83270    0.46200    0.96210    1.000
    H84      H        0.72220    0.32220    0.09600    1.000
    H85      H        0.84280    0.26370    0.10900    1.000
    H86      H        0.93660    0.15550    0.09370    1.000
    H87      H        0.99350    0.23820    0.93010    1.000
    H88      H        0.89910    0.34880    0.94160    1.000
    H89      H        0.53190    0.24680    0.09520    1.000
    H90      H        0.58150    0.23350    0.15240    1.000
    H91      H        0.86180    0.77040    0.54110    1.000
    H92      H        0.76110    0.71370    0.60510    1.000
    H93      H        0.78440    0.91880    0.71310    1.000
    H94      H        0.88840    0.96290    0.64870    1.000
    H95      H        0.70190    0.85230    0.77900    1.000
    H96      H        0.58860    0.80140    0.83450    1.000
    H97      H        0.49810    0.70280    0.79170    1.000
    H98      H        0.63930    0.69960    0.63690    1.000
    H99      H        0.38220    0.45740    0.54120    1.000
    H100     H        0.26880    0.43840    0.47400    1.000
    H101     H        0.16730    0.53800    0.46210    1.000
    H102     H        0.27780    0.67780    0.59600    1.000
    H103     H        0.15720    0.73630    0.60900    1.000
    H104     H        0.06340    0.84450    0.59370    1.000
    H105     H        0.00650    0.76180    0.43010    1.000
    H106     H        0.10090    0.65120    0.44160    1.000
    H107     H        0.46810    0.75320    0.59520    1.000
    H108     H        0.41850    0.76650    0.65240    1.000
    H109     H        0.72960    0.36180    0.79110    1.000
    H110     H        0.78630    0.26110    0.85510    1.000
    H111     H        0.58120    0.28440    0.96310    1.000
    H112     H        0.53710    0.38840    0.89870    1.000
    H113     H        0.64770    0.20190    0.02900    1.000
    H114     H        0.69860    0.08860    0.08450    1.000
    H115     H        0.79720    0.99810    0.04170    1.000
    H116     H        0.80040    0.13930    0.88690    1.000
    H117     H        0.04260    0.88220    0.79120    1.000
    H118     H        0.06160    0.76880    0.72400    1.000
    H119     H        0.96200    0.66730    0.71210    1.000
    H120     H        0.82220    0.77780    0.84600    1.000
    H121     H        0.76370    0.65720    0.85900    1.000
    H122     H        0.65550    0.56340    0.84370    1.000
    H123     H        0.73820    0.50650    0.68010    1.000
    H124     H        0.84880    0.60090    0.69160    1.000
    H125     H        0.74680    0.96810    0.84520    1.000
    H126     H        0.73350    0.91850    0.90240    1.000
    H127     H        0.27040    0.63820    0.29110    1.000
    H128     H        0.21370    0.73890    0.35510    1.000
    H129     H        0.41880    0.71560    0.46310    1.000
    H130     H        0.46290    0.61160    0.39870    1.000
    H131     H        0.35230    0.79810    0.52900    1.000
    H132     H        0.30140    0.91140    0.58450    1.000
    H133     H        0.20280    0.00190    0.54170    1.000
    H134     H        0.19960    0.86070    0.38690    1.000
    H135     H        0.95740    0.11780    0.29120    1.000
    H136     H        0.93840    0.23120    0.22400    1.000
    H137     H        0.03800    0.33270    0.21210    1.000
    H138     H        0.17780    0.22220    0.34600    1.000
    H139     H        0.23630    0.34280    0.35900    1.000
    H140     H        0.34450    0.43660    0.34370    1.000
    H141     H        0.26180    0.49350    0.18010    1.000
    H142     H        0.15120    0.39910    0.19160    1.000
    H143     H        0.25320    0.03190    0.34520    1.000
    H144     H        0.26650    0.08150    0.40240    1.000
    C1       C        0.34380    0.69840    0.17400    1.000
    C2       C        0.28300    0.73210    0.13590    1.000
    C3       C        0.25360    0.68970    0.08590    1.000
    C4       C        0.29760    0.61300    0.07270    1.000
    C5       C        0.35820    0.58650    0.11210    1.000
    C6       C        0.18300    0.71820    0.04820    1.000
    C7       C        0.16620    0.68890    0.98890    1.000
    C8       C        0.09870    0.71890    0.95600    1.000
    C9       C        0.04540    0.77820    0.98130    1.000
    C10      C        0.05990    0.81070    0.04010    1.000
    C11      C        0.12870    0.77950    0.07280    1.000
    C12      C        0.00560    0.87130    0.06980    1.000
    C13      C        0.90750    0.92290    0.13220    1.000
    C14      C        0.83990    0.93100    0.17510    1.000
    C15      C        0.83870    0.00180    0.21130    1.000
    C16      C        0.77150    0.01190    0.25170    1.000
    C17      C        0.71010    0.95390    0.25800    1.000
    C18      C        0.70860    0.88020    0.21990    1.000
    C19      C        0.77540    0.87080    0.17950    1.000
    C20      C        0.64440    0.81530    0.22540    1.000
    C21      C        0.62870    0.75900    0.17930    1.000
    C22      C        0.57120    0.69520    0.18860    1.000
    C23      C        0.53800    0.74210    0.28280    1.000
    C24      C        0.59570    0.80830    0.27650    1.000
    C25      C        0.65620    0.30160    0.67400    1.000
    C26      C        0.71700    0.26790    0.63590    1.000
    C27      C        0.74640    0.31030    0.58590    1.000
    C28      C        0.70240    0.38700    0.57270    1.000
    C29      C        0.64180    0.41350    0.61210    1.000
    C30      C        0.81700    0.28180    0.54820    1.000
    C31      C        0.83380    0.31110    0.48890    1.000
    C32      C        0.90130    0.28110    0.45600    1.000
    C33      C        0.95460    0.22180    0.48130    1.000
    C34      C        0.94010    0.18930    0.54010    1.000
    C35      C        0.87130    0.22050    0.57280    1.000
    C36      C        0.99440    0.12870    0.56980    1.000
    C37      C        0.09250    0.07710    0.63220    1.000
    C38      C        0.16010    0.06900    0.67510    1.000
    C39      C        0.16130    0.99820    0.71130    1.000
    C40      C        0.22850    0.98810    0.75170    1.000
    C41      C        0.28990    0.04610    0.75800    1.000
    C42      C        0.29140    0.11980    0.71990    1.000
    C43      C        0.22460    0.12920    0.67950    1.000
    C44      C        0.35560    0.18470    0.72540    1.000
    C45      C        0.37130    0.24100    0.67930    1.000
    C46      C        0.42880    0.30480    0.68860    1.000
    C47      C        0.46200    0.25790    0.78280    1.000
    C48      C        0.40430    0.19170    0.77650    1.000
    C49      C        0.80160    0.84380    0.42400    1.000
    C50      C        0.76790    0.78300    0.38590    1.000
    C51      C        0.81030    0.75360    0.33590    1.000
    C52      C        0.88700    0.79760    0.32270    1.000
    C53      C        0.91350    0.85820    0.36210    1.000
    C54      C        0.78180    0.68300    0.29820    1.000
    C55      C        0.81110    0.66620    0.23890    1.000
    C56      C        0.78110    0.59870    0.20600    1.000
    C57      C        0.72180    0.54540    0.23130    1.000
    C58      C        0.68930    0.55990    0.29010    1.000
    C59      C        0.72050    0.62870    0.32280    1.000
    C60      C        0.62870    0.50560    0.31980    1.000
    C61      C        0.57710    0.40750    0.38220    1.000
    C62      C        0.56900    0.33990    0.42510    1.000
    C63      C        0.49820    0.33870    0.46130    1.000
    C64      C        0.48810    0.27150    0.50170    1.000
    C65      C        0.54610    0.21010    0.50800    1.000
    C66      C        0.61980    0.20860    0.46990    1.000
    C67      C        0.62920    0.27540    0.42950    1.000
    C68      C        0.68470    0.14440    0.47540    1.000
    C69      C        0.74100    0.12870    0.42930    1.000
    C70      C        0.80480    0.07120    0.43860    1.000
    C71      C        0.75790    0.03800    0.53280    1.000
    C72      C        0.69170    0.09570    0.52650    1.000
    C73      C        0.19840    0.15620    0.92400    1.000
    C74      C        0.23210    0.21700    0.88590    1.000
    C75      C        0.18970    0.24640    0.83590    1.000
    C76      C        0.11300    0.20240    0.82270    1.000
    C77      C        0.08650    0.14180    0.86210    1.000
    C78      C        0.21820    0.31700    0.79820    1.000
    C79      C        0.18890    0.33380    0.73890    1.000
    C80      C        0.21890    0.40130    0.70600    1.000
    C81      C        0.27820    0.45460    0.73130    1.000
    C82      C        0.31070    0.44010    0.79010    1.000
    C83      C        0.27950    0.37130    0.82280    1.000
    C84      C        0.37130    0.49440    0.81980    1.000
    C85      C        0.42290    0.59250    0.88220    1.000
    C86      C        0.43100    0.66010    0.92510    1.000
    C87      C        0.50180    0.66130    0.96130    1.000
    C88      C        0.51190    0.72850    0.00170    1.000
    C89      C        0.45390    0.78990    0.00800    1.000
    C90      C        0.38020    0.79140    0.96990    1.000
    C91      C        0.37080    0.72460    0.92950    1.000
    C92      C        0.31530    0.85560    0.97540    1.000
    C93      C        0.25900    0.87130    0.92930    1.000
    C94      C        0.19520    0.92880    0.93860    1.000
    C95      C        0.24210    0.96200    0.03280    1.000
    C96      C        0.30830    0.90430    0.02650    1.000
    C97      C        0.15620    0.19840    0.07600    1.000
    C98      C        0.21700    0.23210    0.11410    1.000
    C99      C        0.24640    0.18970    0.16410    1.000
    C100     C        0.20240    0.11300    0.17730    1.000
    C101     C        0.14180    0.08650    0.13790    1.000
    C102     C        0.31700    0.21820    0.20180    1.000
    C103     C        0.33380    0.18890    0.26110    1.000
    C104     C        0.40130    0.21890    0.29400    1.000
    C105     C        0.45460    0.27820    0.26870    1.000
    C106     C        0.44010    0.31070    0.20990    1.000
    C107     C        0.37130    0.27950    0.17720    1.000
    C108     C        0.49440    0.37130    0.18020    1.000
    C109     C        0.59250    0.42290    0.11780    1.000
    C110     C        0.66010    0.43100    0.07490    1.000
    C111     C        0.66130    0.50180    0.03870    1.000
    C112     C        0.72850    0.51190    0.99830    1.000
    C113     C        0.78990    0.45390    0.99200    1.000
    C114     C        0.79140    0.38020    0.03010    1.000
    C115     C        0.72460    0.37080    0.07050    1.000
    C116     C        0.85560    0.31530    0.02460    1.000
    C117     C        0.87130    0.25900    0.07070    1.000
    C118     C        0.92880    0.19520    0.06140    1.000
    C119     C        0.96200    0.24210    0.96720    1.000
    C120     C        0.90430    0.30830    0.97350    1.000
    C121     C        0.84380    0.80160    0.57600    1.000
    C122     C        0.78300    0.76790    0.61410    1.000
    C123     C        0.75360    0.81030    0.66410    1.000
    C124     C        0.79760    0.88700    0.67730    1.000
    C125     C        0.85820    0.91350    0.63790    1.000
    C126     C        0.68300    0.78180    0.70180    1.000
    C127     C        0.66620    0.81110    0.76110    1.000
    C128     C        0.59870    0.78110    0.79400    1.000
    C129     C        0.54540    0.72180    0.76870    1.000
    C130     C        0.55990    0.68930    0.70990    1.000
    C131     C        0.62870    0.72050    0.67720    1.000
    C132     C        0.50560    0.62870    0.68020    1.000
    C133     C        0.40750    0.57710    0.61780    1.000
    C134     C        0.33990    0.56900    0.57490    1.000
    C135     C        0.33870    0.49820    0.53870    1.000
    C136     C        0.27150    0.48810    0.49830    1.000
    C137     C        0.21010    0.54610    0.49200    1.000
    C138     C        0.20860    0.61980    0.53010    1.000
    C139     C        0.27540    0.62920    0.57050    1.000
    C140     C        0.14440    0.68470    0.52460    1.000
    C141     C        0.12870    0.74100    0.57070    1.000
    C142     C        0.07120    0.80480    0.56140    1.000
    C143     C        0.03800    0.75790    0.46720    1.000
    C144     C        0.09570    0.69170    0.47350    1.000
    C145     C        0.69840    0.34380    0.82600    1.000
    C146     C        0.73210    0.28300    0.86410    1.000
    C147     C        0.68970    0.25360    0.91410    1.000
    C148     C        0.61300    0.29760    0.92730    1.000
    C149     C        0.58650    0.35820    0.88790    1.000
    C150     C        0.71820    0.18300    0.95180    1.000
    C151     C        0.68890    0.16620    0.01110    1.000
    C152     C        0.71890    0.09870    0.04400    1.000
    C153     C        0.77820    0.04540    0.01870    1.000
    C154     C        0.81070    0.05990    0.95990    1.000
    C155     C        0.77950    0.12870    0.92720    1.000
    C156     C        0.87130    0.00560    0.93020    1.000
    C157     C        0.92290    0.90750    0.86780    1.000
    C158     C        0.93100    0.83990    0.82490    1.000
    C159     C        0.00180    0.83870    0.78870    1.000
    C160     C        0.01190    0.77150    0.74830    1.000
    C161     C        0.95390    0.71010    0.74200    1.000
    C162     C        0.88020    0.70860    0.78010    1.000
    C163     C        0.87080    0.77540    0.82050    1.000
    C164     C        0.81530    0.64440    0.77460    1.000
    C165     C        0.75900    0.62870    0.82070    1.000
    C166     C        0.69520    0.57120    0.81140    1.000
    C167     C        0.74210    0.53800    0.71720    1.000
    C168     C        0.80830    0.59570    0.72350    1.000
    C169     C        0.30160    0.65620    0.32600    1.000
    C170     C        0.26790    0.71700    0.36410    1.000
    C171     C        0.31030    0.74640    0.41410    1.000
    C172     C        0.38700    0.70240    0.42730    1.000
    C173     C        0.41350    0.64180    0.38790    1.000
    C174     C        0.28180    0.81700    0.45180    1.000
    C175     C        0.31110    0.83380    0.51110    1.000
    C176     C        0.28110    0.90130    0.54400    1.000
    C177     C        0.22180    0.95460    0.51870    1.000
    C178     C        0.18930    0.94010    0.45990    1.000
    C179     C        0.22050    0.87130    0.42720    1.000
    C180     C        0.12870    0.99440    0.43020    1.000
    C181     C        0.07710    0.09250    0.36780    1.000
    C182     C        0.06900    0.16010    0.32490    1.000
    C183     C        0.99820    0.16130    0.28870    1.000
    C184     C        0.98810    0.22850    0.24830    1.000
    C185     C        0.04610    0.28990    0.24200    1.000
    C186     C        0.11980    0.29140    0.28010    1.000
    C187     C        0.12920    0.22460    0.32050    1.000
    C188     C        0.18470    0.35560    0.27460    1.000
    C189     C        0.24100    0.37130    0.32070    1.000
    C190     C        0.30480    0.42880    0.31140    1.000
    C191     C        0.25790    0.46200    0.21720    1.000
    C192     C        0.19170    0.40430    0.22350    1.000
    N1       N        0.00640    0.95290    0.06510    1.000
    N2       N        0.94430    0.98610    0.10390    1.000
    N3       N        0.94500    0.84970    0.11090    1.000
    N4       N        0.92550    0.76720    0.13110    1.000
    N5       N        0.37810    0.62310    0.16310    1.000
    N6       N        0.52570    0.68550    0.23990    1.000
    N7       N        0.99360    0.04710    0.56510    1.000
    N8       N        0.05570    0.01390    0.60390    1.000
    N9       N        0.05500    0.15030    0.61090    1.000
    N10      N        0.07450    0.23280    0.63110    1.000
    N11      N        0.62190    0.37690    0.66310    1.000
    N12      N        0.47430    0.31450    0.73990    1.000
    N13      N        0.54710    0.50640    0.31510    1.000
    N14      N        0.51390    0.44430    0.35390    1.000
    N15      N        0.65030    0.44500    0.36090    1.000
    N16      N        0.73280    0.42550    0.38110    1.000
    N17      N        0.87690    0.87810    0.41310    1.000
    N18      N        0.81450    0.02570    0.48990    1.000
    N19      N        0.45290    0.49360    0.81510    1.000
    N20      N        0.48610    0.55570    0.85390    1.000
    N21      N        0.34970    0.55500    0.86090    1.000
    N22      N        0.26720    0.57450    0.88110    1.000
    N23      N        0.12310    0.12190    0.91310    1.000
    N24      N        0.18550    0.97430    0.98990    1.000
    N25      N        0.49360    0.45290    0.18490    1.000
    N26      N        0.55570    0.48610    0.14610    1.000
    N27      N        0.55500    0.34970    0.13910    1.000
    N28      N        0.57450    0.26720    0.11890    1.000
    N29      N        0.12190    0.12310    0.08690    1.000
    N30      N        0.97430    0.18550    0.01010    1.000
    N31      N        0.50640    0.54710    0.68490    1.000
    N32      N        0.44430    0.51390    0.64610    1.000
    N33      N        0.44500    0.65030    0.63910    1.000
    N34      N        0.42550    0.73280    0.61890    1.000
    N35      N        0.87810    0.87690    0.58690    1.000
    N36      N        0.02570    0.81450    0.51010    1.000
    N37      N        0.95290    0.00640    0.93490    1.000
    N38      N        0.98610    0.94430    0.89610    1.000
    N39      N        0.84970    0.94500    0.88910    1.000
    N40      N        0.76720    0.92550    0.86890    1.000
    N41      N        0.62310    0.37810    0.83690    1.000
    N42      N        0.68550    0.52570    0.76010    1.000
    N43      N        0.04710    0.99360    0.43490    1.000
    N44      N        0.01390    0.05570    0.39610    1.000
    N45      N        0.15030    0.05500    0.38910    1.000
    N46      N        0.23280    0.07450    0.36890    1.000
    N47      N        0.37690    0.62190    0.33690    1.000
    N48      N        0.31450    0.47430    0.26010    1.000
    Cl1      Cl       0.37860    0.37860    0.00000    1.000
    O1       O        0.32830    0.40110    0.04710    1.000
    O2       O        0.34060    0.44340    0.96720    1.000
    O3       O        0.40110    0.32830    0.95290    1.000
    O4       O        0.44340    0.34060    0.03280    1.000
    Cl2      Cl       0.62140    0.62140    0.50000    1.000
    O5       O        0.67170    0.59890    0.54710    1.000
    O6       O        0.65940    0.55660    0.46720    1.000
    O7       O        0.59890    0.67170    0.45290    1.000
    O8       O        0.55660    0.65940    0.53280    1.000
    Cl3      Cl       0.12140    0.87860    0.25000    1.000
    O9       O        0.09890    0.82830    0.29710    1.000
    O10      O        0.05660    0.84060    0.21720    1.000
    O11      O        0.17170    0.90110    0.20290    1.000
    O12      O        0.15940    0.94340    0.28280    1.000
    Cl4      Cl       0.87860    0.12140    0.75000    1.000
    O13      O        0.90110    0.17170    0.79710    1.000
    O14      O        0.94340    0.15940    0.71720    1.000
    O15      O        0.82830    0.09890    0.70290    1.000
    O16      O        0.84060    0.05660    0.78280    1.000
