data_functionalizedCrystal
_audit_creation_method	'EQeq! by Chris Wilmer'
_symmetry_space_group_name_H-M	'P1'
_symmetry_Int_Tables_number	1
_symmetry_cell_setting	triclinic
loop_
_symmetry_equiv_pos_as_xyz
  x,y,z
_cell_length_a	24.3176
_cell_length_b	23.9869
_cell_length_c	31.166
_cell_angle_alpha	90
_cell_angle_beta	104.71
_cell_angle_gamma	90
loop_
_atom_site_label
_atom_site_type_symbol
_atom_site_fract_x
_atom_site_fract_y
_atom_site_fract_z
_atom_site_charge
Mof_C 	C 	0.3776	0.6103	0.5264	0.427
Mof_C 	C 	0.378	0.6064	0.4793	-0.172
Mof_C 	C 	0.3438	0.641	0.4487	0.086
Mof_C 	C 	0.3417	0.6357	0.4029	0.024
Mof_C 	C 	0.3766	0.595	0.3888	0.053
Mof_C 	C 	0.4104	0.5604	0.4215	-0.135
Mof_C 	C 	0.4121	0.5669	0.4665	0.117
Mof_C 	C 	0.4462	0.5169	0.4073	0.385
Mof_C 	C 	0.2962	0.6788	0.3294	0.186
Mof_C 	C 	0.2478	0.7227	0.2683	0.189
Mof_C 	C 	0.3179	0.6637	0.2655	0.184
Mof_C 	C 	0.1742	0.7967	0.2591	0.022
Mof_C 	C 	0.1373	0.8283	0.2223	0.081
Mof_C 	C 	0.0976	0.8644	0.2306	-0.203
Mof_C 	C 	0.0931	0.8727	0.2756	0.042
Mof_C 	C 	0.1266	0.841	0.3088	-0.162
Mof_C 	C 	0.1673	0.8029	0.3028	0.071
Mof_C 	C 	0.1186	0.8473	0.3542	0.458
Mof_C 	C 	0.0614	0.8952	0.1947	0.479
Mof_C 	C 	0.3455	0.6277	0.1974	0.037
Mof_C 	C 	0.3747	0.5835	0.1856	-0.054
Mof_C 	C 	0.3814	0.5796	0.1432	-0.155
Mof_C 	C 	0.3577	0.6197	0.1127	0.137
Mof_C 	C 	0.324	0.6574	0.1216	-0.151
Mof_C 	C 	0.3183	0.664	0.1669	0.053
Mof_C 	C 	0.3117	0.7105	0.0972	0.25
Mof_C 	C 	0.4145	0.5292	0.1335	0.421
Mof_N 	N 	0.328	0.649	0.3075	-0.162
Mof_N 	N 	0.2784	0.6993	0.2432	-0.15
Mof_N 	N 	0.257	0.7183	0.3124	-0.147
Mof_N 	N 	0.3425	0.6262	0.2416	-0.149
Mof_N 	N 	0.2154	0.7665	0.2463	-0.114
Mof_N 	N 	0.3051	0.6745	0.3745	-0.112
Mof_O 	O 	0.3489	0.6508	0.5363	-0.235
Mof_O 	O 	0.2993	0.768	0.1051	-0.115
Mof_O 	O 	0.4007	0.5753	0.55307	-0.496
Mof_O 	O 	0.4735	0.4833	0.43496	-0.468
Mof_O 	O 	0.4484	0.5151	0.3677	-0.489
Mof_O 	O 	0.1551	0.8307	0.3857	-0.262
Mof_O 	O 	0.0736	0.8679	0.3582	-0.531
Mof_O 	O 	0.0263	0.9304	0.20071	-0.763
Mof_O 	O 	0.0657	0.8858	0.1558	-0.519
Mof_O 	O 	0.4256	0.5278	0.0966	-0.44
Mof_O 	O 	0.4311	0.4939	0.1613	-0.665
Mof_Eu	Eu	0.48002	0.56141	0.6173	2.273
Mof_O 	O 	0.3416	0.7188	0.067	-0.12
Mof_C 	C 	0.2708	0.6723	0.0865	0.161
Mof_O 	O 	0.2376	0.7155	0.0898	-0.134
Mof_O 	O 	0.2663	0.7406	0.0971	-0.022
Mof_O 	O 	0.2904	0.6873	0.053	-0.149
Mof_C 	C 	0.8776	0.1103	0.5264	0.433
Mof_C 	C 	0.878	0.1064	0.4793	-0.175
Mof_C 	C 	0.8438	0.141	0.4487	0.091
Mof_C 	C 	0.8417	0.1357	0.4029	0.024
Mof_C 	C 	0.8766	0.095	0.3888	0.058
Mof_C 	C 	0.9104	0.0604	0.4215	-0.132
Mof_C 	C 	0.9121	0.0669	0.4665	0.126
Mof_C 	C 	0.9462	0.0169	0.4073	0.381
Mof_C 	C 	0.7962	0.1788	0.3294	0.189
Mof_C 	C 	0.7478	0.2227	0.2683	0.192
Mof_C 	C 	0.8179	0.1637	0.2655	0.189
Mof_C 	C 	0.6742	0.2967	0.2591	0.023
Mof_C 	C 	0.6373	0.3283	0.2223	0.087
Mof_C 	C 	0.5976	0.3644	0.2306	-0.202
Mof_C 	C 	0.5931	0.3727	0.2756	0.047
Mof_C 	C 	0.6266	0.341	0.3088	-0.162
Mof_C 	C 	0.6673	0.3029	0.3028	0.075
Mof_C 	C 	0.6186	0.3473	0.3542	0.462
Mof_C 	C 	0.5614	0.3952	0.1947	0.482
Mof_C 	C 	0.8455	0.1277	0.1974	0.037
Mof_C 	C 	0.8747	0.0835	0.1856	-0.039
Mof_C 	C 	0.8814	0.0796	0.1432	-0.152
Mof_C 	C 	0.8577	0.1197	0.1127	0.144
Mof_C 	C 	0.824	0.1574	0.1216	-0.152
Mof_C 	C 	0.8183	0.164	0.1669	0.058
Mof_C 	C 	0.8117	0.2105	0.0972	0.25
Mof_C 	C 	0.9145	0.0292	0.1335	0.421
Mof_N 	N 	0.828	0.149	0.3075	-0.16
Mof_N 	N 	0.7784	0.1993	0.2432	-0.148
Mof_N 	N 	0.757	0.2183	0.3124	-0.146
Mof_N 	N 	0.8425	0.1262	0.2416	-0.144
Mof_N 	N 	0.7154	0.2665	0.2463	-0.111
Mof_N 	N 	0.8051	0.1745	0.3745	-0.109
Mof_O 	O 	0.8489	0.1508	0.5363	-0.233
Mof_O 	O 	0.7993	0.268	0.1051	-0.107
Mof_O 	O 	0.9007	0.0753	0.55307	-0.504
Mof_O 	O 	0.9735	0.9833	0.43496	-0.435
Mof_O 	O 	0.9484	0.0151	0.3677	-0.461
Mof_O 	O 	0.6551	0.3307	0.3857	-0.26
Mof_O 	O 	0.5736	0.3679	0.3582	-0.535
Mof_O 	O 	0.5263	0.4304	0.20071	-0.753
Mof_O 	O 	0.5657	0.3858	0.1558	-0.496
Mof_O 	O 	0.9256	0.0278	0.0966	-0.435
Mof_O 	O 	0.9311	0.9939	0.1613	-0.654
Mof_Eu	Eu	0.98002	0.06141	0.6173	2.39
Mof_O 	O 	0.8416	0.2188	0.067	-0.112
Mof_C 	C 	0.7708	0.1723	0.0865	0.163
Mof_O 	O 	0.7376	0.2155	0.0898	-0.127
Mof_O 	O 	0.7663	0.2406	0.0971	-0.027
Mof_O 	O 	0.7904	0.1873	0.053	-0.146
Mof_C 	C 	0.6224	0.6103	0.9736	0.426
Mof_C 	C 	0.622	0.6064	0.0207	-0.172
Mof_C 	C 	0.6562	0.641	0.0513	0.088
Mof_C 	C 	0.6583	0.6357	0.0971	0.024
Mof_C 	C 	0.6234	0.595	0.1112	0.053
Mof_C 	C 	0.5896	0.5604	0.0785	-0.135
Mof_C 	C 	0.5879	0.5669	0.0335	0.118
Mof_C 	C 	0.5538	0.5169	0.0927	0.385
Mof_C 	C 	0.7038	0.6788	0.1706	0.188
Mof_C 	C 	0.7522	0.7227	0.2317	0.193
Mof_C 	C 	0.6821	0.6637	0.2345	0.186
Mof_C 	C 	0.8258	0.7967	0.2409	0.024
Mof_C 	C 	0.8627	0.8283	0.2777	0.09
Mof_C 	C 	0.9024	0.8644	0.2694	-0.195
Mof_C 	C 	0.9069	0.8727	0.2244	0.059
Mof_C 	C 	0.8734	0.841	0.1912	-0.165
Mof_C 	C 	0.8327	0.8029	0.1972	0.078
Mof_C 	C 	0.8814	0.8473	0.1458	0.469
Mof_C 	C 	0.9386	0.8952	0.3053	0.473
Mof_C 	C 	0.6545	0.6277	0.3026	0.037
Mof_C 	C 	0.6253	0.5835	0.3144	-0.051
Mof_C 	C 	0.6186	0.5796	0.3568	-0.155
Mof_C 	C 	0.6423	0.6197	0.3873	0.139
Mof_C 	C 	0.676	0.6574	0.3784	-0.151
Mof_C 	C 	0.6817	0.664	0.3331	0.056
Mof_C 	C 	0.6883	0.7105	0.4028	0.247
Mof_C 	C 	0.5855	0.5292	0.3665	0.422
Mof_N 	N 	0.672	0.649	0.1925	-0.162
Mof_N 	N 	0.7216	0.6993	0.2568	-0.148
Mof_N 	N 	0.743	0.7183	0.1876	-0.146
Mof_N 	N 	0.6575	0.6262	0.2584	-0.148
Mof_N 	N 	0.7846	0.7665	0.2537	-0.111
Mof_N 	N 	0.6949	0.6745	0.1255	-0.11
Mof_O 	O 	0.6511	0.6508	0.9637	-0.232
Mof_O 	O 	0.7007	0.768	0.3949	-0.111
Mof_O 	O 	0.5993	0.5753	0.94693	-0.495
Mof_O 	O 	0.5265	0.4833	0.06504	-0.467
Mof_O 	O 	0.5516	0.5151	0.1323	-0.489
Mof_O 	O 	0.8449	0.8307	0.1143	-0.262
Mof_O 	O 	0.9264	0.8679	0.1418	-0.538
Mof_O 	O 	0.9737	0.9304	0.29929	-0.703
Mof_O 	O 	0.9343	0.8858	0.3442	-0.469
Mof_O 	O 	0.5744	0.5278	0.4034	-0.439
Mof_O 	O 	0.5689	0.4939	0.3387	-0.665
Mof_Eu	Eu	0.51998	0.56141	0.8827	2.273
Mof_O 	O 	0.6584	0.7188	0.433	-0.119
Mof_C 	C 	0.7292	0.6723	0.4135	0.166
Mof_O 	O 	0.7624	0.7155	0.4102	-0.124
Mof_O 	O 	0.7337	0.7406	0.4029	-0.025
Mof_O 	O 	0.7096	0.6873	0.447	-0.146
Mof_C 	C 	0.1224	0.1103	0.9736	0.417
Mof_C 	C 	0.122	0.1064	0.0207	-0.169
Mof_C 	C 	0.1562	0.141	0.0513	0.082
Mof_C 	C 	0.1583	0.1357	0.0971	0.023
Mof_C 	C 	0.1234	0.095	0.1112	0.05
Mof_C 	C 	0.0896	0.0604	0.0785	-0.138
Mof_C 	C 	0.0879	0.0669	0.0335	0.109
Mof_C 	C 	0.0538	0.0169	0.0927	0.387
Mof_C 	C 	0.2038	0.1788	0.1706	0.185
Mof_C 	C 	0.2522	0.2227	0.2317	0.19
Mof_C 	C 	0.1821	0.1637	0.2345	0.183
Mof_C 	C 	0.3258	0.2967	0.2409	0.023
Mof_C 	C 	0.3627	0.3283	0.2777	0.084
Mof_C 	C 	0.4024	0.3644	0.2694	-0.202
Mof_C 	C 	0.4069	0.3727	0.2244	0.045
Mof_C 	C 	0.3734	0.341	0.1912	-0.163
Mof_C 	C 	0.3327	0.3029	0.1972	0.072
Mof_C 	C 	0.3814	0.3473	0.1458	0.462
Mof_C 	C 	0.4386	0.3952	0.3053	0.482
Mof_C 	C 	0.1545	0.1277	0.3026	0.035
Mof_C 	C 	0.1253	0.0835	0.3144	-0.051
Mof_C 	C 	0.1186	0.0796	0.3568	-0.156
Mof_C 	C 	0.1423	0.1197	0.3873	0.134
Mof_C 	C 	0.176	0.1574	0.3784	-0.151
Mof_C 	C 	0.1817	0.164	0.3331	0.053
Mof_C 	C 	0.1883	0.2105	0.4028	0.248
Mof_C 	C 	0.0855	0.0292	0.3665	0.418
Mof_N 	N 	0.172	0.149	0.1925	-0.163
Mof_N 	N 	0.2216	0.1993	0.2568	-0.15
Mof_N 	N 	0.243	0.2183	0.1876	-0.147
Mof_N 	N 	0.1575	0.1262	0.2584	-0.148
Mof_N 	N 	0.2846	0.2665	0.2537	-0.114
Mof_N 	N 	0.1949	0.1745	0.1255	-0.112
Mof_O 	O 	0.1511	0.1508	0.9637	-0.234
Mof_O 	O 	0.2007	0.268	0.3949	-0.118
Mof_O 	O 	0.0993	0.0753	0.94693	-0.488
Mof_O 	O 	0.0265	0.9833	0.06504	-0.499
Mof_O 	O 	0.0516	0.0151	0.1323	-0.509
Mof_O 	O 	0.3449	0.3307	0.1143	-0.263
Mof_O 	O 	0.4264	0.3679	0.1418	-0.535
Mof_O 	O 	0.4737	0.4304	0.29929	-0.753
Mof_O 	O 	0.4343	0.3858	0.3442	-0.497
Mof_O 	O 	0.0744	0.0278	0.4034	-0.441
Mof_O 	O 	0.0689	0.9939	0.3387	-0.654
Mof_Eu	Eu	0.01998	0.06141	0.8827	2.162
Mof_O 	O 	0.1584	0.2188	0.433	-0.125
Mof_C 	C 	0.2292	0.1723	0.4135	0.164
Mof_O 	O 	0.2624	0.2155	0.4102	-0.132
Mof_O 	O 	0.2337	0.2406	0.4029	-0.021
Mof_O 	O 	0.2096	0.1873	0.447	-0.149
Mof_C 	C 	0.6224	0.3897	0.4736	0.426
Mof_C 	C 	0.622	0.3936	0.5207	-0.173
Mof_C 	C 	0.6562	0.359	0.5513	0.088
Mof_C 	C 	0.6583	0.3643	0.5971	0.024
Mof_C 	C 	0.6234	0.405	0.6112	0.054
Mof_C 	C 	0.5896	0.4396	0.5785	-0.135
Mof_C 	C 	0.5879	0.4331	0.5335	0.118
Mof_C 	C 	0.5538	0.4831	0.5927	0.385
Mof_C 	C 	0.7038	0.3212	0.6706	0.188
Mof_C 	C 	0.7522	0.2773	0.7317	0.193
Mof_C 	C 	0.6821	0.3363	0.7345	0.186
Mof_C 	C 	0.8258	0.2033	0.7409	0.024
Mof_C 	C 	0.8627	0.1717	0.7777	0.089
Mof_C 	C 	0.9024	0.1356	0.7694	-0.195
Mof_C 	C 	0.9069	0.1273	0.7244	0.06
Mof_C 	C 	0.8734	0.159	0.6912	-0.165
Mof_C 	C 	0.8327	0.1971	0.6972	0.078
Mof_C 	C 	0.8814	0.1527	0.6458	0.469
Mof_C 	C 	0.9386	0.1048	0.8053	0.472
Mof_C 	C 	0.6545	0.3723	0.8026	0.037
Mof_C 	C 	0.6253	0.4165	0.8144	-0.051
Mof_C 	C 	0.6186	0.4204	0.8568	-0.155
Mof_C 	C 	0.6423	0.3803	0.8873	0.139
Mof_C 	C 	0.676	0.3426	0.8784	-0.151
Mof_C 	C 	0.6817	0.336	0.8331	0.056
Mof_C 	C 	0.6883	0.2895	0.9028	0.247
Mof_C 	C 	0.5855	0.4708	0.8665	0.421
Mof_N 	N 	0.672	0.351	0.6925	-0.162
Mof_N 	N 	0.7216	0.3007	0.7568	-0.148
Mof_N 	N 	0.743	0.2817	0.6876	-0.146
Mof_N 	N 	0.6575	0.3738	0.7584	-0.148
Mof_N 	N 	0.7846	0.2335	0.7537	-0.111
Mof_N 	N 	0.6949	0.3255	0.6255	-0.11
Mof_O 	O 	0.6511	0.3492	0.4637	-0.232
Mof_O 	O 	0.7007	0.232	0.8949	-0.111
Mof_O 	O 	0.5993	0.4247	0.44693	-0.495
Mof_O 	O 	0.5265	0.5167	0.56504	-0.468
Mof_O 	O 	0.5516	0.4849	0.6323	-0.489
Mof_O 	O 	0.8449	0.1693	0.6143	-0.262
Mof_O 	O 	0.9264	0.1321	0.6418	-0.538
Mof_O 	O 	0.9737	0.0696	0.79929	-0.702
Mof_O 	O 	0.9343	0.1142	0.8442	-0.469
Mof_O 	O 	0.5744	0.4722	0.9034	-0.439
Mof_O 	O 	0.5689	0.5061	0.8387	-0.665
Mof_Eu	Eu	0.51998	0.43859	0.3827	2.273
Mof_O 	O 	0.6584	0.2812	0.933	-0.119
Mof_C 	C 	0.7292	0.3277	0.9135	0.166
Mof_O 	O 	0.7624	0.2845	0.9102	-0.125
Mof_O 	O 	0.7337	0.2594	0.9029	-0.025
Mof_O 	O 	0.7096	0.3127	0.947	-0.146
Mof_C 	C 	0.1224	0.8897	0.4736	0.419
Mof_C 	C 	0.122	0.8936	0.5207	-0.171
Mof_C 	C 	0.1562	0.859	0.5513	0.082
Mof_C 	C 	0.1583	0.8643	0.5971	0.022
Mof_C 	C 	0.1234	0.905	0.6112	0.05
Mof_C 	C 	0.0896	0.9396	0.5785	-0.138
Mof_C 	C 	0.0879	0.9331	0.5335	0.108
Mof_C 	C 	0.0538	0.9831	0.5927	0.387
Mof_C 	C 	0.2038	0.8212	0.6706	0.185
Mof_C 	C 	0.2522	0.7773	0.7317	0.19
Mof_C 	C 	0.1821	0.8363	0.7345	0.183
Mof_C 	C 	0.3258	0.7033	0.7409	0.023
Mof_C 	C 	0.3627	0.6717	0.7777	0.084
Mof_C 	C 	0.4024	0.6356	0.7694	-0.202
Mof_C 	C 	0.4069	0.6273	0.7244	0.045
Mof_C 	C 	0.3734	0.659	0.6912	-0.163
Mof_C 	C 	0.3327	0.6971	0.6972	0.072
Mof_C 	C 	0.3814	0.6527	0.6458	0.462
Mof_C 	C 	0.4386	0.6048	0.8053	0.482
Mof_C 	C 	0.1545	0.8723	0.8026	0.035
Mof_C 	C 	0.1253	0.9165	0.8144	-0.051
Mof_C 	C 	0.1186	0.9204	0.8568	-0.156
Mof_C 	C 	0.1423	0.8803	0.8873	0.134
Mof_C 	C 	0.176	0.8426	0.8784	-0.151
Mof_C 	C 	0.1817	0.836	0.8331	0.052
Mof_C 	C 	0.1883	0.7895	0.9028	0.248
Mof_C 	C 	0.0855	0.9708	0.8665	0.418
Mof_N 	N 	0.172	0.851	0.6925	-0.163
Mof_N 	N 	0.2216	0.8007	0.7568	-0.15
Mof_N 	N 	0.243	0.7817	0.6876	-0.147
Mof_N 	N 	0.1575	0.8738	0.7584	-0.148
Mof_N 	N 	0.2846	0.7335	0.7537	-0.114
Mof_N 	N 	0.1949	0.8255	0.6255	-0.112
Mof_O 	O 	0.1511	0.8492	0.4637	-0.234
Mof_O 	O 	0.2007	0.732	0.8949	-0.119
Mof_O 	O 	0.0993	0.9247	0.44693	-0.488
Mof_O 	O 	0.0265	0.0167	0.56504	-0.5
Mof_O 	O 	0.0516	0.9849	0.6323	-0.51
Mof_O 	O 	0.3449	0.6693	0.6143	-0.263
Mof_O 	O 	0.4264	0.6321	0.6418	-0.535
Mof_O 	O 	0.4737	0.5696	0.79929	-0.753
Mof_O 	O 	0.4343	0.6142	0.8442	-0.497
Mof_O 	O 	0.0744	0.9722	0.9034	-0.441
Mof_O 	O 	0.0689	0.0061	0.8387	-0.654
Mof_Eu	Eu	0.01998	0.93859	0.3827	2.164
Mof_O 	O 	0.1584	0.7812	0.933	-0.126
Mof_C 	C 	0.2292	0.8277	0.9135	0.164
Mof_O 	O 	0.2624	0.7845	0.9102	-0.132
Mof_O 	O 	0.2337	0.7594	0.9029	-0.021
Mof_O 	O 	0.2096	0.8127	0.947	-0.149
Mof_C 	C 	0.3776	0.3897	0.0264	0.427
Mof_C 	C 	0.378	0.3936	0.9793	-0.174
Mof_C 	C 	0.3438	0.359	0.9487	0.084
Mof_C 	C 	0.3417	0.3643	0.9029	0.022
Mof_C 	C 	0.3766	0.405	0.8888	0.052
Mof_C 	C 	0.4104	0.4396	0.9215	-0.136
Mof_C 	C 	0.4121	0.4331	0.9665	0.116
Mof_C 	C 	0.4462	0.4831	0.9073	0.384
Mof_C 	C 	0.2962	0.3212	0.8294	0.185
Mof_C 	C 	0.2478	0.2773	0.7683	0.189
Mof_C 	C 	0.3179	0.3363	0.7655	0.184
Mof_C 	C 	0.1742	0.2033	0.7591	0.022
Mof_C 	C 	0.1373	0.1717	0.7223	0.081
Mof_C 	C 	0.0976	0.1356	0.7306	-0.203
Mof_C 	C 	0.0931	0.1273	0.7756	0.042
Mof_C 	C 	0.1266	0.159	0.8088	-0.162
Mof_C 	C 	0.1673	0.1971	0.8028	0.07
Mof_C 	C 	0.1186	0.1527	0.8542	0.457
Mof_C 	C 	0.0614	0.1048	0.6947	0.479
Mof_C 	C 	0.3455	0.3723	0.6974	0.037
Mof_C 	C 	0.3747	0.4165	0.6856	-0.054
Mof_C 	C 	0.3814	0.4204	0.6432	-0.155
Mof_C 	C 	0.3577	0.3803	0.6127	0.137
Mof_C 	C 	0.324	0.3426	0.6216	-0.151
Mof_C 	C 	0.3183	0.336	0.6669	0.053
Mof_C 	C 	0.3117	0.2895	0.5972	0.25
Mof_C 	C 	0.4145	0.4708	0.6335	0.421
Mof_N 	N 	0.328	0.351	0.8075	-0.162
Mof_N 	N 	0.2784	0.3007	0.7432	-0.15
Mof_N 	N 	0.257	0.2817	0.8124	-0.147
Mof_N 	N 	0.3425	0.3738	0.7416	-0.149
Mof_N 	N 	0.2154	0.2335	0.7463	-0.114
Mof_N 	N 	0.3051	0.3255	0.8745	-0.112
Mof_O 	O 	0.3489	0.3492	0.0363	-0.235
Mof_O 	O 	0.2993	0.232	0.6051	-0.115
Mof_O 	O 	0.4007	0.4247	0.05307	-0.496
Mof_O 	O 	0.4735	0.5167	0.93496	-0.468
Mof_O 	O 	0.4484	0.4849	0.8677	-0.489
Mof_O 	O 	0.1551	0.1693	0.8857	-0.262
Mof_O 	O 	0.0736	0.1321	0.8582	-0.531
Mof_O 	O 	0.0263	0.0696	0.70071	-0.764
Mof_O 	O 	0.0657	0.1142	0.6558	-0.519
Mof_O 	O 	0.4256	0.4722	0.5966	-0.44
Mof_O 	O 	0.4311	0.5061	0.6613	-0.665
Mof_Eu	Eu	0.48002	0.43859	0.1173	2.274
Mof_O 	O 	0.3416	0.2812	0.567	-0.12
Mof_C 	C 	0.2708	0.3277	0.5865	0.161
Mof_O 	O 	0.2376	0.2845	0.5898	-0.134
Mof_O 	O 	0.2663	0.2594	0.5971	-0.022
Mof_O 	O 	0.2904	0.3127	0.553	-0.149
Mof_C 	C 	0.8776	0.8897	0.0264	0.433
Mof_C 	C 	0.878	0.8936	0.9793	-0.175
Mof_C 	C 	0.8438	0.859	0.9487	0.091
Mof_C 	C 	0.8417	0.8643	0.9029	0.024
Mof_C 	C 	0.8766	0.905	0.8888	0.058
Mof_C 	C 	0.9104	0.9396	0.9215	-0.132
Mof_C 	C 	0.9121	0.9331	0.9665	0.126
Mof_C 	C 	0.9462	0.9831	0.9073	0.382
Mof_C 	C 	0.7962	0.8212	0.8294	0.189
Mof_C 	C 	0.7478	0.7773	0.7683	0.192
Mof_C 	C 	0.8179	0.8363	0.7655	0.189
Mof_C 	C 	0.6742	0.7033	0.7591	0.023
Mof_C 	C 	0.6373	0.6717	0.7223	0.087
Mof_C 	C 	0.5976	0.6356	0.7306	-0.202
Mof_C 	C 	0.5931	0.6273	0.7756	0.047
Mof_C 	C 	0.6266	0.659	0.8088	-0.162
Mof_C 	C 	0.6673	0.6971	0.8028	0.075
Mof_C 	C 	0.6186	0.6527	0.8542	0.462
Mof_C 	C 	0.5614	0.6048	0.6947	0.482
Mof_C 	C 	0.8455	0.8723	0.6974	0.037
Mof_C 	C 	0.8747	0.9165	0.6856	-0.039
Mof_C 	C 	0.8814	0.9204	0.6432	-0.152
Mof_C 	C 	0.8577	0.8803	0.6127	0.144
Mof_C 	C 	0.824	0.8426	0.6216	-0.152
Mof_C 	C 	0.8183	0.836	0.6669	0.058
Mof_C 	C 	0.8117	0.7895	0.5972	0.25
Mof_C 	C 	0.9145	0.9708	0.6335	0.421
Mof_N 	N 	0.828	0.851	0.8075	-0.16
Mof_N 	N 	0.7784	0.8007	0.7432	-0.148
Mof_N 	N 	0.757	0.7817	0.8124	-0.146
Mof_N 	N 	0.8425	0.8738	0.7416	-0.144
Mof_N 	N 	0.7154	0.7335	0.7463	-0.111
Mof_N 	N 	0.8051	0.8255	0.8745	-0.109
Mof_O 	O 	0.8489	0.8492	0.0363	-0.233
Mof_O 	O 	0.7993	0.732	0.6051	-0.107
Mof_O 	O 	0.9007	0.9247	0.05307	-0.504
Mof_O 	O 	0.9735	0.0167	0.93496	-0.435
Mof_O 	O 	0.9484	0.9849	0.8677	-0.461
Mof_O 	O 	0.6551	0.6693	0.8857	-0.26
Mof_O 	O 	0.5736	0.6321	0.8582	-0.535
Mof_O 	O 	0.5263	0.5696	0.70071	-0.753
Mof_O 	O 	0.5657	0.6142	0.6558	-0.496
Mof_O 	O 	0.9256	0.9722	0.5966	-0.436
Mof_O 	O 	0.9311	0.0061	0.6613	-0.653
Mof_Eu	Eu	0.98002	0.93859	0.1173	2.387
Mof_O 	O 	0.8416	0.7812	0.567	-0.112
Mof_C 	C 	0.7708	0.8277	0.5865	0.163
Mof_O 	O 	0.7376	0.7845	0.5898	-0.127
Mof_O 	O 	0.7663	0.7594	0.5971	-0.027
Mof_O 	O 	0.7904	0.8127	0.553	-0.146
Mof_Na	Na	1.50638e-33	0.9954	0.25	2.023
Mof_Na	Na	0.5	0.4954	0.25	2.136
Mof_Na	Na	-5.17246e-17	0.0046	0.75	2.02
Mof_Na	Na	0.5	0.5046	0.75	2.136
_end
