# CIF file generated by openbabel 3.1.0, see https://openbabel.org
data_I
_chemical_name_common 'image0'
_cell_length_a 18.6842
_cell_length_b 18.6842
_cell_length_c 9.408
_cell_angle_alpha 90
_cell_angle_beta 90
_cell_angle_gamma 90
_space_group_name_H-M_alt 'P 1'
_space_group_name_Hall 'P 1'
loop_
    _symmetry_equiv_pos_as_xyz
    x,y,z
loop_
    _atom_site_label
    _atom_site_type_symbol
    _atom_site_fract_x
    _atom_site_fract_y
    _atom_site_fract_z
    _atom_site_occupancy
    P1       P        0.06421    0.94340    0.33485    1.000
    O1       O        0.07340    0.91880    0.48710    1.000
    O2       O        0.05840    0.87680    0.24230    1.000
    O3       O        0.12860    0.98880    0.29330    1.000
    O4       O        0.99510    0.98490    0.32170    1.000
    Al1      Al       0.16453    0.04424    0.15671    1.000
    O5       O        0.15530    0.99930    0.98860    1.000
    O6       O        0.25600    0.06290    0.19170    1.000
    O7       O        0.37330    0.12170    0.15550    1.000
    P2       P        0.33331    0.05057    0.16026    1.000
    O8       O        0.34220    0.01400    0.01730    1.000
    O9       O        0.36380    0.00480    0.27810    1.000
    Al2      Al       0.06542    0.83414    0.08060    1.000
    Co1      Co       0.93458    0.16586    0.91940    1.000
    O10      O        0.13760    0.86650    0.98270    1.000
    O11      O        0.24460    0.91940    0.87720    1.000
    P3       P        0.16652    0.93222    0.90426    1.000
    O12      O        0.12970    0.93990    0.76050    1.000
    Al3      Al       0.05063    0.93361    0.66453    1.000
    P4       P        0.43579    0.55660    0.33485    1.000
    O13      O        0.42660    0.58120    0.48710    1.000
    O14      O        0.44160    0.62320    0.24230    1.000
    O15      O        0.37140    0.51120    0.29330    1.000
    O16      O        0.50490    0.51510    0.32170    1.000
    Al4      Al       0.33547    0.45576    0.15671    1.000
    O17      O        0.34470    0.50070    0.98860    1.000
    O18      O        0.24400    0.43710    0.19170    1.000
    O19      O        0.12670    0.37830    0.15550    1.000
    P5       P        0.16669    0.44943    0.16026    1.000
    O20      O        0.15780    0.48600    0.01730    1.000
    O21      O        0.13620    0.49520    0.27810    1.000
    Al5      Al       0.43458    0.66586    0.08060    1.000
    Co2      Co       0.56542    0.33414    0.91940    1.000
    O22      O        0.36240    0.63350    0.98270    1.000
    O23      O        0.25540    0.58060    0.87720    1.000
    P6       P        0.33348    0.56778    0.90426    1.000
    O24      O        0.37030    0.56010    0.76050    1.000
    Al6      Al       0.44937    0.56639    0.66453    1.000
    P7       P        0.55660    0.06421    0.33485    1.000
    O25      O        0.58120    0.07340    0.48710    1.000
    O26      O        0.62320    0.05840    0.24230    1.000
    O27      O        0.51120    0.12860    0.29330    1.000
    O28      O        0.51510    0.99510    0.32170    1.000
    Al7      Al       0.45576    0.16453    0.15671    1.000
    O29      O        0.50070    0.15530    0.98860    1.000
    O30      O        0.43710    0.25600    0.19170    1.000
    O31      O        0.37830    0.37330    0.15550    1.000
    P8       P        0.44943    0.33331    0.16026    1.000
    O32      O        0.48600    0.34220    0.01730    1.000
    O33      O        0.49520    0.36380    0.27810    1.000
    Al8      Al       0.66586    0.06542    0.08060    1.000
    Co3      Co       0.33414    0.93458    0.91940    1.000
    O34      O        0.63350    0.13760    0.98270    1.000
    O35      O        0.58060    0.24460    0.87720    1.000
    P9       P        0.56778    0.16652    0.90426    1.000
    O36      O        0.56010    0.12970    0.76050    1.000
    Al9      Al       0.56639    0.05063    0.66453    1.000
    P10      P        0.94340    0.43579    0.33485    1.000
    O37      O        0.91880    0.42660    0.48710    1.000
    O38      O        0.87680    0.44160    0.24230    1.000
    O39      O        0.98880    0.37140    0.29330    1.000
    O40      O        0.98490    0.50490    0.32170    1.000
    Al10     Al       0.04424    0.33547    0.15671    1.000
    O41      O        0.99930    0.34470    0.98860    1.000
    O42      O        0.06290    0.24400    0.19170    1.000
    O43      O        0.12170    0.12670    0.15550    1.000
    P11      P        0.05057    0.16669    0.16026    1.000
    O44      O        0.01400    0.15780    0.01730    1.000
    O45      O        0.00480    0.13620    0.27810    1.000
    Al11     Al       0.83414    0.43458    0.08060    1.000
    Co4      Co       0.16586    0.56542    0.91940    1.000
    O46      O        0.86650    0.36240    0.98270    1.000
    O47      O        0.91940    0.25540    0.87720    1.000
    P12      P        0.93222    0.33348    0.90426    1.000
    O48      O        0.93990    0.37030    0.76050    1.000
    Al12     Al       0.93361    0.44937    0.66453    1.000
    P13      P        0.93579    0.05660    0.66515    1.000
    O49      O        0.92660    0.08120    0.51290    1.000
    O50      O        0.94160    0.12320    0.75770    1.000
    O51      O        0.87140    0.01120    0.70670    1.000
    O52      O        0.00490    0.01510    0.67830    1.000
    Al13     Al       0.83547    0.95576    0.84329    1.000
    O53      O        0.84470    0.00070    0.01140    1.000
    O54      O        0.74400    0.93710    0.80830    1.000
    O55      O        0.62670    0.87830    0.84450    1.000
    P14      P        0.66669    0.94943    0.83974    1.000
    O56      O        0.65780    0.98600    0.98270    1.000
    O57      O        0.63620    0.99520    0.72190    1.000
    O58      O        0.86240    0.13350    0.01730    1.000
    O59      O        0.75540    0.08060    0.12280    1.000
    P15      P        0.83348    0.06778    0.09574    1.000
    O60      O        0.87030    0.06010    0.23950    1.000
    Al14     Al       0.94937    0.06639    0.33547    1.000
    P16      P        0.56421    0.44340    0.66515    1.000
    O61      O        0.57340    0.41880    0.51290    1.000
    O62      O        0.55840    0.37680    0.75770    1.000
    O63      O        0.62860    0.48880    0.70670    1.000
    O64      O        0.49510    0.48490    0.67830    1.000
    Al15     Al       0.66453    0.54424    0.84329    1.000
    O65      O        0.65530    0.49930    0.01140    1.000
    O66      O        0.75600    0.56290    0.80830    1.000
    O67      O        0.87330    0.62170    0.84450    1.000
    P17      P        0.83331    0.55057    0.83974    1.000
    O68      O        0.84220    0.51400    0.98270    1.000
    O69      O        0.86380    0.50480    0.72190    1.000
    O70      O        0.63760    0.36650    0.01730    1.000
    O71      O        0.74460    0.41940    0.12280    1.000
    P18      P        0.66652    0.43222    0.09574    1.000
    O72      O        0.62970    0.43990    0.23950    1.000
    Al16     Al       0.55063    0.43361    0.33547    1.000
    P19      P        0.44340    0.93579    0.66515    1.000
    O73      O        0.41880    0.92660    0.51290    1.000
    O74      O        0.37680    0.94160    0.75770    1.000
    O75      O        0.48880    0.87140    0.70670    1.000
    O76      O        0.48490    0.00490    0.67830    1.000
    Al17     Al       0.54424    0.83547    0.84329    1.000
    O77      O        0.49930    0.84470    0.01140    1.000
    O78      O        0.56290    0.74400    0.80830    1.000
    O79      O        0.62170    0.62670    0.84450    1.000
    P20      P        0.55057    0.66669    0.83974    1.000
    O80      O        0.51400    0.65780    0.98270    1.000
    O81      O        0.50480    0.63620    0.72190    1.000
    O82      O        0.36650    0.86240    0.01730    1.000
    O83      O        0.41940    0.75540    0.12280    1.000
    P21      P        0.43222    0.83348    0.09574    1.000
    O84      O        0.43990    0.87030    0.23950    1.000
    Al18     Al       0.43361    0.94937    0.33547    1.000
    P22      P        0.05660    0.56421    0.66515    1.000
    O85      O        0.08120    0.57340    0.51290    1.000
    O86      O        0.12320    0.55840    0.75770    1.000
    O87      O        0.01120    0.62860    0.70670    1.000
    O88      O        0.01510    0.49510    0.67830    1.000
    Al19     Al       0.95576    0.66453    0.84329    1.000
    O89      O        0.00070    0.65530    0.01140    1.000
    O90      O        0.93710    0.75600    0.80830    1.000
    O91      O        0.87830    0.87330    0.84450    1.000
    P23      P        0.94943    0.83331    0.83974    1.000
    O92      O        0.98600    0.84220    0.98270    1.000
    O93      O        0.99520    0.86380    0.72190    1.000
    O94      O        0.13350    0.63760    0.01730    1.000
    O95      O        0.08060    0.74460    0.12280    1.000
    P24      P        0.06778    0.66652    0.09574    1.000
    O96      O        0.06010    0.62970    0.23950    1.000
    Al20     Al       0.06639    0.55063    0.33547    1.000
