data_functionalizedCrystal
_audit_creation_method	'EQeq! by Chris Wilmer'
_symmetry_space_group_name_H-M	'P1'
_symmetry_Int_Tables_number	1
_symmetry_cell_setting	triclinic
loop_
_symmetry_equiv_pos_as_xyz
  x,y,z
_cell_length_a	17.302
_cell_length_b	17.302
_cell_length_c	22.789
_cell_angle_alpha	90
_cell_angle_beta	90
_cell_angle_gamma	90
loop_
_atom_site_label
_atom_site_type_symbol
_atom_site_fract_x
_atom_site_fract_y
_atom_site_fract_z
_atom_site_charge
Mof_N 	N 	0.2708	0.1283	0.4628	-0.261
Mof_N 	N 	0.2661	0.8718	0.4992	-0.261
Mof_C 	C 	0.296	0.069	0.4722	0.143
Mof_C 	C 	0.3345	0.0009	0.4851	-0.126
Mof_C 	C 	0.2933	0.931	0.4927	0.136
Mof_C 	C 	0.419	0.9999	0.4935	0.032
Mof_C 	C 	0.4624	0.0667	0.4842	-0.017
Mof_C 	C 	0.4582	0.9336	0.5087	-0.019
Mof_C 	C 	0.1942	0.2848	0.5862	0.024
Mof_C 	C 	0.1918	0.2861	0.6471	-0.015
Mof_C 	C 	0.285	0.1909	0.7768	-0.017
Mof_C 	C 	0.2839	0.1943	0.8367	0.027
Mof_C 	C 	0.2177	0.8073	0.6248	0.036
Mof_C 	C 	0.2168	0.8095	0.6851	-0.022
Mof_N 	N 	0.2292	0.3717	0.4628	-0.263
Mof_N 	N 	0.2339	0.6282	0.4992	-0.261
Mof_C 	C 	0.204	0.431	0.4722	0.144
Mof_C 	C 	0.1655	0.4991	0.4851	-0.131
Mof_C 	C 	0.2067	0.569	0.4927	0.14
Mof_C 	C 	0.081	0.5001	0.4935	0.037
Mof_C 	C 	0.0376	0.4333	0.4842	-0.018
Mof_C 	C 	0.0418	0.5664	0.5087	-0.019
Mof_C 	C 	0.3058	0.2152	0.5862	0.024
Mof_C 	C 	0.3082	0.2139	0.6471	-0.015
Mof_C 	C 	0.215	0.3091	0.7768	-0.018
Mof_C 	C 	0.2161	0.3057	0.8367	0.027
Mof_C 	C 	0.2823	0.6927	0.6248	0.036
Mof_C 	C 	0.2832	0.6905	0.6851	-0.021
Mof_N 	N 	0.3717	0.2708	0.4628	-0.263
Mof_N 	N 	0.6282	0.2661	0.4992	-0.262
Mof_C 	C 	0.431	0.296	0.4722	0.144
Mof_C 	C 	0.4991	0.3345	0.4851	-0.132
Mof_C 	C 	0.569	0.2933	0.4927	0.141
Mof_C 	C 	0.5001	0.419	0.4935	0.039
Mof_C 	C 	0.4333	0.4624	0.4842	-0.021
Mof_C 	C 	0.5664	0.4582	0.5087	-0.022
Mof_C 	C 	0.2152	0.1942	0.5862	0.024
Mof_C 	C 	0.2139	0.1918	0.6471	-0.015
Mof_C 	C 	0.3091	0.285	0.7768	-0.018
Mof_C 	C 	0.3057	0.2839	0.8367	0.027
Mof_C 	C 	0.6927	0.2177	0.6248	0.036
Mof_C 	C 	0.6905	0.2168	0.6851	-0.021
Mof_N 	N 	0.1283	0.2292	0.4628	-0.262
Mof_N 	N 	0.8718	0.2339	0.4992	-0.26
Mof_C 	C 	0.069	0.204	0.4722	0.142
Mof_C 	C 	0.0009	0.1655	0.4851	-0.124
Mof_C 	C 	0.931	0.2067	0.4927	0.136
Mof_C 	C 	0.9999	0.081	0.4935	0.029
Mof_C 	C 	0.0667	0.0376	0.4842	-0.012
Mof_C 	C 	0.9336	0.0418	0.5087	-0.017
Mof_C 	C 	0.2848	0.3058	0.5862	0.024
Mof_C 	C 	0.2861	0.3082	0.6471	-0.015
Mof_C 	C 	0.1909	0.215	0.7768	-0.017
Mof_C 	C 	0.1943	0.2161	0.8367	0.027
Mof_C 	C 	0.8073	0.2823	0.6248	0.036
Mof_C 	C 	0.8095	0.2832	0.6851	-0.022
Mof_N 	N 	0.7292	0.6283	0.0372	-0.264
Mof_N 	N 	0.7339	0.3718	0.0008	-0.268
Mof_C 	C 	0.704	0.569	0.0278	0.13
Mof_C 	C 	0.6655	0.5009	0.0149	-0.116
Mof_C 	C 	0.7067	0.431	0.0073	0.121
Mof_C 	C 	0.581	0.4999	0.0065	-0.022
Mof_C 	C 	0.5376	0.5667	0.0158	0.002
Mof_C 	C 	0.5418	0.4336	0.9913	0.039
Mof_C 	C 	0.8058	0.7848	0.9138	0.034
Mof_C 	C 	0.8082	0.7861	0.8529	-0.015
Mof_C 	C 	0.715	0.6909	0.7232	-0.017
Mof_C 	C 	0.7161	0.6943	0.6633	0.026
Mof_C 	C 	0.7823	0.3073	0.8752	0.044
Mof_C 	C 	0.7832	0.3095	0.8149	-0.022
Mof_N 	N 	0.7708	0.8717	0.0372	-0.265
Mof_N 	N 	0.7661	0.1282	0.0008	-0.269
Mof_C 	C 	0.796	0.931	0.0278	0.132
Mof_C 	C 	0.8345	0.9991	0.0149	-0.122
Mof_C 	C 	0.7933	0.069	0.0073	0.125
Mof_C 	C 	0.919	0.0001	0.0065	-0.014
Mof_C 	C 	0.9624	0.9333	0.0158	-0.004
Mof_C 	C 	0.9582	0.0664	0.9913	0.031
Mof_C 	C 	0.6942	0.7152	0.9138	0.034
Mof_C 	C 	0.6918	0.7139	0.8529	-0.014
Mof_C 	C 	0.785	0.8091	0.7232	-0.017
Mof_C 	C 	0.7839	0.8057	0.6633	0.026
Mof_C 	C 	0.7177	0.1927	0.8752	0.044
Mof_C 	C 	0.7168	0.1905	0.8149	-0.022
Mof_N 	N 	0.6283	0.7708	0.0372	-0.264
Mof_N 	N 	0.3718	0.7661	0.0008	-0.268
Mof_C 	C 	0.569	0.796	0.0278	0.131
Mof_C 	C 	0.5009	0.8345	0.0149	-0.117
Mof_C 	C 	0.431	0.7933	0.0073	0.122
Mof_C 	C 	0.4999	0.919	0.0065	-0.019
Mof_C 	C 	0.5667	0.9624	0.0158	-0.001
Mof_C 	C 	0.4336	0.9582	0.9913	0.035
Mof_C 	C 	0.7848	0.6942	0.9138	0.034
Mof_C 	C 	0.7861	0.6918	0.8529	-0.015
Mof_C 	C 	0.6909	0.785	0.7232	-0.017
Mof_C 	C 	0.6943	0.7839	0.6633	0.026
Mof_C 	C 	0.3073	0.7177	0.8752	0.044
Mof_C 	C 	0.3095	0.7168	0.8149	-0.022
Mof_N 	N 	0.8717	0.7292	0.0372	-0.265
Mof_N 	N 	0.1282	0.7339	0.0008	-0.269
Mof_C 	C 	0.931	0.704	0.0278	0.132
Mof_C 	C 	0.9991	0.6655	0.0149	-0.122
Mof_C 	C 	0.069	0.7067	0.0073	0.125
Mof_C 	C 	0.0001	0.581	0.0065	-0.015
Mof_C 	C 	0.9333	0.5376	0.0158	-0.002
Mof_C 	C 	0.0664	0.5418	0.9913	0.036
Mof_C 	C 	0.7152	0.8058	0.9138	0.034
Mof_C 	C 	0.7139	0.8082	0.8529	-0.015
Mof_C 	C 	0.8091	0.715	0.7232	-0.017
Mof_C 	C 	0.8057	0.7161	0.6633	0.026
Mof_C 	C 	0.1927	0.7823	0.8752	0.044
Mof_C 	C 	0.1905	0.7832	0.8149	-0.022
Mof_N 	N 	0.7292	0.8717	0.5372	-0.263
Mof_N 	N 	0.7339	0.1282	0.5008	-0.262
Mof_C 	C 	0.704	0.931	0.5278	0.146
Mof_C 	C 	0.6655	0.9991	0.5149	-0.137
Mof_C 	C 	0.7067	0.069	0.5073	0.144
Mof_C 	C 	0.581	0.0001	0.5065	0.044
Mof_C 	C 	0.5376	0.9333	0.5158	-0.025
Mof_C 	C 	0.5418	0.0664	0.4913	-0.024
Mof_C 	C 	0.8058	0.7152	0.4138	0.023
Mof_C 	C 	0.8082	0.7139	0.3529	-0.016
Mof_C 	C 	0.715	0.8091	0.2232	-0.019
Mof_C 	C 	0.7161	0.8057	0.1633	0.025
Mof_C 	C 	0.7823	0.1927	0.3752	0.035
Mof_C 	C 	0.7832	0.1905	0.3149	-0.024
Mof_N 	N 	0.7708	0.6283	0.5372	-0.263
Mof_N 	N 	0.7661	0.3718	0.5008	-0.262
Mof_C 	C 	0.796	0.569	0.5278	0.145
Mof_C 	C 	0.8345	0.5009	0.5149	-0.133
Mof_C 	C 	0.7933	0.431	0.5073	0.141
Mof_C 	C 	0.919	0.4999	0.5065	0.04
Mof_C 	C 	0.9624	0.5667	0.5158	-0.024
Mof_C 	C 	0.9582	0.4336	0.4913	-0.025
Mof_C 	C 	0.6942	0.7848	0.4138	0.023
Mof_C 	C 	0.6918	0.7861	0.3529	-0.016
Mof_C 	C 	0.785	0.6909	0.2232	-0.019
Mof_C 	C 	0.7839	0.6943	0.1633	0.025
Mof_C 	C 	0.7177	0.3073	0.3752	0.035
Mof_C 	C 	0.7168	0.3095	0.3149	-0.024
Mof_N 	N 	0.6283	0.7292	0.5372	-0.263
Mof_N 	N 	0.3718	0.7339	0.5008	-0.262
Mof_C 	C 	0.569	0.704	0.5278	0.144
Mof_C 	C 	0.5009	0.6655	0.5149	-0.132
Mof_C 	C 	0.431	0.7067	0.5073	0.141
Mof_C 	C 	0.4999	0.581	0.5065	0.039
Mof_C 	C 	0.5667	0.5376	0.5158	-0.021
Mof_C 	C 	0.4336	0.5418	0.4913	-0.022
Mof_C 	C 	0.7848	0.8058	0.4138	0.023
Mof_C 	C 	0.7861	0.8082	0.3529	-0.017
Mof_C 	C 	0.6909	0.715	0.2232	-0.019
Mof_C 	C 	0.6943	0.7161	0.1633	0.025
Mof_C 	C 	0.3073	0.7823	0.3752	0.035
Mof_C 	C 	0.3095	0.7832	0.3149	-0.024
Mof_N 	N 	0.8717	0.7708	0.5372	-0.263
Mof_N 	N 	0.1282	0.7661	0.5008	-0.262
Mof_C 	C 	0.931	0.796	0.5278	0.145
Mof_C 	C 	0.9991	0.8345	0.5149	-0.137
Mof_C 	C 	0.069	0.7933	0.5073	0.143
Mof_C 	C 	0.0001	0.919	0.5065	0.045
Mof_C 	C 	0.9333	0.9624	0.5158	-0.026
Mof_C 	C 	0.0664	0.9582	0.4913	-0.028
Mof_C 	C 	0.7152	0.6942	0.4138	0.023
Mof_C 	C 	0.7139	0.6918	0.3529	-0.016
Mof_C 	C 	0.8091	0.785	0.2232	-0.019
Mof_C 	C 	0.8057	0.7839	0.1633	0.025
Mof_C 	C 	0.1927	0.7177	0.3752	0.036
Mof_C 	C 	0.1905	0.7168	0.3149	-0.023
Mof_N 	N 	0.2708	0.3717	0.9628	-0.261
Mof_N 	N 	0.2661	0.6282	0.9992	-0.251
Mof_C 	C 	0.296	0.431	0.9722	0.158
Mof_C 	C 	0.3345	0.4991	0.9851	-0.147
Mof_C 	C 	0.2933	0.569	0.9927	0.159
Mof_C 	C 	0.419	0.5001	0.9935	0.099
Mof_C 	C 	0.4624	0.4333	0.9842	-0.044
Mof_C 	C 	0.4582	0.5664	0.0087	-0.082
Mof_C 	C 	0.1942	0.2152	0.0862	0.014
Mof_C 	C 	0.1918	0.2139	0.1471	-0.017
Mof_C 	C 	0.285	0.3091	0.2768	-0.02
Mof_C 	C 	0.2839	0.3057	0.3367	0.026
Mof_C 	C 	0.2177	0.6927	0.1248	0.029
Mof_C 	C 	0.2168	0.6905	0.1851	-0.023
Mof_N 	N 	0.2292	0.1283	0.9628	-0.26
Mof_N 	N 	0.2339	0.8718	0.9992	-0.25
Mof_C 	C 	0.204	0.069	0.9722	0.156
Mof_C 	C 	0.1655	0.0009	0.9851	-0.139
Mof_C 	C 	0.2067	0.931	0.9927	0.154
Mof_C 	C 	0.081	0.9999	0.9935	0.088
Mof_C 	C 	0.0376	0.0667	0.9842	-0.035
Mof_C 	C 	0.0418	0.9336	0.0087	-0.075
Mof_C 	C 	0.3058	0.2848	0.0862	0.013
Mof_C 	C 	0.3082	0.2861	0.1471	-0.017
Mof_C 	C 	0.215	0.1909	0.2768	-0.019
Mof_C 	C 	0.2161	0.1943	0.3367	0.026
Mof_C 	C 	0.2823	0.8073	0.1248	0.028
Mof_C 	C 	0.2832	0.8095	0.1851	-0.024
Mof_N 	N 	0.3717	0.2292	0.9628	-0.261
Mof_N 	N 	0.6282	0.2339	0.9992	-0.251
Mof_C 	C 	0.431	0.204	0.9722	0.158
Mof_C 	C 	0.4991	0.1655	0.9851	-0.146
Mof_C 	C 	0.569	0.2067	0.9927	0.159
Mof_C 	C 	0.5001	0.081	0.9935	0.097
Mof_C 	C 	0.4333	0.0376	0.9842	-0.041
Mof_C 	C 	0.5664	0.0418	0.0087	-0.078
Mof_C 	C 	0.2152	0.3058	0.0862	0.013
Mof_C 	C 	0.2139	0.3082	0.1471	-0.017
Mof_C 	C 	0.3091	0.215	0.2768	-0.02
Mof_C 	C 	0.3057	0.2161	0.3367	0.026
Mof_C 	C 	0.6927	0.2823	0.1248	0.028
Mof_C 	C 	0.6905	0.2832	0.1851	-0.023
Mof_N 	N 	0.1283	0.2708	0.9628	-0.26
Mof_N 	N 	0.8718	0.2661	0.9992	-0.25
Mof_C 	C 	0.069	0.296	0.9722	0.157
Mof_C 	C 	0.0009	0.3345	0.9851	-0.141
Mof_C 	C 	0.931	0.2933	0.9927	0.155
Mof_C 	C 	0.9999	0.419	0.9935	0.092
Mof_C 	C 	0.0667	0.4624	0.9842	-0.04
Mof_C 	C 	0.9336	0.4582	0.0087	-0.078
Mof_C 	C 	0.2848	0.1942	0.0862	0.013
Mof_C 	C 	0.2861	0.1918	0.1471	-0.017
Mof_C 	C 	0.1909	0.285	0.2768	-0.019
Mof_C 	C 	0.1943	0.2839	0.3367	0.026
Mof_C 	C 	0.8073	0.2177	0.1248	0.028
Mof_C 	C 	0.8095	0.2168	0.1851	-0.024
Mof_Co	Co	0.25	0.25	0.46161	1.13
Mof_N 	N 	0.25	0.25	0.5542	-0.236
Mof_N 	N 	0.25	0.25	0.8684	-0.237
Mof_C 	C 	0.25	0.25	0.6805	0.014
Mof_C 	C 	0.25	0.25	0.7446	0.019
Mof_Co	Co	0.75	0.75	0.03839	1.124
Mof_N 	N 	0.75	0.75	0.9458	-0.23
Mof_N 	N 	0.75	0.75	0.6316	-0.237
Mof_C 	C 	0.75	0.75	0.8195	0.014
Mof_C 	C 	0.75	0.75	0.7554	0.019
Mof_Co	Co	0.75	0.75	0.53839	1.13
Mof_N 	N 	0.75	0.75	0.4458	-0.236
Mof_N 	N 	0.75	0.75	0.1316	-0.237
Mof_C 	C 	0.75	0.75	0.3195	0.014
Mof_C 	C 	0.75	0.75	0.2554	0.02
Mof_Co	Co	0.25	0.25	0.96161	1.137
Mof_N 	N 	0.25	0.25	0.0542	-0.241
Mof_N 	N 	0.25	0.25	0.3684	-0.237
Mof_C 	C 	0.25	0.25	0.1805	0.014
Mof_C 	C 	0.25	0.25	0.2446	0.02
Mof_Co	Co	0.25	0.75	0.5	1.132
Mof_Co	Co	0.75	0.25	0.5	1.132
Mof_Co	Co	0.75	0.25	-0	1.117
Mof_Co	Co	0.25	0.75	-0	1.117
Mof_N 	N 	0.25	0.75	0.5929	-0.228
Mof_C 	C 	0.25	0.75	0.7173	0.011
Mof_N 	N 	0.75	0.25	0.5929	-0.228
Mof_C 	C 	0.75	0.25	0.7173	0.011
Mof_N 	N 	0.75	0.25	0.9071	-0.223
Mof_C 	C 	0.75	0.25	0.7827	0.011
Mof_N 	N 	0.25	0.75	0.9071	-0.223
Mof_C 	C 	0.25	0.75	0.7827	0.011
Mof_N 	N 	0.75	0.25	0.4071	-0.228
Mof_C 	C 	0.75	0.25	0.2827	0.01
Mof_N 	N 	0.25	0.75	0.4071	-0.228
Mof_C 	C 	0.25	0.75	0.2827	0.01
Mof_N 	N 	0.25	0.75	0.0929	-0.23
Mof_C 	C 	0.25	0.75	0.2173	0.01
Mof_N 	N 	0.75	0.25	0.0929	-0.23
Mof_C 	C 	0.75	0.25	0.2173	0.01
_end
