# CIF file generated by openbabel 3.1.0, see https://openbabel.org
data_I
_chemical_name_common 'RORVAX_clean'
_cell_length_a 8.6547
_cell_length_b 17.372
_cell_length_c 17.372
_cell_angle_alpha 120
_cell_angle_beta 90
_cell_angle_gamma 90
_space_group_name_H-M_alt 'P 1'
_space_group_name_Hall 'P 1'
loop_
    _symmetry_equiv_pos_as_xyz
    x,y,z
loop_
    _atom_site_label
    _atom_site_type_symbol
    _atom_site_fract_x
    _atom_site_fract_y
    _atom_site_fract_z
    _atom_site_occupancy
    Co1      Co       0.00000    0.53031    0.00000    1.000
    Co2      Co       0.33333    0.46969    0.46969    1.000
    Co3      Co       0.66667    0.00000    0.53031    1.000
    H1       H        0.54873    0.88040    0.69190    1.000
    H2       H        0.52757    0.04150    0.24110    1.000
    H3       H        0.82760    0.15350    0.57840    1.000
    H4       H        0.13910    0.24110    0.04150    1.000
    H5       H        0.86090    0.19960    0.95850    1.000
    H6       H        0.16093    0.42490    0.84650    1.000
    H7       H        0.88207    0.81150    0.11960    1.000
    H8       H        0.19423    0.75890    0.80040    1.000
    H9       H        0.66307    0.23430    0.53530    1.000
    H10      H        0.32973    0.46470    0.69900    1.000
    H11      H        0.33693    0.69900    0.46470    1.000
    H12      H        0.11793    0.69190    0.88040    1.000
    H13      H        0.47243    0.80040    0.75890    1.000
    H14      H        0.21540    0.30810    0.18850    1.000
    H15      H        0.78460    0.11960    0.81150    1.000
    H16      H        0.50573    0.84650    0.42490    1.000
    H17      H        0.99640    0.30100    0.76570    1.000
    H18      H        0.49427    0.42160    0.57510    1.000
    H19      H        0.83907    0.57840    0.15350    1.000
    H20      H        0.00360    0.53530    0.23430    1.000
    H21      H        0.17240    0.57510    0.42160    1.000
    H22      H        0.80577    0.95850    0.19960    1.000
    H23      H        0.45127    0.18850    0.30810    1.000
    H24      H        0.67027    0.76570    0.30100    1.000
    C1       C        0.49093    0.82721    0.65925    1.000
    C2       C        0.17573    0.65925    0.82721    1.000
    C3       C        0.83777    0.67936    0.15302    1.000
    C4       C        0.45203    0.79672    0.57093    1.000
    C5       C        0.82427    0.83204    0.17279    1.000
    C6       C        0.35893    0.70142    0.65440    1.000
    C7       C        0.21463    0.57093    0.79672    1.000
    C8       C        0.82890    0.15302    0.67936    1.000
    C9       C        0.84240    0.17279    0.83204    1.000
    C10      C        0.30193    0.52474    0.71945    1.000
    C11      C        0.03140    0.47526    0.19471    1.000
    C12      C        0.96860    0.28055    0.80529    1.000
    C13      C        0.49557    0.32064    0.47366    1.000
    C14      C        0.34873    0.56511    0.67215    1.000
    C15      C        0.88130    0.20328    0.77421    1.000
    C16      C        0.17110    0.47366    0.32064    1.000
    C17      C        0.97440    0.29858    0.95298    1.000
    C18      C        0.01540    0.32785    0.89296    1.000
    C19      C        0.64107    0.04702    0.34560    1.000
    C20      C        0.15760    0.34075    0.16796    1.000
    C21      C        0.54797    0.22579    0.42907    1.000
    C22      C        0.77787    0.91940    0.22070    1.000
    C23      C        0.68207    0.10704    0.43489    1.000
    C24      C        0.30773    0.65440    0.70142    1.000
    C25      C        0.36473    0.71945    0.52474    1.000
    C26      C        0.69227    0.95298    0.29858    1.000
    C27      C        0.63527    0.19471    0.47526    1.000
    C28      C        0.50443    0.84698    0.52634    1.000
    C29      C        0.55547    0.08060    0.30130    1.000
    C30      C        0.11870    0.42907    0.22579    1.000
    C31      C        0.44453    0.77930    0.69870    1.000
    C32      C        0.78537    0.77421    0.20328    1.000
    C33      C        0.11120    0.30130    0.08060    1.000
    C34      C        0.02560    0.34560    0.04702    1.000
    C35      C        0.69807    0.80529    0.28055    1.000
    C36      C        0.65127    0.89296    0.32785    1.000
    C37      C        0.22213    0.69870    0.77930    1.000
    C38      C        0.98460    0.43489    0.10704    1.000
    C39      C        0.50907    0.16796    0.34075    1.000
    C40      C        0.88880    0.22070    0.91940    1.000
    C41      C        0.16223    0.52634    0.84698    1.000
    C42      C        0.31793    0.67215    0.56511    1.000
    O1       O        0.24090    0.42819    0.34619    1.000
    O2       O        0.47143    0.81329    0.44321    1.000
    O3       O        0.89740    0.48030    0.07736    1.000
    O4       O        0.09243    0.57181    0.91800    1.000
    O5       O        0.42577    0.34619    0.42819    1.000
    O6       O        0.75910    0.08200    0.65381    1.000
    O7       O        0.80477    0.62992    0.18671    1.000
    O8       O        0.86190    0.18671    0.62992    1.000
    O9       O        0.10260    0.40294    0.92264    1.000
    O10      O        0.43593    0.51970    0.59706    1.000
    O11      O        0.52857    0.37008    0.55679    1.000
    O12      O        0.56407    0.92264    0.40294    1.000
    O13      O        0.76927    0.07736    0.48030    1.000
    O14      O        0.90757    0.65381    0.08200    1.000
    O15      O        0.57423    0.91800    0.57181    1.000
    O16      O        0.19523    0.44321    0.81329    1.000
    O17      O        0.13810    0.55679    0.37008    1.000
    O18      O        0.23073    0.59706    0.51970    1.000
