# CIF file generated by openbabel 3.1.0, see https://openbabel.org
data_I
_chemical_name_common 'image0'
_cell_length_a 6.6687
_cell_length_b 12.245
_cell_length_c 9.0305
_cell_angle_alpha 90
_cell_angle_beta 110.439
_cell_angle_gamma 90
_space_group_name_H-M_alt 'P 1'
_space_group_name_Hall 'P 1'
loop_
    _symmetry_equiv_pos_as_xyz
    x,y,z
loop_
    _atom_site_label
    _atom_site_type_symbol
    _atom_site_fract_x
    _atom_site_fract_y
    _atom_site_fract_z
    _atom_site_occupancy
    N1       N        0.41800    0.12340    0.14680    1.000
    N2       N        0.20900    0.12480    0.14060    1.000
    N3       N        0.52200    0.19640    0.24890    1.000
    C1       C        0.20400    0.20180    0.24250    1.000
    N4       N        0.39900    0.24790    0.31270    1.000
    N5       N        0.99710    0.23360    0.27000    1.000
    H1       H        0.87900    0.20110    0.21850    1.000
    H2       H        0.99930    0.28400    0.33700    1.000
    F1       F        0.20410    0.38420    0.52060    1.000
    N6       N        0.58200    0.12340    0.85320    1.000
    N7       N        0.79100    0.12480    0.85940    1.000
    N8       N        0.47800    0.19640    0.75110    1.000
    C2       C        0.79600    0.20180    0.75750    1.000
    N9       N        0.60100    0.24790    0.68730    1.000
    N10      N        0.00290    0.23360    0.73000    1.000
    H3       H        0.12100    0.20110    0.78150    1.000
    H4       H        0.00070    0.28400    0.66300    1.000
    F2       F        0.79590    0.38420    0.47940    1.000
    N11      N        0.58200    0.87660    0.85320    1.000
    N12      N        0.79100    0.87520    0.85940    1.000
    N13      N        0.47800    0.80360    0.75110    1.000
    C3       C        0.79600    0.79820    0.75750    1.000
    N14      N        0.60100    0.75210    0.68730    1.000
    N15      N        0.00290    0.76640    0.73000    1.000
    H5       H        0.12100    0.79890    0.78150    1.000
    H6       H        0.00070    0.71600    0.66300    1.000
    F3       F        0.79590    0.61580    0.47940    1.000
    N16      N        0.41800    0.87660    0.14680    1.000
    N17      N        0.20900    0.87520    0.14060    1.000
    N18      N        0.52200    0.80360    0.24890    1.000
    C4       C        0.20400    0.79820    0.24250    1.000
    N19      N        0.39900    0.75210    0.31270    1.000
    N20      N        0.99710    0.76640    0.27000    1.000
    H7       H        0.87900    0.79890    0.21850    1.000
    H8       H        0.99930    0.71600    0.33700    1.000
    F4       F        0.20410    0.61580    0.52060    1.000
    Fe1      Fe       0.50000    0.00000    0.00000    1.000
    F5       F        0.19000    0.00000    0.86390    1.000
    F6       F        0.81000    0.00000    0.13610    1.000
    Fe2      Fe       0.00000    0.00000    0.00000    1.000
    Fe3      Fe       0.50000    0.36593    0.50000    1.000
    Fe4      Fe       0.50000    0.63407    0.50000    1.000
    O1       O        0.58700    0.50000    0.66060    1.000
    F7       F        0.41300    0.50000    0.33940    1.000
    Fe5      Fe       0.00000    0.50000    0.50000    1.000
