# CIF file generated by openbabel 3.1.0, see https://openbabel.org
data_I
_chemical_name_common 'image0'
_cell_length_a 18.1402
_cell_length_b 18.1402
_cell_length_c 18.114
_cell_angle_alpha 90
_cell_angle_beta 90
_cell_angle_gamma 120
_space_group_name_H-M_alt 'P 1'
_space_group_name_Hall 'P 1'
loop_
    _symmetry_equiv_pos_as_xyz
    x,y,z
loop_
    _atom_site_label
    _atom_site_type_symbol
    _atom_site_fract_x
    _atom_site_fract_y
    _atom_site_fract_z
    _atom_site_occupancy
    Cu1      Cu       0.47324    0.52552    0.05833    1.000
    O1       O        0.43610    0.41370    0.09620    1.000
    O2       O        0.47710    0.36970    0.00160    1.000
    O3       O        0.47930    0.11030    0.00000    1.000
    O4       O        0.43480    0.02190    0.10100    1.000
    C1       C        0.44420    0.35530    0.06250    1.000
    C2       C        0.41760    0.27300    0.09630    1.000
    C3       C        0.37410    0.24870    0.16600    1.000
    H1       H        0.36220    0.28590    0.19170    1.000
    C4       C        0.35050    0.16990    0.19390    1.000
    C5       C        0.37100    0.11380    0.16260    1.000
    H2       H        0.35300    0.06020    0.18260    1.000
    C6       C        0.41990    0.14190    0.09980    1.000
    C7       C        0.44190    0.22080    0.06540    1.000
    H3       H        0.47300    0.23640    0.02170    1.000
    C8       C        0.45020    0.08410    0.06610    1.000
    C9       C        0.21640    0.04680    0.43630    1.000
    C10      C        0.14650    0.02870    0.46860    1.000
    H4       H        0.11430    0.05220    0.45190    1.000
    C11      C        0.28100    0.02470    0.46900    1.000
    H5       H        0.33420    0.04400    0.44770    1.000
    N1       N        0.30070    0.14130    0.25770    1.000
    N2       N        0.28240    0.19670    0.29910    1.000
    N3       N        0.23040    0.15020    0.35980    1.000
    C12      C        0.21660    0.06610    0.35610    1.000
    C13      C        0.26000    0.06050    0.29290    1.000
    H6       H        0.26160    0.01250    0.27740    1.000
    Cu2      Cu       0.47448    0.94772    0.05833    1.000
    O5       O        0.58630    0.02240    0.09620    1.000
    O6       O        0.63030    0.10740    0.00160    1.000
    O7       O        0.88970    0.36900    0.00000    1.000
    O8       O        0.97810    0.41290    0.10100    1.000
    C14      C        0.64470    0.08890    0.06250    1.000
    C15      C        0.72700    0.14460    0.09630    1.000
    C16      C        0.75130    0.12540    0.16600    1.000
    H7       H        0.71410    0.07630    0.19170    1.000
    C17      C        0.83010    0.18060    0.19390    1.000
    C18      C        0.88620    0.25720    0.16260    1.000
    H8       H        0.93980    0.29280    0.18260    1.000
    C19      C        0.85810    0.27800    0.09980    1.000
    C20      C        0.77920    0.22110    0.06540    1.000
    H9       H        0.76360    0.23660    0.02170    1.000
    C21      C        0.91590    0.36610    0.06610    1.000
    C22      C        0.95320    0.16960    0.43630    1.000
    C23      C        0.97130    0.11780    0.46860    1.000
    H10      H        0.94780    0.06210    0.45190    1.000
    C24      C        0.97530    0.25630    0.46900    1.000
    H11      H        0.95600    0.29020    0.44770    1.000
    N4       N        0.85870    0.15940    0.25770    1.000
    N5       N        0.80330    0.08570    0.29910    1.000
    N6       N        0.84980    0.08020    0.35980    1.000
    C25      C        0.93390    0.15050    0.35610    1.000
    C26      C        0.93950    0.19950    0.29290    1.000
    H12      H        0.98750    0.24910    0.27740    1.000
    Cu3      Cu       0.05228    0.52676    0.05833    1.000
    O9       O        0.97760    0.56390    0.09620    1.000
    O10      O        0.89260    0.52290    0.00160    1.000
    O11      O        0.63100    0.52070    0.00000    1.000
    O12      O        0.58710    0.56520    0.10100    1.000
    C27      C        0.91110    0.55580    0.06250    1.000
    C28      C        0.85540    0.58240    0.09630    1.000
    C29      C        0.87460    0.62590    0.16600    1.000
    H13      H        0.92370    0.63780    0.19170    1.000
    C30      C        0.81940    0.64950    0.19390    1.000
    C31      C        0.74280    0.62900    0.16260    1.000
    H14      H        0.70720    0.64700    0.18260    1.000
    C32      C        0.72200    0.58010    0.09980    1.000
    C33      C        0.77890    0.55810    0.06540    1.000
    H15      H        0.76340    0.52700    0.02170    1.000
    C34      C        0.63390    0.54980    0.06610    1.000
    C35      C        0.83040    0.78360    0.43630    1.000
    C36      C        0.88220    0.85350    0.46860    1.000
    H16      H        0.93790    0.88570    0.45190    1.000
    C37      C        0.74370    0.71900    0.46900    1.000
    H17      H        0.70980    0.66580    0.44770    1.000
    N7       N        0.84060    0.69930    0.25770    1.000
    N8       N        0.91430    0.71760    0.29910    1.000
    N9       N        0.91980    0.76960    0.35980    1.000
    C38      C        0.84950    0.78340    0.35610    1.000
    C39      C        0.80050    0.74000    0.29290    1.000
    H18      H        0.75090    0.73840    0.27740    1.000
    Cu4      Cu       0.52552    0.47324    0.94167    1.000
    O13      O        0.41370    0.43610    0.90380    1.000
    O14      O        0.36970    0.47710    0.99840    1.000
    O15      O        0.11030    0.47930    0.00000    1.000
    O16      O        0.02190    0.43480    0.89900    1.000
    C40      C        0.35530    0.44420    0.93750    1.000
    C41      C        0.27300    0.41760    0.90370    1.000
    C42      C        0.24870    0.37410    0.83400    1.000
    H19      H        0.28590    0.36220    0.80830    1.000
    C43      C        0.16990    0.35050    0.80610    1.000
    C44      C        0.11380    0.37100    0.83740    1.000
    H20      H        0.06020    0.35300    0.81740    1.000
    C45      C        0.14190    0.41990    0.90020    1.000
    C46      C        0.22080    0.44190    0.93460    1.000
    H21      H        0.23640    0.47300    0.97830    1.000
    C47      C        0.08410    0.45020    0.93390    1.000
    C48      C        0.04680    0.21640    0.56370    1.000
    C49      C        0.02870    0.14650    0.53140    1.000
    H22      H        0.05220    0.11430    0.54810    1.000
    C50      C        0.02470    0.28100    0.53100    1.000
    H23      H        0.04400    0.33420    0.55230    1.000
    N10      N        0.14130    0.30070    0.74230    1.000
    N11      N        0.19670    0.28240    0.70090    1.000
    N12      N        0.15020    0.23040    0.64020    1.000
    C51      C        0.06610    0.21660    0.64390    1.000
    C52      C        0.06050    0.26000    0.70710    1.000
    H24      H        0.01250    0.26160    0.72260    1.000
    Cu5      Cu       0.94772    0.47448    0.94167    1.000
    O17      O        0.02240    0.58630    0.90380    1.000
    O18      O        0.10740    0.63030    0.99840    1.000
    O19      O        0.36900    0.88970    0.00000    1.000
    O20      O        0.41290    0.97810    0.89900    1.000
    C53      C        0.08890    0.64470    0.93750    1.000
    C54      C        0.14460    0.72700    0.90370    1.000
    C55      C        0.12540    0.75130    0.83400    1.000
    H25      H        0.07630    0.71410    0.80830    1.000
    C56      C        0.18060    0.83010    0.80610    1.000
    C57      C        0.25720    0.88620    0.83740    1.000
    H26      H        0.29280    0.93980    0.81740    1.000
    C58      C        0.27800    0.85810    0.90020    1.000
    C59      C        0.22110    0.77920    0.93460    1.000
    H27      H        0.23660    0.76360    0.97830    1.000
    C60      C        0.36610    0.91590    0.93390    1.000
    C61      C        0.16960    0.95320    0.56370    1.000
    C62      C        0.11780    0.97130    0.53140    1.000
    H28      H        0.06210    0.94780    0.54810    1.000
    C63      C        0.25630    0.97530    0.53100    1.000
    H29      H        0.29020    0.95600    0.55230    1.000
    N13      N        0.15940    0.85870    0.74230    1.000
    N14      N        0.08570    0.80330    0.70090    1.000
    N15      N        0.08020    0.84980    0.64020    1.000
    C64      C        0.15050    0.93390    0.64390    1.000
    C65      C        0.19950    0.93950    0.70710    1.000
    H30      H        0.24910    0.98750    0.72260    1.000
    Cu6      Cu       0.52676    0.05228    0.94167    1.000
    O21      O        0.56390    0.97760    0.90380    1.000
    O22      O        0.52290    0.89260    0.99840    1.000
    O23      O        0.52070    0.63100    0.00000    1.000
    O24      O        0.56520    0.58710    0.89900    1.000
    C66      C        0.55580    0.91110    0.93750    1.000
    C67      C        0.58240    0.85540    0.90370    1.000
    C68      C        0.62590    0.87460    0.83400    1.000
    H31      H        0.63780    0.92370    0.80830    1.000
    C69      C        0.64950    0.81940    0.80610    1.000
    C70      C        0.62900    0.74280    0.83740    1.000
    H32      H        0.64700    0.70720    0.81740    1.000
    C71      C        0.58010    0.72200    0.90020    1.000
    C72      C        0.55810    0.77890    0.93460    1.000
    H33      H        0.52700    0.76340    0.97830    1.000
    C73      C        0.54980    0.63390    0.93390    1.000
    C74      C        0.78360    0.83040    0.56370    1.000
    C75      C        0.85350    0.88220    0.53140    1.000
    H34      H        0.88570    0.93790    0.54810    1.000
    C76      C        0.71900    0.74370    0.53100    1.000
    H35      H        0.66580    0.70980    0.55230    1.000
    N16      N        0.69930    0.84060    0.74230    1.000
    N17      N        0.71760    0.91430    0.70090    1.000
    N18      N        0.76960    0.91980    0.64020    1.000
    C77      C        0.78340    0.84950    0.64390    1.000
    C78      C        0.74000    0.80050    0.70710    1.000
    H36      H        0.73840    0.75090    0.72260    1.000
