# CIF file generated by openbabel 3.1.0, see https://openbabel.org
data_I
_chemical_name_common 'EBEXAM_clean'
_cell_length_a 10.471
_cell_length_b 10.471
_cell_length_c 14.645
_cell_angle_alpha 90
_cell_angle_beta 90
_cell_angle_gamma 90
_space_group_name_H-M_alt 'P 1'
_space_group_name_Hall 'P 1'
loop_
    _symmetry_equiv_pos_as_xyz
    x,y,z
loop_
    _atom_site_label
    _atom_site_type_symbol
    _atom_site_fract_x
    _atom_site_fract_y
    _atom_site_fract_z
    _atom_site_occupancy
    Gd1      Gd       0.14273    0.85727    0.87500    1.000
    Gd2      Gd       0.85727    0.14273    0.37500    1.000
    Gd3      Gd       0.14273    0.14273    0.62500    1.000
    Gd4      Gd       0.85727    0.85727    0.12500    1.000
    H1       H        0.06430    0.44400    0.86920    1.000
    H2       H        0.93570    0.55600    0.36920    1.000
    H3       H        0.55600    0.06430    0.61920    1.000
    H4       H        0.44400    0.93570    0.11920    1.000
    H5       H        0.93570    0.44400    0.13080    1.000
    H6       H        0.06430    0.55600    0.63080    1.000
    H7       H        0.44400    0.06430    0.38080    1.000
    H8       H        0.55600    0.93570    0.88080    1.000
    H9       H        0.00000    0.10950    0.00000    1.000
    H10      H        0.00000    0.89050    0.50000    1.000
    H11      H        0.89050    0.00000    0.75000    1.000
    H12      H        0.10950    0.00000    0.25000    1.000
    C1       C        0.07550    0.18970    0.83670    1.000
    C2       C        0.03840    0.39950    0.92090    1.000
    C3       C        0.03760    0.26490    0.92060    1.000
    C4       C        0.92450    0.81030    0.33670    1.000
    C5       C        0.96160    0.60050    0.42090    1.000
    C6       C        0.96240    0.73510    0.42060    1.000
    C7       C        0.81030    0.07550    0.58670    1.000
    C8       C        0.60050    0.03840    0.67090    1.000
    C9       C        0.73510    0.03760    0.67060    1.000
    C10      C        0.18970    0.92450    0.08670    1.000
    C11      C        0.39950    0.96160    0.17090    1.000
    C12      C        0.26490    0.96240    0.17060    1.000
    C13      C        0.92450    0.18970    0.16330    1.000
    C14      C        0.96160    0.39950    0.07910    1.000
    C15      C        0.96240    0.26490    0.07940    1.000
    C16      C        0.07550    0.81030    0.66330    1.000
    C17      C        0.03840    0.60050    0.57910    1.000
    C18      C        0.03760    0.73510    0.57940    1.000
    C19      C        0.18970    0.07550    0.41330    1.000
    C20      C        0.39950    0.03840    0.32910    1.000
    C21      C        0.26490    0.03760    0.32940    1.000
    C22      C        0.81030    0.92450    0.91330    1.000
    C23      C        0.60050    0.96160    0.82910    1.000
    C24      C        0.73510    0.96240    0.82940    1.000
    C25      C        0.00000    0.61270    0.00000    1.000
    C26      C        0.00000    0.46690    0.00000    1.000
    C27      C        0.00000    0.19830    0.00000    1.000
    C28      C        0.00000    0.38730    0.50000    1.000
    C29      C        0.00000    0.53310    0.50000    1.000
    C30      C        0.00000    0.80170    0.50000    1.000
    C31      C        0.38730    0.00000    0.75000    1.000
    C32      C        0.53310    0.00000    0.75000    1.000
    C33      C        0.80170    0.00000    0.75000    1.000
    C34      C        0.61270    0.00000    0.25000    1.000
    C35      C        0.46690    0.00000    0.25000    1.000
    C36      C        0.19830    0.00000    0.25000    1.000
    O1       O        0.06860    0.66820    0.94080    1.000
    O2       O        0.07570    0.24750    0.76070    1.000
    O3       O        0.10280    0.07620    0.84300    1.000
    O4       O        0.93140    0.33180    0.44080    1.000
    O5       O        0.92430    0.75250    0.26070    1.000
    O6       O        0.89720    0.92380    0.34300    1.000
    O7       O        0.33180    0.06860    0.69080    1.000
    O8       O        0.75250    0.07570    0.51070    1.000
    O9       O        0.92380    0.10280    0.59300    1.000
    O10      O        0.66820    0.93140    0.19080    1.000
    O11      O        0.24750    0.92430    0.01070    1.000
    O12      O        0.07620    0.89720    0.09300    1.000
    O13      O        0.93140    0.66820    0.05920    1.000
    O14      O        0.92430    0.24750    0.23930    1.000
    O15      O        0.89720    0.07620    0.15700    1.000
    O16      O        0.06860    0.33180    0.55920    1.000
    O17      O        0.07570    0.75250    0.73930    1.000
    O18      O        0.10280    0.92380    0.65700    1.000
    O19      O        0.66820    0.06860    0.30920    1.000
    O20      O        0.24750    0.07570    0.48930    1.000
    O21      O        0.07620    0.10280    0.40700    1.000
    O22      O        0.33180    0.93140    0.80920    1.000
    O23      O        0.75250    0.92430    0.98930    1.000
    O24      O        0.92380    0.89720    0.90700    1.000
