# CIF file generated by openbabel 3.1.0, see https://openbabel.org
data_I
_chemical_name_common 'image0'
_cell_length_a 22.0501
_cell_length_b 16.5079
_cell_length_c 25.596
_cell_angle_alpha 90
_cell_angle_beta 115.291
_cell_angle_gamma 90
_space_group_name_H-M_alt 'P 1'
_space_group_name_Hall 'P 1'
loop_
    _symmetry_equiv_pos_as_xyz
    x,y,z
loop_
    _atom_site_label
    _atom_site_type_symbol
    _atom_site_fract_x
    _atom_site_fract_y
    _atom_site_fract_z
    _atom_site_occupancy
    Ag1      Ag       0.34423    0.54263    0.36755    1.000
    Ag2      Ag       0.32266    0.24611    0.86700    1.000
    C1       C        0.12380    0.24350    0.50140    1.000
    C2       C        0.59800    0.02930    0.00020    1.000
    C3       C        0.72030    0.84770    0.89170    1.000
    H1       H        0.70060    0.84310    0.85160    1.000
    C4       C        0.03280    0.18850    0.41020    1.000
    H2       H        0.05430    0.20950    0.38880    1.000
    C5       C        0.05970    0.19870    0.46920    1.000
    C6       C        0.77780    0.86160    0.00900    1.000
    H3       H        0.79860    0.86500    0.04910    1.000
    C7       C        0.44400    0.15580    0.96410    1.000
    H4       H        0.42390    0.18350    0.98420    1.000
    C8       C        0.23520    0.43550    0.38820    1.000
    H5       H        0.21340    0.44250    0.34830    1.000
    C9       C        0.29780    0.41600    0.50460    1.000
    H6       H        0.32000    0.41180    0.54460    1.000
    C10      C        0.24300    0.26320    0.65060    1.000
    C11      C        0.68240    0.94780    0.00610    1.000
    C12      C        0.50360    0.11550    0.99580    1.000
    H7       H        0.52320    0.11670    0.03600    1.000
    C13      C        0.20970    0.27390    0.58700    1.000
    C14      C        0.02580    0.16490    0.49900    1.000
    H8       H        0.04310    0.16940    0.53900    1.000
    C15      C        0.53350    0.07340    0.96610    1.000
    C16      C        0.23570    0.37870    0.47400    1.000
    C17      C        0.20540    0.32800    0.50440    1.000
    C18      C        0.67920    0.04410    0.18060    1.000
    H9       H        0.63520    0.06190    0.16050    1.000
    C19      C        0.20400    0.39030    0.41460    1.000
    H10      H        0.16200    0.36770    0.39300    1.000
    C20      C        0.96690    0.12500    0.46860    1.000
    H11      H        0.94470    0.10280    0.48900    1.000
    C21      C        0.71530    0.89810    0.97690    1.000
    C22      C        0.68020    0.99790    0.08740    1.000
    C23      C        0.71250    0.00830    0.15130    1.000
    C24      C        0.80780    0.81990    0.97880    1.000
    H12      H        0.84920    0.79550    0.99970    1.000
    C25      C        0.32530    0.45940    0.47340    1.000
    H13      H        0.36740    0.48260    0.49380    1.000
    C26      C        0.97330    0.14640    0.38360    1.000
    H14      H        0.95600    0.13870    0.34380    1.000
    C27      C        0.50200    0.07270    0.90650    1.000
    H15      H        0.51980    0.04330    0.88540    1.000
    C28      C        0.80710    0.99510    0.24190    1.000
    H16      H        0.85130    0.97850    0.26280    1.000
    C29      C        0.68630    0.89010    0.91750    1.000
    H17      H        0.64450    0.91270    0.89520    1.000
    C30      C        0.71220    0.05330    0.24020    1.000
    H18      H        0.68950    0.07740    0.25950    1.000
    C31      C        0.44390    0.11640    0.87890    1.000
    H19      H        0.42440    0.11790    0.83880    1.000
    C32      C        0.24530    0.20470    0.73660    1.000
    H20      H        0.22630    0.17000    0.75410    1.000
    C33      C        0.30230    0.30150    0.68440    1.000
    H21      H        0.32430    0.33320    0.66780    1.000
    C34      C        0.32830    0.29200    0.74360    1.000
    H22      H        0.36750    0.31970    0.76620    1.000
    C35      C        0.77810    0.98350    0.18290    1.000
    H23      H        0.80210    0.95950    0.16470    1.000
    C36      C        0.21510    0.21130    0.67730    1.000
    H24      H        0.17670    0.18160    0.65540    1.000
    N1       N        0.93920    0.11620    0.41140    1.000
    N2       N        0.29560    0.47000    0.41690    1.000
    N3       N        0.30080    0.24570    0.77040    1.000
    N4       N        0.14780    0.28960    0.47180    1.000
    N5       N        0.23800    0.32260    0.56214    1.000
    N6       N        0.15290    0.23280    0.55880    1.000
    N7       N        0.78000    0.81330    0.92130    1.000
    N8       N        0.41360    0.15720    0.90670    1.000
    N9       N        0.77540    0.02900    0.27080    1.000
    N10      N        0.62610    0.98790    0.97254    1.000
    N11      N        0.62290    0.03700    0.05800    1.000
    N12      N        0.71150    0.95050    0.06410    1.000
    Ag3      Ag       0.84423    0.04263    0.36755    1.000
    Ag4      Ag       0.82266    0.74611    0.86700    1.000
    C37      C        0.62380    0.74350    0.50140    1.000
    C38      C        0.09800    0.52930    0.00020    1.000
    C39      C        0.22030    0.34770    0.89170    1.000
    H25      H        0.20060    0.34310    0.85160    1.000
    C40      C        0.53280    0.68850    0.41020    1.000
    H26      H        0.55430    0.70950    0.38880    1.000
    C41      C        0.55970    0.69870    0.46920    1.000
    C42      C        0.27780    0.36160    0.00900    1.000
    H27      H        0.29860    0.36500    0.04910    1.000
    C43      C        0.94400    0.65580    0.96410    1.000
    H28      H        0.92390    0.68350    0.98420    1.000
    C44      C        0.73520    0.93550    0.38820    1.000
    H29      H        0.71340    0.94250    0.34830    1.000
    C45      C        0.79780    0.91600    0.50460    1.000
    H30      H        0.82000    0.91180    0.54460    1.000
    C46      C        0.74300    0.76320    0.65060    1.000
    C47      C        0.18240    0.44780    0.00610    1.000
    C48      C        0.00360    0.61550    0.99580    1.000
    H31      H        0.02320    0.61670    0.03600    1.000
    C49      C        0.70970    0.77390    0.58700    1.000
    C50      C        0.52580    0.66490    0.49900    1.000
    H32      H        0.54310    0.66940    0.53900    1.000
    C51      C        0.03350    0.57340    0.96610    1.000
    C52      C        0.73570    0.87870    0.47400    1.000
    C53      C        0.70540    0.82800    0.50440    1.000
    C54      C        0.17920    0.54410    0.18060    1.000
    H33      H        0.13520    0.56190    0.16050    1.000
    C55      C        0.70400    0.89030    0.41460    1.000
    H34      H        0.66200    0.86770    0.39300    1.000
    C56      C        0.46690    0.62500    0.46860    1.000
    H35      H        0.44470    0.60280    0.48900    1.000
    C57      C        0.21530    0.39810    0.97690    1.000
    C58      C        0.18020    0.49790    0.08740    1.000
    C59      C        0.21250    0.50830    0.15130    1.000
    C60      C        0.30780    0.31990    0.97880    1.000
    H36      H        0.34920    0.29550    0.99970    1.000
    C61      C        0.82530    0.95940    0.47340    1.000
    H37      H        0.86740    0.98260    0.49380    1.000
    C62      C        0.47330    0.64640    0.38360    1.000
    H38      H        0.45600    0.63870    0.34380    1.000
    C63      C        0.00200    0.57270    0.90650    1.000
    H39      H        0.01980    0.54330    0.88540    1.000
    C64      C        0.30710    0.49510    0.24190    1.000
    H40      H        0.35130    0.47850    0.26280    1.000
    C65      C        0.18630    0.39010    0.91750    1.000
    H41      H        0.14450    0.41270    0.89520    1.000
    C66      C        0.21220    0.55330    0.24020    1.000
    H42      H        0.18950    0.57740    0.25950    1.000
    C67      C        0.94390    0.61640    0.87890    1.000
    H43      H        0.92440    0.61790    0.83880    1.000
    C68      C        0.74530    0.70470    0.73660    1.000
    H44      H        0.72630    0.67000    0.75410    1.000
    C69      C        0.80230    0.80150    0.68440    1.000
    H45      H        0.82430    0.83320    0.66780    1.000
    C70      C        0.82830    0.79200    0.74360    1.000
    H46      H        0.86750    0.81970    0.76620    1.000
    C71      C        0.27810    0.48350    0.18290    1.000
    H47      H        0.30210    0.45950    0.16470    1.000
    C72      C        0.71510    0.71130    0.67730    1.000
    H48      H        0.67670    0.68160    0.65540    1.000
    N13      N        0.43920    0.61620    0.41140    1.000
    N14      N        0.79560    0.97000    0.41690    1.000
    N15      N        0.80080    0.74570    0.77040    1.000
    N16      N        0.64780    0.78960    0.47180    1.000
    N17      N        0.73800    0.82260    0.56214    1.000
    N18      N        0.65290    0.73280    0.55880    1.000
    N19      N        0.28000    0.31330    0.92130    1.000
    N20      N        0.91360    0.65720    0.90670    1.000
    N21      N        0.27540    0.52900    0.27080    1.000
    N22      N        0.12610    0.48790    0.97254    1.000
    N23      N        0.12290    0.53700    0.05800    1.000
    N24      N        0.21150    0.45050    0.06410    1.000
    Ag5      Ag       0.65577    0.54263    0.13245    1.000
    Ag6      Ag       0.67734    0.24611    0.63300    1.000
    C73      C        0.87620    0.24350    0.99860    1.000
    C74      C        0.40200    0.02930    0.49980    1.000
    C75      C        0.27970    0.84770    0.60830    1.000
    H49      H        0.29940    0.84310    0.64840    1.000
    C76      C        0.96720    0.18850    0.08980    1.000
    H50      H        0.94570    0.20950    0.11120    1.000
    C77      C        0.94030    0.19870    0.03080    1.000
    C78      C        0.22220    0.86160    0.49100    1.000
    H51      H        0.20140    0.86500    0.45090    1.000
    C79      C        0.55600    0.15580    0.53590    1.000
    H52      H        0.57610    0.18350    0.51580    1.000
    C80      C        0.76480    0.43550    0.11180    1.000
    H53      H        0.78660    0.44250    0.15170    1.000
    C81      C        0.70220    0.41600    0.99540    1.000
    H54      H        0.68000    0.41180    0.95540    1.000
    C82      C        0.75700    0.26320    0.84940    1.000
    C83      C        0.31760    0.94780    0.49390    1.000
    C84      C        0.49640    0.11550    0.50420    1.000
    H55      H        0.47680    0.11670    0.46400    1.000
    C85      C        0.79030    0.27390    0.91300    1.000
    C86      C        0.97420    0.16490    0.00100    1.000
    H56      H        0.95690    0.16940    0.96100    1.000
    C87      C        0.46650    0.07340    0.53390    1.000
    C88      C        0.76430    0.37870    0.02600    1.000
    C89      C        0.79460    0.32800    0.99560    1.000
    C90      C        0.32080    0.04410    0.31940    1.000
    H57      H        0.36480    0.06190    0.33950    1.000
    C91      C        0.79600    0.39030    0.08540    1.000
    H58      H        0.83800    0.36770    0.10700    1.000
    C92      C        0.03310    0.12500    0.03140    1.000
    H59      H        0.05530    0.10280    0.01100    1.000
    C93      C        0.28470    0.89810    0.52310    1.000
    C94      C        0.31980    0.99790    0.41260    1.000
    C95      C        0.28750    0.00830    0.34870    1.000
    C96      C        0.19220    0.81990    0.52120    1.000
    H60      H        0.15080    0.79550    0.50030    1.000
    C97      C        0.67470    0.45940    0.02660    1.000
    H61      H        0.63260    0.48260    0.00620    1.000
    C98      C        0.02670    0.14640    0.11640    1.000
    H62      H        0.04400    0.13870    0.15620    1.000
    C99      C        0.49800    0.07270    0.59350    1.000
    H63      H        0.48020    0.04330    0.61460    1.000
    C100     C        0.19290    0.99510    0.25810    1.000
    H64      H        0.14870    0.97850    0.23720    1.000
    C101     C        0.31370    0.89010    0.58250    1.000
    H65      H        0.35550    0.91270    0.60480    1.000
    C102     C        0.28780    0.05330    0.25980    1.000
    H66      H        0.31050    0.07740    0.24050    1.000
    C103     C        0.55610    0.11640    0.62110    1.000
    H67      H        0.57560    0.11790    0.66120    1.000
    C104     C        0.75470    0.20470    0.76340    1.000
    H68      H        0.77370    0.17000    0.74590    1.000
    C105     C        0.69770    0.30150    0.81560    1.000
    H69      H        0.67570    0.33320    0.83220    1.000
    C106     C        0.67170    0.29200    0.75640    1.000
    H70      H        0.63250    0.31970    0.73380    1.000
    C107     C        0.22190    0.98350    0.31710    1.000
    H71      H        0.19790    0.95950    0.33530    1.000
    C108     C        0.78490    0.21130    0.82270    1.000
    H72      H        0.82330    0.18160    0.84460    1.000
    N25      N        0.06080    0.11620    0.08860    1.000
    N26      N        0.70440    0.47000    0.08310    1.000
    N27      N        0.69920    0.24570    0.72960    1.000
    N28      N        0.85220    0.28960    0.02820    1.000
    N29      N        0.76200    0.32260    0.93786    1.000
    N30      N        0.84710    0.23280    0.94120    1.000
    N31      N        0.22000    0.81330    0.57870    1.000
    N32      N        0.58640    0.15720    0.59330    1.000
    N33      N        0.22460    0.02900    0.22920    1.000
    N34      N        0.37390    0.98790    0.52746    1.000
    N35      N        0.37710    0.03700    0.44200    1.000
    N36      N        0.28850    0.95050    0.43590    1.000
    Ag7      Ag       0.15577    0.04263    0.13245    1.000
    Ag8      Ag       0.17734    0.74611    0.63300    1.000
    C109     C        0.37620    0.74350    0.99860    1.000
    C110     C        0.90200    0.52930    0.49980    1.000
    C111     C        0.77970    0.34770    0.60830    1.000
    H73      H        0.79940    0.34310    0.64840    1.000
    C112     C        0.46720    0.68850    0.08980    1.000
    H74      H        0.44570    0.70950    0.11120    1.000
    C113     C        0.44030    0.69870    0.03080    1.000
    C114     C        0.72220    0.36160    0.49100    1.000
    H75      H        0.70140    0.36500    0.45090    1.000
    C115     C        0.05600    0.65580    0.53590    1.000
    H76      H        0.07610    0.68350    0.51580    1.000
    C116     C        0.26480    0.93550    0.11180    1.000
    H77      H        0.28660    0.94250    0.15170    1.000
    C117     C        0.20220    0.91600    0.99540    1.000
    H78      H        0.18000    0.91180    0.95540    1.000
    C118     C        0.25700    0.76320    0.84940    1.000
    C119     C        0.81760    0.44780    0.49390    1.000
    C120     C        0.99640    0.61550    0.50420    1.000
    H79      H        0.97680    0.61670    0.46400    1.000
    C121     C        0.29030    0.77390    0.91300    1.000
    C122     C        0.47420    0.66490    0.00100    1.000
    H80      H        0.45690    0.66940    0.96100    1.000
    C123     C        0.96650    0.57340    0.53390    1.000
    C124     C        0.26430    0.87870    0.02600    1.000
    C125     C        0.29460    0.82800    0.99560    1.000
    C126     C        0.82080    0.54410    0.31940    1.000
    H81      H        0.86480    0.56190    0.33950    1.000
    C127     C        0.29600    0.89030    0.08540    1.000
    H82      H        0.33800    0.86770    0.10700    1.000
    C128     C        0.53310    0.62500    0.03140    1.000
    H83      H        0.55530    0.60280    0.01100    1.000
    C129     C        0.78470    0.39810    0.52310    1.000
    C130     C        0.81980    0.49790    0.41260    1.000
    C131     C        0.78750    0.50830    0.34870    1.000
    C132     C        0.69220    0.31990    0.52120    1.000
    H84      H        0.65080    0.29550    0.50030    1.000
    C133     C        0.17470    0.95940    0.02660    1.000
    H85      H        0.13260    0.98260    0.00620    1.000
    C134     C        0.52670    0.64640    0.11640    1.000
    H86      H        0.54400    0.63870    0.15620    1.000
    C135     C        0.99800    0.57270    0.59350    1.000
    H87      H        0.98020    0.54330    0.61460    1.000
    C136     C        0.69290    0.49510    0.25810    1.000
    H88      H        0.64870    0.47850    0.23720    1.000
    C137     C        0.81370    0.39010    0.58250    1.000
    H89      H        0.85550    0.41270    0.60480    1.000
    C138     C        0.78780    0.55330    0.25980    1.000
    H90      H        0.81050    0.57740    0.24050    1.000
    C139     C        0.05610    0.61640    0.62110    1.000
    H91      H        0.07560    0.61790    0.66120    1.000
    C140     C        0.25470    0.70470    0.76340    1.000
    H92      H        0.27370    0.67000    0.74590    1.000
    C141     C        0.19770    0.80150    0.81560    1.000
    H93      H        0.17570    0.83320    0.83220    1.000
    C142     C        0.17170    0.79200    0.75640    1.000
    H94      H        0.13250    0.81970    0.73380    1.000
    C143     C        0.72190    0.48350    0.31710    1.000
    H95      H        0.69790    0.45950    0.33530    1.000
    C144     C        0.28490    0.71130    0.82270    1.000
    H96      H        0.32330    0.68160    0.84460    1.000
    N37      N        0.56080    0.61620    0.08860    1.000
    N38      N        0.20440    0.97000    0.08310    1.000
    N39      N        0.19920    0.74570    0.72960    1.000
    N40      N        0.35220    0.78960    0.02820    1.000
    N41      N        0.26200    0.82260    0.93786    1.000
    N42      N        0.34710    0.73280    0.94120    1.000
    N43      N        0.72000    0.31330    0.57870    1.000
    N44      N        0.08640    0.65720    0.59330    1.000
    N45      N        0.72460    0.52900    0.22920    1.000
    N46      N        0.87390    0.48790    0.52746    1.000
    N47      N        0.87710    0.53700    0.44200    1.000
    N48      N        0.78850    0.45050    0.43590    1.000
    Ag9      Ag       0.65577    0.45737    0.63245    1.000
    Ag10     Ag       0.67734    0.75389    0.13300    1.000
    C145     C        0.87620    0.75650    0.49860    1.000
    C146     C        0.40200    0.97070    0.99980    1.000
    C147     C        0.27970    0.15230    0.10830    1.000
    H97      H        0.29940    0.15690    0.14840    1.000
    C148     C        0.96720    0.81150    0.58980    1.000
    H98      H        0.94570    0.79050    0.61120    1.000
    C149     C        0.94030    0.80130    0.53080    1.000
    C150     C        0.22220    0.13840    0.99100    1.000
    H99      H        0.20140    0.13500    0.95090    1.000
    C151     C        0.55600    0.84420    0.03590    1.000
    H100     H        0.57610    0.81650    0.01580    1.000
    C152     C        0.76480    0.56450    0.61180    1.000
    H101     H        0.78660    0.55750    0.65170    1.000
    C153     C        0.70220    0.58400    0.49540    1.000
    H102     H        0.68000    0.58820    0.45540    1.000
    C154     C        0.75700    0.73680    0.34940    1.000
    C155     C        0.31760    0.05220    0.99390    1.000
    C156     C        0.49640    0.88450    0.00420    1.000
    H103     H        0.47680    0.88330    0.96400    1.000
    C157     C        0.79030    0.72610    0.41300    1.000
    C158     C        0.97420    0.83510    0.50100    1.000
    H104     H        0.95690    0.83060    0.46100    1.000
    C159     C        0.46650    0.92660    0.03390    1.000
    C160     C        0.76430    0.62130    0.52600    1.000
    C161     C        0.79460    0.67200    0.49560    1.000
    C162     C        0.32080    0.95590    0.81940    1.000
    H105     H        0.36480    0.93810    0.83950    1.000
    C163     C        0.79600    0.60970    0.58540    1.000
    H106     H        0.83800    0.63230    0.60700    1.000
    C164     C        0.03310    0.87500    0.53140    1.000
    H107     H        0.05530    0.89720    0.51100    1.000
    C165     C        0.28470    0.10190    0.02310    1.000
    C166     C        0.31980    0.00210    0.91260    1.000
    C167     C        0.28750    0.99170    0.84870    1.000
    C168     C        0.19220    0.18010    0.02120    1.000
    H108     H        0.15080    0.20450    0.00030    1.000
    C169     C        0.67470    0.54060    0.52660    1.000
    H109     H        0.63260    0.51740    0.50620    1.000
    C170     C        0.02670    0.85360    0.61640    1.000
    H110     H        0.04400    0.86130    0.65620    1.000
    C171     C        0.49800    0.92730    0.09350    1.000
    H111     H        0.48020    0.95670    0.11460    1.000
    C172     C        0.19290    0.00490    0.75810    1.000
    H112     H        0.14870    0.02150    0.73720    1.000
    C173     C        0.31370    0.10990    0.08250    1.000
    H113     H        0.35550    0.08730    0.10480    1.000
    C174     C        0.28780    0.94670    0.75980    1.000
    H114     H        0.31050    0.92260    0.74050    1.000
    C175     C        0.55610    0.88360    0.12110    1.000
    H115     H        0.57560    0.88210    0.16120    1.000
    C176     C        0.75470    0.79530    0.26340    1.000
    H116     H        0.77370    0.83000    0.24590    1.000
    C177     C        0.69770    0.69850    0.31560    1.000
    H117     H        0.67570    0.66680    0.33220    1.000
    C178     C        0.67170    0.70800    0.25640    1.000
    H118     H        0.63250    0.68030    0.23380    1.000
    C179     C        0.22190    0.01650    0.81710    1.000
    H119     H        0.19790    0.04050    0.83530    1.000
    C180     C        0.78490    0.78870    0.32270    1.000
    H120     H        0.82330    0.81840    0.34460    1.000
    N49      N        0.06080    0.88380    0.58860    1.000
    N50      N        0.70440    0.53000    0.58310    1.000
    N51      N        0.69920    0.75430    0.22960    1.000
    N52      N        0.85220    0.71040    0.52820    1.000
    N53      N        0.76200    0.67740    0.43786    1.000
    N54      N        0.84710    0.76720    0.44120    1.000
    N55      N        0.22000    0.18670    0.07870    1.000
    N56      N        0.58640    0.84280    0.09330    1.000
    N57      N        0.22460    0.97100    0.72920    1.000
    N58      N        0.37390    0.01210    0.02746    1.000
    N59      N        0.37710    0.96300    0.94200    1.000
    N60      N        0.28850    0.04950    0.93590    1.000
    Ag11     Ag       0.15577    0.95737    0.63245    1.000
    Ag12     Ag       0.17734    0.25389    0.13300    1.000
    C181     C        0.37620    0.25650    0.49860    1.000
    C182     C        0.90200    0.47070    0.99980    1.000
    C183     C        0.77970    0.65230    0.10830    1.000
    H121     H        0.79940    0.65690    0.14840    1.000
    C184     C        0.46720    0.31150    0.58980    1.000
    H122     H        0.44570    0.29050    0.61120    1.000
    C185     C        0.44030    0.30130    0.53080    1.000
    C186     C        0.72220    0.63840    0.99100    1.000
    H123     H        0.70140    0.63500    0.95090    1.000
    C187     C        0.05600    0.34420    0.03590    1.000
    H124     H        0.07610    0.31650    0.01580    1.000
    C188     C        0.26480    0.06450    0.61180    1.000
    H125     H        0.28660    0.05750    0.65170    1.000
    C189     C        0.20220    0.08400    0.49540    1.000
    H126     H        0.18000    0.08820    0.45540    1.000
    C190     C        0.25700    0.23680    0.34940    1.000
    C191     C        0.81760    0.55220    0.99390    1.000
    C192     C        0.99640    0.38450    0.00420    1.000
    H127     H        0.97680    0.38330    0.96400    1.000
    C193     C        0.29030    0.22610    0.41300    1.000
    C194     C        0.47420    0.33510    0.50100    1.000
    H128     H        0.45690    0.33060    0.46100    1.000
    C195     C        0.96650    0.42660    0.03390    1.000
    C196     C        0.26430    0.12130    0.52600    1.000
    C197     C        0.29460    0.17200    0.49560    1.000
    C198     C        0.82080    0.45590    0.81940    1.000
    H129     H        0.86480    0.43810    0.83950    1.000
    C199     C        0.29600    0.10970    0.58540    1.000
    H130     H        0.33800    0.13230    0.60700    1.000
    C200     C        0.53310    0.37500    0.53140    1.000
    H131     H        0.55530    0.39720    0.51100    1.000
    C201     C        0.78470    0.60190    0.02310    1.000
    C202     C        0.81980    0.50210    0.91260    1.000
    C203     C        0.78750    0.49170    0.84870    1.000
    C204     C        0.69220    0.68010    0.02120    1.000
    H132     H        0.65080    0.70450    0.00030    1.000
    C205     C        0.17470    0.04060    0.52660    1.000
    H133     H        0.13260    0.01740    0.50620    1.000
    C206     C        0.52670    0.35360    0.61640    1.000
    H134     H        0.54400    0.36130    0.65620    1.000
    C207     C        0.99800    0.42730    0.09350    1.000
    H135     H        0.98020    0.45670    0.11460    1.000
    C208     C        0.69290    0.50490    0.75810    1.000
    H136     H        0.64870    0.52150    0.73720    1.000
    C209     C        0.81370    0.60990    0.08250    1.000
    H137     H        0.85550    0.58730    0.10480    1.000
    C210     C        0.78780    0.44670    0.75980    1.000
    H138     H        0.81050    0.42260    0.74050    1.000
    C211     C        0.05610    0.38360    0.12110    1.000
    H139     H        0.07560    0.38210    0.16120    1.000
    C212     C        0.25470    0.29530    0.26340    1.000
    H140     H        0.27370    0.33000    0.24590    1.000
    C213     C        0.19770    0.19850    0.31560    1.000
    H141     H        0.17570    0.16680    0.33220    1.000
    C214     C        0.17170    0.20800    0.25640    1.000
    H142     H        0.13250    0.18030    0.23380    1.000
    C215     C        0.72190    0.51650    0.81710    1.000
    H143     H        0.69790    0.54050    0.83530    1.000
    C216     C        0.28490    0.28870    0.32270    1.000
    H144     H        0.32330    0.31840    0.34460    1.000
    N61      N        0.56080    0.38380    0.58860    1.000
    N62      N        0.20440    0.03000    0.58310    1.000
    N63      N        0.19920    0.25430    0.22960    1.000
    N64      N        0.35220    0.21040    0.52820    1.000
    N65      N        0.26200    0.17740    0.43786    1.000
    N66      N        0.34710    0.26720    0.44120    1.000
    N67      N        0.72000    0.68670    0.07870    1.000
    N68      N        0.08640    0.34280    0.09330    1.000
    N69      N        0.72460    0.47100    0.72920    1.000
    N70      N        0.87390    0.51210    0.02746    1.000
    N71      N        0.87710    0.46300    0.94200    1.000
    N72      N        0.78850    0.54950    0.93590    1.000
    Ag13     Ag       0.34423    0.45737    0.86755    1.000
    Ag14     Ag       0.32266    0.75389    0.36700    1.000
    C217     C        0.12380    0.75650    0.00140    1.000
    C218     C        0.59800    0.97070    0.50020    1.000
    C219     C        0.72030    0.15230    0.39170    1.000
    H145     H        0.70060    0.15690    0.35160    1.000
    C220     C        0.03280    0.81150    0.91020    1.000
    H146     H        0.05430    0.79050    0.88880    1.000
    C221     C        0.05970    0.80130    0.96920    1.000
    C222     C        0.77780    0.13840    0.50900    1.000
    H147     H        0.79860    0.13500    0.54910    1.000
    C223     C        0.44400    0.84420    0.46410    1.000
    H148     H        0.42390    0.81650    0.48420    1.000
    C224     C        0.23520    0.56450    0.88820    1.000
    H149     H        0.21340    0.55750    0.84830    1.000
    C225     C        0.29780    0.58400    0.00460    1.000
    H150     H        0.32000    0.58820    0.04460    1.000
    C226     C        0.24300    0.73680    0.15060    1.000
    C227     C        0.68240    0.05220    0.50610    1.000
    C228     C        0.50360    0.88450    0.49580    1.000
    H151     H        0.52320    0.88330    0.53600    1.000
    C229     C        0.20970    0.72610    0.08700    1.000
    C230     C        0.02580    0.83510    0.99900    1.000
    H152     H        0.04310    0.83060    0.03900    1.000
    C231     C        0.53350    0.92660    0.46610    1.000
    C232     C        0.23570    0.62130    0.97400    1.000
    C233     C        0.20540    0.67200    0.00440    1.000
    C234     C        0.67920    0.95590    0.68060    1.000
    H153     H        0.63520    0.93810    0.66050    1.000
    C235     C        0.20400    0.60970    0.91460    1.000
    H154     H        0.16200    0.63230    0.89300    1.000
    C236     C        0.96690    0.87500    0.96860    1.000
    H155     H        0.94470    0.89720    0.98900    1.000
    C237     C        0.71530    0.10190    0.47690    1.000
    C238     C        0.68020    0.00210    0.58740    1.000
    C239     C        0.71250    0.99170    0.65130    1.000
    C240     C        0.80780    0.18010    0.47880    1.000
    H156     H        0.84920    0.20450    0.49970    1.000
    C241     C        0.32530    0.54060    0.97340    1.000
    H157     H        0.36740    0.51740    0.99380    1.000
    C242     C        0.97330    0.85360    0.88360    1.000
    H158     H        0.95600    0.86130    0.84380    1.000
    C243     C        0.50200    0.92730    0.40650    1.000
    H159     H        0.51980    0.95670    0.38540    1.000
    C244     C        0.80710    0.00490    0.74190    1.000
    H160     H        0.85130    0.02150    0.76280    1.000
    C245     C        0.68630    0.10990    0.41750    1.000
    H161     H        0.64450    0.08730    0.39520    1.000
    C246     C        0.71220    0.94670    0.74020    1.000
    H162     H        0.68950    0.92260    0.75950    1.000
    C247     C        0.44390    0.88360    0.37890    1.000
    H163     H        0.42440    0.88210    0.33880    1.000
    C248     C        0.24530    0.79530    0.23660    1.000
    H164     H        0.22630    0.83000    0.25410    1.000
    C249     C        0.30230    0.69850    0.18440    1.000
    H165     H        0.32430    0.66680    0.16780    1.000
    C250     C        0.32830    0.70800    0.24360    1.000
    H166     H        0.36750    0.68030    0.26620    1.000
    C251     C        0.77810    0.01650    0.68290    1.000
    H167     H        0.80210    0.04050    0.66470    1.000
    C252     C        0.21510    0.78870    0.17730    1.000
    H168     H        0.17670    0.81840    0.15540    1.000
    N73      N        0.93920    0.88380    0.91140    1.000
    N74      N        0.29560    0.53000    0.91690    1.000
    N75      N        0.30080    0.75430    0.27040    1.000
    N76      N        0.14780    0.71040    0.97180    1.000
    N77      N        0.23800    0.67740    0.06214    1.000
    N78      N        0.15290    0.76720    0.05880    1.000
    N79      N        0.78000    0.18670    0.42130    1.000
    N80      N        0.41360    0.84280    0.40670    1.000
    N81      N        0.77540    0.97100    0.77080    1.000
    N82      N        0.62610    0.01210    0.47254    1.000
    N83      N        0.62290    0.96300    0.55800    1.000
    N84      N        0.71150    0.04950    0.56410    1.000
    Ag15     Ag       0.84423    0.95737    0.86755    1.000
    Ag16     Ag       0.82266    0.25389    0.36700    1.000
    C253     C        0.62380    0.25650    0.00140    1.000
    C254     C        0.09800    0.47070    0.50020    1.000
    C255     C        0.22030    0.65230    0.39170    1.000
    H169     H        0.20060    0.65690    0.35160    1.000
    C256     C        0.53280    0.31150    0.91020    1.000
    H170     H        0.55430    0.29050    0.88880    1.000
    C257     C        0.55970    0.30130    0.96920    1.000
    C258     C        0.27780    0.63840    0.50900    1.000
    H171     H        0.29860    0.63500    0.54910    1.000
    C259     C        0.94400    0.34420    0.46410    1.000
    H172     H        0.92390    0.31650    0.48420    1.000
    C260     C        0.73520    0.06450    0.88820    1.000
    H173     H        0.71340    0.05750    0.84830    1.000
    C261     C        0.79780    0.08400    0.00460    1.000
    H174     H        0.82000    0.08820    0.04460    1.000
    C262     C        0.74300    0.23680    0.15060    1.000
    C263     C        0.18240    0.55220    0.50610    1.000
    C264     C        0.00360    0.38450    0.49580    1.000
    H175     H        0.02320    0.38330    0.53600    1.000
    C265     C        0.70970    0.22610    0.08700    1.000
    C266     C        0.52580    0.33510    0.99900    1.000
    H176     H        0.54310    0.33060    0.03900    1.000
    C267     C        0.03350    0.42660    0.46610    1.000
    C268     C        0.73570    0.12130    0.97400    1.000
    C269     C        0.70540    0.17200    0.00440    1.000
    C270     C        0.17920    0.45590    0.68060    1.000
    H177     H        0.13520    0.43810    0.66050    1.000
    C271     C        0.70400    0.10970    0.91460    1.000
    H178     H        0.66200    0.13230    0.89300    1.000
    C272     C        0.46690    0.37500    0.96860    1.000
    H179     H        0.44470    0.39720    0.98900    1.000
    C273     C        0.21530    0.60190    0.47690    1.000
    C274     C        0.18020    0.50210    0.58740    1.000
    C275     C        0.21250    0.49170    0.65130    1.000
    C276     C        0.30780    0.68010    0.47880    1.000
    H180     H        0.34920    0.70450    0.49970    1.000
    C277     C        0.82530    0.04060    0.97340    1.000
    H181     H        0.86740    0.01740    0.99380    1.000
    C278     C        0.47330    0.35360    0.88360    1.000
    H182     H        0.45600    0.36130    0.84380    1.000
    C279     C        0.00200    0.42730    0.40650    1.000
    H183     H        0.01980    0.45670    0.38540    1.000
    C280     C        0.30710    0.50490    0.74190    1.000
    H184     H        0.35130    0.52150    0.76280    1.000
    C281     C        0.18630    0.60990    0.41750    1.000
    H185     H        0.14450    0.58730    0.39520    1.000
    C282     C        0.21220    0.44670    0.74020    1.000
    H186     H        0.18950    0.42260    0.75950    1.000
    C283     C        0.94390    0.38360    0.37890    1.000
    H187     H        0.92440    0.38210    0.33880    1.000
    C284     C        0.74530    0.29530    0.23660    1.000
    H188     H        0.72630    0.33000    0.25410    1.000
    C285     C        0.80230    0.19850    0.18440    1.000
    H189     H        0.82430    0.16680    0.16780    1.000
    C286     C        0.82830    0.20800    0.24360    1.000
    H190     H        0.86750    0.18030    0.26620    1.000
    C287     C        0.27810    0.51650    0.68290    1.000
    H191     H        0.30210    0.54050    0.66470    1.000
    C288     C        0.71510    0.28870    0.17730    1.000
    H192     H        0.67670    0.31840    0.15540    1.000
    N85      N        0.43920    0.38380    0.91140    1.000
    N86      N        0.79560    0.03000    0.91690    1.000
    N87      N        0.80080    0.25430    0.27040    1.000
    N88      N        0.64780    0.21040    0.97180    1.000
    N89      N        0.73800    0.17740    0.06214    1.000
    N90      N        0.65290    0.26720    0.05880    1.000
    N91      N        0.28000    0.68670    0.42130    1.000
    N92      N        0.91360    0.34280    0.40670    1.000
    N93      N        0.27540    0.47100    0.77080    1.000
    N94      N        0.12610    0.51210    0.47254    1.000
    N95      N        0.12290    0.46300    0.55800    1.000
    N96      N        0.21150    0.54950    0.56410    1.000
