data_functionalizedCrystal
_audit_creation_method	'EQeq! by Chris Wilmer'
_symmetry_space_group_name_H-M	'P1'
_symmetry_Int_Tables_number	1
_symmetry_cell_setting	triclinic
loop_
_symmetry_equiv_pos_as_xyz
  x,y,z
_cell_length_a	13.9023
_cell_length_b	14.4405
_cell_length_c	18.2666
_cell_angle_alpha	107.079
_cell_angle_beta	111.592
_cell_angle_gamma	94.232
loop_
_atom_site_label
_atom_site_type_symbol
_atom_site_fract_x
_atom_site_fract_y
_atom_site_fract_z
_atom_site_charge
Mof_Ag	Ag	0.22634	0.44372	0.10576	0.536
Mof_Ag	Ag	0.34498	0.31955	0.00331	0.402
Mof_Ag	Ag	0.69077	0.90576	0.13086	0.456
Mof_Ag	Ag	0.787	0.03912	0.32774	0.389
Mof_Ag	Ag	0.72954	0.11909	0.47751	0.482
Mof_Ag	Ag	0.68231	0.31862	0.57877	0.629
Mof_Ag	Ag	0.19522	0.48311	0.27896	0.593
Mof_O 	O 	0.1225	0.2981	0.0686	-0.248
Mof_O 	O 	0.1312	0.3135	0.1959	-0.212
Mof_O 	O 	0.6917	0.0944	0.5865	-0.244
Mof_O 	O 	0.6544	0.2284	0.6585	-0.259
Mof_O 	O 	0.4529	0.60033	0.40326	-0.237
Mof_O 	O 	0.3642	0.4461	0.3213	-0.25
Mof_N 	N 	0.3998	0.516	0.16375	-0.14
Mof_N 	N 	0.4496	0.4681	0.1172	-0.142
Mof_N 	N 	0.346	0.1976	0.05895	-0.121
Mof_N 	N 	0.3429	0.107	0.00735	-0.136
Mof_N 	N 	0.856	0.889	0.20061	-0.136
Mof_N 	N 	0.9006	0.9533	0.28018	-0.139
Mof_N 	N 	0.1427	0.6012	0.2186	-0.153
Mof_N 	N 	0.1436	0.5757	0.1416	-0.157
Mof_N 	N 	0.6904	0.91472	0.34108	-0.139
Mof_N 	N 	0.6817	0.9428	0.41504	-0.125
Mof_N 	N 	0.5816	0.1608	0.39289	-0.128
Mof_N 	N 	0.5415	0.2222	0.44033	-0.114
Mof_N 	N 	0.8014	0.3907	0.54332	-0.161
Mof_N 	N 	0.8799	0.4647	0.6044	-0.116
Mof_C 	C 	0.4471	0.6033	0.2221	0.028
Mof_H 	H 	0.4111	0.635	0.2529	0.037
Mof_C 	C 	0.5487	0.6509	0.2403	0.046
Mof_C 	C 	0.5981	0.6032	0.1922	-0.105
Mof_H 	H 	0.6652	0.6313	0.2002	0.056
Mof_C 	C 	0.5443	0.5112	0.131	0.076
Mof_H 	H 	0.5774	0.4784	0.0981	-0.013
Mof_C 	C 	0.3756	0.2129	0.1394	0.025
Mof_H 	H 	0.3761	0.2749	0.174	0.054
Mof_C 	C 	0.4064	0.1414	0.1762	0.07
Mof_C 	C 	0.4045	0.0504	0.1237	-0.105
Mof_H 	H 	0.4252	0.9998	0.1439	0.103
Mof_C 	C 	0.3703	0.0375	0.0389	0.115
Mof_H 	H 	0.3667	0.9756	0.0023	-0.002
Mof_C 	C 	0.9084	0.8239	0.1741	0.044
Mof_H 	H 	0.8773	0.7816	0.1185	0.007
Mof_C 	C 	0.0081	0.8152	0.2252	0.024
Mof_C 	C 	0.0533	0.8818	0.3054	-0.082
Mof_H 	H 	0.1203	0.8813	0.3425	0.07
Mof_C 	C 	0.9962	0.95	0.3297	0.076
Mof_H 	H 	0.027	0.996	0.3839	-0.008
Mof_C 	C 	0.1023	0.6785	0.2435	0.011
Mof_H 	H 	0.1038	0.697	0.2972	-0.008
Mof_C 	C 	0.0577	0.7338	0.1936	0.053
Mof_C 	C 	0.0562	0.7057	0.115	-0.126
Mof_H 	H 	0.0259	0.7387	0.0781	0.144
Mof_C 	C 	0.1021	0.6257	0.0924	0.098
Mof_H 	H 	0.1034	0.6066	0.0396	-0.005
Mof_C 	C 	0.6505	0.822	0.2888	0.042
Mof_H 	H 	0.6587	0.8036	0.2385	-0.02
Mof_C 	C 	0.5971	0.7508	0.3056	0.034
Mof_C 	C 	0.5889	0.7794	0.3811	-0.067
Mof_H 	H 	0.5546	0.7355	0.3963	0.103
Mof_C 	C 	0.6342	0.8775	0.4343	0.081
Mof_H 	H 	0.6304	0.8976	0.4862	0.054
Mof_C 	C 	0.5348	0.1336	0.3106	0.077
Mof_H 	H 	0.5623	0.0896	0.279	-0.003
Mof_C 	C 	0.4463	0.167	0.2679	0.049
Mof_C 	C 	0.4049	0.2275	0.3165	-0.045
Mof_H 	H 	0.3449	0.2512	0.2925	0.108
Mof_C 	C 	0.4559	0.2522	0.4033	0.119
Mof_H 	H 	0.4276	0.2921	0.4368	0.049
Mof_C 	C 	0.8008	0.3606	0.4676	0.098
Mof_H 	H 	0.7462	0.3096	0.4255	-0.008
Mof_C 	C 	0.8768	0.4009	0.4472	-0.109
Mof_H 	H 	0.8731	0.3768	0.3928	0.079
Mof_C 	C 	0.9573	0.4762	0.5078	0.031
Mof_C 	C 	0.9532	0.5048	0.5868	0.011
Mof_H 	H 	0.0064	0.556	0.6302	0.038
Mof_C 	C 	0.1057	0.2711	0.1213	0.093
Mof_C 	C 	0.0441	0.1626	0.0847	1.165
Mof_C 	C 	0.6638	0.142	0.6394	0.132
Mof_C 	C 	0.6441	0.0832	0.6916	0.878
Mof_C 	C 	0.4438	0.5118	0.3654	0.137
Mof_C 	C 	0.5498	0.4811	0.3761	0.849
Mof_F 	F 	0.9901	0.1466	0.1268	-0.312
Mof_F 	F 	0.1145	0.103	0.0916	-0.296
Mof_F 	F 	0.9782	0.1344	0.0058	-0.266
Mof_F 	F 	0.059	0.1135	0.0181	-0.305
Mof_F 	F 	0.068	0.1167	0.1378	-0.298
Mof_F 	F 	0.9439	0.1703	0.061	-0.348
Mof_F 	F 	0.6211	0.9875	0.6508	-0.484
Mof_F 	F 	0.5678	0.1005	0.7143	-0.518
Mof_F 	F 	0.7302	0.0955	0.7578	-0.465
Mof_F 	F 	0.6227	0.5513	0.3829	-0.49
Mof_F 	F 	0.5422	0.4026	0.3141	-0.509
Mof_F 	F 	0.5891	0.4583	0.4447	-0.499
Mof_Ag	Ag	0.77366	0.55628	0.89424	0.537
Mof_Ag	Ag	0.65502	0.68044	0.99669	0.403
Mof_Ag	Ag	0.30923	0.09424	0.86914	0.457
Mof_Ag	Ag	0.213	0.96088	0.67226	0.39
Mof_Ag	Ag	0.27046	0.88091	0.52249	0.482
Mof_Ag	Ag	0.31769	0.68138	0.42123	0.629
Mof_Ag	Ag	0.80478	0.51689	0.72104	0.593
Mof_O 	O 	0.8775	0.7019	0.9314	-0.248
Mof_O 	O 	0.8688	0.6865	0.8041	-0.212
Mof_O 	O 	0.3083	0.9056	0.4135	-0.244
Mof_O 	O 	0.3456	0.7716	0.3415	-0.259
Mof_O 	O 	0.5471	0.39967	0.59674	-0.237
Mof_O 	O 	0.6358	0.5539	0.6787	-0.25
Mof_N 	N 	0.6002	0.484	0.83625	-0.14
Mof_N 	N 	0.5504	0.5319	0.8828	-0.142
Mof_N 	N 	0.654	0.8024	0.94105	-0.121
Mof_N 	N 	0.6571	0.893	0.99265	-0.136
Mof_N 	N 	0.144	0.111	0.79939	-0.136
Mof_N 	N 	0.0994	0.0467	0.71982	-0.139
Mof_N 	N 	0.8573	0.3988	0.7814	-0.153
Mof_N 	N 	0.8564	0.4243	0.8584	-0.157
Mof_N 	N 	0.3096	0.08528	0.65892	-0.139
Mof_N 	N 	0.3183	0.0572	0.58496	-0.125
Mof_N 	N 	0.4184	0.8392	0.60711	-0.128
Mof_N 	N 	0.4585	0.7778	0.55967	-0.114
Mof_N 	N 	0.1986	0.6093	0.45668	-0.161
Mof_N 	N 	0.1201	0.5353	0.3956	-0.116
Mof_C 	C 	0.5529	0.3967	0.7779	0.028
Mof_H 	H 	0.5889	0.365	0.7471	0.037
Mof_C 	C 	0.4513	0.3491	0.7597	0.046
Mof_C 	C 	0.4019	0.3968	0.8078	-0.105
Mof_H 	H 	0.3348	0.3687	0.7998	0.056
Mof_C 	C 	0.4557	0.4888	0.869	0.076
Mof_H 	H 	0.4226	0.5216	0.9019	-0.013
Mof_C 	C 	0.6244	0.7871	0.8606	0.025
Mof_H 	H 	0.6239	0.7251	0.826	0.054
Mof_C 	C 	0.5936	0.8586	0.8238	0.07
Mof_C 	C 	0.5955	0.9496	0.8763	-0.105
Mof_H 	H 	0.5748	0.0002	0.8561	0.103
Mof_C 	C 	0.6297	0.9625	0.9611	0.115
Mof_H 	H 	0.6333	0.0244	0.9977	-0.002
Mof_C 	C 	0.0916	0.1761	0.8259	0.044
Mof_H 	H 	0.1227	0.2184	0.8815	0.007
Mof_C 	C 	0.9919	0.1848	0.7748	0.024
Mof_C 	C 	0.9467	0.1182	0.6946	-0.082
Mof_H 	H 	0.8797	0.1187	0.6575	0.07
Mof_C 	C 	0.0038	0.05	0.6703	0.076
Mof_H 	H 	0.973	0.004	0.6161	-0.008
Mof_C 	C 	0.8977	0.3215	0.7565	0.011
Mof_H 	H 	0.8962	0.303	0.7028	-0.008
Mof_C 	C 	0.9423	0.2662	0.8064	0.053
Mof_C 	C 	0.9438	0.2943	0.885	-0.126
Mof_H 	H 	0.9741	0.2613	0.9219	0.144
Mof_C 	C 	0.8979	0.3743	0.9076	0.098
Mof_H 	H 	0.8966	0.3934	0.9604	-0.005
Mof_C 	C 	0.3495	0.178	0.7112	0.042
Mof_H 	H 	0.3413	0.1964	0.7615	-0.02
Mof_C 	C 	0.4029	0.2492	0.6944	0.034
Mof_C 	C 	0.4111	0.2206	0.6189	-0.067
Mof_H 	H 	0.4454	0.2645	0.6037	0.103
Mof_C 	C 	0.3658	0.1225	0.5657	0.081
Mof_H 	H 	0.3696	0.1024	0.5138	0.054
Mof_C 	C 	0.4652	0.8664	0.6894	0.077
Mof_H 	H 	0.4377	0.9104	0.721	-0.003
Mof_C 	C 	0.5537	0.833	0.7321	0.049
Mof_C 	C 	0.5951	0.7725	0.6835	-0.045
Mof_H 	H 	0.6551	0.7488	0.7075	0.108
Mof_C 	C 	0.5441	0.7478	0.5967	0.119
Mof_H 	H 	0.5724	0.7079	0.5632	0.049
Mof_C 	C 	0.1992	0.6394	0.5324	0.098
Mof_H 	H 	0.2538	0.6904	0.5745	-0.008
Mof_C 	C 	0.1232	0.5991	0.5528	-0.109
Mof_H 	H 	0.1269	0.6232	0.6072	0.079
Mof_C 	C 	0.0427	0.5238	0.4922	0.031
Mof_C 	C 	0.0468	0.4952	0.4132	0.011
Mof_H 	H 	0.9936	0.444	0.3698	0.038
Mof_C 	C 	0.8943	0.7289	0.8787	0.093
Mof_C 	C 	0.9559	0.8374	0.9153	1.165
Mof_C 	C 	0.3362	0.858	0.3606	0.132
Mof_C 	C 	0.3559	0.9168	0.3084	0.878
Mof_C 	C 	0.5562	0.4882	0.6346	0.137
Mof_C 	C 	0.4502	0.5189	0.6239	0.849
Mof_F 	F 	0.0099	0.8534	0.8732	-0.312
Mof_F 	F 	0.8855	0.897	0.9084	-0.296
Mof_F 	F 	0.0218	0.8656	0.9942	-0.266
Mof_F 	F 	0.941	0.8865	0.9819	-0.305
Mof_F 	F 	0.932	0.8833	0.8622	-0.298
Mof_F 	F 	0.0561	0.8297	0.939	-0.348
Mof_F 	F 	0.3789	0.0125	0.3492	-0.484
Mof_F 	F 	0.4322	0.8995	0.2857	-0.518
Mof_F 	F 	0.2698	0.9045	0.2422	-0.465
Mof_F 	F 	0.3773	0.4487	0.6171	-0.49
Mof_F 	F 	0.4578	0.5974	0.6859	-0.509
Mof_F 	F 	0.4109	0.5417	0.5553	-0.499
_end
