data_functionalizedCrystal
_audit_creation_method	'EQeq! by Chris Wilmer'
_symmetry_space_group_name_H-M	'P1'
_symmetry_Int_Tables_number	1
_symmetry_cell_setting	triclinic
loop_
_symmetry_equiv_pos_as_xyz
  x,y,z
_cell_length_a	10.1792
_cell_length_b	11.4268
_cell_length_c	17.5193
_cell_angle_alpha	90
_cell_angle_beta	90
_cell_angle_gamma	110.035
loop_
_atom_site_label
_atom_site_type_symbol
_atom_site_fract_x
_atom_site_fract_y
_atom_site_fract_z
_atom_site_charge
Mof_Tb	Tb	0.01038	0.18171	0.50725	2.257
Mof_Tb	Tb	0.98962	0.31829	0.00725	2.261
Mof_Tb	Tb	0.98962	0.81829	0.49275	2.257
Mof_Tb	Tb	0.01038	0.68171	0.99275	2.261
Mof_H 	H 	0.9104	0.3038	0.8161	0.038
Mof_H 	H 	0.101	0.6352	0.7164	0.064
Mof_H 	H 	0.8561	0.2152	0.6975	0.053
Mof_H 	H 	0.0545	0.5394	0.599	0.056
Mof_H 	H 	0.4342	0.9608	0.3922	0.06
Mof_H 	H 	0.4793	0.2876	0.4911	0.077
Mof_H 	H 	0.6757	0.0268	0.3745	0.037
Mof_H 	H 	0.72	0.3446	0.4778	0.069
Mof_H 	H 	0.0896	0.1962	0.3161	0.048
Mof_H 	H 	0.899	0.8648	0.2164	0.08
Mof_H 	H 	0.1439	0.2848	0.1975	0.044
Mof_H 	H 	0.9455	0.9606	0.099	0.037
Mof_H 	H 	0.5658	0.5392	0.8922	0.056
Mof_H 	H 	0.5207	0.2124	0.9911	0.077
Mof_H 	H 	0.3243	0.4732	0.8745	0.038
Mof_H 	H 	0.28	0.1554	0.9778	0.069
Mof_H 	H 	0.0896	0.6962	0.1839	0.037
Mof_H 	H 	0.899	0.3648	0.2836	0.063
Mof_H 	H 	0.1439	0.7848	0.3025	0.053
Mof_H 	H 	0.9455	0.4606	0.401	0.056
Mof_H 	H 	0.5658	0.0392	0.6078	0.06
Mof_H 	H 	0.5207	0.7124	0.5089	0.077
Mof_H 	H 	0.3243	0.9732	0.6255	0.037
Mof_H 	H 	0.28	0.6554	0.5222	0.069
Mof_H 	H 	0.9104	0.8038	0.6839	0.048
Mof_H 	H 	0.101	0.1352	0.7836	0.08
Mof_H 	H 	0.8561	0.7152	0.8025	0.044
Mof_H 	H 	0.0545	0.0394	0.901	0.037
Mof_H 	H 	0.4342	0.4608	0.1078	0.056
Mof_H 	H 	0.4793	0.7876	0.0089	0.077
Mof_H 	H 	0.6757	0.5268	0.1255	0.038
Mof_H 	H 	0.72	0.8446	0.0222	0.069
Mof_C 	C 	0.0389	0.5418	0.8567	0.447
Mof_C 	C 	0.011	0.4796	0.7793	-0.11
Mof_C 	C 	0.938	0.3527	0.7726	0.015
Mof_C 	C 	0.053	0.5499	0.7132	-0.008
Mof_C 	C 	0.9068	0.2998	0.7018	0.007
Mof_C 	C 	0.0233	0.4929	0.6432	0.025
Mof_C 	C 	0.2751	0.0721	0.4619	0.455
Mof_C 	C 	0.4301	0.116	0.4454	-0.088
Mof_C 	C 	0.4903	0.0388	0.4096	-0.025
Mof_C 	C 	0.5174	0.2324	0.4691	-0.016
Mof_C 	C 	0.6353	0.0778	0.3995	0.02
Mof_C 	C 	0.6616	0.2675	0.4603	0.016
Mof_C 	C 	0.9611	0.9582	0.3567	0.417
Mof_C 	C 	0.989	0.0204	0.2793	-0.06
Mof_C 	C 	0.062	0.1473	0.2726	-0.028
Mof_C 	C 	0.947	0.9501	0.2132	-0.061
Mof_C 	C 	0.0932	0.2002	0.2018	0.028
Mof_C 	C 	0.9767	0.0071	0.1432	0.065
Mof_C 	C 	0.7249	0.4279	0.9619	0.464
Mof_C 	C 	0.5699	0.384	0.9454	-0.092
Mof_C 	C 	0.5097	0.4612	0.9096	-0.017
Mof_C 	C 	0.4826	0.2676	0.9691	-0.014
Mof_C 	C 	0.3647	0.4222	0.8995	0.015
Mof_C 	C 	0.3384	0.2325	0.9603	0.014
Mof_C 	C 	0.9611	0.4582	0.1433	0.447
Mof_C 	C 	0.989	0.5204	0.2207	-0.11
Mof_C 	C 	0.062	0.6473	0.2274	0.015
Mof_C 	C 	0.947	0.4501	0.2868	-0.008
Mof_C 	C 	0.0932	0.7002	0.2982	0.007
Mof_C 	C 	0.9767	0.5071	0.3568	0.025
Mof_C 	C 	0.7249	0.9279	0.5381	0.455
Mof_C 	C 	0.5699	0.884	0.5546	-0.088
Mof_C 	C 	0.5097	0.9612	0.5904	-0.025
Mof_C 	C 	0.4826	0.7676	0.5309	-0.016
Mof_C 	C 	0.3647	0.9222	0.6005	0.02
Mof_C 	C 	0.3384	0.7325	0.5397	0.016
Mof_C 	C 	0.0389	0.0418	0.6433	0.417
Mof_C 	C 	0.011	0.9796	0.7207	-0.06
Mof_C 	C 	0.938	0.8527	0.7274	-0.028
Mof_C 	C 	0.053	0.0499	0.7868	-0.061
Mof_C 	C 	0.9068	0.7998	0.7982	0.028
Mof_C 	C 	0.0233	0.9929	0.8568	0.065
Mof_C 	C 	0.2751	0.5721	0.0381	0.464
Mof_C 	C 	0.4301	0.616	0.0546	-0.092
Mof_C 	C 	0.4903	0.5388	0.0904	-0.017
Mof_C 	C 	0.5174	0.7324	0.0309	-0.014
Mof_C 	C 	0.6353	0.5778	0.1005	0.015
Mof_C 	C 	0.6616	0.7675	0.0397	0.014
Mof_N 	N 	0.949	0.3696	0.6376	-0.034
Mof_N 	N 	0.7156	0.1893	0.4262	-0.046
Mof_N 	N 	0.2319	0.4083	0.4675	0.067
Mof_N 	N 	0.051	0.1304	0.1376	-0.047
Mof_N 	N 	0.2844	0.3107	0.9262	-0.045
Mof_N 	N 	0.7681	0.0917	0.9675	0.071
Mof_N 	N 	0.051	0.6304	0.3624	-0.034
Mof_N 	N 	0.2844	0.8107	0.5738	-0.046
Mof_N 	N 	0.7681	0.5917	0.5325	0.067
Mof_N 	N 	0.949	0.8696	0.8624	-0.047
Mof_N 	N 	0.7156	0.6893	0.0738	-0.045
Mof_N 	N 	0.2319	0.9083	0.0325	0.071
Mof_O 	O 	0.9157	0.3186	0.5697	-0.325
Mof_O 	O 	0.0255	0.4741	0.9152	-0.613
Mof_O 	O 	0.062	0.6556	0.861	-0.481
Mof_O 	O 	0.2273	0.1533	0.4861	-0.505
Mof_O 	O 	0.2084	0.9576	0.452	-0.51
Mof_O 	O 	0.8545	0.225	0.419	-0.329
Mof_O 	O 	0.2058	0.3802	0.5376	-0.27
Mof_O 	O 	0.1456	0.3427	0.4182	-0.304
Mof_O 	O 	0.3334	0.495	0.4519	-0.105
Mof_O 	O 	0.0843	0.1814	0.0697	-0.323
Mof_O 	O 	0.9745	0.0259	0.4152	-0.595
Mof_O 	O 	0.938	0.8444	0.361	-0.474
Mof_O 	O 	0.7727	0.3467	0.9861	-0.5
Mof_O 	O 	0.7916	0.5424	0.952	-0.512
Mof_O 	O 	0.1455	0.275	0.919	-0.333
Mof_O 	O 	0.7942	0.1198	0.0376	-0.276
Mof_O 	O 	0.8544	0.1573	0.9182	-0.297
Mof_O 	O 	0.6666	0.005	0.9519	-0.103
Mof_O 	O 	0.0843	0.6814	0.4303	-0.325
Mof_O 	O 	0.9745	0.5259	0.0848	-0.613
Mof_O 	O 	0.938	0.3444	0.139	-0.481
Mof_O 	O 	0.7727	0.8467	0.5139	-0.505
Mof_O 	O 	0.7916	0.0424	0.548	-0.51
Mof_O 	O 	0.1455	0.775	0.581	-0.329
Mof_O 	O 	0.7942	0.6198	0.4624	-0.27
Mof_O 	O 	0.8544	0.6573	0.5818	-0.304
Mof_O 	O 	0.6666	0.505	0.5481	-0.105
Mof_O 	O 	0.9157	0.8186	0.9303	-0.323
Mof_O 	O 	0.0255	0.9741	0.5848	-0.595
Mof_O 	O 	0.062	0.1556	0.639	-0.474
Mof_O 	O 	0.2273	0.6533	0.0139	-0.5
Mof_O 	O 	0.2084	0.4576	0.048	-0.512
Mof_O 	O 	0.8545	0.725	0.081	-0.333
Mof_O 	O 	0.2058	0.8802	0.9624	-0.276
Mof_O 	O 	0.1456	0.8427	0.0818	-0.297
Mof_O 	O 	0.3334	0.995	0.0481	-0.103
_end
