data_functionalizedCrystal
_audit_creation_method	'EQeq! by Chris Wilmer'
_symmetry_space_group_name_H-M	'P1'
_symmetry_Int_Tables_number	1
_symmetry_cell_setting	triclinic
loop_
_symmetry_equiv_pos_as_xyz
  x,y,z
_cell_length_a	9.1212
_cell_length_b	18.8576
_cell_length_c	8.1265
_cell_angle_alpha	90
_cell_angle_beta	111.963
_cell_angle_gamma	90
loop_
_atom_site_label
_atom_site_type_symbol
_atom_site_fract_x
_atom_site_fract_y
_atom_site_fract_z
_atom_site_charge
Mof_Zn	Zn	0.30126	0.52966	0.33651	1.194
Mof_O 	O 	0.0579	0.60235	0.4647	-0.52
Mof_O 	O 	0.2291	0.62633	0.3346	-0.524
Mof_O 	O 	0.7857	0.94843	0.3264	-0.424
Mof_O 	O 	0.983	0.97738	0.2471	-0.414
Mof_N 	N 	0.2389	0.47231	0.6416	-0.197
Mof_N 	N 	0.3519	0.48378	0.5786	-0.211
Mof_N 	N 	0.4889	0.45855	0.6924	-0.226
Mof_C 	C 	0.1253	0.64376	0.3975	0.455
Mof_C 	C 	0.0817	0.72038	0.391	-0.28
Mof_C 	C 	0.1721	0.77315	0.3561	0.161
Mof_H 	H 	0.2659	0.7614	0.3424	-0.023
Mof_C 	C 	0.1237	0.84289	0.3416	-0.248
Mof_H 	H 	0.1856	0.878	0.3198	0.107
Mof_C 	C 	0.9826	0.86092	0.3594	0.101
Mof_C 	C 	0.8967	0.80868	0.4024	-0.194
Mof_H 	H 	0.8049	0.8207	0.4204	0.107
Mof_C 	C 	0.9457	0.73923	0.4189	0.207
Mof_H 	H 	0.8873	0.7046	0.4489	-0.02
Mof_C 	C 	0.9159	0.93374	0.3108	0.282
Mof_C 	C 	0.3042	0.4397	0.7968	0.005
Mof_H 	H 	0.2525	0.4254	0.8705	0.05
Mof_C 	C 	0.4608	0.4308	0.8286	0.026
Mof_H 	H 	0.535	0.4093	0.9278	0.028
Mof_Zn	Zn	0.69874	0.02966	0.16349	1.17
Mof_O 	O 	0.9421	0.10235	0.0353	-0.471
Mof_O 	O 	0.7709	0.12633	0.1654	-0.496
Mof_O 	O 	0.2143	0.44843	0.1736	-0.499
Mof_O 	O 	0.017	0.47738	0.2529	-0.535
Mof_N 	N 	0.7611	0.97231	0.8584	-0.155
Mof_N 	N 	0.6481	0.98378	0.9214	-0.176
Mof_N 	N 	0.5111	0.95855	0.8076	-0.212
Mof_C 	C 	0.8747	0.14376	0.1025	0.34
Mof_C 	C 	0.9183	0.22038	0.109	0.075
Mof_C 	C 	0.8279	0.27315	0.1439	-0.174
Mof_H 	H 	0.7341	0.2614	0.1576	0.092
Mof_C 	C 	0.8763	0.34289	0.1584	0.186
Mof_H 	H 	0.8144	0.378	0.1802	-0.033
Mof_C 	C 	0.0174	0.36092	0.1406	-0.28
Mof_C 	C 	0.1033	0.30868	0.0976	0.143
Mof_H 	H 	0.1951	0.3207	0.0796	-0.026
Mof_C 	C 	0.0543	0.23923	0.0811	-0.23
Mof_H 	H 	0.1127	0.2046	0.0511	0.096
Mof_C 	C 	0.0841	0.43374	0.1892	0.402
Mof_C 	C 	0.6958	0.9397	0.7032	0.019
Mof_H 	H 	0.7475	0.9254	0.6295	0.052
Mof_C 	C 	0.5392	0.9308	0.6714	0.028
Mof_H 	H 	0.465	0.9093	0.5722	0.012
Mof_Zn	Zn	0.69874	0.47034	0.66349	1.197
Mof_O 	O 	0.9421	0.39765	0.5353	-0.44
Mof_O 	O 	0.7709	0.37367	0.6654	-0.469
Mof_O 	O 	0.2143	0.05157	0.6736	-0.499
Mof_O 	O 	0.017	0.02262	0.7529	-0.536
Mof_N 	N 	0.7611	0.52769	0.3584	-0.183
Mof_N 	N 	0.6481	0.51622	0.4214	-0.212
Mof_N 	N 	0.5111	0.54145	0.3076	-0.231
Mof_C 	C 	0.8747	0.35624	0.6025	0.345
Mof_C 	C 	0.9183	0.27962	0.609	0.081
Mof_C 	C 	0.8279	0.22685	0.6439	-0.159
Mof_H 	H 	0.7341	0.2386	0.6576	0.102
Mof_C 	C 	0.8763	0.15711	0.6584	0.187
Mof_H 	H 	0.8144	0.122	0.6802	-0.023
Mof_C 	C 	0.0174	0.13908	0.6406	-0.26
Mof_C 	C 	0.1033	0.19132	0.5976	0.144
Mof_H 	H 	0.1951	0.1793	0.5796	-0.011
Mof_C 	C 	0.0543	0.26077	0.5811	-0.212
Mof_H 	H 	0.1127	0.2954	0.5511	0.105
Mof_C 	C 	0.0841	0.06626	0.6892	0.409
Mof_C 	C 	0.6958	0.5603	0.2032	0.007
Mof_H 	H 	0.7475	0.5746	0.1295	0.031
Mof_C 	C 	0.5392	0.5692	0.1714	0.013
Mof_H 	H 	0.465	0.5907	0.0722	-0.01
Mof_Zn	Zn	0.30126	0.97034	0.83651	1.22
Mof_O 	O 	0.0579	0.89765	0.9647	-0.473
Mof_O 	O 	0.2291	0.87367	0.8346	-0.494
Mof_O 	O 	0.7857	0.55157	0.8264	-0.431
Mof_O 	O 	0.983	0.52262	0.7471	-0.437
Mof_N 	N 	0.2389	0.02769	0.1416	-0.22
Mof_N 	N 	0.3519	0.01622	0.0786	-0.248
Mof_N 	N 	0.4889	0.04145	0.1924	-0.245
Mof_C 	C 	0.1253	0.85624	0.8975	0.447
Mof_C 	C 	0.0817	0.77962	0.891	-0.242
Mof_C 	C 	0.1721	0.72685	0.8561	0.146
Mof_H 	H 	0.2659	0.7386	0.8424	-0.002
Mof_C 	C 	0.1237	0.65711	0.8416	-0.209
Mof_H 	H 	0.1856	0.622	0.8198	0.104
Mof_C 	C 	0.9826	0.63908	0.8594	0.087
Mof_C 	C 	0.8967	0.69132	0.9024	-0.163
Mof_H 	H 	0.8049	0.6793	0.9204	0.111
Mof_C 	C 	0.9457	0.76077	0.9189	0.189
Mof_H 	H 	0.8873	0.7954	0.9489	0
Mof_C 	C 	0.9159	0.56626	0.8108	0.303
Mof_C 	C 	0.3042	0.0603	0.2968	-0.008
Mof_H 	H 	0.2525	0.0746	0.3705	0.027
Mof_C 	C 	0.4608	0.0692	0.3286	0.01
Mof_H 	H 	0.535	0.0907	0.4278	0.007
Mof_Zn	Zn	2.29495e-33	0.5	0.5	1.206
Mof_Zn	Zn	-0	0	-0	1.169
_end
