data_functionalizedCrystal
_audit_creation_method	'EQeq! by Chris Wilmer'
_symmetry_space_group_name_H-M	'P1'
_symmetry_Int_Tables_number	1
_symmetry_cell_setting	triclinic
loop_
_symmetry_equiv_pos_as_xyz
  x,y,z
_cell_length_a	22.466
_cell_length_b	22.466
_cell_length_c	13.387
_cell_angle_alpha	90
_cell_angle_beta	90
_cell_angle_gamma	90
loop_
_atom_site_label
_atom_site_type_symbol
_atom_site_fract_x
_atom_site_fract_y
_atom_site_fract_z
_atom_site_charge
Mof_Ni	Ni	0.18273	0.0658	0.72406	1.05
Mof_C 	C 	0.08444	0.36697	0.2658	0.096
Mof_C 	C 	0.09641	0.42715	0.2628	-0.086
Mof_H 	H 	0.0754	0.4514	0.219	0.066
Mof_C 	C 	0.13938	0.45192	0.3245	-0.066
Mof_H 	H 	0.1469	0.4926	0.3227	0.056
Mof_C 	C 	0.17094	0.41535	0.3889	0.079
Mof_C 	C 	0.16136	0.35497	0.3883	-0.062
Mof_H 	H 	0.1843	0.3303	0.4287	0.045
Mof_C 	C 	0.11823	0.33108	0.3284	-0.091
Mof_H 	H 	0.1114	0.2903	0.3295	0.071
Mof_C 	C 	0.23118	0.41719	0.5439	0.106
Mof_H 	H 	0.217	0.3813	0.5691	-0.034
Mof_C 	C 	0.2789	0.49827	0.5277	0.007
Mof_H 	H 	0.3044	0.5299	0.5406	0.029
Mof_C 	C 	0.2442	0.49292	0.4455	-0.001
Mof_H 	H 	0.242	0.5194	0.3922	0.032
Mof_C 	C 	0.95866	0.3998	0.2766	-0.087
Mof_H 	H 	0.979	0.4009	0.3371	0.07
Mof_C 	C 	0.90368	0.427	0.2681	-0.07
Mof_H 	H 	0.8874	0.4465	0.3229	0.061
Mof_C 	C 	0.87285	0.42556	0.1792	0.084
Mof_C 	C 	0.89714	0.3967	0.097	-0.073
Mof_H 	H 	0.8763	0.3947	0.0371	0.056
Mof_C 	C 	0.9529	0.37091	0.1057	-0.086
Mof_H 	H 	0.9702	0.3531	0.0501	0.063
Mof_C 	C 	0.98337	0.37113	0.1958	0.094
Mof_C 	C 	0.76654	0.42713	0.1254	0.001
Mof_H 	H 	0.7656	0.3923	0.0878	0.03
Mof_C 	C 	0.72092	0.46353	0.1446	0.005
Mof_H 	H 	0.682	0.4575	0.1232	0.018
Mof_C 	C 	0.79647	0.50215	0.2159	0.103
Mof_H 	H 	0.821	0.5275	0.2524	-0.015
Mof_C 	C 	0.00824	0.24665	0.1337	-0.093
Mof_H 	H 	0.9709	0.2511	0.1628	0.065
Mof_C 	C 	0.02	0.19652	0.0754	-0.063
Mof_H 	H 	0.9908	0.1678	0.0654	0.055
Mof_C 	C 	0.07554	0.19002	0.0328	0.077
Mof_C 	C 	0.11893	0.23155	0.0501	-0.072
Mof_H 	H 	0.1569	0.226	0.0239	0.045
Mof_C 	C 	0.10676	0.28179	0.1065	-0.09
Mof_H 	H 	0.136	0.3105	0.116	0.068
Mof_C 	C 	0.05072	0.28935	0.1489	0.099
Mof_C 	C 	0.13007	0.13833	0.8978	0.095
Mof_H 	H 	0.1554	0.1699	0.8834	-0.045
Mof_C 	C 	0.0601	0.08611	0.9681	0.004
Mof_H 	H 	0.0289	0.0738	0.0088	0.031
Mof_C 	C 	0.08711	0.05384	0.894	0.009
Mof_H 	H 	0.0772	0.0151	0.8761	0.026
Mof_C 	C 	0.09312	0.03983	0.6307	0.291
Mof_C 	C 	0.04476	0.01926	0.5645	-0.058
Mof_C 	C 	0.03716	0.95874	0.5457	-0.029
Mof_H 	H 	0.062	0.931	0.5761	0.051
Mof_C 	C 	0.00752	0.06013	0.5184	-0.026
Mof_H 	H 	0.0126	0.1006	0.5306	0.054
Mof_N 	N 	0.03897	0.34148	0.205	-0.155
Mof_N 	N 	0.21306	0.44093	0.4564	-0.138
Mof_N 	N 	0.27074	0.44992	0.5894	-0.236
Mof_N 	N 	0.81498	0.45138	0.172	-0.137
Mof_N 	N 	0.73985	0.51126	0.2008	-0.248
Mof_N 	N 	0.08812	0.13977	0.96998	-0.137
Mof_N 	N 	0.13087	0.08722	0.8503	-0.236
Mof_O 	O 	0.10732	0.09384	0.6341	-0.382
Mof_O 	O 	0.12131	0.00158	0.68279	-0.383
Mof_Ni	Ni	0.31727	0.4342	0.72406	1.051
Mof_C 	C 	0.41556	0.13303	0.2658	0.096
Mof_C 	C 	0.40359	0.07285	0.2628	-0.085
Mof_H 	H 	0.4246	0.0486	0.219	0.067
Mof_C 	C 	0.36062	0.04808	0.3245	-0.065
Mof_H 	H 	0.3531	0.0074	0.3227	0.057
Mof_C 	C 	0.32906	0.08465	0.3889	0.08
Mof_C 	C 	0.33864	0.14503	0.3883	-0.061
Mof_H 	H 	0.3157	0.1697	0.4287	0.046
Mof_C 	C 	0.38177	0.16892	0.3284	-0.09
Mof_H 	H 	0.3886	0.2097	0.3295	0.071
Mof_C 	C 	0.26882	0.08281	0.5439	0.106
Mof_H 	H 	0.283	0.1187	0.5691	-0.034
Mof_C 	C 	0.2211	0.00173	0.5277	0.007
Mof_H 	H 	0.1956	0.9701	0.5406	0.028
Mof_C 	C 	0.2558	0.00708	0.4455	-0
Mof_H 	H 	0.258	0.9806	0.3922	0.032
Mof_C 	C 	0.54134	0.1002	0.2766	-0.087
Mof_H 	H 	0.521	0.0991	0.3371	0.07
Mof_C 	C 	0.59632	0.073	0.2681	-0.07
Mof_H 	H 	0.6126	0.0535	0.3229	0.061
Mof_C 	C 	0.62715	0.07444	0.1792	0.084
Mof_C 	C 	0.60286	0.1033	0.097	-0.072
Mof_H 	H 	0.6237	0.1053	0.0371	0.055
Mof_C 	C 	0.5471	0.12909	0.1057	-0.087
Mof_H 	H 	0.5298	0.1469	0.0501	0.063
Mof_C 	C 	0.51663	0.12887	0.1958	0.094
Mof_C 	C 	0.73346	0.07287	0.1254	0.001
Mof_H 	H 	0.7344	0.1077	0.0878	0.03
Mof_C 	C 	0.77908	0.03647	0.1446	0.005
Mof_H 	H 	0.818	0.0425	0.1232	0.018
Mof_C 	C 	0.70353	0.99785	0.2159	0.103
Mof_H 	H 	0.679	0.9725	0.2524	-0.015
Mof_C 	C 	0.49176	0.25335	0.1337	-0.093
Mof_H 	H 	0.5291	0.2489	0.1628	0.065
Mof_C 	C 	0.48	0.30348	0.0754	-0.064
Mof_H 	H 	0.5092	0.3322	0.0654	0.056
Mof_C 	C 	0.42446	0.30998	0.0328	0.077
Mof_C 	C 	0.38107	0.26845	0.0501	-0.072
Mof_H 	H 	0.3431	0.274	0.0239	0.045
Mof_C 	C 	0.39324	0.21821	0.1065	-0.09
Mof_H 	H 	0.364	0.1895	0.116	0.068
Mof_C 	C 	0.44928	0.21065	0.1489	0.099
Mof_C 	C 	0.36993	0.36167	0.8978	0.095
Mof_H 	H 	0.3446	0.3301	0.8834	-0.045
Mof_C 	C 	0.4399	0.41389	0.9681	0.004
Mof_H 	H 	0.4711	0.4262	0.0088	0.031
Mof_C 	C 	0.41289	0.44616	0.894	0.009
Mof_H 	H 	0.4228	0.4849	0.8761	0.026
Mof_C 	C 	0.40688	0.46017	0.6307	0.291
Mof_C 	C 	0.45524	0.48074	0.5645	-0.059
Mof_C 	C 	0.46284	0.54126	0.5457	-0.027
Mof_H 	H 	0.438	0.569	0.5761	0.051
Mof_C 	C 	0.49248	0.43987	0.5184	-0.027
Mof_H 	H 	0.4874	0.3994	0.5306	0.054
Mof_N 	N 	0.46103	0.15852	0.205	-0.155
Mof_N 	N 	0.28694	0.05907	0.4564	-0.138
Mof_N 	N 	0.22926	0.05008	0.5894	-0.236
Mof_N 	N 	0.68502	0.04862	0.172	-0.137
Mof_N 	N 	0.76015	0.98874	0.2008	-0.247
Mof_N 	N 	0.41188	0.36023	0.96998	-0.137
Mof_N 	N 	0.36913	0.41278	0.8503	-0.236
Mof_O 	O 	0.39268	0.40616	0.6341	-0.382
Mof_O 	O 	0.37869	0.49842	0.68279	-0.384
Mof_Ni	Ni	0.81727	0.9342	0.27594	1.051
Mof_C 	C 	0.91556	0.63303	0.7342	0.097
Mof_C 	C 	0.90359	0.57285	0.7372	-0.085
Mof_H 	H 	0.9246	0.5486	0.781	0.067
Mof_C 	C 	0.86062	0.54808	0.6755	-0.065
Mof_H 	H 	0.8531	0.5074	0.6773	0.057
Mof_C 	C 	0.82906	0.58465	0.6111	0.08
Mof_C 	C 	0.83864	0.64503	0.6117	-0.061
Mof_H 	H 	0.8157	0.6697	0.5713	0.046
Mof_C 	C 	0.88177	0.66892	0.6716	-0.09
Mof_H 	H 	0.8886	0.7097	0.6705	0.071
Mof_C 	C 	0.76882	0.58281	0.4561	0.106
Mof_H 	H 	0.783	0.6187	0.4309	-0.034
Mof_C 	C 	0.7211	0.50173	0.4723	0.007
Mof_H 	H 	0.6956	0.4701	0.4594	0.029
Mof_C 	C 	0.7558	0.50708	0.5545	-0.001
Mof_H 	H 	0.758	0.4806	0.6078	0.032
Mof_C 	C 	0.04134	0.6002	0.7234	-0.087
Mof_H 	H 	0.021	0.5991	0.6629	0.07
Mof_C 	C 	0.09632	0.573	0.7319	-0.07
Mof_H 	H 	0.1126	0.5535	0.6771	0.061
Mof_C 	C 	0.12715	0.57444	0.8208	0.084
Mof_C 	C 	0.10286	0.6033	0.903	-0.073
Mof_H 	H 	0.1237	0.6053	0.9629	0.056
Mof_C 	C 	0.0471	0.62909	0.8943	-0.086
Mof_H 	H 	0.0298	0.6469	0.9499	0.063
Mof_C 	C 	0.01663	0.62887	0.8042	0.094
Mof_C 	C 	0.23346	0.57287	0.8746	0.001
Mof_H 	H 	0.2344	0.6077	0.9122	0.03
Mof_C 	C 	0.27908	0.53647	0.8554	0.005
Mof_H 	H 	0.318	0.5425	0.8768	0.018
Mof_C 	C 	0.20353	0.49785	0.7841	0.103
Mof_H 	H 	0.179	0.4725	0.7476	-0.015
Mof_C 	C 	0.99176	0.75335	0.8663	-0.093
Mof_H 	H 	0.0291	0.7489	0.8372	0.065
Mof_C 	C 	0.98	0.80348	0.9246	-0.063
Mof_H 	H 	0.0092	0.8322	0.9346	0.055
Mof_C 	C 	0.92446	0.80998	0.9672	0.077
Mof_C 	C 	0.88107	0.76845	0.9499	-0.072
Mof_H 	H 	0.8431	0.774	0.9761	0.045
Mof_C 	C 	0.89324	0.71821	0.8935	-0.09
Mof_H 	H 	0.864	0.6895	0.884	0.068
Mof_C 	C 	0.94928	0.71065	0.8511	0.099
Mof_C 	C 	0.86993	0.86167	0.1022	0.095
Mof_H 	H 	0.8446	0.8301	0.1166	-0.045
Mof_C 	C 	0.9399	0.91389	0.0319	0.004
Mof_H 	H 	0.9711	0.9262	0.9912	0.031
Mof_C 	C 	0.91289	0.94616	0.106	0.009
Mof_H 	H 	0.9228	0.9849	0.1239	0.026
Mof_C 	C 	0.90688	0.96017	0.3693	0.291
Mof_C 	C 	0.95524	0.98074	0.4355	-0.058
Mof_C 	C 	0.96284	0.04126	0.4543	-0.029
Mof_H 	H 	0.938	0.069	0.4239	0.051
Mof_C 	C 	0.99248	0.93987	0.4816	-0.026
Mof_H 	H 	0.9874	0.8994	0.4694	0.054
Mof_N 	N 	0.96103	0.65852	0.795	-0.155
Mof_N 	N 	0.78694	0.55907	0.5436	-0.138
Mof_N 	N 	0.72926	0.55008	0.4106	-0.236
Mof_N 	N 	0.18502	0.54862	0.828	-0.137
Mof_N 	N 	0.26015	0.48874	0.7992	-0.248
Mof_N 	N 	0.91188	0.86023	0.03002	-0.137
Mof_N 	N 	0.86913	0.91278	0.1497	-0.236
Mof_O 	O 	0.89268	0.90616	0.3659	-0.382
Mof_O 	O 	0.87869	0.99842	0.31721	-0.383
Mof_Ni	Ni	0.68273	0.5658	0.27594	1.051
Mof_C 	C 	0.58444	0.86697	0.7342	0.096
Mof_C 	C 	0.59641	0.92715	0.7372	-0.085
Mof_H 	H 	0.5754	0.9514	0.781	0.067
Mof_C 	C 	0.63938	0.95192	0.6755	-0.065
Mof_H 	H 	0.6469	0.9926	0.6773	0.057
Mof_C 	C 	0.67094	0.91535	0.6111	0.08
Mof_C 	C 	0.66136	0.85497	0.6117	-0.061
Mof_H 	H 	0.6843	0.8303	0.5713	0.046
Mof_C 	C 	0.61823	0.83108	0.6716	-0.09
Mof_H 	H 	0.6114	0.7903	0.6705	0.071
Mof_C 	C 	0.73118	0.91719	0.4561	0.106
Mof_H 	H 	0.717	0.8813	0.4309	-0.034
Mof_C 	C 	0.7789	0.99827	0.4723	0.007
Mof_H 	H 	0.8044	0.0299	0.4594	0.028
Mof_C 	C 	0.7442	0.99292	0.5545	-0
Mof_H 	H 	0.742	0.0194	0.6078	0.032
Mof_C 	C 	0.45866	0.8998	0.7234	-0.087
Mof_H 	H 	0.479	0.9009	0.6629	0.07
Mof_C 	C 	0.40368	0.927	0.7319	-0.07
Mof_H 	H 	0.3874	0.9465	0.6771	0.061
Mof_C 	C 	0.37285	0.92556	0.8208	0.084
Mof_C 	C 	0.39714	0.8967	0.903	-0.072
Mof_H 	H 	0.3763	0.8947	0.9629	0.055
Mof_C 	C 	0.4529	0.87091	0.8943	-0.087
Mof_H 	H 	0.4702	0.8531	0.9499	0.063
Mof_C 	C 	0.48337	0.87113	0.8042	0.094
Mof_C 	C 	0.26654	0.92713	0.8746	0.001
Mof_H 	H 	0.2656	0.8923	0.9122	0.03
Mof_C 	C 	0.22092	0.96353	0.8554	0.005
Mof_H 	H 	0.182	0.9575	0.8768	0.018
Mof_C 	C 	0.29647	0.00215	0.7841	0.103
Mof_H 	H 	0.321	0.0275	0.7476	-0.015
Mof_C 	C 	0.50824	0.74665	0.8663	-0.093
Mof_H 	H 	0.4709	0.7511	0.8372	0.065
Mof_C 	C 	0.52	0.69652	0.9246	-0.064
Mof_H 	H 	0.4908	0.6678	0.9346	0.056
Mof_C 	C 	0.57554	0.69002	0.9672	0.077
Mof_C 	C 	0.61893	0.73155	0.9499	-0.072
Mof_H 	H 	0.6569	0.726	0.9761	0.045
Mof_C 	C 	0.60676	0.78179	0.8935	-0.09
Mof_H 	H 	0.636	0.8105	0.884	0.068
Mof_C 	C 	0.55072	0.78935	0.8511	0.099
Mof_C 	C 	0.63007	0.63833	0.1022	0.095
Mof_H 	H 	0.6554	0.6699	0.1166	-0.045
Mof_C 	C 	0.5601	0.58611	0.0319	0.004
Mof_H 	H 	0.5289	0.5738	0.9912	0.031
Mof_C 	C 	0.58711	0.55384	0.106	0.009
Mof_H 	H 	0.5772	0.5151	0.1239	0.026
Mof_C 	C 	0.59312	0.53983	0.3693	0.291
Mof_C 	C 	0.54476	0.51926	0.4355	-0.059
Mof_C 	C 	0.53716	0.45874	0.4543	-0.027
Mof_H 	H 	0.562	0.431	0.4239	0.051
Mof_C 	C 	0.50752	0.56013	0.4816	-0.027
Mof_H 	H 	0.5126	0.6006	0.4694	0.054
Mof_N 	N 	0.53897	0.84148	0.795	-0.155
Mof_N 	N 	0.71306	0.94093	0.5436	-0.138
Mof_N 	N 	0.77074	0.94992	0.4106	-0.236
Mof_N 	N 	0.31498	0.95138	0.828	-0.137
Mof_N 	N 	0.23985	0.01126	0.7992	-0.247
Mof_N 	N 	0.58812	0.63977	0.03002	-0.137
Mof_N 	N 	0.63087	0.58722	0.1497	-0.236
Mof_O 	O 	0.60732	0.59384	0.3659	-0.382
Mof_O 	O 	0.62131	0.50158	0.31721	-0.384
Mof_Ni	Ni	0.4342	0.18273	0.72406	1.051
Mof_C 	C 	0.13303	0.08444	0.2658	0.097
Mof_C 	C 	0.07285	0.09641	0.2628	-0.085
Mof_H 	H 	0.0486	0.0754	0.219	0.067
Mof_C 	C 	0.04808	0.13938	0.3245	-0.065
Mof_H 	H 	0.0074	0.1469	0.3227	0.057
Mof_C 	C 	0.08465	0.17094	0.3889	0.08
Mof_C 	C 	0.14503	0.16136	0.3883	-0.061
Mof_H 	H 	0.1697	0.1843	0.4287	0.046
Mof_C 	C 	0.16892	0.11823	0.3284	-0.09
Mof_H 	H 	0.2097	0.1114	0.3295	0.071
Mof_C 	C 	0.08281	0.23118	0.5439	0.106
Mof_H 	H 	0.1187	0.217	0.5691	-0.034
Mof_C 	C 	0.00173	0.2789	0.5277	0.007
Mof_H 	H 	0.9701	0.3044	0.5406	0.029
Mof_C 	C 	0.00708	0.2442	0.4455	0
Mof_H 	H 	0.9806	0.242	0.3922	0.032
Mof_C 	C 	0.1002	0.95866	0.2766	-0.087
Mof_H 	H 	0.0991	0.979	0.3371	0.07
Mof_C 	C 	0.073	0.90368	0.2681	-0.07
Mof_H 	H 	0.0535	0.8874	0.3229	0.061
Mof_C 	C 	0.07444	0.87285	0.1792	0.084
Mof_C 	C 	0.1033	0.89714	0.097	-0.073
Mof_H 	H 	0.1053	0.8763	0.0371	0.056
Mof_C 	C 	0.12909	0.9529	0.1057	-0.086
Mof_H 	H 	0.1469	0.9702	0.0501	0.062
Mof_C 	C 	0.12887	0.98337	0.1958	0.093
Mof_C 	C 	0.07287	0.76654	0.1254	0.001
Mof_H 	H 	0.1077	0.7656	0.0878	0.03
Mof_C 	C 	0.03647	0.72092	0.1446	0.005
Mof_H 	H 	0.0425	0.682	0.1232	0.018
Mof_C 	C 	0.99785	0.79647	0.2159	0.103
Mof_H 	H 	0.9725	0.821	0.2524	-0.015
Mof_C 	C 	0.25335	0.00824	0.1337	-0.092
Mof_H 	H 	0.2489	0.9709	0.1628	0.065
Mof_C 	C 	0.30348	0.02	0.0754	-0.064
Mof_H 	H 	0.3322	0.9908	0.0654	0.055
Mof_C 	C 	0.30998	0.07554	0.0328	0.077
Mof_C 	C 	0.26845	0.11893	0.0501	-0.072
Mof_H 	H 	0.274	0.1569	0.0239	0.045
Mof_C 	C 	0.21821	0.10676	0.1065	-0.09
Mof_H 	H 	0.1895	0.136	0.116	0.067
Mof_C 	C 	0.21065	0.05072	0.1489	0.099
Mof_C 	C 	0.36167	0.13007	0.8978	0.095
Mof_H 	H 	0.3301	0.1554	0.8834	-0.045
Mof_C 	C 	0.41389	0.0601	0.9681	0.004
Mof_H 	H 	0.4262	0.0289	0.0088	0.031
Mof_C 	C 	0.44616	0.08711	0.894	0.009
Mof_H 	H 	0.4849	0.0772	0.8761	0.026
Mof_C 	C 	0.46017	0.09312	0.6307	0.291
Mof_C 	C 	0.48074	0.04476	0.5645	-0.059
Mof_C 	C 	0.54126	0.03716	0.5457	-0.027
Mof_H 	H 	0.569	0.062	0.5761	0.051
Mof_C 	C 	0.43987	0.00752	0.5184	-0.027
Mof_H 	H 	0.3994	0.0126	0.5306	0.054
Mof_N 	N 	0.15852	0.03897	0.205	-0.155
Mof_N 	N 	0.05907	0.21306	0.4564	-0.138
Mof_N 	N 	0.05008	0.27074	0.5894	-0.236
Mof_N 	N 	0.04862	0.81498	0.172	-0.137
Mof_N 	N 	0.98874	0.73985	0.2008	-0.248
Mof_N 	N 	0.36023	0.08812	0.96998	-0.137
Mof_N 	N 	0.41278	0.13087	0.8503	-0.236
Mof_O 	O 	0.40616	0.10732	0.6341	-0.382
Mof_O 	O 	0.49842	0.12131	0.68279	-0.384
Mof_Ni	Ni	0.0658	0.31727	0.72406	1.051
Mof_C 	C 	0.36697	0.41556	0.2658	0.097
Mof_C 	C 	0.42715	0.40359	0.2628	-0.085
Mof_H 	H 	0.4514	0.4246	0.219	0.067
Mof_C 	C 	0.45192	0.36062	0.3245	-0.065
Mof_H 	H 	0.4926	0.3531	0.3227	0.057
Mof_C 	C 	0.41535	0.32906	0.3889	0.08
Mof_C 	C 	0.35497	0.33864	0.3883	-0.061
Mof_H 	H 	0.3303	0.3157	0.4287	0.046
Mof_C 	C 	0.33108	0.38177	0.3284	-0.09
Mof_H 	H 	0.2903	0.3886	0.3295	0.071
Mof_C 	C 	0.41719	0.26882	0.5439	0.106
Mof_H 	H 	0.3813	0.283	0.5691	-0.034
Mof_C 	C 	0.49827	0.2211	0.5277	0.007
Mof_H 	H 	0.5299	0.1956	0.5406	0.029
Mof_C 	C 	0.49292	0.2558	0.4455	-0.001
Mof_H 	H 	0.5194	0.258	0.3922	0.032
Mof_C 	C 	0.3998	0.54134	0.2766	-0.087
Mof_H 	H 	0.4009	0.521	0.3371	0.07
Mof_C 	C 	0.427	0.59632	0.2681	-0.07
Mof_H 	H 	0.4465	0.6126	0.3229	0.061
Mof_C 	C 	0.42556	0.62715	0.1792	0.084
Mof_C 	C 	0.3967	0.60286	0.097	-0.072
Mof_H 	H 	0.3947	0.6237	0.0371	0.055
Mof_C 	C 	0.37091	0.5471	0.1057	-0.087
Mof_H 	H 	0.3531	0.5298	0.0501	0.063
Mof_C 	C 	0.37113	0.51663	0.1958	0.094
Mof_C 	C 	0.42713	0.73346	0.1254	0.001
Mof_H 	H 	0.3923	0.7344	0.0878	0.03
Mof_C 	C 	0.46353	0.77908	0.1446	0.005
Mof_H 	H 	0.4575	0.818	0.1232	0.018
Mof_C 	C 	0.50215	0.70353	0.2159	0.103
Mof_H 	H 	0.5275	0.679	0.2524	-0.015
Mof_C 	C 	0.24665	0.49176	0.1337	-0.093
Mof_H 	H 	0.2511	0.5291	0.1628	0.065
Mof_C 	C 	0.19652	0.48	0.0754	-0.064
Mof_H 	H 	0.1678	0.5092	0.0654	0.056
Mof_C 	C 	0.19002	0.42446	0.0328	0.077
Mof_C 	C 	0.23155	0.38107	0.0501	-0.072
Mof_H 	H 	0.226	0.3431	0.0239	0.045
Mof_C 	C 	0.28179	0.39324	0.1065	-0.09
Mof_H 	H 	0.3105	0.364	0.116	0.068
Mof_C 	C 	0.28935	0.44928	0.1489	0.099
Mof_C 	C 	0.13833	0.36993	0.8978	0.095
Mof_H 	H 	0.1699	0.3446	0.8834	-0.045
Mof_C 	C 	0.08611	0.4399	0.9681	0.004
Mof_H 	H 	0.0738	0.4711	0.0088	0.031
Mof_C 	C 	0.05384	0.41289	0.894	0.009
Mof_H 	H 	0.0151	0.4228	0.8761	0.026
Mof_C 	C 	0.03983	0.40688	0.6307	0.291
Mof_C 	C 	0.01926	0.45524	0.5645	-0.059
Mof_C 	C 	0.95874	0.46284	0.5457	-0.027
Mof_H 	H 	0.931	0.438	0.5761	0.051
Mof_C 	C 	0.06013	0.49248	0.5184	-0.027
Mof_H 	H 	0.1006	0.4874	0.5306	0.054
Mof_N 	N 	0.34148	0.46103	0.205	-0.155
Mof_N 	N 	0.44093	0.28694	0.4564	-0.138
Mof_N 	N 	0.44992	0.22926	0.5894	-0.236
Mof_N 	N 	0.45138	0.68502	0.172	-0.137
Mof_N 	N 	0.51126	0.76015	0.2008	-0.248
Mof_N 	N 	0.13977	0.41188	0.96998	-0.137
Mof_N 	N 	0.08722	0.36913	0.8503	-0.236
Mof_O 	O 	0.09384	0.39268	0.6341	-0.382
Mof_O 	O 	0.00158	0.37869	0.68279	-0.384
Mof_Ni	Ni	0.5658	0.81727	0.27594	1.051
Mof_C 	C 	0.86697	0.91556	0.7342	0.097
Mof_C 	C 	0.92715	0.90359	0.7372	-0.085
Mof_H 	H 	0.9514	0.9246	0.781	0.067
Mof_C 	C 	0.95192	0.86062	0.6755	-0.065
Mof_H 	H 	0.9926	0.8531	0.6773	0.057
Mof_C 	C 	0.91535	0.82906	0.6111	0.08
Mof_C 	C 	0.85497	0.83864	0.6117	-0.061
Mof_H 	H 	0.8303	0.8157	0.5713	0.046
Mof_C 	C 	0.83108	0.88177	0.6716	-0.09
Mof_H 	H 	0.7903	0.8886	0.6705	0.071
Mof_C 	C 	0.91719	0.76882	0.4561	0.106
Mof_H 	H 	0.8813	0.783	0.4309	-0.034
Mof_C 	C 	0.99827	0.7211	0.4723	0.007
Mof_H 	H 	0.0299	0.6956	0.4594	0.029
Mof_C 	C 	0.99292	0.7558	0.5545	0
Mof_H 	H 	0.0194	0.758	0.6078	0.032
Mof_C 	C 	0.8998	0.04134	0.7234	-0.087
Mof_H 	H 	0.9009	0.021	0.6629	0.07
Mof_C 	C 	0.927	0.09632	0.7319	-0.07
Mof_H 	H 	0.9465	0.1126	0.6771	0.061
Mof_C 	C 	0.92556	0.12715	0.8208	0.084
Mof_C 	C 	0.8967	0.10286	0.903	-0.073
Mof_H 	H 	0.8947	0.1237	0.9629	0.056
Mof_C 	C 	0.87091	0.0471	0.8943	-0.086
Mof_H 	H 	0.8531	0.0298	0.9499	0.062
Mof_C 	C 	0.87113	0.01663	0.8042	0.093
Mof_C 	C 	0.92713	0.23346	0.8746	0.001
Mof_H 	H 	0.8923	0.2344	0.9122	0.03
Mof_C 	C 	0.96353	0.27908	0.8554	0.005
Mof_H 	H 	0.9575	0.318	0.8768	0.018
Mof_C 	C 	0.00215	0.20353	0.7841	0.103
Mof_H 	H 	0.0275	0.179	0.7476	-0.015
Mof_C 	C 	0.74665	0.99176	0.8663	-0.092
Mof_H 	H 	0.7511	0.0291	0.8372	0.065
Mof_C 	C 	0.69652	0.98	0.9246	-0.064
Mof_H 	H 	0.6678	0.0092	0.9346	0.055
Mof_C 	C 	0.69002	0.92446	0.9672	0.077
Mof_C 	C 	0.73155	0.88107	0.9499	-0.072
Mof_H 	H 	0.726	0.8431	0.9761	0.045
Mof_C 	C 	0.78179	0.89324	0.8935	-0.09
Mof_H 	H 	0.8105	0.864	0.884	0.067
Mof_C 	C 	0.78935	0.94928	0.8511	0.099
Mof_C 	C 	0.63833	0.86993	0.1022	0.095
Mof_H 	H 	0.6699	0.8446	0.1166	-0.045
Mof_C 	C 	0.58611	0.9399	0.0319	0.004
Mof_H 	H 	0.5738	0.9711	0.9912	0.031
Mof_C 	C 	0.55384	0.91289	0.106	0.009
Mof_H 	H 	0.5151	0.9228	0.1239	0.026
Mof_C 	C 	0.53983	0.90688	0.3693	0.291
Mof_C 	C 	0.51926	0.95524	0.4355	-0.059
Mof_C 	C 	0.45874	0.96284	0.4543	-0.027
Mof_H 	H 	0.431	0.938	0.4239	0.051
Mof_C 	C 	0.56013	0.99248	0.4816	-0.027
Mof_H 	H 	0.6006	0.9874	0.4694	0.054
Mof_N 	N 	0.84148	0.96103	0.795	-0.155
Mof_N 	N 	0.94093	0.78694	0.5436	-0.138
Mof_N 	N 	0.94992	0.72926	0.4106	-0.236
Mof_N 	N 	0.95138	0.18502	0.828	-0.137
Mof_N 	N 	0.01126	0.26015	0.7992	-0.248
Mof_N 	N 	0.63977	0.91188	0.03002	-0.137
Mof_N 	N 	0.58722	0.86913	0.1497	-0.236
Mof_O 	O 	0.59384	0.89268	0.3659	-0.382
Mof_O 	O 	0.50158	0.87869	0.31721	-0.384
Mof_Ni	Ni	0.9342	0.68273	0.27594	1.051
Mof_C 	C 	0.63303	0.58444	0.7342	0.097
Mof_C 	C 	0.57285	0.59641	0.7372	-0.085
Mof_H 	H 	0.5486	0.5754	0.781	0.067
Mof_C 	C 	0.54808	0.63938	0.6755	-0.065
Mof_H 	H 	0.5074	0.6469	0.6773	0.057
Mof_C 	C 	0.58465	0.67094	0.6111	0.08
Mof_C 	C 	0.64503	0.66136	0.6117	-0.061
Mof_H 	H 	0.6697	0.6843	0.5713	0.046
Mof_C 	C 	0.66892	0.61823	0.6716	-0.09
Mof_H 	H 	0.7097	0.6114	0.6705	0.071
Mof_C 	C 	0.58281	0.73118	0.4561	0.106
Mof_H 	H 	0.6187	0.717	0.4309	-0.034
Mof_C 	C 	0.50173	0.7789	0.4723	0.007
Mof_H 	H 	0.4701	0.8044	0.4594	0.029
Mof_C 	C 	0.50708	0.7442	0.5545	-0.001
Mof_H 	H 	0.4806	0.742	0.6078	0.032
Mof_C 	C 	0.6002	0.45866	0.7234	-0.087
Mof_H 	H 	0.5991	0.479	0.6629	0.07
Mof_C 	C 	0.573	0.40368	0.7319	-0.07
Mof_H 	H 	0.5535	0.3874	0.6771	0.061
Mof_C 	C 	0.57444	0.37285	0.8208	0.084
Mof_C 	C 	0.6033	0.39714	0.903	-0.072
Mof_H 	H 	0.6053	0.3763	0.9629	0.055
Mof_C 	C 	0.62909	0.4529	0.8943	-0.087
Mof_H 	H 	0.6469	0.4702	0.9499	0.063
Mof_C 	C 	0.62887	0.48337	0.8042	0.094
Mof_C 	C 	0.57287	0.26654	0.8746	0.001
Mof_H 	H 	0.6077	0.2656	0.9122	0.03
Mof_C 	C 	0.53647	0.22092	0.8554	0.005
Mof_H 	H 	0.5425	0.182	0.8768	0.018
Mof_C 	C 	0.49785	0.29647	0.7841	0.103
Mof_H 	H 	0.4725	0.321	0.7476	-0.015
Mof_C 	C 	0.75335	0.50824	0.8663	-0.093
Mof_H 	H 	0.7489	0.4709	0.8372	0.065
Mof_C 	C 	0.80348	0.52	0.9246	-0.064
Mof_H 	H 	0.8322	0.4908	0.9346	0.056
Mof_C 	C 	0.80998	0.57554	0.9672	0.077
Mof_C 	C 	0.76845	0.61893	0.9499	-0.072
Mof_H 	H 	0.774	0.6569	0.9761	0.045
Mof_C 	C 	0.71821	0.60676	0.8935	-0.09
Mof_H 	H 	0.6895	0.636	0.884	0.068
Mof_C 	C 	0.71065	0.55072	0.8511	0.099
Mof_C 	C 	0.86167	0.63007	0.1022	0.095
Mof_H 	H 	0.8301	0.6554	0.1166	-0.045
Mof_C 	C 	0.91389	0.5601	0.0319	0.004
Mof_H 	H 	0.9262	0.5289	0.9912	0.031
Mof_C 	C 	0.94616	0.58711	0.106	0.009
Mof_H 	H 	0.9849	0.5772	0.1239	0.026
Mof_C 	C 	0.96017	0.59312	0.3693	0.291
Mof_C 	C 	0.98074	0.54476	0.4355	-0.059
Mof_C 	C 	0.04126	0.53716	0.4543	-0.027
Mof_H 	H 	0.069	0.562	0.4239	0.051
Mof_C 	C 	0.93987	0.50752	0.4816	-0.027
Mof_H 	H 	0.8994	0.5126	0.4694	0.054
Mof_N 	N 	0.65852	0.53897	0.795	-0.155
Mof_N 	N 	0.55907	0.71306	0.5436	-0.138
Mof_N 	N 	0.55008	0.77074	0.4106	-0.236
Mof_N 	N 	0.54862	0.31498	0.828	-0.137
Mof_N 	N 	0.48874	0.23985	0.7992	-0.248
Mof_N 	N 	0.86023	0.58812	0.03002	-0.137
Mof_N 	N 	0.91278	0.63087	0.1497	-0.236
Mof_O 	O 	0.90616	0.60732	0.3659	-0.382
Mof_O 	O 	0.99842	0.62131	0.31721	-0.384
_end
