# CIF file generated by openbabel 3.1.0, see https://openbabel.org
data_I
_chemical_name_common 'image0'
_cell_length_a 10.4869
_cell_length_b 10.4798
_cell_length_c 6.3279
_cell_angle_alpha 90
_cell_angle_beta 115.431
_cell_angle_gamma 90
_space_group_name_H-M_alt 'P 1'
_space_group_name_Hall 'P 1'
loop_
    _symmetry_equiv_pos_as_xyz
    x,y,z
loop_
    _atom_site_label
    _atom_site_type_symbol
    _atom_site_fract_x
    _atom_site_fract_y
    _atom_site_fract_z
    _atom_site_occupancy
    C1       C        0.31540    0.20950    0.54640    1.000
    H1       H        0.39700    0.26390    0.58370    1.000
    H2       H        0.32500    0.16880    0.69020    1.000
    N1       N        0.31430    0.11120    0.38210    1.000
    H3       H        0.30120    0.14890    0.24650    1.000
    H4       H        0.24040    0.05900    0.35230    1.000
    C2       C        0.81540    0.70950    0.54640    1.000
    H5       H        0.89700    0.76390    0.58370    1.000
    H6       H        0.82500    0.66880    0.69020    1.000
    N2       N        0.81430    0.61120    0.38210    1.000
    H7       H        0.80120    0.64890    0.24650    1.000
    H8       H        0.74040    0.55900    0.35230    1.000
    C3       C        0.68460    0.20950    0.95360    1.000
    H9       H        0.60300    0.26390    0.91630    1.000
    H10      H        0.67500    0.16880    0.80980    1.000
    N3       N        0.68570    0.11120    0.11790    1.000
    H11      H        0.69880    0.14890    0.25350    1.000
    H12      H        0.75960    0.05900    0.14770    1.000
    C4       C        0.18460    0.70950    0.95360    1.000
    H13      H        0.10300    0.76390    0.91630    1.000
    H14      H        0.17500    0.66880    0.80980    1.000
    N4       N        0.18570    0.61120    0.11790    1.000
    H15      H        0.19880    0.64890    0.25350    1.000
    H16      H        0.25960    0.55900    0.14770    1.000
    C5       C        0.68460    0.79050    0.45360    1.000
    H17      H        0.60300    0.73610    0.41630    1.000
    H18      H        0.67500    0.83120    0.30980    1.000
    N5       N        0.68570    0.88880    0.61790    1.000
    H19      H        0.69880    0.85110    0.75350    1.000
    H20      H        0.75960    0.94100    0.64770    1.000
    C6       C        0.18460    0.29050    0.45360    1.000
    H21      H        0.10300    0.23610    0.41630    1.000
    H22      H        0.17500    0.33120    0.30980    1.000
    N6       N        0.18570    0.38880    0.61790    1.000
    H23      H        0.19880    0.35110    0.75350    1.000
    H24      H        0.25960    0.44100    0.64770    1.000
    C7       C        0.31540    0.79050    0.04640    1.000
    H25      H        0.39700    0.73610    0.08370    1.000
    H26      H        0.32500    0.83120    0.19020    1.000
    N7       N        0.31430    0.88880    0.88210    1.000
    H27      H        0.30120    0.85110    0.74650    1.000
    H28      H        0.24040    0.94100    0.85230    1.000
    C8       C        0.81540    0.29050    0.04640    1.000
    H29      H        0.89700    0.23610    0.08370    1.000
    H30      H        0.82500    0.33120    0.19020    1.000
    N8       N        0.81430    0.38880    0.88210    1.000
    H31      H        0.80120    0.35110    0.74650    1.000
    H32      H        0.74040    0.44100    0.85230    1.000
    Ag1      Ag       0.50000    0.00000    0.50000    1.000
    Ag2      Ag       0.00000    0.50000    0.50000    1.000
    Ag3      Ag       0.50000    0.00000    0.00000    1.000
    Ag4      Ag       0.00000    0.50000    0.00000    1.000
