# CIF file generated by openbabel 3.1.0, see https://openbabel.org
data_I
_chemical_name_common 'MIFPUO_clean'
_cell_length_a 13.846
_cell_length_b 16.954
_cell_length_c 16.954
_cell_angle_alpha 120
_cell_angle_beta 90
_cell_angle_gamma 90
_space_group_name_H-M_alt 'P 1'
_space_group_name_Hall 'P 1'
loop_
    _symmetry_equiv_pos_as_xyz
    x,y,z
loop_
    _atom_site_label
    _atom_site_type_symbol
    _atom_site_fract_x
    _atom_site_fract_y
    _atom_site_fract_z
    _atom_site_occupancy
    Ni1      Ni       0.39827    0.33333    0.66666    1.000
    Ni2      Ni       0.10173    0.33333    0.66666    1.000
    Ni3      Ni       0.60173    0.66667    0.33334    1.000
    Ni4      Ni       0.89827    0.66667    0.33334    1.000
    H1       H        0.11200    0.06680    0.49470    1.000
    H2       H        0.08760    0.78330    0.41870    1.000
    H3       H        0.84740    0.77720    0.21430    1.000
    H4       H        0.83640    0.89580    0.18350    1.000
    H5       H        0.94470    0.01550    0.24510    1.000
    H6       H        0.06390    0.02510    0.34640    1.000
    H7       H        0.11200    0.42790    0.93320    1.000
    H8       H        0.08760    0.63540    0.21670    1.000
    H9       H        0.84740    0.43710    0.22280    1.000
    H10      H        0.83640    0.28770    0.10420    1.000
    H11      H        0.94470    0.22960    0.98450    1.000
    H12      H        0.06390    0.32130    0.97490    1.000
    H13      H        0.11200    0.50530    0.57210    1.000
    H14      H        0.08760    0.58130    0.36460    1.000
    H15      H        0.84740    0.78570    0.56290    1.000
    H16      H        0.83640    0.81650    0.71230    1.000
    H17      H        0.94470    0.75490    0.77040    1.000
    H18      H        0.06390    0.65360    0.67870    1.000
    H19      H        0.38800    0.42790    0.49470    1.000
    H20      H        0.41240    0.63540    0.41870    1.000
    H21      H        0.65260    0.43710    0.21430    1.000
    H22      H        0.66360    0.28770    0.18350    1.000
    H23      H        0.55530    0.22960    0.24510    1.000
    H24      H        0.43610    0.32130    0.34640    1.000
    H25      H        0.38800    0.50530    0.93320    1.000
    H26      H        0.41240    0.58130    0.21670    1.000
    H27      H        0.65260    0.78570    0.22280    1.000
    H28      H        0.66360    0.81650    0.10420    1.000
    H29      H        0.55530    0.75490    0.98450    1.000
    H30      H        0.43610    0.65360    0.97490    1.000
    H31      H        0.38800    0.06680    0.57210    1.000
    H32      H        0.41240    0.78330    0.36460    1.000
    H33      H        0.65260    0.77720    0.56290    1.000
    H34      H        0.66360    0.89580    0.71230    1.000
    H35      H        0.55530    0.01550    0.77040    1.000
    H36      H        0.43610    0.02510    0.67870    1.000
    H37      H        0.88800    0.93320    0.50530    1.000
    H38      H        0.91240    0.21670    0.58130    1.000
    H39      H        0.15260    0.22280    0.78570    1.000
    H40      H        0.16360    0.10420    0.81650    1.000
    H41      H        0.05530    0.98450    0.75490    1.000
    H42      H        0.93610    0.97490    0.65360    1.000
    H43      H        0.88800    0.57210    0.06680    1.000
    H44      H        0.91240    0.36460    0.78330    1.000
    H45      H        0.15260    0.56290    0.77720    1.000
    H46      H        0.16360    0.71230    0.89580    1.000
    H47      H        0.05530    0.77040    0.01550    1.000
    H48      H        0.93610    0.67870    0.02510    1.000
    H49      H        0.88800    0.49470    0.42790    1.000
    H50      H        0.91240    0.41870    0.63540    1.000
    H51      H        0.15260    0.21430    0.43710    1.000
    H52      H        0.16360    0.18350    0.28770    1.000
    H53      H        0.05530    0.24510    0.22960    1.000
    H54      H        0.93610    0.34640    0.32130    1.000
    H55      H        0.61200    0.57210    0.50530    1.000
    H56      H        0.58760    0.36460    0.58130    1.000
    H57      H        0.34740    0.56290    0.78570    1.000
    H58      H        0.33640    0.71230    0.81650    1.000
    H59      H        0.44470    0.77040    0.75490    1.000
    H60      H        0.56390    0.67870    0.65360    1.000
    H61      H        0.61200    0.49470    0.06680    1.000
    H62      H        0.58760    0.41870    0.78330    1.000
    H63      H        0.34740    0.21430    0.77720    1.000
    H64      H        0.33640    0.18350    0.89580    1.000
    H65      H        0.44470    0.24510    0.01550    1.000
    H66      H        0.56390    0.34640    0.02510    1.000
    H67      H        0.61200    0.93320    0.42790    1.000
    H68      H        0.58760    0.21670    0.63540    1.000
    H69      H        0.34740    0.22280    0.43710    1.000
    H70      H        0.33640    0.10420    0.28770    1.000
    H71      H        0.44470    0.98450    0.22960    1.000
    H72      H        0.56390    0.97490    0.32130    1.000
    H73      H        0.25000    0.82990    0.41495    1.000
    H74      H        0.25000    0.58505    0.17010    1.000
    H75      H        0.25000    0.58505    0.41495    1.000
    H76      H        0.75000    0.17010    0.58505    1.000
    H77      H        0.75000    0.41495    0.82990    1.000
    H78      H        0.75000    0.41495    0.58505    1.000
    C1       C        0.16730    0.03534    0.49398    1.000
    C2       C        0.16885    0.94147    0.44627    1.000
    C3       C        0.05757    0.80940    0.38818    1.000
    C4       C        0.96150    0.83160    0.30136    1.000
    C5       C        0.88980    0.82620    0.24090    1.000
    C6       C        0.88450    0.89690    0.22230    1.000
    C7       C        0.94950    0.97010    0.26050    1.000
    C8       C        0.02100    0.97640    0.32070    1.000
    C9       C        0.02540    0.90660    0.34080    1.000
    C10      C        0.16730    0.45864    0.96466    1.000
    C11      C        0.16885    0.50480    0.05853    1.000
    C12      C        0.05757    0.57878    0.19060    1.000
    C13      C        0.96150    0.46976    0.16840    1.000
    C14      C        0.88980    0.41470    0.17380    1.000
    C15      C        0.88450    0.32540    0.10310    1.000
    C16      C        0.94950    0.29040    0.02990    1.000
    C17      C        0.02100    0.34430    0.02360    1.000
    C18      C        0.02540    0.43420    0.09340    1.000
    C19      C        0.16730    0.50602    0.54136    1.000
    C20      C        0.16885    0.55373    0.49520    1.000
    C21      C        0.05757    0.61182    0.42122    1.000
    C22      C        0.96150    0.69864    0.53024    1.000
    C23      C        0.88980    0.75910    0.58530    1.000
    C24      C        0.88450    0.77770    0.67460    1.000
    C25      C        0.94950    0.73950    0.70960    1.000
    C26      C        0.02100    0.67930    0.65570    1.000
    C27      C        0.02540    0.65920    0.56580    1.000
    C28      C        0.33270    0.45864    0.49398    1.000
    C29      C        0.33115    0.50480    0.44627    1.000
    C30      C        0.44243    0.57878    0.38818    1.000
    C31      C        0.53850    0.46976    0.30136    1.000
    C32      C        0.61020    0.41470    0.24090    1.000
    C33      C        0.61550    0.32540    0.22230    1.000
    C34      C        0.55050    0.29040    0.26050    1.000
    C35      C        0.47900    0.34430    0.32070    1.000
    C36      C        0.47460    0.43420    0.34080    1.000
    C37      C        0.33270    0.50602    0.96466    1.000
    C38      C        0.33115    0.55373    0.05853    1.000
    C39      C        0.44243    0.61182    0.19060    1.000
    C40      C        0.53850    0.69864    0.16840    1.000
    C41      C        0.61020    0.75910    0.17380    1.000
    C42      C        0.61550    0.77770    0.10310    1.000
    C43      C        0.55050    0.73950    0.02990    1.000
    C44      C        0.47900    0.67930    0.02360    1.000
    C45      C        0.47460    0.65920    0.09340    1.000
    C46      C        0.33270    0.03534    0.54136    1.000
    C47      C        0.33115    0.94147    0.49520    1.000
    C48      C        0.44243    0.80940    0.42122    1.000
    C49      C        0.53850    0.83160    0.53024    1.000
    C50      C        0.61020    0.82620    0.58530    1.000
    C51      C        0.61550    0.89690    0.67460    1.000
    C52      C        0.55050    0.97010    0.70960    1.000
    C53      C        0.47900    0.97640    0.65570    1.000
    C54      C        0.47460    0.90660    0.56580    1.000
    C55      C        0.83270    0.96466    0.50602    1.000
    C56      C        0.83115    0.05853    0.55373    1.000
    C57      C        0.94243    0.19060    0.61182    1.000
    C58      C        0.03850    0.16840    0.69864    1.000
    C59      C        0.11020    0.17380    0.75910    1.000
    C60      C        0.11550    0.10310    0.77770    1.000
    C61      C        0.05050    0.02990    0.73950    1.000
    C62      C        0.97900    0.02360    0.67930    1.000
    C63      C        0.97460    0.09340    0.65920    1.000
    C64      C        0.83270    0.54136    0.03534    1.000
    C65      C        0.83115    0.49520    0.94147    1.000
    C66      C        0.94243    0.42122    0.80940    1.000
    C67      C        0.03850    0.53024    0.83160    1.000
    C68      C        0.11020    0.58530    0.82620    1.000
    C69      C        0.11550    0.67460    0.89690    1.000
    C70      C        0.05050    0.70960    0.97010    1.000
    C71      C        0.97900    0.65570    0.97640    1.000
    C72      C        0.97460    0.56580    0.90660    1.000
    C73      C        0.83270    0.49398    0.45864    1.000
    C74      C        0.83115    0.44627    0.50480    1.000
    C75      C        0.94243    0.38818    0.57878    1.000
    C76      C        0.03850    0.30136    0.46976    1.000
    C77      C        0.11020    0.24090    0.41470    1.000
    C78      C        0.11550    0.22230    0.32540    1.000
    C79      C        0.05050    0.26050    0.29040    1.000
    C80      C        0.97900    0.32070    0.34430    1.000
    C81      C        0.97460    0.34080    0.43420    1.000
    C82      C        0.66730    0.54136    0.50602    1.000
    C83      C        0.66885    0.49520    0.55373    1.000
    C84      C        0.55757    0.42122    0.61182    1.000
    C85      C        0.46150    0.53024    0.69864    1.000
    C86      C        0.38980    0.58530    0.75910    1.000
    C87      C        0.38450    0.67460    0.77770    1.000
    C88      C        0.44950    0.70960    0.73950    1.000
    C89      C        0.52100    0.65570    0.67930    1.000
    C90      C        0.52540    0.56580    0.65920    1.000
    C91      C        0.66730    0.49398    0.03534    1.000
    C92      C        0.66885    0.44627    0.94147    1.000
    C93      C        0.55757    0.38818    0.80940    1.000
    C94      C        0.46150    0.30136    0.83160    1.000
    C95      C        0.38980    0.24090    0.82620    1.000
    C96      C        0.38450    0.22230    0.89690    1.000
    C97      C        0.44950    0.26050    0.97010    1.000
    C98      C        0.52100    0.32070    0.97640    1.000
    C99      C        0.52540    0.34080    0.90660    1.000
    C100     C        0.66730    0.96466    0.45864    1.000
    C101     C        0.66885    0.05853    0.50480    1.000
    C102     C        0.55757    0.19060    0.57878    1.000
    C103     C        0.46150    0.16840    0.46976    1.000
    C104     C        0.38980    0.17380    0.41470    1.000
    C105     C        0.38450    0.10310    0.32540    1.000
    C106     C        0.44950    0.02990    0.29040    1.000
    C107     C        0.52100    0.02360    0.34430    1.000
    C108     C        0.52540    0.09340    0.43420    1.000
    C109     C        0.25000    0.18480    0.59240    1.000
    C110     C        0.25000    0.08240    0.54120    1.000
    C111     C        0.25000    0.89320    0.44660    1.000
    C112     C        0.25000    0.40760    0.81520    1.000
    C113     C        0.25000    0.45880    0.91760    1.000
    C114     C        0.25000    0.55340    0.10680    1.000
    C115     C        0.25000    0.40760    0.59240    1.000
    C116     C        0.25000    0.45880    0.54120    1.000
    C117     C        0.25000    0.55340    0.44660    1.000
    C118     C        0.75000    0.81520    0.40760    1.000
    C119     C        0.75000    0.91760    0.45880    1.000
    C120     C        0.75000    0.10680    0.55340    1.000
    C121     C        0.75000    0.59240    0.18480    1.000
    C122     C        0.75000    0.54120    0.08240    1.000
    C123     C        0.75000    0.44660    0.89320    1.000
    C124     C        0.75000    0.59240    0.40760    1.000
    C125     C        0.75000    0.54120    0.45880    1.000
    C126     C        0.75000    0.44660    0.55340    1.000
    N1       N        0.08583    0.89055    0.39654    1.000
    N2       N        0.98406    0.77193    0.33310    1.000
    N3       N        0.08583    0.50599    0.10945    1.000
    N4       N        0.98406    0.56117    0.22807    1.000
    N5       N        0.08583    0.60346    0.49401    1.000
    N6       N        0.98406    0.66690    0.43883    1.000
    N7       N        0.41417    0.50599    0.39654    1.000
    N8       N        0.51594    0.56117    0.33310    1.000
    N9       N        0.41417    0.60346    0.10945    1.000
    N10      N        0.51594    0.66690    0.22807    1.000
    N11      N        0.41417    0.89055    0.49401    1.000
    N12      N        0.51594    0.77193    0.43883    1.000
    N13      N        0.91417    0.10945    0.60346    1.000
    N14      N        0.01594    0.22807    0.66690    1.000
    N15      N        0.91417    0.49401    0.89055    1.000
    N16      N        0.01594    0.43883    0.77193    1.000
    N17      N        0.91417    0.39654    0.50599    1.000
    N18      N        0.01594    0.33310    0.56117    1.000
    N19      N        0.58583    0.49401    0.60346    1.000
    N20      N        0.48406    0.43883    0.66690    1.000
    N21      N        0.58583    0.39654    0.89055    1.000
    N22      N        0.48406    0.33310    0.77193    1.000
    N23      N        0.58583    0.10945    0.50599    1.000
    N24      N        0.48406    0.22807    0.56117    1.000
    O1       O        0.31936    0.22311    0.64669    1.000
    O2       O        0.31936    0.42358    0.77689    1.000
    O3       O        0.31936    0.35331    0.57642    1.000
    O4       O        0.18064    0.42358    0.64669    1.000
    O5       O        0.18064    0.35331    0.77689    1.000
    O6       O        0.18064    0.22311    0.57642    1.000
    O7       O        0.68064    0.77689    0.35331    1.000
    O8       O        0.68064    0.57642    0.22311    1.000
    O9       O        0.68064    0.64669    0.42358    1.000
    O10      O        0.81936    0.57642    0.35331    1.000
    O11      O        0.81936    0.64669    0.22311    1.000
    O12      O        0.81936    0.77689    0.42358    1.000
