# CIF file generated by openbabel 3.1.0, see https://openbabel.org
data_I
_chemical_name_common 'image0'
_cell_length_a 12.3156
_cell_length_b 15.5113
_cell_length_c 18.9521
_cell_angle_alpha 90
_cell_angle_beta 90
_cell_angle_gamma 90
_space_group_name_H-M_alt 'P 1'
_space_group_name_Hall 'P 1'
loop_
    _symmetry_equiv_pos_as_xyz
    x,y,z
loop_
    _atom_site_label
    _atom_site_type_symbol
    _atom_site_fract_x
    _atom_site_fract_y
    _atom_site_fract_z
    _atom_site_occupancy
    C1       C        0.50710    0.66496    0.93787    1.000
    H1       H        0.49810    0.61900    0.90690    1.000
    C2       C        0.43760    0.67141    0.99363    1.000
    H2       H        0.38460    0.62950    0.00040    1.000
    C3       C        0.44539    0.73917    0.03972    1.000
    C4       C        0.52996    0.79594    0.02858    1.000
    H3       H        0.54090    0.84200    0.05910    1.000
    C5       C        0.59746    0.78377    0.97222    1.000
    H4       H        0.65460    0.82230    0.96630    1.000
    C6       C        0.56106    0.57884    0.77416    1.000
    C7       C        0.49908    0.49774    0.75491    1.000
    C8       C        0.52561    0.42024    0.78646    1.000
    H5       H        0.58080    0.41750    0.81990    1.000
    C9       C        0.46888    0.34655    0.76764    1.000
    H6       H        0.48730    0.29490    0.78940    1.000
    C10      C        0.36345    0.42157    0.69067    1.000
    H7       H        0.30720    0.42280    0.65790    1.000
    C11      C        0.41615    0.49830    0.70663    1.000
    H8       H        0.39540    0.54940    0.68480    1.000
    C12      C        0.36229    0.75298    0.09572    1.000
    Cd1      Cd       0.68820    0.71601    0.81799    1.000
    N1       N        0.58699    0.72046    0.92525    1.000
    N2       N        0.38980    0.34592    0.72019    1.000
    O1       O        0.64825    0.57056    0.80599    1.000
    O2       O        0.52076    0.64998    0.75884    1.000
    O3       O        0.34507    0.82863    0.11646    1.000
    O4       O        0.30927    0.68915    0.11708    1.000
    C13      C        0.99290    0.33504    0.43787    1.000
    H9       H        0.00190    0.38100    0.40690    1.000
    C14      C        0.06240    0.32859    0.49363    1.000
    H10      H        0.11540    0.37050    0.50040    1.000
    C15      C        0.05461    0.26083    0.53972    1.000
    C16      C        0.97004    0.20406    0.52858    1.000
    H11      H        0.95910    0.15800    0.55910    1.000
    C17      C        0.90254    0.21623    0.47222    1.000
    H12      H        0.84540    0.17770    0.46630    1.000
    C18      C        0.93894    0.42116    0.27416    1.000
    C19      C        0.00092    0.50226    0.25491    1.000
    C20      C        0.97439    0.57976    0.28646    1.000
    H13      H        0.91920    0.58250    0.31990    1.000
    C21      C        0.03112    0.65345    0.26764    1.000
    H14      H        0.01270    0.70510    0.28940    1.000
    C22      C        0.13655    0.57843    0.19067    1.000
    H15      H        0.19280    0.57720    0.15790    1.000
    C23      C        0.08385    0.50170    0.20663    1.000
    H16      H        0.10460    0.45060    0.18480    1.000
    C24      C        0.13771    0.24702    0.59572    1.000
    Cd2      Cd       0.81180    0.28399    0.31799    1.000
    N3       N        0.91301    0.27954    0.42525    1.000
    N4       N        0.11020    0.65408    0.22019    1.000
    O5       O        0.85175    0.42944    0.30599    1.000
    O6       O        0.97924    0.35002    0.25884    1.000
    O7       O        0.15493    0.17137    0.61646    1.000
    O8       O        0.19073    0.31085    0.61708    1.000
    C25      C        0.49290    0.16496    0.56213    1.000
    H17      H        0.50190    0.11900    0.59310    1.000
    C26      C        0.56240    0.17141    0.50637    1.000
    H18      H        0.61540    0.12950    0.49960    1.000
    C27      C        0.55461    0.23917    0.46028    1.000
    C28      C        0.47004    0.29594    0.47142    1.000
    H19      H        0.45910    0.34200    0.44090    1.000
    C29      C        0.40254    0.28377    0.52778    1.000
    H20      H        0.34540    0.32230    0.53370    1.000
    C30      C        0.43894    0.07884    0.72584    1.000
    C31      C        0.50092    0.99774    0.74509    1.000
    C32      C        0.47439    0.92024    0.71354    1.000
    H21      H        0.41920    0.91750    0.68010    1.000
    C33      C        0.53112    0.84655    0.73236    1.000
    H22      H        0.51270    0.79490    0.71060    1.000
    C34      C        0.63655    0.92157    0.80933    1.000
    H23      H        0.69280    0.92280    0.84210    1.000
    C35      C        0.58385    0.99830    0.79337    1.000
    H24      H        0.60460    0.04940    0.81520    1.000
    C36      C        0.63771    0.25298    0.40428    1.000
    Cd3      Cd       0.31180    0.21601    0.68201    1.000
    N5       N        0.41301    0.22046    0.57475    1.000
    N6       N        0.61020    0.84592    0.77981    1.000
    O9       O        0.35175    0.07056    0.69401    1.000
    O10      O        0.47924    0.14998    0.74116    1.000
    O11      O        0.65493    0.32863    0.38354    1.000
    O12      O        0.69073    0.18915    0.38292    1.000
    C37      C        0.00710    0.83504    0.06213    1.000
    H25      H        0.99810    0.88100    0.09310    1.000
    C38      C        0.93760    0.82859    0.00637    1.000
    H26      H        0.88460    0.87050    0.99960    1.000
    C39      C        0.94539    0.76083    0.96028    1.000
    C40      C        0.02996    0.70406    0.97142    1.000
    H27      H        0.04090    0.65800    0.94090    1.000
    C41      C        0.09746    0.71623    0.02778    1.000
    H28      H        0.15460    0.67770    0.03370    1.000
    C42      C        0.06106    0.92116    0.22584    1.000
    C43      C        0.99908    0.00226    0.24509    1.000
    C44      C        0.02561    0.07976    0.21354    1.000
    H29      H        0.08080    0.08250    0.18010    1.000
    C45      C        0.96888    0.15345    0.23236    1.000
    H30      H        0.98730    0.20510    0.21060    1.000
    C46      C        0.86345    0.07843    0.30933    1.000
    H31      H        0.80720    0.07720    0.34210    1.000
    C47      C        0.91615    0.00170    0.29337    1.000
    H32      H        0.89540    0.95060    0.31520    1.000
    C48      C        0.86229    0.74702    0.90428    1.000
    Cd4      Cd       0.18820    0.78399    0.18201    1.000
    N7       N        0.08699    0.77954    0.07475    1.000
    N8       N        0.88980    0.15408    0.27981    1.000
    O13      O        0.14825    0.92944    0.19401    1.000
    O14      O        0.02076    0.85002    0.24116    1.000
    O15      O        0.84507    0.67137    0.88354    1.000
    O16      O        0.80927    0.81085    0.88292    1.000
    C49      C        0.49290    0.33504    0.06213    1.000
    H33      H        0.50190    0.38100    0.09310    1.000
    C50      C        0.56240    0.32859    0.00637    1.000
    H34      H        0.61540    0.37050    0.99960    1.000
    C51      C        0.55461    0.26083    0.96028    1.000
    C52      C        0.47004    0.20406    0.97142    1.000
    H35      H        0.45910    0.15800    0.94090    1.000
    C53      C        0.40254    0.21623    0.02778    1.000
    H36      H        0.34540    0.17770    0.03370    1.000
    C54      C        0.43894    0.42116    0.22584    1.000
    C55      C        0.50092    0.50226    0.24509    1.000
    C56      C        0.47439    0.57976    0.21354    1.000
    H37      H        0.41920    0.58250    0.18010    1.000
    C57      C        0.53112    0.65345    0.23236    1.000
    H38      H        0.51270    0.70510    0.21060    1.000
    C58      C        0.63655    0.57843    0.30933    1.000
    H39      H        0.69280    0.57720    0.34210    1.000
    C59      C        0.58385    0.50170    0.29337    1.000
    H40      H        0.60460    0.45060    0.31520    1.000
    C60      C        0.63771    0.24702    0.90428    1.000
    Cd5      Cd       0.31180    0.28399    0.18201    1.000
    N9       N        0.41301    0.27954    0.07475    1.000
    N10      N        0.61020    0.65408    0.27981    1.000
    O17      O        0.35175    0.42944    0.19401    1.000
    O18      O        0.47924    0.35002    0.24116    1.000
    O19      O        0.65493    0.17137    0.88354    1.000
    O20      O        0.69073    0.31085    0.88292    1.000
    C61      C        0.00710    0.66496    0.56213    1.000
    H41      H        0.99810    0.61900    0.59310    1.000
    C62      C        0.93760    0.67141    0.50637    1.000
    H42      H        0.88460    0.62950    0.49960    1.000
    C63      C        0.94539    0.73917    0.46028    1.000
    C64      C        0.02996    0.79594    0.47142    1.000
    H43      H        0.04090    0.84200    0.44090    1.000
    C65      C        0.09746    0.78377    0.52778    1.000
    H44      H        0.15460    0.82230    0.53370    1.000
    C66      C        0.06106    0.57884    0.72584    1.000
    C67      C        0.99908    0.49774    0.74509    1.000
    C68      C        0.02561    0.42024    0.71354    1.000
    H45      H        0.08080    0.41750    0.68010    1.000
    C69      C        0.96888    0.34655    0.73236    1.000
    H46      H        0.98730    0.29490    0.71060    1.000
    C70      C        0.86345    0.42157    0.80933    1.000
    H47      H        0.80720    0.42280    0.84210    1.000
    C71      C        0.91615    0.49830    0.79337    1.000
    H48      H        0.89540    0.54940    0.81520    1.000
    C72      C        0.86229    0.75298    0.40428    1.000
    Cd6      Cd       0.18820    0.71601    0.68201    1.000
    N11      N        0.08699    0.72046    0.57475    1.000
    N12      N        0.88980    0.34592    0.77981    1.000
    O21      O        0.14825    0.57056    0.69401    1.000
    O22      O        0.02076    0.64998    0.74116    1.000
    O23      O        0.84507    0.82863    0.38354    1.000
    O24      O        0.80927    0.68915    0.38292    1.000
    C73      C        0.50710    0.83504    0.43787    1.000
    H49      H        0.49810    0.88100    0.40690    1.000
    C74      C        0.43760    0.82859    0.49363    1.000
    H50      H        0.38460    0.87050    0.50040    1.000
    C75      C        0.44539    0.76083    0.53972    1.000
    C76      C        0.52996    0.70406    0.52858    1.000
    H51      H        0.54090    0.65800    0.55910    1.000
    C77      C        0.59746    0.71623    0.47222    1.000
    H52      H        0.65460    0.67770    0.46630    1.000
    C78      C        0.56106    0.92116    0.27416    1.000
    C79      C        0.49908    0.00226    0.25491    1.000
    C80      C        0.52561    0.07976    0.28646    1.000
    H53      H        0.58080    0.08250    0.31990    1.000
    C81      C        0.46888    0.15345    0.26764    1.000
    H54      H        0.48730    0.20510    0.28940    1.000
    C82      C        0.36345    0.07843    0.19067    1.000
    H55      H        0.30720    0.07720    0.15790    1.000
    C83      C        0.41615    0.00170    0.20663    1.000
    H56      H        0.39540    0.95060    0.18480    1.000
    C84      C        0.36229    0.74702    0.59572    1.000
    Cd7      Cd       0.68820    0.78399    0.31799    1.000
    N13      N        0.58699    0.77954    0.42525    1.000
    N14      N        0.38980    0.15408    0.22019    1.000
    O25      O        0.64825    0.92944    0.30599    1.000
    O26      O        0.52076    0.85002    0.25884    1.000
    O27      O        0.34507    0.67137    0.61646    1.000
    O28      O        0.30927    0.81085    0.61708    1.000
    C85      C        0.99290    0.16496    0.93787    1.000
    H57      H        0.00190    0.11900    0.90690    1.000
    C86      C        0.06240    0.17141    0.99363    1.000
    H58      H        0.11540    0.12950    0.00040    1.000
    C87      C        0.05461    0.23917    0.03972    1.000
    C88      C        0.97004    0.29594    0.02858    1.000
    H59      H        0.95910    0.34200    0.05910    1.000
    C89      C        0.90254    0.28377    0.97222    1.000
    H60      H        0.84540    0.32230    0.96630    1.000
    C90      C        0.93894    0.07884    0.77416    1.000
    C91      C        0.00092    0.99774    0.75491    1.000
    C92      C        0.97439    0.92024    0.78646    1.000
    H61      H        0.91920    0.91750    0.81990    1.000
    C93      C        0.03112    0.84655    0.76764    1.000
    H62      H        0.01270    0.79490    0.78940    1.000
    C94      C        0.13655    0.92157    0.69067    1.000
    H63      H        0.19280    0.92280    0.65790    1.000
    C95      C        0.08385    0.99830    0.70663    1.000
    H64      H        0.10460    0.04940    0.68480    1.000
    C96      C        0.13771    0.25298    0.09572    1.000
    Cd8      Cd       0.81180    0.21601    0.81799    1.000
    N15      N        0.91301    0.22046    0.92525    1.000
    N16      N        0.11020    0.84592    0.72019    1.000
    O29      O        0.85175    0.07056    0.80599    1.000
    O30      O        0.97924    0.14998    0.75884    1.000
    O31      O        0.15493    0.32863    0.11646    1.000
    O32      O        0.19073    0.18915    0.11708    1.000
