# CIF file generated by openbabel 3.1.0, see https://openbabel.org
data_I
_chemical_name_common 'XOTSEG_clean'
_cell_length_a 13.8783
_cell_length_b 20.3674
_cell_length_c 21.0344
_cell_angle_alpha 62.572
_cell_angle_beta 82.489
_cell_angle_gamma 73.85
_space_group_name_H-M_alt 'P 1'
_space_group_name_Hall 'P 1'
loop_
    _symmetry_equiv_pos_as_xyz
    x,y,z
loop_
    _atom_site_label
    _atom_site_type_symbol
    _atom_site_fract_x
    _atom_site_fract_y
    _atom_site_fract_z
    _atom_site_occupancy
    Mn1      Mn       0.08736    0.31757    0.33984    1.000
    Mn2      Mn       0.31424    0.29190    0.42329    1.000
    Mn3      Mn       0.87694    0.24908    0.44151    1.000
    H1       H        0.32540    0.09730    0.18690    1.000
    H2       H        0.04250    0.06550    0.70140    1.000
    H3       H        0.28410    0.87040    0.92930    1.000
    H4       H        0.63090    0.14280    0.93220    1.000
    H5       H        0.20400    0.92640    0.86940    1.000
    H6       H        0.78930    0.12000    0.59540    1.000
    H7       H        0.09720    0.54150    0.17460    1.000
    H8       H        0.66380    0.84220    0.96210    1.000
    H9       H        0.18720    0.26780    0.56820    1.000
    H10      H        0.06800    0.16520    0.96380    1.000
    H11      H        0.31620    0.52450    0.29170    1.000
    H12      H        0.20140    0.20800    0.69260    1.000
    H13      H        0.00830    0.16120    0.90780    1.000
    H14      H        0.62920    0.61750    0.21110    1.000
    H15      H        0.03290    0.12300    0.57900    1.000
    H16      H        0.96080    0.52790    0.28440    1.000
    H17      H        0.69130    0.49010    0.28530    1.000
    H18      H        0.87570    0.14170    0.29820    1.000
    H19      H        0.91490    0.07770    0.22750    1.000
    H20      H        0.17930    0.85350    0.93350    1.000
    H21      H        0.05750    0.27510    0.17820    1.000
    H22      H        0.48410    0.20640    0.27760    1.000
    H23      H        0.18780    0.86890    0.17580    1.000
    H24      H        0.54640    0.14640    0.98870    1.000
    H25      H        0.78530    0.02770    0.72640    1.000
    H26      H        0.52350    0.13840    0.92190    1.000
    H27      H        0.23710    0.15140    0.25920    1.000
    H28      H        0.09870    0.66490    0.10020    1.000
    H29      H        0.12060    0.16570    0.89300    1.000
    H30      H        0.65110    0.90980    0.21430    1.000
    H31      H        0.64090    0.83520    0.21400    1.000
    H32      H        0.31810    0.64990    0.21650    1.000
    H33      H        0.09470    0.21430    0.10620    1.000
    H34      H        0.07780    0.86610    0.16960    1.000
    H35      H        0.54500    0.90060    0.20740    1.000
    H36      H        0.55890    0.27000    0.62070    1.000
    H37      H        0.09710    0.93490    0.17630    1.000
    H38      H        0.55450    0.19330    0.74120    1.000
    H39      H        0.76970    0.82060    0.99500    1.000
    H40      H        0.90100    0.65430    0.21030    1.000
    H41      H        0.74080    0.89160    0.92060    1.000
    H42      H        0.57220    0.14910    0.20650    1.000
    C1       C        0.96580    0.21340    0.24680    1.000
    C2       C        0.12680    0.12750    0.71140    1.000
    C3       C        0.73300    0.52330    0.27060    1.000
    C4       C        0.14190    0.56320    0.18300    1.000
    C5       C        0.60070    0.17560    0.71290    1.000
    C6       C        0.17250    0.93820    0.96170    1.000
    C7       C        0.57350    0.12430    0.95650    1.000
    C8       C        0.14260    0.63680    0.13880    1.000
    C9       C        0.60150    0.22140    0.64120    1.000
    C10      C        0.10130    0.02000    0.04120    1.000
    C11      C        0.20890    0.67150    0.15040    1.000
    C12      C        0.73950    0.13060    0.62580    1.000
    C13      C        0.50960    0.08240    0.14590    1.000
    C14      C        0.64490    0.99230    0.96390    1.000
    C15      C        0.30410    0.15200    0.24830    1.000
    C16      C        0.07350    0.10510    0.67490    1.000
    C17      C        0.85860    0.62150    0.22510    1.000
    C18      C        0.00920    0.14020    0.15880    1.000
    C19      C        0.35770    0.11930    0.20520    1.000
    C20      C        0.10600    0.06040    0.96600    1.000
    C21      C        0.87300    0.41110    0.34630    1.000
    C22      C        0.66470    0.87990    0.07850    1.000
    C23      C        0.54900    0.04920    0.11010    1.000
    C24      C        0.16820    0.19040    0.67030    1.000
    C25      C        0.20450    0.75070    0.10700    1.000
    C26      C        0.62540    0.92550    0.11400    1.000
    C27      C        0.35230    0.18600    0.27520    1.000
    C28      C        0.73950    0.07510    0.70710    1.000
    C29      C        0.05130    0.19890    0.14490    1.000
    C30      C        0.66580    0.19360    0.60160    1.000
    C31      C        0.60410    0.03890    0.99810    1.000
    C32      C        0.50460    0.15020    0.21640    1.000
    C33      C        0.06620    0.14020    0.60160    1.000
    C34      C        0.12220    0.89900    0.15680    1.000
    C35      C        0.65650    0.02720    0.88770    1.000
    C36      C        0.45680    0.11840    0.18900    1.000
    C37      C        0.92080    0.15540    0.26040    1.000
    C38      C        0.69590    0.59920    0.22570    1.000
    C39      C        0.19180    0.81900    0.07260    1.000
    C40      C        0.06370    0.06290    0.08300    1.000
    C41      C        0.95190    0.24880    0.29800    1.000
    C42      C        0.76090    0.64980    0.20150    1.000
    C43      C        0.14010    0.01740    0.92730    1.000
    C44      C        0.72180    0.73000    0.15610    1.000
    C45      C        0.29220    0.22430    0.32080    1.000
    C46      C        0.10060    0.24010    0.48190    1.000
    C47      C        0.94330    0.11770    0.21750    1.000
    C48      C        0.16430    0.90110    0.03650    1.000
    C49      C        0.15910    0.22660    0.59540    1.000
    C50      C        0.10830    0.20110    0.56160    1.000
    C51      C        0.45140    0.18450    0.25950    1.000
    C52      C        0.83180    0.49500    0.29470    1.000
    C53      C        0.07280    0.14580    0.92940    1.000
    C54      C        0.02910    0.23500    0.18840    1.000
    C55      C        0.66080    0.24640    0.51590    1.000
    C56      C        0.67050    0.09830    0.74830    1.000
    C57      C        0.61460    0.88940    0.19480    1.000
    C58      C        0.27270    0.55310    0.25290    1.000
    C59      C        0.21370    0.89300    0.91960    1.000
    C60      C        0.66330    0.05820    0.82440    1.000
    C61      C        0.27350    0.62820    0.20790    1.000
    C62      C        0.20680    0.43800    0.28980    1.000
    C63      C        0.71600    0.86210    0.96710    1.000
    C64      C        0.89410    0.54600    0.26990    1.000
    C65      C        0.14010    0.05720    0.85050    1.000
    C66      C        0.69540    0.79830    0.11990    1.000
    C67      C        0.13590    0.08860    0.78810    1.000
    C68      C        0.59300    0.00380    0.07450    1.000
    C69      C        0.03830    0.09720    0.11630    1.000
    C70      C        0.20640    0.52040    0.23980    1.000
    C71      C        0.67450    0.91220    0.00430    1.000
    C72      C        0.12850    0.94140    0.07620    1.000
    O1       O        0.81340    0.36890    0.37010    1.000
    O2       O        0.20120    0.23250    0.32460    1.000
    O3       O        0.14980    0.40980    0.27420    1.000
    O4       O        0.04240    0.22660    0.45120    1.000
    O5       O        0.34230    0.24420    0.35040    1.000
    O6       O        0.58230    0.30220    0.49460    1.000
    O7       O        0.72580    0.23060    0.47870    1.000
    O8       O        0.90060    0.22170    0.35340    1.000
    O9       O        0.15570    0.28670    0.44580    1.000
    O10      O        0.26230    0.40540    0.34320    1.000
    O11      O        0.99030    0.30420    0.28020    1.000
    O12      O        0.96280    0.39210    0.36370    1.000
    Mn4      Mn       0.91264    0.68243    0.66016    1.000
    Mn5      Mn       0.68576    0.70810    0.57671    1.000
    Mn6      Mn       0.12306    0.75092    0.55849    1.000
    H43      H        0.90530    0.78570    0.89380    1.000
    H44      H        0.96710    0.87700    0.42100    1.000
    H45      H        0.08510    0.92230    0.77250    1.000
    H46      H        0.23030    0.17940    0.00500    1.000
    H47      H        0.67460    0.90270    0.81310    1.000
    H48      H        0.44550    0.80670    0.25880    1.000
    H49      H        0.33620    0.15780    0.03790    1.000
    H50      H        0.82070    0.14650    0.06650    1.000
    H51      H        0.30870    0.50990    0.71470    1.000
    H52      H        0.76290    0.84860    0.74080    1.000
    H53      H        0.25920    0.10840    0.07940    1.000
    H54      H        0.90280    0.45850    0.82540    1.000
    H55      H        0.81220    0.13110    0.82420    1.000
    H56      H        0.79860    0.79200    0.30740    1.000
    H57      H        0.36910    0.85720    0.06780    1.000
    H58      H        0.09900    0.34570    0.78970    1.000
    H59      H        0.34890    0.09020    0.78570    1.000
    H60      H        0.45360    0.85360    0.01130    1.000
    H61      H        0.21470    0.97230    0.27360    1.000
    H62      H        0.44110    0.73000    0.37930    1.000
    H63      H        0.94250    0.72490    0.82180    1.000
    H64      H        0.12430    0.85830    0.70180    1.000
    H65      H        0.35910    0.16480    0.78600    1.000
    H66      H        0.79600    0.07360    0.13060    1.000
    H67      H        0.42780    0.85090    0.79350    1.000
    H68      H        0.03920    0.47210    0.71560    1.000
    H69      H        0.92220    0.13390    0.83040    1.000
    H70      H        0.90130    0.33510    0.89980    1.000
    H71      H        0.71590    0.12960    0.07070    1.000
    H72      H        0.51590    0.79360    0.72240    1.000
    H73      H        0.99170    0.83880    0.09220    1.000
    H74      H        0.68380    0.47550    0.70830    1.000
    H75      H        0.90290    0.06510    0.82370    1.000
    H76      H        0.45500    0.09940    0.79260    1.000
    H77      H        0.93200    0.83480    0.03620    1.000
    H78      H        0.47650    0.86160    0.07810    1.000
    H79      H        0.95750    0.93450    0.29860    1.000
    H80      H        0.87940    0.83430    0.10700    1.000
    H81      H        0.68190    0.35010    0.78350    1.000
    H82      H        0.81280    0.73220    0.43180    1.000
    H83      H        0.21070    0.88000    0.40460    1.000
    H84      H        0.37080    0.38250    0.78890    1.000
    C73      C        0.86410    0.91140    0.21190    1.000
    C74      C        0.89870    0.98000    0.95880    1.000
    C75      C        0.33670    0.94180    0.17560    1.000
    C76      C        0.30410    0.40080    0.77430    1.000
    C77      C        0.79110    0.32850    0.84960    1.000
    C78      C        0.32550    0.08780    0.99570    1.000
    C79      C        0.78630    0.10700    0.08040    1.000
    C80      C        0.79360    0.47960    0.76020    1.000
    C81      C        0.23910    0.35020    0.79850    1.000
    C82      C        0.83570    0.09890    0.96350    1.000
    C83      C        0.54320    0.88160    0.81100    1.000
    C84      C        0.16820    0.50500    0.70530    1.000
    C85      C        0.32950    0.90170    0.25170    1.000
    C86      C        0.89940    0.75990    0.51810    1.000
    C87      C        0.92650    0.89490    0.32510    1.000
    C88      C        0.92720    0.85420    0.07060    1.000
    C89      C        0.03420    0.78660    0.75320    1.000
    C90      C        0.89400    0.93960    0.03400    1.000
    C91      C        0.87320    0.87250    0.28860    1.000
    C92      C        0.79320    0.56200    0.71020    1.000
    C93      C        0.27820    0.27000    0.84390    1.000
    C94      C        0.69590    0.84800    0.75170    1.000
    C95      C        0.87780    0.10100    0.84320    1.000
    C96      C        0.49540    0.84980    0.78360    1.000
    C97      C        0.54860    0.81550    0.74050    1.000
    C98      C        0.87150    0.05860    0.92380    1.000
    C99      C        0.26700    0.47670    0.72940    1.000
    C100     C        0.35510    0.00770    0.03610    1.000
    C101     C        0.12700    0.58890    0.65370    1.000
    C102     C        0.64230    0.88070    0.79480    1.000
    C103     C        0.80820    0.18100    0.92740    1.000
    C104     C        0.79550    0.24930    0.89300    1.000
    C105     C        0.93380    0.85980    0.39840    1.000
    C106     C        0.97090    0.76500    0.81160    1.000
    C107     C        0.83180    0.80960    0.32970    1.000
    C108     C        0.26050    0.86940    0.37420    1.000
    C109     C        0.33920    0.75360    0.48410    1.000
    C110     C        0.28400    0.13790    0.03290    1.000
    C111     C        0.05670    0.88230    0.78250    1.000
    C112     C        0.26050    0.92490    0.29290    1.000
    C113     C        0.04810    0.75120    0.70200    1.000
    C114     C        0.99080    0.85980    0.84120    1.000
    C115     C        0.82750    0.06180    0.03830    1.000
    C116     C        0.14140    0.37850    0.77490    1.000
    C117     C        0.85990    0.94280    0.14950    1.000
    C118     C        0.34350    0.97280    0.11230    1.000
    C119     C        0.49040    0.91760    0.85410    1.000
    C120     C        0.39930    0.82440    0.28710    1.000
    C121     C        0.64770    0.81400    0.72480    1.000
    C122     C        0.40700    0.99620    0.92550    1.000
    C123     C        0.33530    0.12010    0.92150    1.000
    C124     C        0.37460    0.07450    0.88600    1.000
    C125     C        0.33420    0.80640    0.39840    1.000
    C126     C        0.39590    0.96110    0.00190    1.000
    C127     C        0.42650    0.87570    0.04350    1.000
    C128     C        0.85990    0.98260    0.07270    1.000
    C129     C        0.07920    0.84460    0.73960    1.000
    C130     C        0.30460    0.20170    0.88010    1.000
    C131     C        0.39850    0.77860    0.35880    1.000
    C132     C        0.38540    0.11060    0.80520    1.000
    C133     C        0.94870    0.80110    0.85510    1.000
    C134     C        0.10590    0.45400    0.73010    1.000
    C135     C        0.72730    0.44690    0.74710    1.000
    C136     C        0.93630    0.93710    0.91700    1.000
    C137     C        0.84090    0.77340    0.40460    1.000
    C138     C        0.72650    0.37180    0.79210    1.000
    C139     C        0.85740    0.36320    0.86120    1.000
    C140     C        0.70780    0.77570    0.67920    1.000
    C141     C        0.45100    0.95080    0.88990    1.000
    C142     C        0.96170    0.90280    0.88370    1.000
    C143     C        0.85810    0.43680    0.81700    1.000
    C144     C        0.89170    0.79890    0.43840    1.000
    O13      O        0.65770    0.75580    0.64960    1.000
    O14      O        0.27420    0.76940    0.52130    1.000
    O15      O        0.09940    0.77830    0.64660    1.000
    O16      O        0.03720    0.60790    0.63630    1.000
    O17      O        0.73770    0.59460    0.65680    1.000
    O18      O        0.84430    0.71330    0.55420    1.000
    O19      O        0.95760    0.77340    0.54880    1.000
    O20      O        0.41770    0.69780    0.50540    1.000
    O21      O        0.85020    0.59020    0.72580    1.000
    O22      O        0.00970    0.69580    0.71980    1.000
    O23      O        0.18660    0.63110    0.62990    1.000
    O24      O        0.79880    0.76750    0.67540    1.000
