# CIF file generated by openbabel 3.1.0, see https://openbabel.org
data_I
_chemical_name_common 'image0'
_cell_length_a 12.7623
_cell_length_b 8.3831
_cell_length_c 23.961
_cell_angle_alpha 90
_cell_angle_beta 104.924
_cell_angle_gamma 90
_space_group_name_H-M_alt 'P 1'
_space_group_name_Hall 'P 1'
loop_
    _symmetry_equiv_pos_as_xyz
    x,y,z
loop_
    _atom_site_label
    _atom_site_type_symbol
    _atom_site_fract_x
    _atom_site_fract_y
    _atom_site_fract_z
    _atom_site_occupancy
    La1      La       0.90642    0.71699    0.12520    1.000
    La2      La       0.09360    0.00943    0.38315    1.000
    C1       C        0.97420    0.54520    0.26512    1.000
    H1       H        0.03820    0.48280    0.26180    1.000
    H2       H        0.95250    0.50680    0.29960    1.000
    C2       C        0.00450    0.72060    0.27279    1.000
    C3       C        0.78250    0.57120    0.22612    1.000
    H3       H        0.79420    0.67510    0.24640    1.000
    H4       H        0.76130    0.49250    0.25200    1.000
    C4       C        0.69170    0.58750    0.17123    1.000
    C5       C        0.04020    0.39860    0.08880    1.000
    H5       H        0.02540    0.44060    0.04890    1.000
    H6       H        0.06690    0.28770    0.08870    1.000
    C6       C        0.12660    0.50070    0.12891    1.000
    C7       C        0.84780    0.33350    0.06305    1.000
    H7       H        0.79480    0.28500    0.08170    1.000
    H8       H        0.87580    0.24770    0.04240    1.000
    C8       C        0.78960    0.45720    0.01905    1.000
    C9       C        0.87580    0.34860    0.19640    1.000
    H9       H        0.80140    0.32650    0.17270    1.000
    H10      H        0.88900    0.28150    0.23150    1.000
    C10      C        0.95680    0.30550    0.16226    1.000
    H11      H        0.03120    0.32550    0.18630    1.000
    H12      H        0.95050    0.19050    0.15270    1.000
    N1       N        0.88470    0.51940    0.21333    1.000
    N2       N        0.93860    0.39960    0.10814    1.000
    N3       N        0.74240    0.99090    0.11319    1.000
    N4       N        0.05640    0.90020    0.06546    1.000
    O1       O        0.98850    0.80700    0.22833    1.000
    O2       O        0.04540    0.76680    0.32334    1.000
    O3       O        0.71690    0.63190    0.12596    1.000
    O4       O        0.59780    0.55920    0.17423    1.000
    O5       O        0.09460    0.61100    0.15671    1.000
    O6       O        0.22320    0.47040    0.13229    1.000
    O7       O        0.81830    0.60110    0.02801    1.000
    O8       O        0.71590    0.40740    0.97806    1.000
    O9       O        0.76000    0.93270    0.06795    1.000
    O10      O        0.80690    0.95800    0.16081    1.000
    O11      O        0.66380    0.07890    0.11107    1.000
    O12      O        0.03600    0.95240    0.11233    1.000
    O13      O        0.00700    0.77630    0.04410    1.000
    O14      O        0.12150    0.96810    0.04410    1.000
    O15      O        0.18850    0.74960    0.43456    1.000
    H13      H        0.20290    0.72560    0.41040    1.000
    H14      H        0.23930    0.78080    0.46740    1.000
    La3      La       0.59358    0.21699    0.37480    1.000
    La4      La       0.40640    0.50943    0.11685    1.000
    C11      C        0.52580    0.04520    0.23488    1.000
    H15      H        0.46180    0.98280    0.23820    1.000
    H16      H        0.54750    0.00680    0.20040    1.000
    C12      C        0.49550    0.22060    0.22721    1.000
    C13      C        0.71750    0.07120    0.27388    1.000
    H17      H        0.70580    0.17510    0.25360    1.000
    H18      H        0.73870    0.99250    0.24800    1.000
    C14      C        0.80830    0.08750    0.32877    1.000
    C15      C        0.45980    0.89860    0.41120    1.000
    H19      H        0.47460    0.94060    0.45110    1.000
    H20      H        0.43310    0.78770    0.41130    1.000
    C16      C        0.37340    0.00070    0.37109    1.000
    C17      C        0.65220    0.83350    0.43695    1.000
    H21      H        0.70520    0.78500    0.41830    1.000
    H22      H        0.62420    0.74770    0.45760    1.000
    C18      C        0.71040    0.95720    0.48095    1.000
    C19      C        0.62420    0.84860    0.30360    1.000
    H23      H        0.69860    0.82650    0.32730    1.000
    H24      H        0.61100    0.78150    0.26850    1.000
    C20      C        0.54320    0.80550    0.33774    1.000
    H25      H        0.46880    0.82550    0.31370    1.000
    H26      H        0.54950    0.69050    0.34730    1.000
    N5       N        0.61530    0.01940    0.28667    1.000
    N6       N        0.56140    0.89960    0.39186    1.000
    N7       N        0.75760    0.49090    0.38681    1.000
    N8       N        0.44360    0.40020    0.43454    1.000
    O16      O        0.51150    0.30700    0.27167    1.000
    O17      O        0.45460    0.26680    0.17666    1.000
    O18      O        0.78310    0.13190    0.37404    1.000
    O19      O        0.90220    0.05920    0.32577    1.000
    O20      O        0.40540    0.11100    0.34329    1.000
    O21      O        0.27680    0.97040    0.36771    1.000
    O22      O        0.68170    0.10110    0.47199    1.000
    O23      O        0.78410    0.90740    0.52194    1.000
    O24      O        0.74000    0.43270    0.43205    1.000
    O25      O        0.69310    0.45800    0.33919    1.000
    O26      O        0.83620    0.57890    0.38893    1.000
    O27      O        0.46400    0.45240    0.38767    1.000
    O28      O        0.49300    0.27630    0.45590    1.000
    O29      O        0.37850    0.46810    0.45590    1.000
    O30      O        0.31150    0.24960    0.06544    1.000
    H27      H        0.29710    0.22560    0.08960    1.000
    H28      H        0.26070    0.28080    0.03260    1.000
    La5      La       0.09358    0.28301    0.87480    1.000
    La6      La       0.90640    0.99057    0.61685    1.000
    C21      C        0.02580    0.45480    0.73488    1.000
    H29      H        0.96180    0.51720    0.73820    1.000
    H30      H        0.04750    0.49320    0.70040    1.000
    C22      C        0.99550    0.27940    0.72721    1.000
    C23      C        0.21750    0.42880    0.77388    1.000
    H31      H        0.20580    0.32490    0.75360    1.000
    H32      H        0.23870    0.50750    0.74800    1.000
    C24      C        0.30830    0.41250    0.82877    1.000
    C25      C        0.95980    0.60140    0.91120    1.000
    H33      H        0.97460    0.55940    0.95110    1.000
    H34      H        0.93310    0.71230    0.91130    1.000
    C26      C        0.87340    0.49930    0.87109    1.000
    C27      C        0.15220    0.66650    0.93695    1.000
    H35      H        0.20520    0.71500    0.91830    1.000
    H36      H        0.12420    0.75230    0.95760    1.000
    C28      C        0.21040    0.54280    0.98095    1.000
    C29      C        0.12420    0.65140    0.80360    1.000
    H37      H        0.19860    0.67350    0.82730    1.000
    H38      H        0.11100    0.71850    0.76850    1.000
    C30      C        0.04320    0.69450    0.83774    1.000
    H39      H        0.96880    0.67450    0.81370    1.000
    H40      H        0.04950    0.80950    0.84730    1.000
    N9       N        0.11530    0.48060    0.78667    1.000
    N10      N        0.06140    0.60040    0.89186    1.000
    N11      N        0.25760    0.00910    0.88681    1.000
    N12      N        0.94360    0.09980    0.93454    1.000
    O31      O        0.01150    0.19300    0.77167    1.000
    O32      O        0.95460    0.23320    0.67666    1.000
    O33      O        0.28310    0.36810    0.87404    1.000
    O34      O        0.40220    0.44080    0.82577    1.000
    O35      O        0.90540    0.38900    0.84329    1.000
    O36      O        0.77680    0.52960    0.86771    1.000
    O37      O        0.18170    0.39890    0.97199    1.000
    O38      O        0.28410    0.59260    0.02194    1.000
    O39      O        0.24000    0.06730    0.93205    1.000
    O40      O        0.19310    0.04200    0.83919    1.000
    O41      O        0.33620    0.92110    0.88893    1.000
    O42      O        0.96400    0.04760    0.88767    1.000
    O43      O        0.99300    0.22370    0.95590    1.000
    O44      O        0.87850    0.03190    0.95590    1.000
    O45      O        0.81150    0.25040    0.56544    1.000
    H41      H        0.79710    0.27440    0.58960    1.000
    H42      H        0.76070    0.21920    0.53260    1.000
    La7      La       0.40642    0.78301    0.62520    1.000
    La8      La       0.59360    0.49057    0.88315    1.000
    C31      C        0.47420    0.95480    0.76512    1.000
    H43      H        0.53820    0.01720    0.76180    1.000
    H44      H        0.45250    0.99320    0.79960    1.000
    C32      C        0.50450    0.77940    0.77279    1.000
    C33      C        0.28250    0.92880    0.72612    1.000
    H45      H        0.29420    0.82490    0.74640    1.000
    H46      H        0.26130    0.00750    0.75200    1.000
    C34      C        0.19170    0.91250    0.67123    1.000
    C35      C        0.54020    0.10140    0.58880    1.000
    H47      H        0.52540    0.05940    0.54890    1.000
    H48      H        0.56690    0.21230    0.58870    1.000
    C36      C        0.62660    0.99930    0.62891    1.000
    C37      C        0.34780    0.16650    0.56305    1.000
    H49      H        0.29480    0.21500    0.58170    1.000
    H50      H        0.37580    0.25230    0.54240    1.000
    C38      C        0.28960    0.04280    0.51905    1.000
    C39      C        0.37580    0.15140    0.69640    1.000
    H51      H        0.30140    0.17350    0.67270    1.000
    H52      H        0.38900    0.21850    0.73150    1.000
    C40      C        0.45680    0.19450    0.66226    1.000
    H53      H        0.53120    0.17450    0.68630    1.000
    H54      H        0.45050    0.30950    0.65270    1.000
    N13      N        0.38470    0.98060    0.71333    1.000
    N14      N        0.43860    0.10040    0.60814    1.000
    N15      N        0.24240    0.50910    0.61319    1.000
    N16      N        0.55640    0.59980    0.56546    1.000
    O46      O        0.48850    0.69300    0.72833    1.000
    O47      O        0.54540    0.73320    0.82334    1.000
    O48      O        0.21690    0.86810    0.62596    1.000
    O49      O        0.09780    0.94080    0.67423    1.000
    O50      O        0.59460    0.88900    0.65671    1.000
    O51      O        0.72320    0.02960    0.63229    1.000
    O52      O        0.31830    0.89890    0.52801    1.000
    O53      O        0.21590    0.09260    0.47806    1.000
    O54      O        0.26000    0.56730    0.56795    1.000
    O55      O        0.30690    0.54200    0.66081    1.000
    O56      O        0.16380    0.42110    0.61107    1.000
    O57      O        0.53600    0.54760    0.61233    1.000
    O58      O        0.50700    0.72370    0.54410    1.000
    O59      O        0.62150    0.53190    0.54410    1.000
    O60      O        0.68850    0.75040    0.93456    1.000
    H55      H        0.70290    0.77440    0.91040    1.000
    H56      H        0.73930    0.71920    0.96740    1.000
