data_functionalizedCrystal
_audit_creation_method	'EQeq! by Chris Wilmer'
_symmetry_space_group_name_H-M	'P1'
_symmetry_Int_Tables_number	1
_symmetry_cell_setting	triclinic
loop_
_symmetry_equiv_pos_as_xyz
  x,y,z
_cell_length_a	21.297
_cell_length_b	21.297
_cell_length_c	15.38
_cell_angle_alpha	90
_cell_angle_beta	90
_cell_angle_gamma	120
loop_
_atom_site_label
_atom_site_type_symbol
_atom_site_fract_x
_atom_site_fract_y
_atom_site_fract_z
_atom_site_charge
Mof_N 	N 	0.16292	0.98695	0.1713	-0.095
Mof_N 	N 	0.07117	0.96842	0.0875	-0.135
Mof_N 	N 	0.20934	0.13412	0.3568	-0.112
Mof_N 	N 	0.09889	0.0791	0.4118	-0.144
Mof_C 	C 	0.28033	0.0985	0.1991	0.04
Mof_C 	C 	0.30902	0.1594	0.253	0.019
Mof_C 	C 	0.3056	0.1071	0.114	-0.104
Mof_H 	H 	0.2865	0.0657	0.0773	0.064
Mof_C 	C 	0.2257	0.023	0.2303	-0.129
Mof_H 	H 	0.2496	0.9934	0.2345	0.073
Mof_H 	H 	0.2086	0.0262	0.2891	0.071
Mof_C 	C 	0.1229	0.0146	0.1388	0.059
Mof_H 	H 	0.1312	0.0618	0.1516	0.018
Mof_C 	C 	0.0778	0.9074	0.0875	0.009
Mof_H 	H 	0.0476	0.8643	0.056	0.027
Mof_C 	C 	0.1338	0.918	0.1393	-0.013
Mof_H 	H 	0.1497	0.8844	0.1509	0.031
Mof_C 	C 	0.2867	0.1567	0.3471	-0.09
Mof_H 	H 	0.2967	0.1223	0.3793	0.052
Mof_H 	H 	0.3164	0.2052	0.3735	0.056
Mof_C 	C 	0.1641	0.0872	0.4175	0.077
Mof_H 	H 	0.1778	0.0632	0.4589	0.005
Mof_C 	C 	0.1025	0.1234	0.3438	0.004
Mof_H 	H 	0.0633	0.1292	0.324	0.032
Mof_C 	C 	0.1701	0.1574	0.3098	-0.004
Mof_H 	H 	0.1871	0.1907	0.2626	0.035
Mof_N 	N 	0.82959	0.32028	0.50463	-0.11
Mof_N 	N 	0.73784	0.30175	0.42083	-0.143
Mof_N 	N 	0.87601	0.46745	0.69013	-0.109
Mof_N 	N 	0.76556	0.41243	0.74513	-0.141
Mof_C 	C 	0.947	0.43183	0.53243	0.02
Mof_C 	C 	0.97569	0.49273	0.58633	0.047
Mof_C 	C 	0.97227	0.44043	0.44733	-0.074
Mof_H 	H 	0.95317	0.39903	0.41063	0.061
Mof_C 	C 	0.89237	0.35633	0.56363	-0.091
Mof_H 	H 	0.91627	0.32673	0.56783	0.058
Mof_H 	H 	0.87527	0.35953	0.62243	0.064
Mof_C 	C 	0.78957	0.34793	0.47213	0.085
Mof_H 	H 	0.79787	0.39513	0.48493	0.013
Mof_C 	C 	0.74447	0.24073	0.42083	0.007
Mof_H 	H 	0.71427	0.19763	0.38933	0.028
Mof_C 	C 	0.80047	0.25133	0.47263	-0.011
Mof_H 	H 	0.81637	0.21773	0.48423	0.03
Mof_C 	C 	0.95337	0.49003	0.68043	-0.103
Mof_H 	H 	0.96337	0.45563	0.71263	0.06
Mof_H 	H 	0.98307	0.53853	0.70683	0.063
Mof_C 	C 	0.83077	0.42053	0.75083	0.078
Mof_H 	H 	0.84447	0.39653	0.79223	0.008
Mof_C 	C 	0.76917	0.45673	0.67713	0.005
Mof_H 	H 	0.72997	0.46253	0.65733	0.035
Mof_C 	C 	0.83677	0.49073	0.64313	-0.004
Mof_H 	H 	0.85377	0.52403	0.59593	0.036
Mof_N 	N 	0.49625	0.65362	0.83797	-0.109
Mof_N 	N 	0.4045	0.63509	0.75417	-0.143
Mof_N 	N 	0.54267	0.80079	0.02347	-0.113
Mof_N 	N 	0.43222	0.74577	0.07847	-0.14
Mof_C 	C 	0.61366	0.76517	0.86577	0.034
Mof_C 	C 	0.64235	0.82607	0.91967	0.026
Mof_C 	C 	0.63893	0.77377	0.78067	-0.1
Mof_H 	H 	0.61983	0.73237	0.74397	0.067
Mof_C 	C 	0.55903	0.68967	0.89697	-0.098
Mof_H 	H 	0.58293	0.66007	0.90117	0.059
Mof_H 	H 	0.54193	0.69287	0.95577	0.067
Mof_C 	C 	0.45623	0.68127	0.80547	0.084
Mof_H 	H 	0.46453	0.72847	0.81827	0.013
Mof_C 	C 	0.41113	0.57407	0.75417	0.007
Mof_H 	H 	0.38093	0.53097	0.72267	0.029
Mof_C 	C 	0.46713	0.58467	0.80597	-0.011
Mof_H 	H 	0.48303	0.55107	0.81757	0.03
Mof_C 	C 	0.62003	0.82337	0.01377	-0.095
Mof_H 	H 	0.63003	0.78897	0.04597	0.054
Mof_H 	H 	0.64973	0.87187	0.04017	0.057
Mof_C 	C 	0.49743	0.75387	0.08417	0.078
Mof_H 	H 	0.51113	0.72987	0.12557	0.007
Mof_C 	C 	0.43583	0.79007	0.01047	-0.006
Mof_H 	H 	0.39663	0.79587	0.99067	0.041
Mof_C 	C 	0.50343	0.82407	0.97647	0.008
Mof_H 	H 	0.52043	0.85737	0.92927	0.033
Mof_N 	N 	0.01305	0.17597	0.1713	-0.122
Mof_N 	N 	0.03158	0.10275	0.0875	-0.151
Mof_N 	N 	0.86588	0.07522	0.3568	-0.105
Mof_N 	N 	0.9209	0.01979	0.4118	-0.147
Mof_C 	C 	0.9015	0.18183	0.1991	0.024
Mof_C 	C 	0.8406	0.14962	0.253	0.031
Mof_C 	C 	0.8929	0.1985	0.114	-0.091
Mof_H 	H 	0.9343	0.2208	0.0773	0.064
Mof_C 	C 	0.977	0.2027	0.2303	-0.068
Mof_H 	H 	0.0066	0.2562	0.2345	0.044
Mof_H 	H 	0.9738	0.1824	0.2891	0.06
Mof_C 	C 	0.9854	0.1083	0.1388	0.104
Mof_H 	H 	0.9382	0.0694	0.1516	0.005
Mof_C 	C 	0.0926	0.1704	0.0875	0.005
Mof_H 	H 	0.1357	0.1833	0.056	0.028
Mof_C 	C 	0.082	0.2158	0.1393	-0.011
Mof_H 	H 	0.1156	0.2653	0.1509	0.028
Mof_C 	C 	0.8433	0.13	0.3471	-0.097
Mof_H 	H 	0.8777	0.1744	0.3793	0.057
Mof_H 	H 	0.7948	0.1112	0.3735	0.057
Mof_C 	C 	0.9128	0.0769	0.4175	0.077
Mof_H 	H 	0.9368	0.1146	0.4589	0.009
Mof_C 	C 	0.8766	0.9791	0.3438	0.039
Mof_H 	H 	0.8708	0.9341	0.324	0.026
Mof_C 	C 	0.8426	0.0127	0.3098	-0.041
Mof_H 	H 	0.8093	0.9964	0.2626	0.054
Mof_N 	N 	0.67972	0.5093	0.50463	-0.109
Mof_N 	N 	0.69825	0.43608	0.42083	-0.143
Mof_N 	N 	0.53255	0.40855	0.69013	-0.111
Mof_N 	N 	0.58757	0.35312	0.74513	-0.142
Mof_C 	C 	0.56817	0.51516	0.53243	0.034
Mof_C 	C 	0.50727	0.48295	0.58633	0.025
Mof_C 	C 	0.55957	0.53183	0.44733	-0.099
Mof_H 	H 	0.60097	0.55413	0.41063	0.066
Mof_C 	C 	0.64367	0.53603	0.56363	-0.097
Mof_H 	H 	0.67327	0.58953	0.56783	0.059
Mof_H 	H 	0.64047	0.51573	0.62243	0.066
Mof_C 	C 	0.65207	0.44163	0.47213	0.084
Mof_H 	H 	0.60487	0.40273	0.48493	0.013
Mof_C 	C 	0.75927	0.50373	0.42083	0.007
Mof_H 	H 	0.80237	0.51663	0.38933	0.029
Mof_C 	C 	0.74867	0.54913	0.47263	-0.011
Mof_H 	H 	0.78227	0.59863	0.48423	0.03
Mof_C 	C 	0.50997	0.46333	0.68043	-0.092
Mof_H 	H 	0.54437	0.50773	0.71263	0.054
Mof_H 	H 	0.46147	0.44453	0.70683	0.057
Mof_C 	C 	0.57947	0.41023	0.75083	0.078
Mof_H 	H 	0.60347	0.44793	0.79223	0.007
Mof_C 	C 	0.54327	0.31243	0.67713	0.005
Mof_H 	H 	0.53747	0.26743	0.65733	0.035
Mof_C 	C 	0.50927	0.34603	0.64313	-0.003
Mof_H 	H 	0.47597	0.32973	0.59593	0.035
Mof_N 	N 	0.34638	0.84264	0.83797	-0.109
Mof_N 	N 	0.36491	0.76942	0.75417	-0.143
Mof_N 	N 	0.19921	0.74189	0.02347	-0.113
Mof_N 	N 	0.25423	0.68646	0.07847	-0.14
Mof_C 	C 	0.23483	0.8485	0.86577	0.032
Mof_C 	C 	0.17393	0.81629	0.91967	0.03
Mof_C 	C 	0.22623	0.86517	0.78067	-0.095
Mof_H 	H 	0.26763	0.88747	0.74397	0.067
Mof_C 	C 	0.31033	0.86937	0.89697	-0.097
Mof_H 	H 	0.33993	0.92287	0.90117	0.061
Mof_H 	H 	0.30713	0.84907	0.95577	0.067
Mof_C 	C 	0.31873	0.77497	0.80547	0.084
Mof_H 	H 	0.27153	0.73607	0.81827	0.013
Mof_C 	C 	0.42593	0.83707	0.75417	0.008
Mof_H 	H 	0.46903	0.84997	0.72267	0.03
Mof_C 	C 	0.41533	0.88247	0.80597	-0.011
Mof_H 	H 	0.44893	0.93197	0.81757	0.033
Mof_C 	C 	0.17663	0.79667	0.01377	-0.096
Mof_H 	H 	0.21103	0.84107	0.04597	0.055
Mof_H 	H 	0.12813	0.77787	0.04017	0.056
Mof_C 	C 	0.24613	0.74357	0.08417	0.077
Mof_H 	H 	0.27013	0.78127	0.12557	0.007
Mof_C 	C 	0.20993	0.64577	0.01047	-0.008
Mof_H 	H 	0.20413	0.60077	0.99067	0.041
Mof_C 	C 	0.17593	0.67937	0.97647	0.007
Mof_H 	H 	0.14263	0.66307	0.92927	0.031
Mof_N 	N 	0.82403	0.83708	0.1713	-0.109
Mof_N 	N 	0.89725	0.92883	0.0875	-0.139
Mof_N 	N 	0.92478	0.79066	0.3568	-0.116
Mof_N 	N 	0.98021	0.90111	0.4118	-0.13
Mof_C 	C 	0.81817	0.71967	0.1991	0.033
Mof_C 	C 	0.85038	0.69098	0.253	0.026
Mof_C 	C 	0.8015	0.6944	0.114	-0.096
Mof_H 	H 	0.7792	0.7135	0.0773	0.065
Mof_C 	C 	0.7973	0.7743	0.2303	-0.097
Mof_H 	H 	0.7438	0.7504	0.2345	0.058
Mof_H 	H 	0.8176	0.7914	0.2891	0.066
Mof_C 	C 	0.8917	0.8771	0.1388	0.085
Mof_H 	H 	0.9306	0.8688	0.1516	0.015
Mof_C 	C 	0.8296	0.9222	0.0875	0.008
Mof_H 	H 	0.8167	0.9524	0.056	0.03
Mof_C 	C 	0.7842	0.8662	0.1393	-0.011
Mof_H 	H 	0.7347	0.8503	0.1509	0.03
Mof_C 	C 	0.87	0.7133	0.3471	-0.09
Mof_H 	H 	0.8256	0.7033	0.3793	0.054
Mof_H 	H 	0.8888	0.6836	0.3735	0.057
Mof_C 	C 	0.9231	0.8359	0.4175	0.08
Mof_H 	H 	0.8854	0.8222	0.4589	0.008
Mof_C 	C 	0.0209	0.8975	0.3438	-0.026
Mof_H 	H 	0.0659	0.9367	0.324	0.048
Mof_C 	C 	0.9873	0.8299	0.3098	0.033
Mof_H 	H 	0.0036	0.8129	0.2626	0.018
Mof_N 	N 	0.4907	0.17041	0.50463	-0.108
Mof_N 	N 	0.56392	0.26216	0.42083	-0.143
Mof_N 	N 	0.59145	0.12399	0.69013	-0.113
Mof_N 	N 	0.64688	0.23444	0.74513	-0.142
Mof_C 	C 	0.48484	0.053	0.53243	0.047
Mof_C 	C 	0.51705	0.02431	0.58633	0.004
Mof_C 	C 	0.46817	0.02773	0.44733	-0.123
Mof_H 	H 	0.44587	0.04683	0.41063	0.072
Mof_C 	C 	0.46397	0.10763	0.56363	-0.104
Mof_H 	H 	0.41047	0.08373	0.56783	0.059
Mof_H 	H 	0.48427	0.12473	0.62243	0.068
Mof_C 	C 	0.55837	0.21043	0.47213	0.084
Mof_H 	H 	0.59727	0.20213	0.48493	0.013
Mof_C 	C 	0.49627	0.25553	0.42083	0.007
Mof_H 	H 	0.48337	0.28573	0.38933	0.029
Mof_C 	C 	0.45087	0.19953	0.47263	-0.012
Mof_H 	H 	0.40137	0.18363	0.48423	0.03
Mof_C 	C 	0.53667	0.04663	0.68043	-0.081
Mof_H 	H 	0.49227	0.03663	0.71263	0.049
Mof_H 	H 	0.55547	0.01693	0.70683	0.051
Mof_C 	C 	0.58977	0.16923	0.75083	0.078
Mof_H 	H 	0.55207	0.15553	0.79223	0.006
Mof_C 	C 	0.68757	0.23083	0.67713	0.004
Mof_H 	H 	0.73257	0.27003	0.65733	0.035
Mof_C 	C 	0.65397	0.16323	0.64313	-0.002
Mof_H 	H 	0.67027	0.14623	0.59593	0.034
Mof_N 	N 	0.15736	0.50375	0.83797	-0.109
Mof_N 	N 	0.23058	0.5955	0.75417	-0.143
Mof_N 	N 	0.25811	0.45733	0.02347	-0.114
Mof_N 	N 	0.31354	0.56778	0.07847	-0.14
Mof_C 	C 	0.1515	0.38634	0.86577	0.031
Mof_C 	C 	0.18371	0.35765	0.91967	0.029
Mof_C 	C 	0.13483	0.36107	0.78067	-0.098
Mof_H 	H 	0.11253	0.38017	0.74397	0.065
Mof_C 	C 	0.13063	0.44097	0.89697	-0.096
Mof_H 	H 	0.07713	0.41707	0.90117	0.057
Mof_H 	H 	0.15093	0.45807	0.95577	0.066
Mof_C 	C 	0.22503	0.54377	0.80547	0.084
Mof_H 	H 	0.26393	0.53547	0.81827	0.013
Mof_C 	C 	0.16293	0.58887	0.75417	0.007
Mof_H 	H 	0.15003	0.61907	0.72267	0.028
Mof_C 	C 	0.11753	0.53287	0.80597	-0.012
Mof_H 	H 	0.06803	0.51697	0.81757	0.027
Mof_C 	C 	0.20333	0.37997	0.01377	-0.096
Mof_H 	H 	0.15893	0.36997	0.04597	0.054
Mof_H 	H 	0.22213	0.35027	0.04017	0.056
Mof_C 	C 	0.25643	0.50257	0.08417	0.077
Mof_H 	H 	0.21873	0.48887	0.12557	0.006
Mof_C 	C 	0.35423	0.56417	0.01047	-0.009
Mof_H 	H 	0.39923	0.60337	0.99067	0.042
Mof_C 	C 	0.32063	0.49657	0.97647	0.01
Mof_H 	H 	0.33693	0.47957	0.92927	0.032
Mof_N 	N 	0.83708	0.01305	0.8287	-0.119
Mof_N 	N 	0.92883	0.03158	0.9125	-0.144
Mof_N 	N 	0.79066	0.86588	0.6432	-0.111
Mof_N 	N 	0.90111	0.9209	0.5882	-0.137
Mof_C 	C 	0.71967	0.9015	0.8009	0.028
Mof_C 	C 	0.69098	0.8406	0.747	0.029
Mof_C 	C 	0.6944	0.8929	0.886	-0.095
Mof_H 	H 	0.7135	0.9343	0.9227	0.068
Mof_C 	C 	0.7743	0.977	0.7697	-0.074
Mof_H 	H 	0.7504	0.0066	0.7655	0.047
Mof_H 	H 	0.7914	0.9738	0.7109	0.062
Mof_C 	C 	0.8771	0.9854	0.8612	0.101
Mof_H 	H 	0.8688	0.9382	0.8484	0.009
Mof_C 	C 	0.9222	0.0926	0.9125	0.007
Mof_H 	H 	0.9524	0.1357	0.944	0.033
Mof_C 	C 	0.8662	0.082	0.8607	-0.01
Mof_H 	H 	0.8503	0.1156	0.8491	0.029
Mof_C 	C 	0.7133	0.8433	0.6529	-0.094
Mof_H 	H 	0.7033	0.8777	0.6207	0.056
Mof_H 	H 	0.6836	0.7948	0.6265	0.057
Mof_C 	C 	0.8359	0.9128	0.5825	0.079
Mof_H 	H 	0.8222	0.9368	0.5411	0.009
Mof_C 	C 	0.8975	0.8766	0.6562	0.006
Mof_H 	H 	0.9367	0.8708	0.676	0.038
Mof_C 	C 	0.8299	0.8426	0.6902	-0.002
Mof_H 	H 	0.8129	0.8093	0.7374	0.036
Mof_N 	N 	0.50375	0.34638	0.16203	-0.109
Mof_N 	N 	0.5955	0.36491	0.24583	-0.143
Mof_N 	N 	0.45733	0.19921	0.97653	-0.107
Mof_N 	N 	0.56778	0.25423	0.92153	-0.144
Mof_C 	C 	0.38634	0.23483	0.13423	0.032
Mof_C 	C 	0.35765	0.17393	0.08033	0.023
Mof_C 	C 	0.36107	0.22623	0.21933	-0.096
Mof_H 	H 	0.38017	0.26763	0.25603	0.066
Mof_C 	C 	0.44097	0.31033	0.10303	-0.097
Mof_H 	H 	0.41707	0.33993	0.09883	0.057
Mof_H 	H 	0.45807	0.30713	0.04423	0.065
Mof_C 	C 	0.54377	0.31873	0.19453	0.084
Mof_H 	H 	0.53547	0.27153	0.18173	0.012
Mof_C 	C 	0.58887	0.42593	0.24583	0.007
Mof_H 	H 	0.61907	0.46903	0.27733	0.029
Mof_C 	C 	0.53287	0.41533	0.19403	-0.012
Mof_H 	H 	0.51697	0.44893	0.18243	0.029
Mof_C 	C 	0.37997	0.17663	0.98623	-0.088
Mof_H 	H 	0.36997	0.21103	0.95403	0.054
Mof_H 	H 	0.35027	0.12813	0.95983	0.056
Mof_C 	C 	0.50257	0.24613	0.91583	0.079
Mof_H 	H 	0.48887	0.27013	0.87443	0.007
Mof_C 	C 	0.56417	0.20993	0.98953	0.023
Mof_H 	H 	0.60337	0.20413	0.00933	0.026
Mof_C 	C 	0.49657	0.17593	0.02353	-0.02
Mof_H 	H 	0.47957	0.14263	0.07073	0.039
Mof_N 	N 	0.17041	0.67972	0.49537	-0.108
Mof_N 	N 	0.26216	0.69825	0.57917	-0.143
Mof_N 	N 	0.12399	0.53255	0.30987	-0.113
Mof_N 	N 	0.23444	0.58757	0.25487	-0.142
Mof_C 	C 	0.053	0.56817	0.46757	0.047
Mof_C 	C 	0.02431	0.50727	0.41367	0.003
Mof_C 	C 	0.02773	0.55957	0.55267	-0.123
Mof_H 	H 	0.04683	0.60097	0.58937	0.072
Mof_C 	C 	0.10763	0.64367	0.43637	-0.104
Mof_H 	H 	0.08373	0.67327	0.43217	0.059
Mof_H 	H 	0.12473	0.64047	0.37757	0.068
Mof_C 	C 	0.21043	0.65207	0.52787	0.084
Mof_H 	H 	0.20213	0.60487	0.51507	0.013
Mof_C 	C 	0.25553	0.75927	0.57917	0.007
Mof_H 	H 	0.28573	0.80237	0.61067	0.029
Mof_C 	C 	0.19953	0.74867	0.52737	-0.012
Mof_H 	H 	0.18363	0.78227	0.51577	0.03
Mof_C 	C 	0.04663	0.50997	0.31957	-0.081
Mof_H 	H 	0.03663	0.54437	0.28737	0.049
Mof_H 	H 	0.01693	0.46147	0.29317	0.05
Mof_C 	C 	0.16923	0.57947	0.24917	0.078
Mof_H 	H 	0.15553	0.60347	0.20777	0.006
Mof_C 	C 	0.23083	0.54327	0.32287	0.004
Mof_H 	H 	0.27003	0.53747	0.34267	0.035
Mof_C 	C 	0.16323	0.50927	0.35687	-0.002
Mof_H 	H 	0.14623	0.47597	0.40407	0.034
Mof_N 	N 	0.98695	0.82403	0.8287	-0.097
Mof_N 	N 	0.96842	0.89725	0.9125	-0.132
Mof_N 	N 	0.13412	0.92478	0.6432	-0.117
Mof_N 	N 	0.0791	0.98021	0.5882	-0.131
Mof_C 	C 	0.0985	0.81817	0.8009	0.042
Mof_C 	C 	0.1594	0.85038	0.747	0.02
Mof_C 	C 	0.1071	0.8015	0.886	-0.105
Mof_H 	H 	0.0657	0.7792	0.9227	0.068
Mof_C 	C 	0.023	0.7973	0.7697	-0.124
Mof_H 	H 	0.9934	0.7438	0.7655	0.072
Mof_H 	H 	0.0262	0.8176	0.7109	0.071
Mof_C 	C 	0.0146	0.8917	0.8612	0.066
Mof_H 	H 	0.0618	0.9306	0.8484	0.021
Mof_C 	C 	0.9074	0.8296	0.9125	0.009
Mof_H 	H 	0.8643	0.8167	0.944	0.03
Mof_C 	C 	0.918	0.7842	0.8607	-0.012
Mof_H 	H 	0.8844	0.7347	0.8491	0.031
Mof_C 	C 	0.1567	0.87	0.6529	-0.087
Mof_H 	H 	0.1223	0.8256	0.6207	0.052
Mof_H 	H 	0.2052	0.8888	0.6265	0.056
Mof_C 	C 	0.0872	0.9231	0.5825	0.079
Mof_H 	H 	0.0632	0.8854	0.5411	0.006
Mof_C 	C 	0.1234	0.0209	0.6562	-0.032
Mof_H 	H 	0.1292	0.0659	0.676	0.046
Mof_C 	C 	0.1574	0.9873	0.6902	0.037
Mof_H 	H 	0.1907	0.0036	0.7374	0.016
Mof_N 	N 	0.65362	0.15736	0.16203	-0.109
Mof_N 	N 	0.63509	0.23058	0.24583	-0.143
Mof_N 	N 	0.80079	0.25811	0.97653	-0.107
Mof_N 	N 	0.74577	0.31354	0.92153	-0.144
Mof_C 	C 	0.76517	0.1515	0.13423	0.036
Mof_C 	C 	0.82607	0.18371	0.08033	0.017
Mof_C 	C 	0.77377	0.13483	0.21933	-0.103
Mof_H 	H 	0.73237	0.11253	0.25603	0.067
Mof_C 	C 	0.68967	0.13063	0.10303	-0.098
Mof_H 	H 	0.66007	0.07713	0.09883	0.056
Mof_H 	H 	0.69287	0.15093	0.04423	0.064
Mof_C 	C 	0.68127	0.22503	0.19453	0.084
Mof_H 	H 	0.72847	0.26393	0.18173	0.013
Mof_C 	C 	0.57407	0.16293	0.24583	0.006
Mof_H 	H 	0.53097	0.15003	0.27733	0.028
Mof_C 	C 	0.58467	0.11753	0.19403	-0.012
Mof_H 	H 	0.55107	0.06803	0.18243	0.027
Mof_C 	C 	0.82337	0.20333	0.98623	-0.085
Mof_H 	H 	0.78897	0.15893	0.95403	0.053
Mof_H 	H 	0.87187	0.22213	0.95983	0.057
Mof_C 	C 	0.75387	0.25643	0.91583	0.079
Mof_H 	H 	0.72987	0.21873	0.87443	0.007
Mof_C 	C 	0.79007	0.35423	0.98953	0.023
Mof_H 	H 	0.79587	0.39923	0.00933	0.027
Mof_C 	C 	0.82407	0.32063	0.02353	-0.018
Mof_H 	H 	0.85737	0.33693	0.07073	0.041
Mof_N 	N 	0.32028	0.4907	0.49537	-0.109
Mof_N 	N 	0.30175	0.56392	0.57917	-0.143
Mof_N 	N 	0.46745	0.59145	0.30987	-0.111
Mof_N 	N 	0.41243	0.64688	0.25487	-0.142
Mof_C 	C 	0.43183	0.48484	0.46757	0.034
Mof_C 	C 	0.49273	0.51705	0.41367	0.025
Mof_C 	C 	0.44043	0.46817	0.55267	-0.099
Mof_H 	H 	0.39903	0.44587	0.58937	0.066
Mof_C 	C 	0.35633	0.46397	0.43637	-0.097
Mof_H 	H 	0.32673	0.41047	0.43217	0.058
Mof_H 	H 	0.35953	0.48427	0.37757	0.066
Mof_C 	C 	0.34793	0.55837	0.52787	0.084
Mof_H 	H 	0.39513	0.59727	0.51507	0.013
Mof_C 	C 	0.24073	0.49627	0.57917	0.007
Mof_H 	H 	0.19763	0.48337	0.61067	0.028
Mof_C 	C 	0.25133	0.45087	0.52737	-0.012
Mof_H 	H 	0.21773	0.40137	0.51577	0.029
Mof_C 	C 	0.49003	0.53667	0.31957	-0.092
Mof_H 	H 	0.45563	0.49227	0.28737	0.054
Mof_H 	H 	0.53853	0.55547	0.29317	0.056
Mof_C 	C 	0.42053	0.58977	0.24917	0.078
Mof_H 	H 	0.39653	0.55207	0.20777	0.007
Mof_C 	C 	0.45673	0.68757	0.32287	0.005
Mof_H 	H 	0.46253	0.73257	0.34267	0.035
Mof_C 	C 	0.49073	0.65397	0.35687	-0.003
Mof_H 	H 	0.52403	0.67027	0.40407	0.035
Mof_N 	N 	0.17597	0.16292	0.8287	-0.109
Mof_N 	N 	0.10275	0.07117	0.9125	-0.143
Mof_N 	N 	0.07522	0.20934	0.6432	-0.105
Mof_N 	N 	0.01979	0.09889	0.5882	-0.151
Mof_C 	C 	0.18183	0.28033	0.8009	0.034
Mof_C 	C 	0.14962	0.30902	0.747	0.024
Mof_C 	C 	0.1985	0.3056	0.886	-0.101
Mof_H 	H 	0.2208	0.2865	0.9227	0.068
Mof_C 	C 	0.2027	0.2257	0.7697	-0.098
Mof_H 	H 	0.2562	0.2496	0.7655	0.059
Mof_H 	H 	0.1824	0.2086	0.7109	0.066
Mof_C 	C 	0.1083	0.1229	0.8612	0.084
Mof_H 	H 	0.0694	0.1312	0.8484	0.011
Mof_C 	C 	0.1704	0.0778	0.9125	0.007
Mof_H 	H 	0.1833	0.0476	0.944	0.028
Mof_C 	C 	0.2158	0.1338	0.8607	-0.011
Mof_H 	H 	0.2653	0.1497	0.8491	0.03
Mof_C 	C 	0.13	0.2867	0.6529	-0.094
Mof_H 	H 	0.1744	0.2967	0.6207	0.055
Mof_H 	H 	0.1112	0.3164	0.6265	0.056
Mof_C 	C 	0.0769	0.1641	0.5825	0.076
Mof_H 	H 	0.1146	0.1778	0.5411	0.007
Mof_C 	C 	0.9791	0.1025	0.6562	0.042
Mof_H 	H 	0.9341	0.0633	0.676	0.022
Mof_C 	C 	0.0127	0.1701	0.6902	-0.046
Mof_H 	H 	0.9964	0.1871	0.7374	0.056
Mof_N 	N 	0.84264	0.49625	0.16203	-0.109
Mof_N 	N 	0.76942	0.4045	0.24583	-0.143
Mof_N 	N 	0.74189	0.54267	0.97653	-0.108
Mof_N 	N 	0.68646	0.43222	0.92153	-0.144
Mof_C 	C 	0.8485	0.61366	0.13423	0.036
Mof_C 	C 	0.81629	0.64235	0.08033	0.021
Mof_C 	C 	0.86517	0.63893	0.21933	-0.099
Mof_H 	H 	0.88747	0.61983	0.25603	0.068
Mof_C 	C 	0.86937	0.55903	0.10303	-0.098
Mof_H 	H 	0.92287	0.58293	0.09883	0.06
Mof_H 	H 	0.84907	0.54193	0.04423	0.066
Mof_C 	C 	0.77497	0.45623	0.19453	0.084
Mof_H 	H 	0.73607	0.46453	0.18173	0.012
Mof_C 	C 	0.83707	0.41113	0.24583	0.008
Mof_H 	H 	0.84997	0.38093	0.27733	0.03
Mof_C 	C 	0.88247	0.46713	0.19403	-0.011
Mof_H 	H 	0.93197	0.48303	0.18243	0.032
Mof_C 	C 	0.79667	0.62003	0.98623	-0.088
Mof_H 	H 	0.84107	0.63003	0.95403	0.055
Mof_H 	H 	0.77787	0.64973	0.95983	0.056
Mof_C 	C 	0.74357	0.49743	0.91583	0.079
Mof_H 	H 	0.78127	0.51113	0.87443	0.007
Mof_C 	C 	0.64577	0.43583	0.98953	0.021
Mof_H 	H 	0.60077	0.39663	0.00933	0.027
Mof_C 	C 	0.67937	0.50343	0.02353	-0.017
Mof_H 	H 	0.66307	0.52043	0.07073	0.039
Mof_N 	N 	0.5093	0.82959	0.49537	-0.11
Mof_N 	N 	0.43608	0.73784	0.57917	-0.143
Mof_N 	N 	0.40855	0.87601	0.30987	-0.109
Mof_N 	N 	0.35312	0.76556	0.25487	-0.141
Mof_C 	C 	0.51516	0.947	0.46757	0.02
Mof_C 	C 	0.48295	0.97569	0.41367	0.047
Mof_C 	C 	0.53183	0.97227	0.55267	-0.075
Mof_H 	H 	0.55413	0.95317	0.58937	0.061
Mof_C 	C 	0.53603	0.89237	0.43637	-0.091
Mof_H 	H 	0.58953	0.91627	0.43217	0.058
Mof_H 	H 	0.51573	0.87527	0.37757	0.064
Mof_C 	C 	0.44163	0.78957	0.52787	0.085
Mof_H 	H 	0.40273	0.79787	0.51507	0.013
Mof_C 	C 	0.50373	0.74447	0.57917	0.007
Mof_H 	H 	0.51663	0.71427	0.61067	0.029
Mof_C 	C 	0.54913	0.80047	0.52737	-0.011
Mof_H 	H 	0.59863	0.81637	0.51577	0.03
Mof_C 	C 	0.46333	0.95337	0.31957	-0.103
Mof_H 	H 	0.50773	0.96337	0.28737	0.059
Mof_H 	H 	0.44453	0.98307	0.29317	0.063
Mof_C 	C 	0.41023	0.83077	0.24917	0.078
Mof_H 	H 	0.44793	0.84447	0.20777	0.008
Mof_C 	C 	0.31243	0.76917	0.32287	0.005
Mof_H 	H 	0.26743	0.72997	0.34267	0.035
Mof_C 	C 	0.34603	0.83677	0.35687	-0.004
Mof_H 	H 	0.32973	0.85377	0.40407	0.036
Mof_Cd	Cd	-0	0	-0	0.353
Mof_Cd	Cd	0.66667	0.33333	0.33333	0.374
Mof_Cd	Cd	0.33333	0.66667	0.66667	0.374
Mof_Cd	Cd	-0	0	0.5	0.357
Mof_Cd	Cd	0.66667	0.33333	0.83333	0.375
Mof_Cd	Cd	0.33333	0.66667	0.16667	0.373
_end
