data_functionalizedCrystal
_audit_creation_method	'EQeq! by Chris Wilmer'
_symmetry_space_group_name_H-M	'P1'
_symmetry_Int_Tables_number	1
_symmetry_cell_setting	triclinic
loop_
_symmetry_equiv_pos_as_xyz
  x,y,z
_cell_length_a	29.155
_cell_length_b	29.155
_cell_length_c	17.367
_cell_angle_alpha	90
_cell_angle_beta	90
_cell_angle_gamma	120
loop_
_atom_site_label
_atom_site_type_symbol
_atom_site_fract_x
_atom_site_fract_y
_atom_site_fract_z
_atom_site_charge
Mof_In	In	0.69353	0.1596	0.11451	2.522
Mof_O 	O 	0.7228	0.1904	0.2511	-0.407
Mof_O 	O 	0.7667	0.173	0.1653	-0.559
Mof_O 	O 	0.6434	0.0883	0.1778	-0.529
Mof_O 	O 	0.6065	0.0881	0.0654	-0.373
Mof_O 	O 	0.718	0.1119	0.0275	-0.417
Mof_O 	O 	0.7157	0.183	0.9936	-0.531
Mof_O 	O 	0.7315	0.2531	0.1196	-0.437
Mof_O 	O 	0.6455	0.1978	0.1277	-0.525
Mof_C 	C 	0.8088	0.207	0.2867	-0.051
Mof_C 	C 	0.8513	0.2004	0.2643	0.005
Mof_H 	H 	0.8515	0.1866	0.2161	0.077
Mof_C 	C 	0.8936	0.2146	0.3154	-0.048
Mof_C 	C 	0.8953	0.241	0.3831	0.008
Mof_H 	H 	0.9247	0.2536	0.4151	0.076
Mof_C 	C 	0.8534	0.2486	0.4034	-0.057
Mof_C 	C 	0.809	0.2293	0.3525	0.009
Mof_H 	H 	0.7799	0.2326	0.3662	0.069
Mof_C 	C 	0.7618	0.1885	0.23	0.348
Mof_C 	C 	0.6052	0.0649	0.1286	0.247
Mof_C 	C 	0.727	0.147	0.9781	0.297
Mof_C 	C 	0.6233	0.2813	0.1278	-0.005
Mof_H 	H 	0.5946	0.247	0.1288	0.078
Mof_C 	C 	0.6746	0.2899	0.127	-0.04
Mof_C 	C 	0.6851	0.2446	0.1262	0.31
Mof_In	In	0.3602	0.49293	0.44784	2.499
Mof_O 	O 	0.38947	0.52373	0.58443	-0.409
Mof_O 	O 	0.43337	0.50633	0.49863	-0.565
Mof_O 	O 	0.31007	0.42163	0.51113	-0.547
Mof_O 	O 	0.27317	0.42143	0.39873	-0.399
Mof_O 	O 	0.38467	0.44523	0.36083	-0.442
Mof_O 	O 	0.38237	0.51633	0.32693	-0.525
Mof_O 	O 	0.39817	0.58643	0.45293	-0.441
Mof_O 	O 	0.31217	0.53113	0.46103	-0.528
Mof_C 	C 	0.47547	0.54033	0.62003	-0.061
Mof_C 	C 	0.51797	0.53373	0.59763	0.009
Mof_H 	H 	0.51817	0.51993	0.54943	0.068
Mof_C 	C 	0.56027	0.54793	0.64873	-0.061
Mof_C 	C 	0.56197	0.57433	0.71643	0.013
Mof_H 	H 	0.59137	0.58693	0.74843	0.067
Mof_C 	C 	0.52007	0.58193	0.73673	-0.067
Mof_C 	C 	0.47567	0.56263	0.68583	0.014
Mof_H 	H 	0.44657	0.56593	0.69953	0.064
Mof_C 	C 	0.42847	0.52183	0.56333	0.35
Mof_C 	C 	0.27187	0.39823	0.46193	0.302
Mof_C 	C 	0.39367	0.48033	0.31143	0.322
Mof_C 	C 	0.28997	0.61463	0.46113	-0.002
Mof_H 	H 	0.26127	0.58033	0.46213	0.073
Mof_C 	C 	0.34127	0.62323	0.46033	-0.046
Mof_C 	C 	0.35177	0.57793	0.45953	0.311
Mof_In	In	0.02686	0.82627	0.78118	2.398
Mof_O 	O 	0.05613	0.85707	0.91777	-0.427
Mof_O 	O 	0.10003	0.83967	0.83197	-0.563
Mof_O 	O 	0.97673	0.75497	0.84447	-0.515
Mof_O 	O 	0.93983	0.75477	0.73207	-0.378
Mof_O 	O 	0.05133	0.77857	0.69417	-0.445
Mof_O 	O 	0.04903	0.84967	0.66027	-0.526
Mof_O 	O 	0.06483	0.91977	0.78627	-0.447
Mof_O 	O 	0.97883	0.86447	0.79437	-0.487
Mof_C 	C 	0.14213	0.87367	0.95337	-0.126
Mof_C 	C 	0.18463	0.86707	0.93097	0.048
Mof_H 	H 	0.18483	0.85327	0.88277	0.051
Mof_C 	C 	0.22693	0.88127	0.98207	-0.112
Mof_C 	C 	0.22863	0.90767	0.04977	0.072
Mof_H 	H 	0.25803	0.92027	0.08177	0.047
Mof_C 	C 	0.18673	0.91527	0.07007	-0.109
Mof_C 	C 	0.14233	0.89597	0.01917	0.084
Mof_H 	H 	0.11323	0.89927	0.03287	0.042
Mof_C 	C 	0.09513	0.85517	0.89667	0.366
Mof_C 	C 	0.93853	0.73157	0.79527	0.297
Mof_C 	C 	0.06033	0.81367	0.64477	0.322
Mof_C 	C 	0.95663	0.94797	0.79447	0.146
Mof_H 	H 	0.92793	0.91367	0.79547	0.027
Mof_C 	C 	0.00793	0.95657	0.79367	-0.202
Mof_C 	C 	0.01843	0.91127	0.79287	0.311
Mof_In	In	0.8404	0.53393	0.11451	2.52
Mof_O 	O 	0.8096	0.5324	0.2511	-0.408
Mof_O 	O 	0.827	0.5937	0.1653	-0.562
Mof_O 	O 	0.9117	0.5551	0.1778	-0.53
Mof_O 	O 	0.9119	0.5184	0.0654	-0.374
Mof_O 	O 	0.8881	0.6061	0.0275	-0.418
Mof_O 	O 	0.817	0.5327	0.9936	-0.533
Mof_O 	O 	0.7469	0.4784	0.1196	-0.439
Mof_O 	O 	0.8022	0.4477	0.1277	-0.526
Mof_C 	C 	0.793	0.6018	0.2867	-0.056
Mof_C 	C 	0.7996	0.6509	0.2643	0.007
Mof_H 	H 	0.8134	0.6649	0.2161	0.072
Mof_C 	C 	0.7854	0.679	0.3154	-0.056
Mof_C 	C 	0.759	0.6543	0.3831	0.012
Mof_H 	H 	0.7464	0.6711	0.4151	0.069
Mof_C 	C 	0.7514	0.6048	0.4034	-0.063
Mof_C 	C 	0.7707	0.5797	0.3525	0.012
Mof_H 	H 	0.7674	0.5473	0.3662	0.067
Mof_C 	C 	0.8115	0.5733	0.23	0.349
Mof_C 	C 	0.9351	0.5403	0.1286	0.247
Mof_C 	C 	0.853	0.58	0.9781	0.297
Mof_C 	C 	0.7187	0.342	0.1278	-0.005
Mof_H 	H 	0.753	0.3476	0.1288	0.078
Mof_C 	C 	0.7101	0.3847	0.127	-0.041
Mof_C 	C 	0.7554	0.4405	0.1262	0.31
Mof_In	In	0.50707	0.86726	0.44784	2.495
Mof_O 	O 	0.47627	0.86573	0.58443	-0.403
Mof_O 	O 	0.49367	0.92703	0.49863	-0.563
Mof_O 	O 	0.57837	0.88843	0.51113	-0.55
Mof_O 	O 	0.57857	0.85173	0.39873	-0.4
Mof_O 	O 	0.55477	0.93943	0.36083	-0.443
Mof_O 	O 	0.48367	0.86603	0.32693	-0.516
Mof_O 	O 	0.41357	0.81173	0.45293	-0.443
Mof_O 	O 	0.46887	0.78103	0.46103	-0.528
Mof_C 	C 	0.45967	0.93513	0.62003	0.02
Mof_C 	C 	0.46627	0.98423	0.59763	-0.137
Mof_H 	H 	0.48007	0.99823	0.54943	0.104
Mof_C 	C 	0.45207	0.01233	0.64873	0.12
Mof_C 	C 	0.42567	0.98763	0.71643	-0.208
Mof_H 	H 	0.41307	0.00443	0.74843	0.169
Mof_C 	C 	0.41807	0.93813	0.73673	0.033
Mof_C 	C 	0.43737	0.91303	0.68583	-0.079
Mof_H 	H 	0.43407	0.88063	0.69953	0.094
Mof_C 	C 	0.47817	0.90663	0.56333	0.32
Mof_C 	C 	0.60177	0.87363	0.46193	0.301
Mof_C 	C 	0.51967	0.91333	0.31143	0.283
Mof_C 	C 	0.38537	0.67533	0.46113	-0.002
Mof_H 	H 	0.41967	0.68093	0.46213	0.074
Mof_C 	C 	0.37677	0.71803	0.46033	-0.046
Mof_C 	C 	0.42207	0.77383	0.45953	0.311
Mof_In	In	0.17373	0.2006	0.78118	2.498
Mof_O 	O 	0.14293	0.19907	0.91777	-0.419
Mof_O 	O 	0.16033	0.26037	0.83197	-0.571
Mof_O 	O 	0.24503	0.22177	0.84447	-0.547
Mof_O 	O 	0.24523	0.18507	0.73207	-0.397
Mof_O 	O 	0.22143	0.27277	0.69417	-0.443
Mof_O 	O 	0.15033	0.19937	0.66027	-0.526
Mof_O 	O 	0.08023	0.14507	0.78627	-0.461
Mof_O 	O 	0.13553	0.11437	0.79437	-0.536
Mof_C 	C 	0.12633	0.26847	0.95337	-0.117
Mof_C 	C 	0.13293	0.31757	0.93097	0.045
Mof_H 	H 	0.14673	0.33157	0.88277	0.054
Mof_C 	C 	0.11873	0.34567	0.98207	-0.107
Mof_C 	C 	0.09233	0.32097	0.04977	0.068
Mof_H 	H 	0.07973	0.33777	0.08177	0.049
Mof_C 	C 	0.08473	0.27147	0.07007	-0.103
Mof_C 	C 	0.10403	0.24637	0.01917	0.078
Mof_H 	H 	0.10073	0.21397	0.03287	0.049
Mof_C 	C 	0.14483	0.23997	0.89667	0.365
Mof_C 	C 	0.26843	0.20697	0.79527	0.301
Mof_C 	C 	0.18633	0.24667	0.64477	0.322
Mof_C 	C 	0.05203	0.00867	0.79447	0.15
Mof_H 	H 	0.08633	0.01427	0.79547	0.033
Mof_C 	C 	0.04343	0.05137	0.79367	-0.18
Mof_C 	C 	0.08873	0.10717	0.79287	0.355
Mof_In	In	0.46607	0.30647	0.11451	2.519
Mof_O 	O 	0.4676	0.2772	0.2511	-0.409
Mof_O 	O 	0.4063	0.2333	0.1653	-0.562
Mof_O 	O 	0.4449	0.3566	0.1778	-0.548
Mof_O 	O 	0.4816	0.3935	0.0654	-0.396
Mof_O 	O 	0.3939	0.282	0.0275	-0.422
Mof_O 	O 	0.4673	0.2843	0.9936	-0.533
Mof_O 	O 	0.5216	0.2685	0.1196	-0.437
Mof_O 	O 	0.5523	0.3545	0.1277	-0.527
Mof_C 	C 	0.3982	0.1912	0.2867	-0.055
Mof_C 	C 	0.3491	0.1487	0.2643	0.005
Mof_H 	H 	0.3351	0.1485	0.2161	0.074
Mof_C 	C 	0.321	0.1064	0.3154	-0.05
Mof_C 	C 	0.3457	0.1047	0.3831	0.009
Mof_H 	H 	0.3289	0.0753	0.4151	0.075
Mof_C 	C 	0.3952	0.1466	0.4034	-0.059
Mof_C 	C 	0.4203	0.191	0.3525	0.01
Mof_H 	H 	0.4527	0.2201	0.3662	0.067
Mof_C 	C 	0.4267	0.2382	0.23	0.348
Mof_C 	C 	0.4597	0.3948	0.1286	0.302
Mof_C 	C 	0.42	0.273	0.9781	0.297
Mof_C 	C 	0.658	0.3767	0.1278	-0.004
Mof_H 	H 	0.6524	0.4054	0.1288	0.076
Mof_C 	C 	0.6153	0.3254	0.127	-0.041
Mof_C 	C 	0.5595	0.3149	0.1262	0.31
Mof_In	In	0.13274	0.6398	0.44784	2.494
Mof_O 	O 	0.13427	0.61053	0.58443	-0.404
Mof_O 	O 	0.07297	0.56663	0.49863	-0.563
Mof_O 	O 	0.11157	0.68993	0.51113	-0.55
Mof_O 	O 	0.14827	0.72683	0.39873	-0.401
Mof_O 	O 	0.06057	0.61533	0.36083	-0.443
Mof_O 	O 	0.13397	0.61763	0.32693	-0.517
Mof_O 	O 	0.18827	0.60183	0.45293	-0.443
Mof_O 	O 	0.21897	0.68783	0.46103	-0.528
Mof_C 	C 	0.06487	0.52453	0.62003	0.02
Mof_C 	C 	0.01577	0.48203	0.59763	-0.137
Mof_H 	H 	0.00177	0.48183	0.54943	0.104
Mof_C 	C 	0.98767	0.43973	0.64873	0.12
Mof_C 	C 	0.01237	0.43803	0.71643	-0.208
Mof_H 	H 	0.99557	0.40863	0.74843	0.169
Mof_C 	C 	0.06187	0.47993	0.73673	0.033
Mof_C 	C 	0.08697	0.52433	0.68583	-0.079
Mof_H 	H 	0.11937	0.55343	0.69953	0.094
Mof_C 	C 	0.09337	0.57153	0.56333	0.32
Mof_C 	C 	0.12637	0.72813	0.46193	0.302
Mof_C 	C 	0.08667	0.60633	0.31143	0.283
Mof_C 	C 	0.32467	0.71003	0.46113	-0.002
Mof_H 	H 	0.31907	0.73873	0.46213	0.073
Mof_C 	C 	0.28197	0.65873	0.46033	-0.047
Mof_C 	C 	0.22617	0.64823	0.45953	0.311
Mof_In	In	0.7994	0.97314	0.78118	2.402
Mof_O 	O 	0.80093	0.94387	0.91777	-0.422
Mof_O 	O 	0.73963	0.89997	0.83197	-0.561
Mof_O 	O 	0.77823	0.02327	0.84447	-0.514
Mof_O 	O 	0.81493	0.06017	0.73207	-0.374
Mof_O 	O 	0.72723	0.94867	0.69417	-0.445
Mof_O 	O 	0.80063	0.95097	0.66027	-0.521
Mof_O 	O 	0.85493	0.93517	0.78627	-0.435
Mof_O 	O 	0.88563	0.02117	0.79437	-0.48
Mof_C 	C 	0.73153	0.85787	0.95337	-0.118
Mof_C 	C 	0.68243	0.81537	0.93097	0.045
Mof_H 	H 	0.66843	0.81517	0.88277	0.054
Mof_C 	C 	0.65433	0.77307	0.98207	-0.104
Mof_C 	C 	0.67903	0.77137	0.04977	0.067
Mof_H 	H 	0.66223	0.74197	0.08177	0.053
Mof_C 	C 	0.72853	0.81327	0.07007	-0.099
Mof_C 	C 	0.75363	0.85767	0.01917	0.078
Mof_H 	H 	0.78603	0.88677	0.03287	0.048
Mof_C 	C 	0.76003	0.90487	0.89667	0.364
Mof_C 	C 	0.79303	0.06147	0.79527	0.297
Mof_C 	C 	0.75333	0.93967	0.64477	0.321
Mof_C 	C 	0.99133	0.04337	0.79447	0.187
Mof_H 	H 	0.98573	0.07207	0.79547	0.027
Mof_C 	C 	0.94863	0.99207	0.79367	-0.173
Mof_C 	C 	0.89283	0.98157	0.79287	0.309
Mof_In	In	0.8404	0.30647	0.61451	2.502
Mof_O 	O 	0.8096	0.2772	0.7511	-0.409
Mof_O 	O 	0.827	0.2333	0.6653	-0.561
Mof_O 	O 	0.9117	0.3566	0.6778	-0.529
Mof_O 	O 	0.9119	0.3935	0.5654	-0.377
Mof_O 	O 	0.8881	0.282	0.5275	-0.436
Mof_O 	O 	0.817	0.2843	0.4936	-0.524
Mof_O 	O 	0.7469	0.2685	0.6196	-0.44
Mof_O 	O 	0.8022	0.3545	0.6277	-0.527
Mof_C 	C 	0.793	0.1912	0.7867	-0.053
Mof_C 	C 	0.7996	0.1487	0.7643	0.003
Mof_H 	H 	0.8134	0.1485	0.7161	0.074
Mof_C 	C 	0.7854	0.1064	0.8154	-0.049
Mof_C 	C 	0.759	0.1047	0.8831	0.004
Mof_H 	H 	0.7464	0.0753	0.9151	0.073
Mof_C 	C 	0.7514	0.1466	0.9034	-0.054
Mof_C 	C 	0.7707	0.191	0.8525	0.006
Mof_H 	H 	0.7674	0.2201	0.8662	0.067
Mof_C 	C 	0.8115	0.2382	0.73	0.348
Mof_C 	C 	0.9351	0.3948	0.6286	0.245
Mof_C 	C 	0.853	0.273	0.4781	0.32
Mof_C 	C 	0.7187	0.3767	0.6278	-0.004
Mof_H 	H 	0.753	0.4054	0.6288	0.075
Mof_C 	C 	0.7101	0.3254	0.627	-0.044
Mof_C 	C 	0.7554	0.3149	0.6262	0.31
Mof_In	In	0.50707	0.6398	0.94784	2.467
Mof_O 	O 	0.47627	0.61053	0.08443	-0.406
Mof_O 	O 	0.49367	0.56663	0.99863	-0.584
Mof_O 	O 	0.57837	0.68993	0.01113	-0.522
Mof_O 	O 	0.57857	0.72683	0.89873	-0.398
Mof_O 	O 	0.55477	0.61533	0.86083	-0.443
Mof_O 	O 	0.48367	0.61763	0.82693	-0.523
Mof_O 	O 	0.41357	0.60183	0.95293	-0.444
Mof_O 	O 	0.46887	0.68783	0.96103	-0.53
Mof_C 	C 	0.45967	0.52453	0.12003	-0.065
Mof_C 	C 	0.46627	0.48203	0.09763	0.013
Mof_H 	H 	0.48007	0.48183	0.04943	0.072
Mof_C 	C 	0.45207	0.43973	0.14873	-0.06
Mof_C 	C 	0.42567	0.43803	0.21643	0.014
Mof_H 	H 	0.41307	0.40863	0.24843	0.068
Mof_C 	C 	0.41807	0.47993	0.23673	-0.066
Mof_C 	C 	0.43737	0.52433	0.18583	0.018
Mof_H 	H 	0.43407	0.55343	0.19953	0.065
Mof_C 	C 	0.47817	0.57153	0.06333	0.375
Mof_C 	C 	0.60177	0.72813	0.96193	0.292
Mof_C 	C 	0.51967	0.60633	0.81143	0.322
Mof_C 	C 	0.38537	0.71003	0.96113	-0
Mof_H 	H 	0.41967	0.73873	0.96213	0.07
Mof_C 	C 	0.37677	0.65873	0.96033	-0.051
Mof_C 	C 	0.42207	0.64823	0.95953	0.311
Mof_In	In	0.17373	0.97314	0.28118	2.403
Mof_O 	O 	0.14293	0.94387	0.41777	-0.417
Mof_O 	O 	0.16033	0.89997	0.33197	-0.558
Mof_O 	O 	0.24503	0.02327	0.34447	-0.513
Mof_O 	O 	0.24523	0.06017	0.23207	-0.376
Mof_O 	O 	0.22143	0.94867	0.19417	-0.447
Mof_O 	O 	0.15033	0.95097	0.16027	-0.527
Mof_O 	O 	0.08023	0.93517	0.28627	-0.445
Mof_O 	O 	0.13553	0.02117	0.29437	-0.485
Mof_C 	C 	0.12633	0.85787	0.45337	-0.069
Mof_C 	C 	0.13293	0.81537	0.43097	0.011
Mof_H 	H 	0.14673	0.81517	0.38277	0.065
Mof_C 	C 	0.11873	0.77307	0.48207	-0.066
Mof_C 	C 	0.09233	0.77137	0.54977	0.016
Mof_H 	H 	0.07973	0.74197	0.58177	0.062
Mof_C 	C 	0.08473	0.81327	0.57007	-0.075
Mof_C 	C 	0.10403	0.85767	0.51917	0.018
Mof_H 	H 	0.10073	0.88677	0.53287	0.057
Mof_C 	C 	0.14483	0.90487	0.39667	0.35
Mof_C 	C 	0.26843	0.06147	0.29527	0.297
Mof_C 	C 	0.18633	0.93967	0.14477	0.336
Mof_C 	C 	0.05203	0.04337	0.29447	0.142
Mof_H 	H 	0.08633	0.07207	0.29547	0.031
Mof_C 	C 	0.04343	0.99207	0.29367	-0.195
Mof_C 	C 	0.08873	0.98157	0.29287	0.311
Mof_In	In	0.46607	0.1596	0.61451	2.501
Mof_O 	O 	0.4676	0.1904	0.7511	-0.409
Mof_O 	O 	0.4063	0.173	0.6653	-0.563
Mof_O 	O 	0.4449	0.0883	0.6778	-0.529
Mof_O 	O 	0.4816	0.0881	0.5654	-0.377
Mof_O 	O 	0.3939	0.1119	0.5275	-0.437
Mof_O 	O 	0.4673	0.183	0.4936	-0.524
Mof_O 	O 	0.5216	0.2531	0.6196	-0.442
Mof_O 	O 	0.5523	0.1978	0.6277	-0.527
Mof_C 	C 	0.3982	0.207	0.7867	-0.057
Mof_C 	C 	0.3491	0.2004	0.7643	0.006
Mof_H 	H 	0.3351	0.1866	0.7161	0.071
Mof_C 	C 	0.321	0.2146	0.8154	-0.057
Mof_C 	C 	0.3457	0.241	0.8831	0.007
Mof_H 	H 	0.3289	0.2536	0.9151	0.066
Mof_C 	C 	0.3952	0.2486	0.9034	-0.059
Mof_C 	C 	0.4203	0.2293	0.8525	0.009
Mof_H 	H 	0.4527	0.2326	0.8662	0.066
Mof_C 	C 	0.4267	0.1885	0.73	0.349
Mof_C 	C 	0.4597	0.0649	0.6286	0.245
Mof_C 	C 	0.42	0.147	0.4781	0.32
Mof_C 	C 	0.658	0.2813	0.6278	-0.004
Mof_H 	H 	0.6524	0.247	0.6288	0.075
Mof_C 	C 	0.6153	0.2899	0.627	-0.045
Mof_C 	C 	0.5595	0.2446	0.6262	0.31
Mof_In	In	0.13274	0.49293	0.94784	2.462
Mof_O 	O 	0.13427	0.52373	0.08443	-0.4
Mof_O 	O 	0.07297	0.50633	0.99863	-0.582
Mof_O 	O 	0.11157	0.42163	0.01113	-0.525
Mof_O 	O 	0.14827	0.42143	0.89873	-0.399
Mof_O 	O 	0.06057	0.44523	0.86083	-0.443
Mof_O 	O 	0.13397	0.51633	0.82693	-0.514
Mof_O 	O 	0.18827	0.58643	0.95293	-0.445
Mof_O 	O 	0.21897	0.53113	0.96103	-0.529
Mof_C 	C 	0.06487	0.54033	0.12003	0.013
Mof_C 	C 	0.01577	0.53373	0.09763	-0.128
Mof_H 	H 	0.00177	0.51993	0.04943	0.108
Mof_C 	C 	0.98767	0.54793	0.14873	0.115
Mof_C 	C 	0.01237	0.57433	0.21643	-0.2
Mof_H 	H 	0.99557	0.58693	0.24843	0.167
Mof_C 	C 	0.06187	0.58193	0.23673	0.031
Mof_C 	C 	0.08697	0.56263	0.18583	-0.072
Mof_H 	H 	0.11937	0.56593	0.19953	0.093
Mof_C 	C 	0.09337	0.52183	0.06333	0.348
Mof_C 	C 	0.12637	0.39823	0.96193	0.292
Mof_C 	C 	0.08667	0.48033	0.81143	0.281
Mof_C 	C 	0.32467	0.61463	0.96113	-0.001
Mof_H 	H 	0.31907	0.58033	0.96213	0.071
Mof_C 	C 	0.28197	0.62323	0.96033	-0.051
Mof_C 	C 	0.22617	0.57793	0.95953	0.311
Mof_In	In	0.7994	0.82627	0.28118	2.502
Mof_O 	O 	0.80093	0.85707	0.41777	-0.409
Mof_O 	O 	0.73963	0.83967	0.33197	-0.565
Mof_O 	O 	0.77823	0.75497	0.34447	-0.545
Mof_O 	O 	0.81493	0.75477	0.23207	-0.395
Mof_O 	O 	0.72723	0.77857	0.19417	-0.445
Mof_O 	O 	0.80063	0.84967	0.16027	-0.527
Mof_O 	O 	0.85493	0.91977	0.28627	-0.459
Mof_O 	O 	0.88563	0.86447	0.29437	-0.534
Mof_C 	C 	0.73153	0.87367	0.45337	-0.063
Mof_C 	C 	0.68243	0.86707	0.43097	0.009
Mof_H 	H 	0.66843	0.85327	0.38277	0.067
Mof_C 	C 	0.65433	0.88127	0.48207	-0.063
Mof_C 	C 	0.67903	0.90767	0.54977	0.014
Mof_H 	H 	0.66223	0.92027	0.58177	0.063
Mof_C 	C 	0.72853	0.91527	0.57007	-0.07
Mof_C 	C 	0.75363	0.89597	0.51917	0.014
Mof_H 	H 	0.78603	0.89927	0.53287	0.064
Mof_C 	C 	0.76003	0.85517	0.39667	0.349
Mof_C 	C 	0.79303	0.73157	0.29527	0.301
Mof_C 	C 	0.75333	0.81367	0.14477	0.335
Mof_C 	C 	0.99133	0.94797	0.29447	0.146
Mof_H 	H 	0.98573	0.91367	0.29547	0.036
Mof_C 	C 	0.94863	0.95657	0.29367	-0.174
Mof_C 	C 	0.89283	0.91127	0.29287	0.354
Mof_In	In	0.69353	0.53393	0.61451	2.499
Mof_O 	O 	0.7228	0.5324	0.7511	-0.41
Mof_O 	O 	0.7667	0.5937	0.6653	-0.563
Mof_O 	O 	0.6434	0.5551	0.6778	-0.547
Mof_O 	O 	0.6065	0.5184	0.5654	-0.4
Mof_O 	O 	0.718	0.6061	0.5275	-0.442
Mof_O 	O 	0.7157	0.5327	0.4936	-0.525
Mof_O 	O 	0.7315	0.4784	0.6196	-0.44
Mof_O 	O 	0.6455	0.4477	0.6277	-0.528
Mof_C 	C 	0.8088	0.6018	0.7867	-0.056
Mof_C 	C 	0.8513	0.6509	0.7643	0.004
Mof_H 	H 	0.8515	0.6649	0.7161	0.072
Mof_C 	C 	0.8936	0.679	0.8154	-0.052
Mof_C 	C 	0.8953	0.6543	0.8831	0.004
Mof_H 	H 	0.9247	0.6711	0.9151	0.072
Mof_C 	C 	0.8534	0.6048	0.9034	-0.056
Mof_C 	C 	0.809	0.5797	0.8525	0.007
Mof_H 	H 	0.7799	0.5473	0.8662	0.066
Mof_C 	C 	0.7618	0.5733	0.73	0.348
Mof_C 	C 	0.6052	0.5403	0.6286	0.302
Mof_C 	C 	0.727	0.58	0.4781	0.321
Mof_C 	C 	0.6233	0.342	0.6278	-0.004
Mof_H 	H 	0.5946	0.3476	0.6288	0.074
Mof_C 	C 	0.6746	0.3847	0.627	-0.045
Mof_C 	C 	0.6851	0.4405	0.6262	0.31
Mof_In	In	0.3602	0.86726	0.94784	2.461
Mof_O 	O 	0.38947	0.86573	0.08443	-0.4
Mof_O 	O 	0.43337	0.92703	0.99863	-0.582
Mof_O 	O 	0.31007	0.88843	0.01113	-0.525
Mof_O 	O 	0.27317	0.85173	0.89873	-0.4
Mof_O 	O 	0.38467	0.93943	0.86083	-0.443
Mof_O 	O 	0.38237	0.86603	0.82693	-0.514
Mof_O 	O 	0.39817	0.81173	0.95293	-0.445
Mof_O 	O 	0.31217	0.78103	0.96103	-0.53
Mof_C 	C 	0.47547	0.93513	0.12003	0.013
Mof_C 	C 	0.51797	0.98423	0.09763	-0.129
Mof_H 	H 	0.51817	0.99823	0.04943	0.108
Mof_C 	C 	0.56027	0.01233	0.14873	0.116
Mof_C 	C 	0.56197	0.98763	0.21643	-0.2
Mof_H 	H 	0.59137	0.00443	0.24843	0.168
Mof_C 	C 	0.52007	0.93813	0.23673	0.031
Mof_C 	C 	0.47567	0.91303	0.18583	-0.072
Mof_H 	H 	0.44657	0.88063	0.19953	0.093
Mof_C 	C 	0.42847	0.90663	0.06333	0.348
Mof_C 	C 	0.27187	0.87363	0.96193	0.292
Mof_C 	C 	0.39367	0.91333	0.81143	0.281
Mof_C 	C 	0.28997	0.67533	0.96113	-0
Mof_H 	H 	0.26127	0.68093	0.96213	0.07
Mof_C 	C 	0.34127	0.71803	0.96033	-0.051
Mof_C 	C 	0.35177	0.77383	0.95953	0.311
Mof_In	In	0.02686	0.2006	0.28118	2.408
Mof_O 	O 	0.05613	0.19907	0.41777	-0.412
Mof_O 	O 	0.10003	0.26037	0.33197	-0.556
Mof_O 	O 	0.97673	0.22177	0.34447	-0.513
Mof_O 	O 	0.93983	0.18507	0.23207	-0.373
Mof_O 	O 	0.05133	0.27277	0.19417	-0.447
Mof_O 	O 	0.04903	0.19937	0.16027	-0.522
Mof_O 	O 	0.06483	0.14507	0.28627	-0.433
Mof_O 	O 	0.97883	0.11437	0.29437	-0.479
Mof_C 	C 	0.14213	0.26847	0.45337	-0.063
Mof_C 	C 	0.18463	0.31757	0.43097	0.009
Mof_H 	H 	0.18483	0.33157	0.38277	0.068
Mof_C 	C 	0.22693	0.34567	0.48207	-0.061
Mof_C 	C 	0.22863	0.32097	0.54977	0.013
Mof_H 	H 	0.25803	0.33777	0.58177	0.067
Mof_C 	C 	0.18673	0.27147	0.57007	-0.067
Mof_C 	C 	0.14233	0.24637	0.51917	0.015
Mof_H 	H 	0.11323	0.21397	0.53287	0.063
Mof_C 	C 	0.09513	0.23997	0.39667	0.349
Mof_C 	C 	0.93853	0.20697	0.29527	0.297
Mof_C 	C 	0.06033	0.24667	0.14477	0.335
Mof_C 	C 	0.95663	0.00867	0.29447	0.182
Mof_H 	H 	0.92793	0.01427	0.29547	0.03
Mof_C 	C 	0.00793	0.05137	0.29367	-0.166
Mof_C 	C 	0.01843	0.10717	0.29287	0.309
_end
