data_functionalizedCrystal
_audit_creation_method	'EQeq! by Chris Wilmer'
_symmetry_space_group_name_H-M	'P1'
_symmetry_Int_Tables_number	1
_symmetry_cell_setting	triclinic
loop_
_symmetry_equiv_pos_as_xyz
  x,y,z
_cell_length_a	21.3336
_cell_length_b	21.3336
_cell_length_c	21.3336
_cell_angle_alpha	60
_cell_angle_beta	60
_cell_angle_gamma	60
loop_
_atom_site_label
_atom_site_type_symbol
_atom_site_fract_x
_atom_site_fract_y
_atom_site_fract_z
_atom_site_charge
Mof_Cu	Cu	0.02236	0.6492	0.12574	0.842
Mof_Cu	Cu	0.6492	0.02236	0.2027	0.846
Mof_Cu	Cu	0.12574	0.2027	0.02236	0.837
Mof_Cu	Cu	0.2027	0.12574	0.6492	0.871
Mof_Cu	Cu	0.02236	0.12574	0.2027	0.837
Mof_Cu	Cu	0.6492	0.2027	0.12574	0.871
Mof_Cu	Cu	0.12574	0.02236	0.6492	0.842
Mof_Cu	Cu	0.2027	0.6492	0.02236	0.845
Mof_Cu	Cu	0.02236	0.2027	0.6492	0.845
Mof_Cu	Cu	0.6492	0.12574	0.02236	0.841
Mof_Cu	Cu	0.12574	0.6492	0.2027	0.87
Mof_Cu	Cu	0.2027	0.02236	0.12574	0.836
Mof_Cu	Cu	0.52236	0.1492	0.7027	0.876
Mof_Cu	Cu	0.1492	0.52236	0.62574	0.876
Mof_Cu	Cu	0.62574	0.7027	0.1492	0.877
Mof_Cu	Cu	0.7027	0.62574	0.52236	0.879
Mof_Cu	Cu	0.52236	0.62574	0.1492	0.876
Mof_Cu	Cu	0.1492	0.7027	0.52236	0.876
Mof_Cu	Cu	0.62574	0.52236	0.7027	0.879
Mof_Cu	Cu	0.7027	0.1492	0.62574	0.877
Mof_Cu	Cu	0.52236	0.7027	0.62574	0.879
Mof_Cu	Cu	0.1492	0.62574	0.7027	0.877
Mof_Cu	Cu	0.62574	0.1492	0.52236	0.876
Mof_Cu	Cu	0.7027	0.52236	0.1492	0.876
Mof_H 	H 	0.8728	0.6394	0.2784	0.013
Mof_H 	H 	0.9884	0.6614	0.363	0.017
Mof_H 	H 	0.6394	0.8728	0.2094	0.018
Mof_H 	H 	0.6614	0.9884	0.9872	0.104
Mof_H 	H 	0.2784	0.2094	0.8728	0.018
Mof_H 	H 	0.363	0.9872	0.9884	0.106
Mof_H 	H 	0.2094	0.2784	0.6394	0.019
Mof_H 	H 	0.9872	0.363	0.6614	0.116
Mof_H 	H 	0.8728	0.2784	0.2094	0.018
Mof_H 	H 	0.9884	0.363	0.9872	0.106
Mof_H 	H 	0.6394	0.2094	0.2784	0.019
Mof_H 	H 	0.6614	0.9872	0.363	0.116
Mof_H 	H 	0.2784	0.8728	0.6394	0.013
Mof_H 	H 	0.363	0.9884	0.6614	0.017
Mof_H 	H 	0.2094	0.6394	0.8728	0.018
Mof_H 	H 	0.9872	0.6614	0.9884	0.104
Mof_H 	H 	0.8728	0.2094	0.6394	0.018
Mof_H 	H 	0.9884	0.9872	0.6614	0.104
Mof_H 	H 	0.6394	0.2784	0.8728	0.013
Mof_H 	H 	0.6614	0.363	0.9884	0.017
Mof_H 	H 	0.2784	0.6394	0.2094	0.019
Mof_H 	H 	0.363	0.6614	0.9872	0.116
Mof_H 	H 	0.2094	0.8728	0.2784	0.018
Mof_H 	H 	0.9872	0.9884	0.363	0.106
Mof_H 	H 	0.3728	0.1394	0.7094	0.01
Mof_H 	H 	0.4884	0.1614	0.4872	0.01
Mof_H 	H 	0.1394	0.3728	0.7784	0.011
Mof_H 	H 	0.1614	0.4884	0.863	0.017
Mof_H 	H 	0.7784	0.7094	0.1394	0.015
Mof_H 	H 	0.863	0.4872	0.1614	0.018
Mof_H 	H 	0.7094	0.7784	0.3728	0.018
Mof_H 	H 	0.4872	0.863	0.4884	0.021
Mof_H 	H 	0.3728	0.7784	0.1394	0.011
Mof_H 	H 	0.4884	0.863	0.1614	0.017
Mof_H 	H 	0.1394	0.7094	0.3728	0.01
Mof_H 	H 	0.1614	0.4872	0.4884	0.01
Mof_H 	H 	0.7784	0.3728	0.7094	0.018
Mof_H 	H 	0.863	0.4884	0.4872	0.021
Mof_H 	H 	0.7094	0.1394	0.7784	0.015
Mof_H 	H 	0.4872	0.1614	0.863	0.018
Mof_H 	H 	0.3728	0.7094	0.7784	0.018
Mof_H 	H 	0.4884	0.4872	0.863	0.021
Mof_H 	H 	0.1394	0.7784	0.7094	0.015
Mof_H 	H 	0.1614	0.863	0.4872	0.018
Mof_H 	H 	0.7784	0.1394	0.3728	0.011
Mof_H 	H 	0.863	0.1614	0.4884	0.017
Mof_H 	H 	0.7094	0.3728	0.1394	0.01
Mof_H 	H 	0.4872	0.4884	0.1614	0.01
Mof_C 	C 	0.8411	0.6487	0.4203	0.336
Mof_C 	C 	0.9057	0.6511	0.3479	-0.15
Mof_C 	C 	0.9112	0.6448	0.2838	0.099
Mof_C 	C 	0.9747	0.6569	0.3297	0.176
Mof_C 	C 	0.6487	0.8411	0.0899	0.316
Mof_C 	C 	0.6511	0.9057	0.0953	-0.107
Mof_C 	C 	0.6448	0.9112	0.1602	0.08
Mof_C 	C 	0.6569	0.9747	0.0387	0.044
Mof_C 	C 	0.4203	0.0899	0.8411	0.314
Mof_C 	C 	0.3479	0.0953	0.9057	-0.108
Mof_C 	C 	0.2838	0.1602	0.9112	0.076
Mof_C 	C 	0.3297	0.0387	0.9747	0.038
Mof_C 	C 	0.0899	0.4203	0.6487	0.302
Mof_C 	C 	0.0953	0.3479	0.6511	-0.081
Mof_C 	C 	0.1602	0.2838	0.6448	0.06
Mof_C 	C 	0.0387	0.3297	0.6569	-0.056
Mof_C 	C 	0.8411	0.4203	0.0899	0.314
Mof_C 	C 	0.9057	0.3479	0.0953	-0.108
Mof_C 	C 	0.9112	0.2838	0.1602	0.076
Mof_C 	C 	0.9747	0.3297	0.0387	0.038
Mof_C 	C 	0.6487	0.0899	0.4203	0.302
Mof_C 	C 	0.6511	0.0953	0.3479	-0.081
Mof_C 	C 	0.6448	0.1602	0.2838	0.06
Mof_C 	C 	0.6569	0.0387	0.3297	-0.056
Mof_C 	C 	0.4203	0.8411	0.6487	0.336
Mof_C 	C 	0.3479	0.9057	0.6511	-0.15
Mof_C 	C 	0.2838	0.9112	0.6448	0.099
Mof_C 	C 	0.3297	0.9747	0.6569	0.176
Mof_C 	C 	0.0899	0.6487	0.8411	0.316
Mof_C 	C 	0.0953	0.6511	0.9057	-0.107
Mof_C 	C 	0.1602	0.6448	0.9112	0.08
Mof_C 	C 	0.0387	0.6569	0.9747	0.044
Mof_C 	C 	0.8411	0.0899	0.6487	0.316
Mof_C 	C 	0.9057	0.0953	0.6511	-0.107
Mof_C 	C 	0.9112	0.1602	0.6448	0.08
Mof_C 	C 	0.9747	0.0387	0.6569	0.044
Mof_C 	C 	0.6487	0.4203	0.8411	0.336
Mof_C 	C 	0.6511	0.3479	0.9057	-0.15
Mof_C 	C 	0.6448	0.2838	0.9112	0.099
Mof_C 	C 	0.6569	0.3297	0.9747	0.176
Mof_C 	C 	0.4203	0.6487	0.0899	0.302
Mof_C 	C 	0.3479	0.6511	0.0953	-0.081
Mof_C 	C 	0.2838	0.6448	0.1602	0.06
Mof_C 	C 	0.3297	0.6569	0.0387	-0.056
Mof_C 	C 	0.0899	0.8411	0.4203	0.314
Mof_C 	C 	0.0953	0.9057	0.3479	-0.108
Mof_C 	C 	0.1602	0.9112	0.2838	0.076
Mof_C 	C 	0.0387	0.9747	0.3297	0.038
Mof_C 	C 	0.3411	0.1487	0.5899	0.325
Mof_C 	C 	0.4057	0.1511	0.5953	-0.141
Mof_C 	C 	0.4112	0.1448	0.6602	0.083
Mof_C 	C 	0.4747	0.1569	0.5387	0.091
Mof_C 	C 	0.1487	0.3411	0.9203	0.32
Mof_C 	C 	0.1511	0.4057	0.8479	-0.132
Mof_C 	C 	0.1448	0.4112	0.7838	0.081
Mof_C 	C 	0.1569	0.4747	0.8297	0.09
Mof_C 	C 	0.9203	0.5899	0.1487	0.318
Mof_C 	C 	0.8479	0.5953	0.1511	-0.13
Mof_C 	C 	0.7838	0.6602	0.1448	0.081
Mof_C 	C 	0.8297	0.5387	0.1569	0.089
Mof_C 	C 	0.5899	0.9203	0.3411	0.321
Mof_C 	C 	0.5953	0.8479	0.4057	-0.124
Mof_C 	C 	0.6602	0.7838	0.4112	0.084
Mof_C 	C 	0.5387	0.8297	0.4747	0.092
Mof_C 	C 	0.3411	0.9203	0.1487	0.32
Mof_C 	C 	0.4057	0.8479	0.1511	-0.132
Mof_C 	C 	0.4112	0.7838	0.1448	0.081
Mof_C 	C 	0.4747	0.8297	0.1569	0.09
Mof_C 	C 	0.1487	0.5899	0.3411	0.325
Mof_C 	C 	0.1511	0.5953	0.4057	-0.141
Mof_C 	C 	0.1448	0.6602	0.4112	0.083
Mof_C 	C 	0.1569	0.5387	0.4747	0.091
Mof_C 	C 	0.9203	0.3411	0.5899	0.321
Mof_C 	C 	0.8479	0.4057	0.5953	-0.124
Mof_C 	C 	0.7838	0.4112	0.6602	0.084
Mof_C 	C 	0.8297	0.4747	0.5387	0.092
Mof_C 	C 	0.5899	0.1487	0.9203	0.318
Mof_C 	C 	0.5953	0.1511	0.8479	-0.13
Mof_C 	C 	0.6602	0.1448	0.7838	0.081
Mof_C 	C 	0.5387	0.1569	0.8297	0.089
Mof_C 	C 	0.3411	0.5899	0.9203	0.321
Mof_C 	C 	0.4057	0.5953	0.8479	-0.124
Mof_C 	C 	0.4112	0.6602	0.7838	0.084
Mof_C 	C 	0.4747	0.5387	0.8297	0.092
Mof_C 	C 	0.1487	0.9203	0.5899	0.318
Mof_C 	C 	0.1511	0.8479	0.5953	-0.13
Mof_C 	C 	0.1448	0.7838	0.6602	0.081
Mof_C 	C 	0.1569	0.8297	0.5387	0.089
Mof_C 	C 	0.9203	0.1487	0.3411	0.32
Mof_C 	C 	0.8479	0.1511	0.4057	-0.132
Mof_C 	C 	0.7838	0.1448	0.4112	0.081
Mof_C 	C 	0.8297	0.1569	0.4747	0.09
Mof_C 	C 	0.5899	0.3411	0.1487	0.325
Mof_C 	C 	0.5953	0.4057	0.1511	-0.141
Mof_C 	C 	0.6602	0.4112	0.1448	0.083
Mof_C 	C 	0.5387	0.4747	0.1569	0.091
Mof_N 	N 	0.9801	0.6477	0.2301	-0.17
Mof_N 	N 	0.0663	0.6553	0.0193	-0.269
Mof_N 	N 	0.6477	0.9801	0.1421	-0.168
Mof_N 	N 	0.6553	0.0663	0.2591	-0.201
Mof_N 	N 	0.2301	0.1421	0.9801	-0.169
Mof_N 	N 	0.0193	0.2591	0.0663	-0.273
Mof_N 	N 	0.1421	0.2301	0.6477	-0.21
Mof_N 	N 	0.2591	0.0193	0.6553	-0.279
Mof_N 	N 	0.9801	0.2301	0.1421	-0.169
Mof_N 	N 	0.0663	0.0193	0.2591	-0.273
Mof_N 	N 	0.6477	0.1421	0.2301	-0.21
Mof_N 	N 	0.6553	0.2591	0.0193	-0.279
Mof_N 	N 	0.2301	0.9801	0.6477	-0.17
Mof_N 	N 	0.0193	0.0663	0.6553	-0.269
Mof_N 	N 	0.1421	0.6477	0.9801	-0.168
Mof_N 	N 	0.2591	0.6553	0.0663	-0.201
Mof_N 	N 	0.9801	0.1421	0.6477	-0.168
Mof_N 	N 	0.0663	0.2591	0.6553	-0.201
Mof_N 	N 	0.6477	0.2301	0.9801	-0.17
Mof_N 	N 	0.6553	0.0193	0.0663	-0.269
Mof_N 	N 	0.2301	0.6477	0.1421	-0.21
Mof_N 	N 	0.0193	0.6553	0.2591	-0.279
Mof_N 	N 	0.1421	0.9801	0.2301	-0.169
Mof_N 	N 	0.2591	0.0663	0.0193	-0.273
Mof_N 	N 	0.4801	0.1477	0.6421	-0.212
Mof_N 	N 	0.5663	0.1553	0.7591	-0.213
Mof_N 	N 	0.1477	0.4801	0.7301	-0.211
Mof_N 	N 	0.1553	0.5663	0.5193	-0.215
Mof_N 	N 	0.7301	0.6421	0.1477	-0.21
Mof_N 	N 	0.5193	0.7591	0.1553	-0.213
Mof_N 	N 	0.6421	0.7301	0.4801	-0.207
Mof_N 	N 	0.7591	0.5193	0.5663	-0.211
Mof_N 	N 	0.4801	0.7301	0.1477	-0.211
Mof_N 	N 	0.5663	0.5193	0.1553	-0.215
Mof_N 	N 	0.1477	0.6421	0.4801	-0.212
Mof_N 	N 	0.1553	0.7591	0.5663	-0.213
Mof_N 	N 	0.7301	0.4801	0.6421	-0.207
Mof_N 	N 	0.5193	0.5663	0.7591	-0.211
Mof_N 	N 	0.6421	0.1477	0.7301	-0.21
Mof_N 	N 	0.7591	0.1553	0.5193	-0.213
Mof_N 	N 	0.4801	0.6421	0.7301	-0.207
Mof_N 	N 	0.5663	0.7591	0.5193	-0.211
Mof_N 	N 	0.1477	0.7301	0.6421	-0.21
Mof_N 	N 	0.1553	0.5193	0.7591	-0.213
Mof_N 	N 	0.7301	0.1477	0.4801	-0.211
Mof_N 	N 	0.5193	0.1553	0.5663	-0.215
Mof_N 	N 	0.6421	0.4801	0.1477	-0.212
Mof_N 	N 	0.7591	0.5663	0.1553	-0.213
Mof_O 	O 	0.78641	0.63381	0.42459	-0.394
Mof_O 	O 	0.8426	0.6566	0.4734	-0.262
Mof_O 	O 	0.63381	0.78641	0.15519	-0.392
Mof_O 	O 	0.6566	0.8426	0.0274	-0.282
Mof_O 	O 	0.42459	0.15519	0.78641	-0.393
Mof_O 	O 	0.4734	0.0274	0.8426	-0.286
Mof_O 	O 	0.15519	0.42459	0.63381	-0.392
Mof_O 	O 	0.0274	0.4734	0.6566	-0.291
Mof_O 	O 	0.78641	0.42459	0.15519	-0.393
Mof_O 	O 	0.8426	0.4734	0.0274	-0.286
Mof_O 	O 	0.63381	0.15519	0.42459	-0.392
Mof_O 	O 	0.6566	0.0274	0.4734	-0.291
Mof_O 	O 	0.42459	0.78641	0.63381	-0.394
Mof_O 	O 	0.4734	0.8426	0.6566	-0.262
Mof_O 	O 	0.15519	0.63381	0.78641	-0.392
Mof_O 	O 	0.0274	0.6566	0.8426	-0.282
Mof_O 	O 	0.78641	0.15519	0.63381	-0.392
Mof_O 	O 	0.8426	0.0274	0.6566	-0.282
Mof_O 	O 	0.63381	0.42459	0.78641	-0.394
Mof_O 	O 	0.6566	0.4734	0.8426	-0.262
Mof_O 	O 	0.42459	0.63381	0.15519	-0.392
Mof_O 	O 	0.4734	0.6566	0.0274	-0.291
Mof_O 	O 	0.15519	0.78641	0.42459	-0.393
Mof_O 	O 	0.0274	0.8426	0.4734	-0.286
Mof_O 	O 	0.28641	0.13381	0.65519	-0.406
Mof_O 	O 	0.3426	0.1566	0.5274	-0.296
Mof_O 	O 	0.13381	0.28641	0.92459	-0.382
Mof_O 	O 	0.1566	0.3426	0.9734	-0.263
Mof_O 	O 	0.92459	0.65519	0.13381	-0.377
Mof_O 	O 	0.9734	0.5274	0.1566	-0.262
Mof_O 	O 	0.65519	0.92459	0.28641	-0.368
Mof_O 	O 	0.5274	0.9734	0.3426	-0.251
Mof_O 	O 	0.28641	0.92459	0.13381	-0.382
Mof_O 	O 	0.3426	0.9734	0.1566	-0.263
Mof_O 	O 	0.13381	0.65519	0.28641	-0.406
Mof_O 	O 	0.1566	0.5274	0.3426	-0.296
Mof_O 	O 	0.92459	0.28641	0.65519	-0.368
Mof_O 	O 	0.9734	0.3426	0.5274	-0.251
Mof_O 	O 	0.65519	0.13381	0.92459	-0.377
Mof_O 	O 	0.5274	0.1566	0.9734	-0.262
Mof_O 	O 	0.28641	0.65519	0.92459	-0.368
Mof_O 	O 	0.3426	0.5274	0.9734	-0.251
Mof_O 	O 	0.13381	0.92459	0.65519	-0.377
Mof_O 	O 	0.1566	0.9734	0.5274	-0.262
Mof_O 	O 	0.92459	0.13381	0.28641	-0.382
Mof_O 	O 	0.9734	0.1566	0.3426	-0.263
Mof_O 	O 	0.65519	0.28641	0.13381	-0.406
Mof_O 	O 	0.5274	0.3426	0.1566	-0.296
Mof_O 	O 	0.1283	0.6151	0.1283	-0.571
Mof_O 	O 	0.6151	0.1283	0.1283	-0.571
Mof_O 	O 	0.1283	0.1283	0.1283	-0.586
Mof_O 	O 	0.1283	0.1283	0.6151	-0.571
Mof_O 	O 	0.6283	0.1151	0.6283	-0.547
Mof_O 	O 	0.1151	0.6283	0.6283	-0.547
Mof_O 	O 	0.6283	0.6283	0.1151	-0.547
Mof_O 	O 	0.6283	0.6283	0.6283	-0.537
_end
