# CIF file generated by openbabel 3.1.0, see https://openbabel.org
data_I
_chemical_name_common 'image0'
_cell_length_a 10.3513
_cell_length_b 8.3264
_cell_length_c 10.5584
_cell_angle_alpha 90
_cell_angle_beta 90
_cell_angle_gamma 90
_space_group_name_H-M_alt 'P 1'
_space_group_name_Hall 'P 1'
loop_
    _symmetry_equiv_pos_as_xyz
    x,y,z
loop_
    _atom_site_label
    _atom_site_type_symbol
    _atom_site_fract_x
    _atom_site_fract_y
    _atom_site_fract_z
    _atom_site_occupancy
    P1       P        0.16750    0.43280    0.37320    1.000
    O1       O        0.27090    0.42600    0.27090    1.000
    O2       O        0.03140    0.43010    0.31810    1.000
    O3       O        0.18890    0.56950    0.46270    1.000
    H1       H        0.00690    0.31910    0.51420    1.000
    H2       H        0.29920    0.15610    0.60450    1.000
    P2       P        0.33250    0.56720    0.87320    1.000
    O4       O        0.22910    0.57400    0.77090    1.000
    O5       O        0.46860    0.56990    0.81810    1.000
    O6       O        0.31110    0.43050    0.96270    1.000
    H3       H        0.49310    0.68090    0.01420    1.000
    H4       H        0.20080    0.84390    0.10450    1.000
    P3       P        0.83250    0.93280    0.62680    1.000
    O7       O        0.72910    0.92600    0.72910    1.000
    O8       O        0.96860    0.93010    0.68190    1.000
    O9       O        0.81110    0.06950    0.53730    1.000
    H5       H        0.99310    0.81910    0.48580    1.000
    H6       H        0.70080    0.65610    0.39550    1.000
    P4       P        0.66750    0.06720    0.12680    1.000
    O10      O        0.77090    0.07400    0.22910    1.000
    O11      O        0.53140    0.06990    0.18190    1.000
    O12      O        0.68890    0.93050    0.03730    1.000
    H7       H        0.50690    0.18090    0.98580    1.000
    H8       H        0.79920    0.34390    0.89550    1.000
    P5       P        0.83250    0.56720    0.62680    1.000
    O13      O        0.72910    0.57400    0.72910    1.000
    O14      O        0.96860    0.56990    0.68190    1.000
    O15      O        0.81110    0.43050    0.53730    1.000
    H9       H        0.99310    0.68090    0.48580    1.000
    H10      H        0.70080    0.84390    0.39550    1.000
    P6       P        0.66750    0.43280    0.12680    1.000
    O16      O        0.77090    0.42600    0.22910    1.000
    O17      O        0.53140    0.43010    0.18190    1.000
    O18      O        0.68890    0.56950    0.03730    1.000
    H11      H        0.50690    0.31910    0.98580    1.000
    H12      H        0.79920    0.15610    0.89550    1.000
    P7       P        0.16750    0.06720    0.37320    1.000
    O19      O        0.27090    0.07400    0.27090    1.000
    O20      O        0.03140    0.06990    0.31810    1.000
    O21      O        0.18890    0.93050    0.46270    1.000
    H13      H        0.00690    0.18090    0.51420    1.000
    H14      H        0.29920    0.34390    0.60450    1.000
    P8       P        0.33250    0.93280    0.87320    1.000
    O22      O        0.22910    0.92600    0.77090    1.000
    O23      O        0.46860    0.93010    0.81810    1.000
    O24      O        0.31110    0.06950    0.96270    1.000
    H15      H        0.49310    0.81910    0.01420    1.000
    H16      H        0.20080    0.65610    0.10450    1.000
    Eu1      Eu       0.36041    0.25000    0.12058    1.000
    O25      O        0.05930    0.25000    0.54370    1.000
    C1       C        0.17800    0.25000    0.46680    1.000
    C2       C        0.29900    0.25000    0.55210    1.000
    H17      H        0.37460    0.25000    0.49970    1.000
    Eu2      Eu       0.13959    0.75000    0.62058    1.000
    O26      O        0.44070    0.75000    0.04370    1.000
    C3       C        0.32200    0.75000    0.96680    1.000
    C4       C        0.20100    0.75000    0.05210    1.000
    H18      H        0.12540    0.75000    0.99970    1.000
    Eu3      Eu       0.63959    0.75000    0.87942    1.000
    O27      O        0.94070    0.75000    0.45630    1.000
    C5       C        0.82200    0.75000    0.53320    1.000
    C6       C        0.70100    0.75000    0.44790    1.000
    H19      H        0.62540    0.75000    0.50030    1.000
    Eu4      Eu       0.86041    0.25000    0.37942    1.000
    O28      O        0.55930    0.25000    0.95630    1.000
    C7       C        0.67800    0.25000    0.03320    1.000
    C8       C        0.79900    0.25000    0.94790    1.000
    H20      H        0.87460    0.25000    0.00030    1.000
