data_functionalizedCrystal
_audit_creation_method	'EQeq! by Chris Wilmer'
_symmetry_space_group_name_H-M	'P1'
_symmetry_Int_Tables_number	1
_symmetry_cell_setting	triclinic
loop_
_symmetry_equiv_pos_as_xyz
  x,y,z
_cell_length_a	17.1168
_cell_length_b	17.1168
_cell_length_c	17.1168
_cell_angle_alpha	90
_cell_angle_beta	90
_cell_angle_gamma	90
loop_
_atom_site_label
_atom_site_type_symbol
_atom_site_fract_x
_atom_site_fract_y
_atom_site_fract_z
_atom_site_charge
Mof_N 	N 	0.0154	0.4071	0.3176	-0.48
Mof_N 	N 	0.082	0.3653	0.313	-0.114
Mof_H 	H 	0.8819	0.3701	0.4448	0.367
Mof_H 	H 	0.8986	0.4549	0.4145	0.369
Mof_H 	H 	0.8622	0.3925	0.3582	0.379
Mof_N 	N 	0.5154	0.9071	0.8176	-0.387
Mof_N 	N 	0.582	0.8653	0.813	-0.105
Mof_H 	H 	0.3819	0.8701	0.9448	0.369
Mof_H 	H 	0.3986	0.9549	0.9145	0.388
Mof_H 	H 	0.3622	0.8925	0.8582	0.374
Mof_N 	N 	0.9846	0.5929	0.3176	-0.265
Mof_N 	N 	0.918	0.6347	0.313	-0.113
Mof_H 	H 	0.1181	0.6299	0.4448	0.174
Mof_H 	H 	0.1014	0.5451	0.4145	0.172
Mof_H 	H 	0.1378	0.6075	0.3582	0.189
Mof_N 	N 	0.4846	0.0929	0.8176	-0.39
Mof_N 	N 	0.418	0.1347	0.813	-0.123
Mof_H 	H 	0.6181	0.1299	0.9448	0.284
Mof_H 	H 	0.6014	0.0451	0.9145	0.267
Mof_H 	H 	0.6378	0.1075	0.8582	0.287
Mof_N 	N 	0.9846	0.4071	0.6824	-0.266
Mof_N 	N 	0.918	0.3653	0.687	-0.117
Mof_H 	H 	0.1181	0.3701	0.5552	0.175
Mof_H 	H 	0.1014	0.4549	0.5855	0.172
Mof_H 	H 	0.1378	0.3925	0.6418	0.188
Mof_N 	N 	0.4846	0.9071	0.1824	-0.36
Mof_N 	N 	0.418	0.8653	0.187	-0.112
Mof_H 	H 	0.6181	0.8701	0.0552	0.266
Mof_H 	H 	0.6014	0.9549	0.0855	0.283
Mof_H 	H 	0.6378	0.8925	0.1418	0.29
Mof_N 	N 	0.0154	0.5929	0.6824	-0.48
Mof_N 	N 	0.082	0.6347	0.687	-0.118
Mof_H 	H 	0.8819	0.6299	0.5552	0.362
Mof_H 	H 	0.8986	0.5451	0.5855	0.365
Mof_H 	H 	0.8622	0.6075	0.6418	0.374
Mof_N 	N 	0.5154	0.0929	0.1824	-0.355
Mof_N 	N 	0.582	0.1347	0.187	-0.125
Mof_H 	H 	0.3819	0.1299	0.0552	0.16
Mof_H 	H 	0.3986	0.0451	0.0855	0.143
Mof_H 	H 	0.3622	0.1075	0.1418	0.182
Mof_N 	N 	0.3176	0.0154	0.4071	-0.481
Mof_N 	N 	0.313	0.082	0.3653	-0.115
Mof_H 	H 	0.4448	0.8819	0.3701	0.366
Mof_H 	H 	0.4145	0.8986	0.4549	0.368
Mof_H 	H 	0.3582	0.8622	0.3925	0.378
Mof_N 	N 	0.8176	0.5154	0.9071	-0.388
Mof_N 	N 	0.813	0.582	0.8653	-0.106
Mof_H 	H 	0.9448	0.3819	0.8701	0.368
Mof_H 	H 	0.9145	0.3986	0.9549	0.387
Mof_H 	H 	0.8582	0.3622	0.8925	0.373
Mof_N 	N 	0.3176	0.9846	0.5929	-0.266
Mof_N 	N 	0.313	0.918	0.6347	-0.114
Mof_H 	H 	0.4448	0.1181	0.6299	0.174
Mof_H 	H 	0.4145	0.1014	0.5451	0.172
Mof_H 	H 	0.3582	0.1378	0.6075	0.189
Mof_N 	N 	0.8176	0.4846	0.0929	-0.39
Mof_N 	N 	0.813	0.418	0.1347	-0.123
Mof_H 	H 	0.9448	0.6181	0.1299	0.284
Mof_H 	H 	0.9145	0.6014	0.0451	0.267
Mof_H 	H 	0.8582	0.6378	0.1075	0.287
Mof_N 	N 	0.6824	0.9846	0.4071	-0.266
Mof_N 	N 	0.687	0.918	0.3653	-0.117
Mof_H 	H 	0.5552	0.1181	0.3701	0.175
Mof_H 	H 	0.5855	0.1014	0.4549	0.172
Mof_H 	H 	0.6418	0.1378	0.3925	0.188
Mof_N 	N 	0.1824	0.4846	0.9071	-0.36
Mof_N 	N 	0.187	0.418	0.8653	-0.112
Mof_H 	H 	0.0552	0.6181	0.8701	0.266
Mof_H 	H 	0.0855	0.6014	0.9549	0.283
Mof_H 	H 	0.1418	0.6378	0.8925	0.29
Mof_N 	N 	0.6824	0.0154	0.5929	-0.48
Mof_N 	N 	0.687	0.082	0.6347	-0.118
Mof_H 	H 	0.5552	0.8819	0.6299	0.362
Mof_H 	H 	0.5855	0.8986	0.5451	0.365
Mof_H 	H 	0.6418	0.8622	0.6075	0.374
Mof_N 	N 	0.1824	0.5154	0.0929	-0.355
Mof_N 	N 	0.187	0.582	0.1347	-0.125
Mof_H 	H 	0.0552	0.3819	0.1299	0.16
Mof_H 	H 	0.0855	0.3986	0.0451	0.143
Mof_H 	H 	0.1418	0.3622	0.1075	0.182
Mof_N 	N 	0.4071	0.3176	0.0154	-0.481
Mof_N 	N 	0.3653	0.313	0.082	-0.115
Mof_H 	H 	0.3701	0.4448	0.8819	0.366
Mof_H 	H 	0.4549	0.4145	0.8986	0.368
Mof_H 	H 	0.3925	0.3582	0.8622	0.378
Mof_N 	N 	0.9071	0.8176	0.5154	-0.388
Mof_N 	N 	0.8653	0.813	0.582	-0.106
Mof_H 	H 	0.8701	0.9448	0.3819	0.368
Mof_H 	H 	0.9549	0.9145	0.3986	0.387
Mof_H 	H 	0.8925	0.8582	0.3622	0.373
Mof_N 	N 	0.5929	0.3176	0.9846	-0.266
Mof_N 	N 	0.6347	0.313	0.918	-0.114
Mof_H 	H 	0.6299	0.4448	0.1181	0.174
Mof_H 	H 	0.5451	0.4145	0.1014	0.172
Mof_H 	H 	0.6075	0.3582	0.1378	0.189
Mof_N 	N 	0.0929	0.8176	0.4846	-0.39
Mof_N 	N 	0.1347	0.813	0.418	-0.123
Mof_H 	H 	0.1299	0.9448	0.6181	0.284
Mof_H 	H 	0.0451	0.9145	0.6014	0.267
Mof_H 	H 	0.1075	0.8582	0.6378	0.287
Mof_N 	N 	0.4071	0.6824	0.9846	-0.266
Mof_N 	N 	0.3653	0.687	0.918	-0.117
Mof_H 	H 	0.3701	0.5552	0.1181	0.175
Mof_H 	H 	0.4549	0.5855	0.1014	0.172
Mof_H 	H 	0.3925	0.6418	0.1378	0.188
Mof_N 	N 	0.9071	0.1824	0.4846	-0.36
Mof_N 	N 	0.8653	0.187	0.418	-0.112
Mof_H 	H 	0.8701	0.0552	0.6181	0.266
Mof_H 	H 	0.9549	0.0855	0.6014	0.283
Mof_H 	H 	0.8925	0.1418	0.6378	0.29
Mof_N 	N 	0.5929	0.6824	0.0154	-0.48
Mof_N 	N 	0.6347	0.687	0.082	-0.118
Mof_H 	H 	0.6299	0.5552	0.8819	0.362
Mof_H 	H 	0.5451	0.5855	0.8986	0.365
Mof_H 	H 	0.6075	0.6418	0.8622	0.374
Mof_N 	N 	0.0929	0.1824	0.5154	-0.355
Mof_N 	N 	0.1347	0.187	0.582	-0.125
Mof_H 	H 	0.1299	0.0552	0.3819	0.16
Mof_H 	H 	0.0451	0.0855	0.3986	0.143
Mof_H 	H 	0.1075	0.1418	0.3622	0.182
Mof_N 	N 	0.4071	0.0154	0.3176	-0.481
Mof_N 	N 	0.3653	0.082	0.313	-0.115
Mof_H 	H 	0.3701	0.8819	0.4448	0.366
Mof_H 	H 	0.4549	0.8986	0.4145	0.368
Mof_H 	H 	0.3925	0.8622	0.3582	0.378
Mof_N 	N 	0.9071	0.5154	0.8176	-0.388
Mof_N 	N 	0.8653	0.582	0.813	-0.106
Mof_H 	H 	0.8701	0.3819	0.9448	0.368
Mof_H 	H 	0.9549	0.3986	0.9145	0.387
Mof_H 	H 	0.8925	0.3622	0.8582	0.373
Mof_N 	N 	0.5929	0.9846	0.3176	-0.266
Mof_N 	N 	0.6347	0.918	0.313	-0.114
Mof_H 	H 	0.6299	0.1181	0.4448	0.174
Mof_H 	H 	0.5451	0.1014	0.4145	0.172
Mof_H 	H 	0.6075	0.1378	0.3582	0.189
Mof_N 	N 	0.0929	0.4846	0.8176	-0.39
Mof_N 	N 	0.1347	0.418	0.813	-0.123
Mof_H 	H 	0.1299	0.6181	0.9448	0.284
Mof_H 	H 	0.0451	0.6014	0.9145	0.267
Mof_H 	H 	0.1075	0.6378	0.8582	0.287
Mof_N 	N 	0.4071	0.9846	0.6824	-0.266
Mof_N 	N 	0.3653	0.918	0.687	-0.117
Mof_H 	H 	0.3701	0.1181	0.5552	0.175
Mof_H 	H 	0.4549	0.1014	0.5855	0.172
Mof_H 	H 	0.3925	0.1378	0.6418	0.188
Mof_N 	N 	0.9071	0.4846	0.1824	-0.36
Mof_N 	N 	0.8653	0.418	0.187	-0.112
Mof_H 	H 	0.8701	0.6181	0.0552	0.266
Mof_H 	H 	0.9549	0.6014	0.0855	0.283
Mof_H 	H 	0.8925	0.6378	0.1418	0.29
Mof_N 	N 	0.5929	0.0154	0.6824	-0.48
Mof_N 	N 	0.6347	0.082	0.687	-0.118
Mof_H 	H 	0.6299	0.8819	0.5552	0.362
Mof_H 	H 	0.5451	0.8986	0.5855	0.365
Mof_H 	H 	0.6075	0.8622	0.6418	0.374
Mof_N 	N 	0.0929	0.5154	0.1824	-0.355
Mof_N 	N 	0.1347	0.582	0.187	-0.125
Mof_H 	H 	0.1299	0.3819	0.0552	0.16
Mof_H 	H 	0.0451	0.3986	0.0855	0.143
Mof_H 	H 	0.1075	0.3622	0.1418	0.182
Mof_N 	N 	0.0154	0.3176	0.4071	-0.481
Mof_N 	N 	0.082	0.313	0.3653	-0.115
Mof_H 	H 	0.8819	0.4448	0.3701	0.366
Mof_H 	H 	0.8986	0.4145	0.4549	0.368
Mof_H 	H 	0.8622	0.3582	0.3925	0.378
Mof_N 	N 	0.5154	0.8176	0.9071	-0.388
Mof_N 	N 	0.582	0.813	0.8653	-0.106
Mof_H 	H 	0.3819	0.9448	0.8701	0.368
Mof_H 	H 	0.3986	0.9145	0.9549	0.387
Mof_H 	H 	0.3622	0.8582	0.8925	0.373
Mof_N 	N 	0.9846	0.3176	0.5929	-0.266
Mof_N 	N 	0.918	0.313	0.6347	-0.114
Mof_H 	H 	0.1181	0.4448	0.6299	0.174
Mof_H 	H 	0.1014	0.4145	0.5451	0.172
Mof_H 	H 	0.1378	0.3582	0.6075	0.189
Mof_N 	N 	0.4846	0.8176	0.0929	-0.39
Mof_N 	N 	0.418	0.813	0.1347	-0.123
Mof_H 	H 	0.6181	0.9448	0.1299	0.284
Mof_H 	H 	0.6014	0.9145	0.0451	0.267
Mof_H 	H 	0.6378	0.8582	0.1075	0.287
Mof_N 	N 	0.9846	0.6824	0.4071	-0.266
Mof_N 	N 	0.918	0.687	0.3653	-0.117
Mof_H 	H 	0.1181	0.5552	0.3701	0.175
Mof_H 	H 	0.1014	0.5855	0.4549	0.172
Mof_H 	H 	0.1378	0.6418	0.3925	0.188
Mof_N 	N 	0.4846	0.1824	0.9071	-0.36
Mof_N 	N 	0.418	0.187	0.8653	-0.112
Mof_H 	H 	0.6181	0.0552	0.8701	0.266
Mof_H 	H 	0.6014	0.0855	0.9549	0.283
Mof_H 	H 	0.6378	0.1418	0.8925	0.29
Mof_N 	N 	0.0154	0.6824	0.5929	-0.48
Mof_N 	N 	0.082	0.687	0.6347	-0.118
Mof_H 	H 	0.8819	0.5552	0.6299	0.362
Mof_H 	H 	0.8986	0.5855	0.5451	0.365
Mof_H 	H 	0.8622	0.6418	0.6075	0.374
Mof_N 	N 	0.5154	0.1824	0.0929	-0.355
Mof_N 	N 	0.582	0.187	0.1347	-0.125
Mof_H 	H 	0.3819	0.0552	0.1299	0.16
Mof_H 	H 	0.3986	0.0855	0.0451	0.143
Mof_H 	H 	0.3622	0.1418	0.1075	0.182
Mof_N 	N 	0.3176	0.4071	0.0154	-0.481
Mof_N 	N 	0.313	0.3653	0.082	-0.115
Mof_H 	H 	0.4448	0.3701	0.8819	0.366
Mof_H 	H 	0.4145	0.4549	0.8986	0.368
Mof_H 	H 	0.3582	0.3925	0.8622	0.378
Mof_N 	N 	0.8176	0.9071	0.5154	-0.388
Mof_N 	N 	0.813	0.8653	0.582	-0.106
Mof_H 	H 	0.9448	0.8701	0.3819	0.368
Mof_H 	H 	0.9145	0.9549	0.3986	0.387
Mof_H 	H 	0.8582	0.8925	0.3622	0.373
Mof_N 	N 	0.3176	0.5929	0.9846	-0.266
Mof_N 	N 	0.313	0.6347	0.918	-0.114
Mof_H 	H 	0.4448	0.6299	0.1181	0.174
Mof_H 	H 	0.4145	0.5451	0.1014	0.172
Mof_H 	H 	0.3582	0.6075	0.1378	0.189
Mof_N 	N 	0.8176	0.0929	0.4846	-0.39
Mof_N 	N 	0.813	0.1347	0.418	-0.123
Mof_H 	H 	0.9448	0.1299	0.6181	0.284
Mof_H 	H 	0.9145	0.0451	0.6014	0.267
Mof_H 	H 	0.8582	0.1075	0.6378	0.287
Mof_N 	N 	0.6824	0.4071	0.9846	-0.266
Mof_N 	N 	0.687	0.3653	0.918	-0.117
Mof_H 	H 	0.5552	0.3701	0.1181	0.175
Mof_H 	H 	0.5855	0.4549	0.1014	0.172
Mof_H 	H 	0.6418	0.3925	0.1378	0.188
Mof_N 	N 	0.1824	0.9071	0.4846	-0.36
Mof_N 	N 	0.187	0.8653	0.418	-0.112
Mof_H 	H 	0.0552	0.8701	0.6181	0.266
Mof_H 	H 	0.0855	0.9549	0.6014	0.283
Mof_H 	H 	0.1418	0.8925	0.6378	0.29
Mof_N 	N 	0.6824	0.5929	0.0154	-0.48
Mof_N 	N 	0.687	0.6347	0.082	-0.118
Mof_H 	H 	0.5552	0.6299	0.8819	0.362
Mof_H 	H 	0.5855	0.5451	0.8986	0.365
Mof_H 	H 	0.6418	0.6075	0.8622	0.374
Mof_N 	N 	0.1824	0.0929	0.5154	-0.355
Mof_N 	N 	0.187	0.1347	0.582	-0.125
Mof_H 	H 	0.0552	0.1299	0.3819	0.16
Mof_H 	H 	0.0855	0.0451	0.3986	0.143
Mof_H 	H 	0.1418	0.1075	0.3622	0.182
Mof_Zn	Zn	-6.61312e-33	0.5	0.25	1.138
Mof_Zn	Zn	-7.25524e-33	0.5	0.75	1.139
Mof_Zn	Zn	0.25	-5.03365e-33	0.5	1.138
Mof_Zn	Zn	0.75	-5.03365e-33	0.5	1.139
Mof_Zn	Zn	0.5	0.25	-0	1.138
Mof_Zn	Zn	0.5	0.75	-0	1.139
Mof_Zn	Zn	0.5	-2.51682e-33	0.25	1.138
Mof_Zn	Zn	0.5	-1.00673e-32	0.75	1.139
Mof_Zn	Zn	-8.19259e-33	0.25	0.5	1.138
Mof_Zn	Zn	-1.32262e-32	0.75	0.5	1.139
Mof_Zn	Zn	0.25	0.5	-0	1.138
Mof_Zn	Zn	0.75	0.5	-0	1.139
Mof_C 	C 	0.9785	0.3759	0.3759	0.826
Mof_C 	C 	0.8981	0.4006	0.4006	-2.322
Mof_C 	C 	0.4785	0.8759	0.8759	0.675
Mof_C 	C 	0.3981	0.9006	0.9006	-2.272
Mof_C 	C 	0.0215	0.6241	0.3759	0.22
Mof_C 	C 	0.1019	0.5994	0.4006	-1.197
Mof_C 	C 	0.5215	0.1241	0.8759	0.53
Mof_C 	C 	0.6019	0.0994	0.9006	-1.785
Mof_C 	C 	0.0215	0.3759	0.6241	0.22
Mof_C 	C 	0.1019	0.4006	0.5994	-1.197
Mof_C 	C 	0.5215	0.8759	0.1241	0.53
Mof_C 	C 	0.6019	0.9006	0.0994	-1.785
Mof_C 	C 	0.9785	0.6241	0.6241	0.825
Mof_C 	C 	0.8981	0.5994	0.5994	-2.305
Mof_C 	C 	0.4785	0.1241	0.1241	0.357
Mof_C 	C 	0.3981	0.0994	0.0994	-1.192
Mof_C 	C 	0.3759	0.9785	0.3759	0.826
Mof_C 	C 	0.4006	0.8981	0.4006	-2.322
Mof_C 	C 	0.8759	0.4785	0.8759	0.675
Mof_C 	C 	0.9006	0.3981	0.9006	-2.272
Mof_C 	C 	0.3759	0.0215	0.6241	0.22
Mof_C 	C 	0.4006	0.1019	0.5994	-1.197
Mof_C 	C 	0.8759	0.5215	0.1241	0.53
Mof_C 	C 	0.9006	0.6019	0.0994	-1.785
Mof_C 	C 	0.6241	0.0215	0.3759	0.22
Mof_C 	C 	0.5994	0.1019	0.4006	-1.197
Mof_C 	C 	0.1241	0.5215	0.8759	0.53
Mof_C 	C 	0.0994	0.6019	0.9006	-1.785
Mof_C 	C 	0.6241	0.9785	0.6241	0.825
Mof_C 	C 	0.5994	0.8981	0.5994	-2.305
Mof_C 	C 	0.1241	0.4785	0.1241	0.357
Mof_C 	C 	0.0994	0.3981	0.0994	-1.192
Mof_C 	C 	0.3759	0.3759	0.9785	0.826
Mof_C 	C 	0.4006	0.4006	0.8981	-2.322
Mof_C 	C 	0.8759	0.8759	0.4785	0.675
Mof_C 	C 	0.9006	0.9006	0.3981	-2.272
Mof_C 	C 	0.6241	0.3759	0.0215	0.22
Mof_C 	C 	0.5994	0.4006	0.1019	-1.197
Mof_C 	C 	0.1241	0.8759	0.5215	0.53
Mof_C 	C 	0.0994	0.9006	0.6019	-1.785
Mof_C 	C 	0.3759	0.6241	0.0215	0.22
Mof_C 	C 	0.4006	0.5994	0.1019	-1.197
Mof_C 	C 	0.8759	0.1241	0.5215	0.53
Mof_C 	C 	0.9006	0.0994	0.6019	-1.785
Mof_C 	C 	0.6241	0.6241	0.9785	0.825
Mof_C 	C 	0.5994	0.5994	0.8981	-2.305
Mof_C 	C 	0.1241	0.1241	0.4785	0.357
Mof_C 	C 	0.0994	0.0994	0.3981	-1.192
_end
