data_functionalizedCrystal
_audit_creation_method	'EQeq! by Chris Wilmer'
_symmetry_space_group_name_H-M	'P1'
_symmetry_Int_Tables_number	1
_symmetry_cell_setting	triclinic
loop_
_symmetry_equiv_pos_as_xyz
  x,y,z
_cell_length_a	15.9388
_cell_length_b	16.1837
_cell_length_c	28.52
_cell_angle_alpha	90
_cell_angle_beta	90
_cell_angle_gamma	105.714
loop_
_atom_site_label
_atom_site_type_symbol
_atom_site_fract_x
_atom_site_fract_y
_atom_site_fract_z
_atom_site_charge
Mof_Cd	Cd	0.61999	0.13608	0.96619	0.456
Mof_Cd	Cd	0.66201	0.35016	0.03398	0.458
Mof_Cd	Cd	0.61999	0.63608	0.53381	0.457
Mof_Cd	Cd	0.66201	0.85016	0.46602	0.458
Mof_H 	H 	0.6896	0.5062	0.887	0.027
Mof_H 	H 	0.6672	0.2533	0.8702	0.048
Mof_H 	H 	0.655	0.2643	0.7896	0.048
Mof_H 	H 	0.635	0.309	0.7013	0.051
Mof_H 	H 	0.6177	0.3766	0.6313	0.031
Mof_H 	H 	0.6579	0.6065	0.6985	0.01
Mof_H 	H 	0.5477	0.539	0.8028	0.237
Mof_H 	H 	0.603	0.6309	0.7843	0.22
Mof_H 	H 	0.6135	0.6033	0.8374	0.229
Mof_H 	H 	0.8102	0.5888	0.7849	0.228
Mof_H 	H 	0.7713	0.6335	0.8265	0.228
Mof_H 	H 	0.7619	0.6612	0.7733	0.222
Mof_H 	H 	0.6119	0.9864	0.1131	0.028
Mof_H 	H 	0.5886	0.2295	0.1319	0.05
Mof_H 	H 	0.5904	0.2131	0.2133	0.048
Mof_H 	H 	0.61	0.1659	0.3015	0.054
Mof_H 	H 	0.6336	0.1006	0.3714	0.028
Mof_H 	H 	0.6519	0.8893	0.3001	0.019
Mof_H 	H 	0.496	0.8851	0.2127	0.215
Mof_H 	H 	0.5581	0.8249	0.2244	0.208
Mof_H 	H 	0.5461	0.8515	0.1713	0.219
Mof_H 	H 	0.7609	0.9777	0.1989	0.222
Mof_H 	H 	0.7058	0.9078	0.163	0.219
Mof_H 	H 	0.7183	0.8813	0.2161	0.217
Mof_H 	H 	0.8622	0.4276	0.9962	0.005
Mof_H 	H 	0.9995	0.4178	0.0067	0.104
Mof_H 	H 	0.9142	0.242	0.1049	0.088
Mof_H 	H 	0.7741	0.2606	0.0952	0.008
Mof_H 	H 	0.0694	0.2831	0.0898	0.052
Mof_H 	H 	0.2457	0.4083	0.999	0.079
Mof_H 	H 	0.3343	0.2915	0.0868	0.081
Mof_H 	H 	0.4757	0.2769	0.0863	0.008
Mof_H 	H 	0.5279	0.4125	0.9703	0.011
Mof_H 	H 	0.3903	0.4305	0.9685	0.113
Mof_H 	H 	0.4362	0.0922	0.0155	0.035
Mof_H 	H 	0.2945	0.1069	0.0099	0.102
Mof_H 	H 	0.3666	0.2418	0.8915	0.076
Mof_H 	H 	0.5052	0.2237	0.8999	0.002
Mof_H 	H 	0.2173	0.2213	0.9194	0.056
Mof_H 	H 	0.0371	0.0887	0.0144	0.059
Mof_H 	H 	0.8878	0.0464	0.0351	0.086
Mof_H 	H 	0.7435	0.0538	0.0248	0.018
Mof_H 	H 	0.8153	0.2393	0.9348	0.013
Mof_H 	H 	0.9602	0.2311	0.9365	0.091
Mof_H 	H 	0.6896	0.0062	0.613	0.027
Mof_H 	H 	0.6672	0.7533	0.6298	0.049
Mof_H 	H 	0.655	0.7643	0.7104	0.048
Mof_H 	H 	0.635	0.809	0.7987	0.051
Mof_H 	H 	0.6177	0.8766	0.8687	0.031
Mof_H 	H 	0.6579	0.1065	0.8015	0.011
Mof_H 	H 	0.5477	0.039	0.6972	0.237
Mof_H 	H 	0.603	0.1309	0.7157	0.22
Mof_H 	H 	0.6135	0.1033	0.6626	0.228
Mof_H 	H 	0.8102	0.0888	0.7151	0.228
Mof_H 	H 	0.7713	0.1335	0.6735	0.228
Mof_H 	H 	0.7619	0.1612	0.7267	0.222
Mof_H 	H 	0.6119	0.4864	0.3869	0.029
Mof_H 	H 	0.5886	0.7295	0.3681	0.05
Mof_H 	H 	0.5904	0.7131	0.2867	0.048
Mof_H 	H 	0.61	0.6659	0.1985	0.054
Mof_H 	H 	0.6336	0.6006	0.1286	0.028
Mof_H 	H 	0.6519	0.3893	0.1999	0.019
Mof_H 	H 	0.496	0.3851	0.2873	0.215
Mof_H 	H 	0.5581	0.3249	0.2756	0.208
Mof_H 	H 	0.5461	0.3515	0.3287	0.219
Mof_H 	H 	0.7609	0.4777	0.3011	0.222
Mof_H 	H 	0.7058	0.4078	0.337	0.219
Mof_H 	H 	0.7183	0.3813	0.2839	0.217
Mof_H 	H 	0.8622	0.9276	0.5038	0.005
Mof_H 	H 	0.9995	0.9178	0.4933	0.104
Mof_H 	H 	0.9142	0.742	0.3951	0.088
Mof_H 	H 	0.7741	0.7606	0.4048	0.008
Mof_H 	H 	0.0694	0.7831	0.4102	0.052
Mof_H 	H 	0.2457	0.9083	0.501	0.079
Mof_H 	H 	0.3343	0.7915	0.4132	0.081
Mof_H 	H 	0.4757	0.7769	0.4137	0.008
Mof_H 	H 	0.5279	0.9125	0.5297	0.011
Mof_H 	H 	0.3903	0.9305	0.5315	0.113
Mof_H 	H 	0.4362	0.5922	0.4845	0.035
Mof_H 	H 	0.2945	0.6069	0.4901	0.101
Mof_H 	H 	0.3666	0.7418	0.6085	0.076
Mof_H 	H 	0.5052	0.7237	0.6001	0.002
Mof_H 	H 	0.2173	0.7213	0.5806	0.055
Mof_H 	H 	0.0371	0.5887	0.4856	0.059
Mof_H 	H 	0.8878	0.5464	0.4649	0.086
Mof_H 	H 	0.7435	0.5538	0.4752	0.018
Mof_H 	H 	0.8153	0.7393	0.5652	0.013
Mof_H 	H 	0.9602	0.7311	0.5635	0.092
Mof_C 	C 	0.6823	0.4577	0.8671	0.042
Mof_C 	C 	0.6778	0.3761	0.8861	-0.098
Mof_C 	C 	0.6685	0.3075	0.8569	0.016
Mof_C 	C 	0.6609	0.3131	0.8091	-0.097
Mof_C 	C 	0.6387	0.3686	0.7008	-0.105
Mof_C 	C 	0.6298	0.4095	0.6593	0.032
Mof_C 	C 	0.6379	0.4982	0.657	-0.107
Mof_C 	C 	0.6532	0.5467	0.6991	0.048
Mof_C 	C 	0.6615	0.506	0.7411	-0.144
Mof_C 	C 	0.6534	0.4171	0.7418	0.046
Mof_C 	C 	0.6621	0.3919	0.7905	0.039
Mof_C 	C 	0.676	0.4658	0.8191	-0.137
Mof_C 	C 	0.6763	0.5445	0.7901	0.369
Mof_C 	C 	0.6037	0.5828	0.8049	-0.705
Mof_C 	C 	0.7625	0.6131	0.7941	-0.696
Mof_C 	C 	0.6807	0.3656	0.9387	0.315
Mof_C 	C 	0.6278	0.5408	0.6118	0.326
Mof_C 	C 	0.6097	0.0326	0.1332	0.038
Mof_C 	C 	0.6012	0.111	0.1148	-0.087
Mof_C 	C 	0.5945	0.1773	0.1449	0.01
Mof_C 	C 	0.5962	0.1684	0.193	-0.084
Mof_C 	C 	0.6187	0.1101	0.3013	-0.109
Mof_C 	C 	0.6323	0.0712	0.3425	0.022
Mof_C 	C 	0.644	0.9894	0.342	-0.1
Mof_C 	C 	0.6435	0.9452	0.3003	0.039
Mof_C 	C 	0.6305	0.9848	0.2586	-0.144
Mof_C 	C 	0.618	0.0659	0.2595	0.047
Mof_C 	C 	0.6068	0.0909	0.2108	0.037
Mof_C 	C 	0.6145	0.0255	0.1813	-0.127
Mof_C 	C 	0.6283	0.9513	0.2096	0.342
Mof_C 	C 	0.5499	0.8708	0.204	-0.654
Mof_C 	C 	0.7106	0.9274	0.1957	-0.674
Mof_C 	C 	0.6009	0.1246	0.0624	0.31
Mof_C 	C 	0.659	0.947	0.3881	0.302
Mof_C 	C 	0.8723	0.3898	0.0196	0.115
Mof_C 	C 	0.9537	0.3846	0.0257	-0.191
Mof_C 	C 	0.9706	0.3325	0.0585	0.139
Mof_C 	C 	0.9045	0.283	0.0832	-0.18
Mof_C 	C 	0.8205	0.2929	0.0762	0.107
Mof_C 	C 	0.0603	0.3214	0.0664	-0.044
Mof_C 	C 	0.2596	0.3753	0.024	-0.038
Mof_C 	C 	0.3458	0.3641	0.0268	0.125
Mof_C 	C 	0.3734	0.3173	0.0625	-0.157
Mof_C 	C 	0.458	0.3088	0.0621	0.092
Mof_C 	C 	0.4882	0.3879	0.9946	0.103
Mof_C 	C 	0.4058	0.3984	0.9933	-0.176
Mof_C 	C 	0.4216	0.1229	0.9897	0.098
Mof_C 	C 	0.3367	0.1314	0.9867	-0.153
Mof_C 	C 	0.3159	0.1756	0.9498	0.114
Mof_C 	C 	0.3794	0.2104	0.9174	-0.17
Mof_C 	C 	0.4617	0.1995	0.9225	0.092
Mof_C 	C 	0.2289	0.1869	0.9443	-0.046
Mof_C 	C 	0.0255	0.1259	0.9911	-0.048
Mof_C 	C 	0.9389	0.1363	0.9858	0.113
Mof_C 	C 	0.8748	0.0851	0.013	-0.157
Mof_C 	C 	0.7884	0.0914	0.007	0.089
Mof_C 	C 	0.8293	0.1975	0.9544	0.092
Mof_C 	C 	0.9172	0.1943	0.9558	-0.151
Mof_C 	C 	0.6823	0.9577	0.6329	0.043
Mof_C 	C 	0.6778	0.8761	0.6139	-0.099
Mof_C 	C 	0.6685	0.8075	0.6431	0.016
Mof_C 	C 	0.6609	0.8131	0.6909	-0.097
Mof_C 	C 	0.6387	0.8686	0.7992	-0.104
Mof_C 	C 	0.6298	0.9095	0.8407	0.032
Mof_C 	C 	0.6379	0.9982	0.843	-0.105
Mof_C 	C 	0.6532	0.0467	0.8009	0.046
Mof_C 	C 	0.6615	0.006	0.7589	-0.144
Mof_C 	C 	0.6534	0.9171	0.7582	0.046
Mof_C 	C 	0.6621	0.8919	0.7095	0.039
Mof_C 	C 	0.676	0.9658	0.6809	-0.137
Mof_C 	C 	0.6763	0.0445	0.7099	0.368
Mof_C 	C 	0.6037	0.0828	0.6951	-0.704
Mof_C 	C 	0.7625	0.1131	0.7059	-0.695
Mof_C 	C 	0.6807	0.8656	0.5613	0.315
Mof_C 	C 	0.6278	0.0408	0.8882	0.324
Mof_C 	C 	0.6097	0.5326	0.3668	0.037
Mof_C 	C 	0.6012	0.611	0.3852	-0.087
Mof_C 	C 	0.5945	0.6773	0.3551	0.01
Mof_C 	C 	0.5962	0.6684	0.307	-0.084
Mof_C 	C 	0.6187	0.6101	0.1987	-0.108
Mof_C 	C 	0.6323	0.5712	0.1575	0.022
Mof_C 	C 	0.644	0.4894	0.158	-0.1
Mof_C 	C 	0.6435	0.4452	0.1997	0.038
Mof_C 	C 	0.6305	0.4848	0.2414	-0.144
Mof_C 	C 	0.618	0.5659	0.2405	0.046
Mof_C 	C 	0.6068	0.5909	0.2892	0.037
Mof_C 	C 	0.6145	0.5255	0.3187	-0.127
Mof_C 	C 	0.6283	0.4513	0.2904	0.342
Mof_C 	C 	0.5499	0.3708	0.296	-0.654
Mof_C 	C 	0.7106	0.4274	0.3043	-0.674
Mof_C 	C 	0.6009	0.6246	0.4376	0.31
Mof_C 	C 	0.659	0.447	0.1119	0.302
Mof_C 	C 	0.8723	0.8898	0.4804	0.115
Mof_C 	C 	0.9537	0.8846	0.4743	-0.191
Mof_C 	C 	0.9706	0.8325	0.4415	0.139
Mof_C 	C 	0.9045	0.783	0.4168	-0.181
Mof_C 	C 	0.8205	0.7929	0.4238	0.107
Mof_C 	C 	0.0603	0.8214	0.4336	-0.045
Mof_C 	C 	0.2596	0.8753	0.476	-0.038
Mof_C 	C 	0.3458	0.8641	0.4732	0.125
Mof_C 	C 	0.3734	0.8173	0.4375	-0.157
Mof_C 	C 	0.458	0.8088	0.4379	0.092
Mof_C 	C 	0.4882	0.8879	0.5054	0.103
Mof_C 	C 	0.4058	0.8984	0.5067	-0.176
Mof_C 	C 	0.4216	0.6229	0.5103	0.099
Mof_C 	C 	0.3367	0.6314	0.5133	-0.153
Mof_C 	C 	0.3159	0.6756	0.5502	0.114
Mof_C 	C 	0.3794	0.7104	0.5826	-0.17
Mof_C 	C 	0.4617	0.6995	0.5775	0.092
Mof_C 	C 	0.2289	0.6869	0.5557	-0.046
Mof_C 	C 	0.0255	0.6259	0.5089	-0.049
Mof_C 	C 	0.9389	0.6363	0.5142	0.115
Mof_C 	C 	0.8748	0.5851	0.487	-0.159
Mof_C 	C 	0.7884	0.5914	0.493	0.089
Mof_C 	C 	0.8293	0.6975	0.5456	0.093
Mof_C 	C 	0.9172	0.6943	0.5442	-0.152
Mof_N 	N 	0.8037	0.3448	0.0446	-0.16
Mof_N 	N 	0.1228	0.3627	0.042	-0.071
Mof_N 	N 	0.203	0.3429	0.0534	-0.076
Mof_N 	N 	0.5148	0.3439	0.0288	-0.152
Mof_N 	N 	0.4818	0.1555	0.9586	-0.151
Mof_N 	N 	0.168	0.1507	0.9728	-0.074
Mof_N 	N 	0.0887	0.1686	0.9631	-0.072
Mof_N 	N 	0.7662	0.1462	0.9784	-0.152
Mof_N 	N 	0.8037	0.8448	0.4554	-0.16
Mof_N 	N 	0.1228	0.8627	0.458	-0.071
Mof_N 	N 	0.203	0.8429	0.4466	-0.076
Mof_N 	N 	0.5148	0.8439	0.4712	-0.152
Mof_N 	N 	0.4818	0.6555	0.5414	-0.151
Mof_N 	N 	0.168	0.6507	0.5272	-0.073
Mof_N 	N 	0.0887	0.6686	0.5369	-0.072
Mof_N 	N 	0.7662	0.6462	0.5216	-0.152
Mof_O 	O 	0.6902	0.4294	0.9642	-0.282
Mof_O 	O 	0.6693	0.2912	0.9549	-0.296
Mof_O 	O 	0.6258	0.6164	0.613	-0.3
Mof_O 	O 	0.6252	0.4986	0.5749	-0.273
Mof_O 	O 	0.5928	0.0613	0.0364	-0.278
Mof_O 	O 	0.6126	0.2002	0.0469	-0.291
Mof_O 	O 	0.6729	0.9893	0.4252	-0.277
Mof_O 	O 	0.6546	0.8681	0.3861	-0.284
Mof_O 	O 	0.6902	0.9294	0.5358	-0.282
Mof_O 	O 	0.6693	0.7912	0.5451	-0.296
Mof_O 	O 	0.6258	0.1164	0.887	-0.3
Mof_O 	O 	0.6252	0.9986	0.9251	-0.271
Mof_O 	O 	0.5928	0.5613	0.4636	-0.278
Mof_O 	O 	0.6126	0.7002	0.4531	-0.291
Mof_O 	O 	0.6729	0.4893	0.0748	-0.277
Mof_O 	O 	0.6546	0.3681	0.1139	-0.284
Mof_Cd	Cd	0.38001	0.36392	0.46619	0.458
Mof_Cd	Cd	0.33799	0.14984	0.53398	0.459
Mof_Cd	Cd	0.38001	0.86392	0.03381	0.457
Mof_Cd	Cd	0.33799	0.64984	0.96602	0.459
Mof_H 	H 	0.3104	0.9938	0.387	0.027
Mof_H 	H 	0.3328	0.2467	0.3702	0.049
Mof_H 	H 	0.345	0.2357	0.2896	0.048
Mof_H 	H 	0.365	0.191	0.2013	0.051
Mof_H 	H 	0.3823	0.1234	0.1313	0.031
Mof_H 	H 	0.3421	0.8935	0.1985	0.011
Mof_H 	H 	0.4523	0.961	0.3028	0.237
Mof_H 	H 	0.397	0.8691	0.2843	0.22
Mof_H 	H 	0.3865	0.8967	0.3374	0.228
Mof_H 	H 	0.1898	0.9112	0.2849	0.228
Mof_H 	H 	0.2287	0.8665	0.3265	0.228
Mof_H 	H 	0.2381	0.8388	0.2733	0.222
Mof_H 	H 	0.3881	0.5136	0.6131	0.029
Mof_H 	H 	0.4114	0.2705	0.6319	0.05
Mof_H 	H 	0.4096	0.2869	0.7133	0.048
Mof_H 	H 	0.39	0.3341	0.8015	0.054
Mof_H 	H 	0.3664	0.3994	0.8714	0.028
Mof_H 	H 	0.3481	0.6107	0.8001	0.019
Mof_H 	H 	0.504	0.6149	0.7127	0.215
Mof_H 	H 	0.4419	0.6751	0.7244	0.208
Mof_H 	H 	0.4539	0.6485	0.6713	0.219
Mof_H 	H 	0.2391	0.5223	0.6989	0.222
Mof_H 	H 	0.2942	0.5922	0.663	0.219
Mof_H 	H 	0.2817	0.6187	0.7161	0.217
Mof_H 	H 	0.1378	0.0724	0.4962	0.005
Mof_H 	H 	0.0005	0.0822	0.5067	0.104
Mof_H 	H 	0.0858	0.258	0.6049	0.088
Mof_H 	H 	0.2259	0.2394	0.5952	0.008
Mof_H 	H 	0.9306	0.2169	0.5898	0.052
Mof_H 	H 	0.7543	0.0917	0.499	0.079
Mof_H 	H 	0.6657	0.2085	0.5868	0.081
Mof_H 	H 	0.5243	0.2231	0.5863	0.008
Mof_H 	H 	0.4721	0.0875	0.4703	0.011
Mof_H 	H 	0.6097	0.0695	0.4685	0.113
Mof_H 	H 	0.5638	0.4078	0.5155	0.035
Mof_H 	H 	0.7055	0.3931	0.5099	0.101
Mof_H 	H 	0.6334	0.2582	0.3915	0.076
Mof_H 	H 	0.4948	0.2763	0.3999	0.002
Mof_H 	H 	0.7827	0.2787	0.4194	0.055
Mof_H 	H 	0.9629	0.4113	0.5144	0.059
Mof_H 	H 	0.1122	0.4536	0.5351	0.086
Mof_H 	H 	0.2565	0.4462	0.5248	0.018
Mof_H 	H 	0.1847	0.2607	0.4348	0.013
Mof_H 	H 	0.0398	0.2689	0.4365	0.092
Mof_H 	H 	0.3104	0.4938	0.113	0.028
Mof_H 	H 	0.3328	0.7467	0.1298	0.049
Mof_H 	H 	0.345	0.7357	0.2104	0.048
Mof_H 	H 	0.365	0.691	0.2987	0.051
Mof_H 	H 	0.3823	0.6234	0.3687	0.031
Mof_H 	H 	0.3421	0.3935	0.3015	0.01
Mof_H 	H 	0.4523	0.461	0.1972	0.237
Mof_H 	H 	0.397	0.3691	0.2157	0.22
Mof_H 	H 	0.3865	0.3967	0.1626	0.229
Mof_H 	H 	0.1898	0.4112	0.2151	0.228
Mof_H 	H 	0.2287	0.3665	0.1735	0.228
Mof_H 	H 	0.2381	0.3388	0.2267	0.222
Mof_H 	H 	0.3881	0.0136	0.8869	0.028
Mof_H 	H 	0.4114	0.7705	0.8681	0.05
Mof_H 	H 	0.4096	0.7869	0.7867	0.048
Mof_H 	H 	0.39	0.8341	0.6985	0.054
Mof_H 	H 	0.3664	0.8994	0.6286	0.028
Mof_H 	H 	0.3481	0.1107	0.6999	0.019
Mof_H 	H 	0.504	0.1149	0.7873	0.215
Mof_H 	H 	0.4419	0.1751	0.7756	0.208
Mof_H 	H 	0.4539	0.1485	0.8287	0.219
Mof_H 	H 	0.2391	0.0223	0.8011	0.222
Mof_H 	H 	0.2942	0.0922	0.837	0.219
Mof_H 	H 	0.2817	0.1187	0.7839	0.217
Mof_H 	H 	0.1378	0.5724	0.0038	0.005
Mof_H 	H 	0.0005	0.5822	0.9933	0.104
Mof_H 	H 	0.0858	0.758	0.8951	0.088
Mof_H 	H 	0.2259	0.7394	0.9048	0.008
Mof_H 	H 	0.9306	0.7169	0.9102	0.052
Mof_H 	H 	0.7543	0.5917	0.001	0.079
Mof_H 	H 	0.6657	0.7085	0.9132	0.081
Mof_H 	H 	0.5243	0.7231	0.9137	0.008
Mof_H 	H 	0.4721	0.5875	0.0297	0.011
Mof_H 	H 	0.6097	0.5695	0.0315	0.113
Mof_H 	H 	0.5638	0.9078	0.9845	0.035
Mof_H 	H 	0.7055	0.8931	0.9901	0.102
Mof_H 	H 	0.6334	0.7582	0.1085	0.076
Mof_H 	H 	0.4948	0.7763	0.1001	0.002
Mof_H 	H 	0.7827	0.7787	0.0806	0.056
Mof_H 	H 	0.9629	0.9113	0.9856	0.059
Mof_H 	H 	0.1122	0.9536	0.9649	0.086
Mof_H 	H 	0.2565	0.9462	0.9752	0.018
Mof_H 	H 	0.1847	0.7607	0.0652	0.013
Mof_H 	H 	0.0398	0.7689	0.0635	0.091
Mof_C 	C 	0.3177	0.0423	0.3671	0.043
Mof_C 	C 	0.3222	0.1239	0.3861	-0.099
Mof_C 	C 	0.3315	0.1925	0.3569	0.016
Mof_C 	C 	0.3391	0.1869	0.3091	-0.097
Mof_C 	C 	0.3613	0.1314	0.2008	-0.104
Mof_C 	C 	0.3702	0.0905	0.1593	0.032
Mof_C 	C 	0.3621	0.0018	0.157	-0.105
Mof_C 	C 	0.3468	0.9533	0.1991	0.046
Mof_C 	C 	0.3385	0.994	0.2411	-0.144
Mof_C 	C 	0.3466	0.0829	0.2418	0.046
Mof_C 	C 	0.3379	0.1081	0.2905	0.039
Mof_C 	C 	0.324	0.0342	0.3191	-0.137
Mof_C 	C 	0.3237	0.9555	0.2901	0.368
Mof_C 	C 	0.3963	0.9172	0.3049	-0.704
Mof_C 	C 	0.2375	0.8869	0.2941	-0.695
Mof_C 	C 	0.3193	0.1344	0.4387	0.315
Mof_C 	C 	0.3722	0.9592	0.1118	0.324
Mof_C 	C 	0.3903	0.4674	0.6332	0.037
Mof_C 	C 	0.3988	0.389	0.6148	-0.087
Mof_C 	C 	0.4055	0.3227	0.6449	0.01
Mof_C 	C 	0.4038	0.3316	0.693	-0.084
Mof_C 	C 	0.3813	0.3899	0.8013	-0.108
Mof_C 	C 	0.3677	0.4288	0.8425	0.022
Mof_C 	C 	0.356	0.5106	0.842	-0.1
Mof_C 	C 	0.3565	0.5548	0.8003	0.038
Mof_C 	C 	0.3695	0.5152	0.7586	-0.144
Mof_C 	C 	0.382	0.4341	0.7595	0.046
Mof_C 	C 	0.3932	0.4091	0.7108	0.037
Mof_C 	C 	0.3855	0.4745	0.6813	-0.127
Mof_C 	C 	0.3717	0.5487	0.7096	0.342
Mof_C 	C 	0.4501	0.6292	0.704	-0.654
Mof_C 	C 	0.2894	0.5726	0.6957	-0.674
Mof_C 	C 	0.3991	0.3754	0.5624	0.31
Mof_C 	C 	0.341	0.553	0.8881	0.302
Mof_C 	C 	0.1277	0.1102	0.5196	0.115
Mof_C 	C 	0.0463	0.1154	0.5257	-0.191
Mof_C 	C 	0.0294	0.1675	0.5585	0.139
Mof_C 	C 	0.0955	0.217	0.5832	-0.181
Mof_C 	C 	0.1795	0.2071	0.5762	0.107
Mof_C 	C 	0.9397	0.1786	0.5664	-0.045
Mof_C 	C 	0.7404	0.1247	0.524	-0.038
Mof_C 	C 	0.6542	0.1359	0.5268	0.125
Mof_C 	C 	0.6266	0.1827	0.5625	-0.157
Mof_C 	C 	0.542	0.1912	0.5621	0.092
Mof_C 	C 	0.5118	0.1121	0.4946	0.103
Mof_C 	C 	0.5942	0.1016	0.4933	-0.176
Mof_C 	C 	0.5784	0.3771	0.4897	0.099
Mof_C 	C 	0.6633	0.3686	0.4867	-0.153
Mof_C 	C 	0.6841	0.3244	0.4498	0.114
Mof_C 	C 	0.6206	0.2896	0.4174	-0.17
Mof_C 	C 	0.5383	0.3005	0.4225	0.092
Mof_C 	C 	0.7711	0.3131	0.4443	-0.046
Mof_C 	C 	0.9745	0.3741	0.4911	-0.049
Mof_C 	C 	0.0611	0.3637	0.4858	0.115
Mof_C 	C 	0.1252	0.4149	0.513	-0.159
Mof_C 	C 	0.2116	0.4086	0.507	0.089
Mof_C 	C 	0.1707	0.3025	0.4544	0.093
Mof_C 	C 	0.0828	0.3057	0.4558	-0.152
Mof_C 	C 	0.3177	0.5423	0.1329	0.042
Mof_C 	C 	0.3222	0.6239	0.1139	-0.098
Mof_C 	C 	0.3315	0.6925	0.1431	0.016
Mof_C 	C 	0.3391	0.6869	0.1909	-0.097
Mof_C 	C 	0.3613	0.6314	0.2992	-0.105
Mof_C 	C 	0.3702	0.5905	0.3407	0.032
Mof_C 	C 	0.3621	0.5018	0.343	-0.107
Mof_C 	C 	0.3468	0.4533	0.3009	0.048
Mof_C 	C 	0.3385	0.494	0.2589	-0.144
Mof_C 	C 	0.3466	0.5829	0.2582	0.046
Mof_C 	C 	0.3379	0.6081	0.2095	0.039
Mof_C 	C 	0.324	0.5342	0.1809	-0.137
Mof_C 	C 	0.3237	0.4555	0.2099	0.369
Mof_C 	C 	0.3963	0.4172	0.1951	-0.705
Mof_C 	C 	0.2375	0.3869	0.2059	-0.696
Mof_C 	C 	0.3193	0.6344	0.0613	0.315
Mof_C 	C 	0.3722	0.4592	0.3882	0.326
Mof_C 	C 	0.3903	0.9674	0.8668	0.038
Mof_C 	C 	0.3988	0.889	0.8852	-0.087
Mof_C 	C 	0.4055	0.8227	0.8551	0.01
Mof_C 	C 	0.4038	0.8316	0.807	-0.084
Mof_C 	C 	0.3813	0.8899	0.6987	-0.109
Mof_C 	C 	0.3677	0.9288	0.6575	0.022
Mof_C 	C 	0.356	0.0106	0.658	-0.1
Mof_C 	C 	0.3565	0.0548	0.6997	0.039
Mof_C 	C 	0.3695	0.0152	0.7414	-0.144
Mof_C 	C 	0.382	0.9341	0.7405	0.047
Mof_C 	C 	0.3932	0.9091	0.7892	0.037
Mof_C 	C 	0.3855	0.9745	0.8187	-0.127
Mof_C 	C 	0.3717	0.0487	0.7904	0.342
Mof_C 	C 	0.4501	0.1292	0.796	-0.654
Mof_C 	C 	0.2894	0.0726	0.8043	-0.674
Mof_C 	C 	0.3991	0.8754	0.9376	0.31
Mof_C 	C 	0.341	0.053	0.6119	0.302
Mof_C 	C 	0.1277	0.6102	0.9804	0.115
Mof_C 	C 	0.0463	0.6154	0.9743	-0.191
Mof_C 	C 	0.0294	0.6675	0.9415	0.139
Mof_C 	C 	0.0955	0.717	0.9168	-0.18
Mof_C 	C 	0.1795	0.7071	0.9238	0.107
Mof_C 	C 	0.9397	0.6786	0.9336	-0.044
Mof_C 	C 	0.7404	0.6247	0.976	-0.038
Mof_C 	C 	0.6542	0.6359	0.9732	0.125
Mof_C 	C 	0.6266	0.6827	0.9375	-0.157
Mof_C 	C 	0.542	0.6912	0.9379	0.092
Mof_C 	C 	0.5118	0.6121	0.0054	0.103
Mof_C 	C 	0.5942	0.6016	0.0067	-0.176
Mof_C 	C 	0.5784	0.8771	0.0103	0.098
Mof_C 	C 	0.6633	0.8686	0.0133	-0.153
Mof_C 	C 	0.6841	0.8244	0.0502	0.114
Mof_C 	C 	0.6206	0.7896	0.0826	-0.17
Mof_C 	C 	0.5383	0.8005	0.0775	0.092
Mof_C 	C 	0.7711	0.8131	0.0557	-0.046
Mof_C 	C 	0.9745	0.8741	0.0089	-0.048
Mof_C 	C 	0.0611	0.8637	0.0142	0.113
Mof_C 	C 	0.1252	0.9149	0.987	-0.157
Mof_C 	C 	0.2116	0.9086	0.993	0.089
Mof_C 	C 	0.1707	0.8025	0.0456	0.092
Mof_C 	C 	0.0828	0.8057	0.0442	-0.151
Mof_N 	N 	0.1963	0.1552	0.5446	-0.16
Mof_N 	N 	0.8772	0.1373	0.542	-0.071
Mof_N 	N 	0.797	0.1571	0.5534	-0.076
Mof_N 	N 	0.4852	0.1561	0.5288	-0.152
Mof_N 	N 	0.5182	0.3445	0.4586	-0.151
Mof_N 	N 	0.832	0.3493	0.4728	-0.073
Mof_N 	N 	0.9113	0.3314	0.4631	-0.072
Mof_N 	N 	0.2338	0.3538	0.4784	-0.152
Mof_N 	N 	0.1963	0.6552	0.9554	-0.16
Mof_N 	N 	0.8772	0.6373	0.958	-0.071
Mof_N 	N 	0.797	0.6571	0.9466	-0.076
Mof_N 	N 	0.4852	0.6561	0.9712	-0.152
Mof_N 	N 	0.5182	0.8445	0.0414	-0.151
Mof_N 	N 	0.832	0.8493	0.0272	-0.074
Mof_N 	N 	0.9113	0.8314	0.0369	-0.072
Mof_N 	N 	0.2338	0.8538	0.0216	-0.152
Mof_O 	O 	0.3098	0.0706	0.4642	-0.282
Mof_O 	O 	0.3307	0.2088	0.4549	-0.296
Mof_O 	O 	0.3742	0.8836	0.113	-0.3
Mof_O 	O 	0.3748	0.0014	0.0749	-0.271
Mof_O 	O 	0.4072	0.4387	0.5364	-0.278
Mof_O 	O 	0.3874	0.2998	0.5469	-0.291
Mof_O 	O 	0.3271	0.5107	0.9252	-0.277
Mof_O 	O 	0.3454	0.6319	0.8861	-0.284
Mof_O 	O 	0.3098	0.5706	0.0358	-0.282
Mof_O 	O 	0.3307	0.7088	0.0451	-0.296
Mof_O 	O 	0.3742	0.3836	0.387	-0.3
Mof_O 	O 	0.3748	0.5014	0.4251	-0.273
Mof_O 	O 	0.4072	0.9387	0.9636	-0.278
Mof_O 	O 	0.3874	0.7998	0.9531	-0.291
Mof_O 	O 	0.3271	0.0107	0.5748	-0.277
Mof_O 	O 	0.3454	0.1319	0.6139	-0.284
_end
