# CIF file generated by openbabel 3.1.0, see https://openbabel.org
data_I
_chemical_name_common 'image0'
_cell_length_a 11.4303
_cell_length_b 8.8546
_cell_length_c 15.6
_cell_angle_alpha 90
_cell_angle_beta 114.81
_cell_angle_gamma 90
_space_group_name_H-M_alt 'P 1'
_space_group_name_Hall 'P 1'
loop_
    _symmetry_equiv_pos_as_xyz
    x,y,z
loop_
    _atom_site_label
    _atom_site_type_symbol
    _atom_site_fract_x
    _atom_site_fract_y
    _atom_site_fract_z
    _atom_site_occupancy
    Ag1      Ag       0.29400    0.00744    0.06683    1.000
    Ag2      Ag       0.20123    0.53805    0.87973    1.000
    N1       N        0.24260    0.21570    0.99480    1.000
    N2       N        0.40750    0.81350    0.05406    1.000
    N3       N        0.28370    0.54030    0.70890    1.000
    N4       N        0.09170    0.71300    0.91940    1.000
    C1       C        0.21440    0.32830    0.96130    1.000
    C2       C        0.44170    0.70430    0.03550    1.000
    C3       C        0.25680    0.54170    0.76400    1.000
    C4       C        0.05930    0.81420    0.94900    1.000
    Ag3      Ag       0.70600    0.50744    0.43317    1.000
    Ag4      Ag       0.79877    0.03805    0.62027    1.000
    N5       N        0.75740    0.71570    0.50520    1.000
    N6       N        0.59250    0.31350    0.44594    1.000
    N7       N        0.71630    0.04030    0.79110    1.000
    N8       N        0.90830    0.21300    0.58060    1.000
    C5       C        0.78560    0.82830    0.53870    1.000
    C6       C        0.55830    0.20430    0.46450    1.000
    C7       C        0.74320    0.04170    0.73600    1.000
    C8       C        0.94070    0.31420    0.55100    1.000
    Ag5      Ag       0.70600    0.99256    0.93317    1.000
    Ag6      Ag       0.79877    0.46195    0.12027    1.000
    N9       N        0.75740    0.78430    0.00520    1.000
    N10      N        0.59250    0.18650    0.94594    1.000
    N11      N        0.71630    0.45970    0.29110    1.000
    N12      N        0.90830    0.28700    0.08060    1.000
    C9       C        0.78560    0.67170    0.03870    1.000
    C10      C        0.55830    0.29570    0.96450    1.000
    C11      C        0.74320    0.45830    0.23600    1.000
    C12      C        0.94070    0.18580    0.05100    1.000
    Ag7      Ag       0.29400    0.49256    0.56683    1.000
    Ag8      Ag       0.20123    0.96195    0.37973    1.000
    N13      N        0.24260    0.28430    0.49480    1.000
    N14      N        0.40750    0.68650    0.55406    1.000
    N15      N        0.28370    0.95970    0.20890    1.000
    N16      N        0.09170    0.78700    0.41940    1.000
    C13      C        0.21440    0.17170    0.46130    1.000
    C14      C        0.44170    0.79570    0.53550    1.000
    C15      C        0.25680    0.95830    0.26400    1.000
    C16      C        0.05930    0.68580    0.44900    1.000
    Ag9      Ag       0.00000    0.00000    0.00000    1.000
    Ag10     Ag       0.00000    0.50000    0.50000    1.000
    Ag11     Ag       0.50000    0.50000    0.00000    1.000
    Ag12     Ag       0.50000    0.00000    0.50000    1.000
