data_functionalizedCrystal
_audit_creation_method	'EQeq! by Chris Wilmer'
_symmetry_space_group_name_H-M	'P1'
_symmetry_Int_Tables_number	1
_symmetry_cell_setting	triclinic
loop_
_symmetry_equiv_pos_as_xyz
  x,y,z
_cell_length_a	8.8775
_cell_length_b	8.8775
_cell_length_c	23.775
_cell_angle_alpha	90
_cell_angle_beta	90
_cell_angle_gamma	120
loop_
_atom_site_label
_atom_site_type_symbol
_atom_site_fract_x
_atom_site_fract_y
_atom_site_fract_z
_atom_site_charge
Mof_Zn	Zn	0.03998	0.33327	0.54408	1.225
Mof_P 	P 	0.96469	0.64561	0.58275	0.538
Mof_O 	O 	0.0505	0.5436	0.56563	-0.534
Mof_O 	O 	0.855	0.6507	0.53186	-0.65
Mof_O 	O 	0.1032	0.8323	0.59661	-0.436
Mof_O 	O 	0.8424	0.5688	0.63314	-0.452
Mof_Zn	Zn	0.66673	0.70671	0.54408	1.224
Mof_P 	P 	0.35439	0.31908	0.58275	0.538
Mof_O 	O 	0.4564	0.5069	0.56563	-0.535
Mof_O 	O 	0.3493	0.2043	0.53186	-0.65
Mof_O 	O 	0.1677	0.2709	0.59661	-0.437
Mof_O 	O 	0.4312	0.2736	0.63314	-0.452
Mof_Zn	Zn	0.29329	0.96002	0.54408	1.224
Mof_P 	P 	0.68092	0.03531	0.58275	0.537
Mof_O 	O 	0.4931	0.9495	0.56563	-0.534
Mof_O 	O 	0.7957	0.145	0.53186	-0.65
Mof_O 	O 	0.7291	0.8968	0.59661	-0.437
Mof_O 	O 	0.7264	0.1576	0.63314	-0.452
Mof_Zn	Zn	0.66673	0.96002	0.95592	1.224
Mof_P 	P 	0.35439	0.03531	0.91725	0.538
Mof_O 	O 	0.4564	0.9495	0.93437	-0.535
Mof_O 	O 	0.3493	0.145	0.96814	-0.649
Mof_O 	O 	0.1677	0.8968	0.90339	-0.437
Mof_O 	O 	0.4312	0.1576	0.86686	-0.452
Mof_Zn	Zn	0.29329	0.33327	0.95592	1.224
Mof_P 	P 	0.68092	0.64561	0.91725	0.538
Mof_O 	O 	0.4931	0.5436	0.93437	-0.535
Mof_O 	O 	0.7957	0.6507	0.96814	-0.649
Mof_O 	O 	0.7291	0.8323	0.90339	-0.437
Mof_O 	O 	0.7264	0.5688	0.86686	-0.452
Mof_Zn	Zn	0.03998	0.70671	0.95592	1.224
Mof_P 	P 	0.96469	0.31908	0.91725	0.538
Mof_O 	O 	0.0505	0.5069	0.93437	-0.535
Mof_O 	O 	0.855	0.2043	0.96814	-0.649
Mof_O 	O 	0.1032	0.2709	0.90339	-0.437
Mof_O 	O 	0.8424	0.2736	0.86686	-0.452
Mof_Zn	Zn	0.96002	0.66673	0.45592	1.224
Mof_P 	P 	0.03531	0.35439	0.41725	0.537
Mof_O 	O 	0.9495	0.4564	0.43437	-0.534
Mof_O 	O 	0.145	0.3493	0.46814	-0.65
Mof_O 	O 	0.8968	0.1677	0.40339	-0.436
Mof_O 	O 	0.1576	0.4312	0.36686	-0.452
Mof_Zn	Zn	0.33327	0.29329	0.45592	1.224
Mof_P 	P 	0.64561	0.68092	0.41725	0.538
Mof_O 	O 	0.5436	0.4931	0.43437	-0.535
Mof_O 	O 	0.6507	0.7957	0.46814	-0.65
Mof_O 	O 	0.8323	0.7291	0.40339	-0.437
Mof_O 	O 	0.5688	0.7264	0.36686	-0.452
Mof_Zn	Zn	0.70671	0.03998	0.45592	1.224
Mof_P 	P 	0.31908	0.96469	0.41725	0.537
Mof_O 	O 	0.5069	0.0505	0.43437	-0.534
Mof_O 	O 	0.2043	0.855	0.46814	-0.65
Mof_O 	O 	0.2709	0.1032	0.40339	-0.437
Mof_O 	O 	0.2736	0.8424	0.36686	-0.452
Mof_Zn	Zn	0.33327	0.03998	0.04408	1.224
Mof_P 	P 	0.64561	0.96469	0.08275	0.538
Mof_O 	O 	0.5436	0.0505	0.06563	-0.535
Mof_O 	O 	0.6507	0.855	0.03186	-0.649
Mof_O 	O 	0.8323	0.1032	0.09661	-0.437
Mof_O 	O 	0.5688	0.8424	0.13314	-0.452
Mof_Zn	Zn	0.70671	0.66673	0.04408	1.224
Mof_P 	P 	0.31908	0.35439	0.08275	0.538
Mof_O 	O 	0.5069	0.4564	0.06563	-0.535
Mof_O 	O 	0.2043	0.3493	0.03186	-0.649
Mof_O 	O 	0.2709	0.1677	0.09661	-0.437
Mof_O 	O 	0.2736	0.4312	0.13314	-0.452
Mof_Zn	Zn	0.96002	0.29329	0.04408	1.224
Mof_P 	P 	0.03531	0.68092	0.08275	0.538
Mof_O 	O 	0.9495	0.4931	0.06563	-0.535
Mof_O 	O 	0.145	0.7957	0.03186	-0.649
Mof_O 	O 	0.8968	0.7291	0.09661	-0.437
Mof_O 	O 	0.1576	0.7264	0.13314	-0.452
Mof_Zn	Zn	0.66667	0.33333	0.64938	1.235
Mof_Zn	Zn	0.66667	0.33333	0.85062	1.235
Mof_Zn	Zn	0.33333	0.66667	0.35062	1.235
Mof_Zn	Zn	0.33333	0.66667	0.14938	1.235
Mof_Cl	Cl	0.66667	0.33333	0.75	-0.603
Mof_Cl	Cl	0.33333	0.66667	0.25	-0.603
_end
