data_functionalizedCrystal
_audit_creation_method	'EQeq! by Chris Wilmer'
_symmetry_space_group_name_H-M	'P1'
_symmetry_Int_Tables_number	1
_symmetry_cell_setting	triclinic
loop_
_symmetry_equiv_pos_as_xyz
  x,y,z
_cell_length_a	9.242
_cell_length_b	12.2519
_cell_length_c	14.4835
_cell_angle_alpha	94.953
_cell_angle_beta	103.207
_cell_angle_gamma	97.462
loop_
_atom_site_label
_atom_site_type_symbol
_atom_site_fract_x
_atom_site_fract_y
_atom_site_fract_z
_atom_site_charge
Mof_Gd	Gd	0.75059	0.25388	0.75686	1.06
Mof_Gd	Gd	0.24941	0.74612	0.24314	1.06
Mof_Re	Re	0.50632	0.6138	0.77613	0.225
Mof_Re	Re	0.35804	0.73143	0.87766	0.221
Mof_Re	Re	0.20504	0.58568	0.72816	0.221
Mof_Re	Re	0.36138	0.68651	0.61646	0.223
Mof_Re	Re	0.51528	0.83215	0.76639	0.223
Mof_Re	Re	0.21362	0.8042	0.71731	0.228
Mof_Re	Re	0.49368	0.3862	0.22387	0.224
Mof_Re	Re	0.64196	0.26857	0.12234	0.22
Mof_Re	Re	0.79496	0.41432	0.27184	0.221
Mof_Re	Re	0.63862	0.31349	0.38354	0.223
Mof_Re	Re	0.48472	0.16785	0.23361	0.223
Mof_Re	Re	0.78638	0.1958	0.28269	0.228
Mof_Te	Te	0.35025	0.51276	0.88898	-0.117
Mof_Te	Te	0.66124	0.75979	0.9272	-0.112
Mof_Te	Te	0.05414	0.70402	0.82886	-0.109
Mof_Te	Te	0.3516	0.4676	0.6247	-0.109
Mof_Te	Te	0.66498	0.7143	0.66411	-0.099
Mof_Te	Te	0.36757	0.95083	0.86895	-0.114
Mof_Te	Te	0.05724	0.656	0.56712	-0.102
Mof_Te	Te	0.37412	0.90564	0.60622	-0.132
Mof_Te	Te	0.64975	0.48724	0.11102	-0.117
Mof_Te	Te	0.33876	0.24021	0.0728	-0.112
Mof_Te	Te	0.94586	0.29598	0.17114	-0.109
Mof_Te	Te	0.6484	0.5324	0.3753	-0.109
Mof_Te	Te	0.33502	0.2857	0.33589	-0.099
Mof_Te	Te	0.63243	0.04917	0.13105	-0.114
Mof_Te	Te	0.94276	0.344	0.43288	-0.102
Mof_Te	Te	0.62588	0.09436	0.39378	-0.132
Mof_C 	C 	0.6624	0.5069	0.8088	-0.066
Mof_C 	C 	0.3522	0.7535	0.0217	-0.049
Mof_C 	C 	0.042	0.4471	0.7146	-0.053
Mof_C 	C 	0.361	0.6725	0.4729	-0.066
Mof_C 	C 	0.6738	0.974	0.7832	-0.06
Mof_C 	C 	0.0539	0.9097	0.6771	-0.068
Mof_C 	C 	0.3376	0.4931	0.1912	-0.066
Mof_C 	C 	0.6478	0.2465	0.9783	-0.049
Mof_C 	C 	0.958	0.5529	0.2854	-0.053
Mof_C 	C 	0.639	0.3275	0.5271	-0.066
Mof_C 	C 	0.3262	0.026	0.2168	-0.06
Mof_C 	C 	0.9461	0.0903	0.3229	-0.068
Mof_N 	N 	0.7454	0.4439	0.8241	-0.196
Mof_N 	N 	0.343	0.7626	0.0983	-0.209
Mof_N 	N 	0.9565	0.3699	0.7123	-0.206
Mof_N 	N 	0.3564	0.6707	0.3914	-0.204
Mof_N 	N 	0.7481	0.0587	0.7907	-0.208
Mof_N 	N 	0.9691	0.9687	0.6538	-0.121
Mof_N 	N 	0.2546	0.5561	0.1759	-0.196
Mof_N 	N 	0.657	0.2374	0.9017	-0.209
Mof_N 	N 	0.0435	0.6301	0.2877	-0.206
Mof_N 	N 	0.6436	0.3293	0.6086	-0.204
Mof_N 	N 	0.2519	0.9413	0.2093	-0.208
Mof_N 	N 	0.0309	0.0313	0.3462	-0.121
_end
