# CIF file generated by openbabel 3.1.0, see https://openbabel.org
data_I
_chemical_name_common 'cg500121f_si_004_clean'
_cell_length_a 9.555
_cell_length_b 15.6644
_cell_length_c 10.0249
_cell_angle_alpha 100.696
_cell_angle_beta 90
_cell_angle_gamma 90
_space_group_name_H-M_alt 'P 1'
_space_group_name_Hall 'P 1'
loop_
    _symmetry_equiv_pos_as_xyz
    x,y,z
loop_
    _atom_site_label
    _atom_site_type_symbol
    _atom_site_fract_x
    _atom_site_fract_y
    _atom_site_fract_z
    _atom_site_occupancy
    Co1      Co       0.58117    0.08551    0.64298    1.000
    Co2      Co       0.91883    0.08551    0.14298    1.000
    Co3      Co       0.08117    0.91449    0.85702    1.000
    Co4      Co       0.41883    0.91449    0.35702    1.000
    H1       H        0.12610    0.41920    0.61760    1.000
    H2       H        0.87390    0.58080    0.38240    1.000
    H3       H        0.23310    0.07750    0.44200    1.000
    H4       H        0.69800    0.12410    0.94390    1.000
    H5       H        0.27840    0.64170    0.37020    1.000
    H6       H        0.38660    0.12140    0.88770    1.000
    H7       H        0.77840    0.35830    0.12980    1.000
    H8       H        0.19800    0.87590    0.55610    1.000
    H9       H        0.61340    0.87860    0.11230    1.000
    H10      H        0.22160    0.64170    0.87020    1.000
    H11      H        0.52050    0.64480    0.04650    1.000
    H12      H        0.11340    0.12140    0.38770    1.000
    H13      H        0.47950    0.35520    0.95350    1.000
    H14      H        0.97950    0.64480    0.54650    1.000
    H15      H        0.37390    0.41920    0.11760    1.000
    H16      H        0.73310    0.92250    0.05800    1.000
    H17      H        0.26690    0.07750    0.94200    1.000
    H18      H        0.30200    0.87590    0.05610    1.000
    H19      H        0.72160    0.35830    0.62980    1.000
    H20      H        0.24680    0.49230    0.80470    1.000
    H21      H        0.75320    0.50770    0.19530    1.000
    H22      H        0.74680    0.50770    0.69530    1.000
    H23      H        0.76690    0.92250    0.55800    1.000
    H24      H        0.80200    0.12410    0.44390    1.000
    H25      H        0.88660    0.87860    0.61230    1.000
    H26      H        0.25320    0.49230    0.30470    1.000
    H27      H        0.02050    0.35520    0.45350    1.000
    H28      H        0.62610    0.58080    0.88240    1.000
    C1       C        0.03940    0.52380    0.55890    1.000
    C2       C        0.58640    0.24610    0.74920    1.000
    C3       C        0.18690    0.02600    0.25780    1.000
    C4       C        0.08640    0.75390    0.75080    1.000
    C5       C        0.61970    0.52060    0.86000    1.000
    C6       C        0.17780    0.61250    0.79210    1.000
    C7       C        0.81310    0.97400    0.74220    1.000
    C8       C        0.53190    0.38680    0.90140    1.000
    C9       C        0.41360    0.75390    0.25080    1.000
    C10      C        0.03190    0.61320    0.59860    1.000
    C11      C        0.46810    0.61320    0.09860    1.000
    C12      C        0.96810    0.38680    0.40140    1.000
    C13      C        0.11970    0.47940    0.64000    1.000
    C14      C        0.38030    0.47940    0.14000    1.000
    C15      C        0.80920    0.47690    0.24580    1.000
    C16      C        0.24700    0.92340    0.60320    1.000
    C17      C        0.32220    0.61250    0.29210    1.000
    C18      C        0.68690    0.97400    0.24220    1.000
    C19      C        0.67780    0.38750    0.70790    1.000
    C20      C        0.88030    0.52060    0.36000    1.000
    C21      C        0.82220    0.38750    0.20790    1.000
    C22      C        0.96060    0.47620    0.44110    1.000
    C23      C        0.09950    0.65730    0.71320    1.000
    C24      C        0.40050    0.65730    0.21320    1.000
    C25      C        0.46060    0.52380    0.05890    1.000
    C26      C        0.75300    0.07660    0.39680    1.000
    C27      C        0.30920    0.52310    0.25420    1.000
    C28      C        0.74700    0.07660    0.89680    1.000
    C29      C        0.53940    0.47620    0.94110    1.000
    C30      C        0.31310    0.02600    0.75780    1.000
    C31      C        0.91360    0.24610    0.24920    1.000
    C32      C        0.19080    0.52310    0.75420    1.000
    C33      C        0.59950    0.34270    0.78680    1.000
    C34      C        0.25300    0.92340    0.10320    1.000
    C35      C        0.69080    0.47690    0.74580    1.000
    C36      C        0.90050    0.34270    0.28680    1.000
    N1       N        0.10390    0.02760    0.15140    1.000
    N2       N        0.35030    0.95960    0.55050    1.000
    N3       N        0.28290    0.96100    0.23290    1.000
    N4       N        0.60390    0.97240    0.34860    1.000
    N5       N        0.71710    0.03900    0.76710    1.000
    N6       N        0.17660    0.08170    0.37680    1.000
    N7       N        0.78290    0.03900    0.26710    1.000
    N8       N        0.85030    0.04040    0.94950    1.000
    N9       N        0.39610    0.02760    0.65140    1.000
    N10      N        0.82340    0.91830    0.62320    1.000
    N11      N        0.89610    0.97240    0.84860    1.000
    N12      N        0.32340    0.08170    0.87680    1.000
    N13      N        0.21710    0.96100    0.73290    1.000
    N14      N        0.67660    0.91830    0.12320    1.000
    N15      N        0.64970    0.04040    0.44950    1.000
    N16      N        0.14970    0.95960    0.05050    1.000
    O1       O        0.02910    0.79565    0.67230    1.000
    O2       O        0.36480    0.79210    0.36460    1.000
    O3       O        0.97090    0.20435    0.32770    1.000
    O4       O        0.63520    0.20790    0.63540    1.000
    O5       O        0.13520    0.79210    0.86460    1.000
    O6       O        0.86480    0.20790    0.13540    1.000
    O7       O        0.47090    0.79565    0.17230    1.000
    O8       O        0.52910    0.20435    0.82770    1.000
