# CIF file generated by openbabel 3.1.0, see https://openbabel.org
data_I
_chemical_name_common 'image0'
_cell_length_a 29.5937
_cell_length_b 29.5937
_cell_length_c 10.168
_cell_angle_alpha 90
_cell_angle_beta 90
_cell_angle_gamma 90
_space_group_name_H-M_alt 'P 1'
_space_group_name_Hall 'P 1'
loop_
    _symmetry_equiv_pos_as_xyz
    x,y,z
loop_
    _atom_site_label
    _atom_site_type_symbol
    _atom_site_fract_x
    _atom_site_fract_y
    _atom_site_fract_z
    _atom_site_occupancy
    O1       O        0.19521    0.19528    0.23930    1.000
    O2       O        0.14979    0.14970    0.35020    1.000
    O3       O        0.04770    0.04748    0.10900    1.000
    C1       C        0.14704    0.14699    0.11660    1.000
    C2       C        0.11413    0.11449    0.11730    1.000
    H1       H        0.10280    0.10390    0.19690    1.000
    C3       C        0.16591    0.16589    0.24480    1.000
    N1       N        0.17610    0.45980    0.57020    1.000
    N2       N        0.17630    0.54020    0.57220    1.000
    C4       C        0.13460    0.26300    0.44610    1.000
    C5       C        0.12850    0.31070    0.43320    1.000
    C6       C        0.18990    0.41540    0.59610    1.000
    C7       C        0.13440    0.73650    0.44800    1.000
    C8       C        0.12810    0.68940    0.43210    1.000
    C9       C        0.19570    0.67910    0.55980    1.000
    C10      C        0.20020    0.72690    0.57710    1.000
    C11      C        0.23610    0.40580    0.66180    1.000
    F1       F        0.24520    0.50070    0.62980    1.000
    B1       B        0.19670    0.50000    0.64270    1.000
    F2       F        0.19000    0.49980    0.78470    1.000
    C12      C        0.19600    0.32010    0.44060    1.000
    C13      C        0.20010    0.27310    0.42470    1.000
    C14      C        0.12230    0.41400    0.55390    1.000
    C15      C        0.19040    0.58440    0.40370    1.000
    C16      C        0.23550    0.59400    0.33820    1.000
    C17      C        0.07790    0.39960    0.59970    1.000
    O4       O        0.80479    0.80472    0.23930    1.000
    O5       O        0.85021    0.85030    0.35020    1.000
    O6       O        0.95230    0.95252    0.10900    1.000
    C18      C        0.85296    0.85301    0.11660    1.000
    C19      C        0.88587    0.88551    0.11730    1.000
    H2       H        0.89720    0.89610    0.19690    1.000
    C20      C        0.83409    0.83411    0.24480    1.000
    N3       N        0.82390    0.54020    0.57020    1.000
    N4       N        0.82370    0.45980    0.57220    1.000
    C21      C        0.86540    0.73700    0.44610    1.000
    C22      C        0.87150    0.68930    0.43320    1.000
    C23      C        0.81010    0.58460    0.59610    1.000
    C24      C        0.86560    0.26350    0.44800    1.000
    C25      C        0.87190    0.31060    0.43210    1.000
    C26      C        0.80430    0.32090    0.55980    1.000
    C27      C        0.79980    0.27310    0.57710    1.000
    C28      C        0.76390    0.59420    0.66180    1.000
    F3       F        0.75480    0.49930    0.62980    1.000
    B2       B        0.80330    0.50000    0.64270    1.000
    F4       F        0.81000    0.50020    0.78470    1.000
    C29      C        0.80400    0.67990    0.44060    1.000
    C30      C        0.79990    0.72690    0.42470    1.000
    C31      C        0.87770    0.58600    0.55390    1.000
    C32      C        0.80960    0.41560    0.40370    1.000
    C33      C        0.76450    0.40600    0.33820    1.000
    C34      C        0.92210    0.60040    0.59970    1.000
    O7       O        0.80472    0.19521    0.23930    1.000
    O8       O        0.85030    0.14979    0.35020    1.000
    O9       O        0.95252    0.04770    0.10900    1.000
    C35      C        0.85301    0.14704    0.11660    1.000
    C36      C        0.88551    0.11413    0.11730    1.000
    H3       H        0.89610    0.10280    0.19690    1.000
    C37      C        0.83411    0.16591    0.24480    1.000
    N5       N        0.54020    0.17610    0.57020    1.000
    N6       N        0.45980    0.17630    0.57220    1.000
    C38      C        0.73700    0.13460    0.44610    1.000
    C39      C        0.68930    0.12850    0.43320    1.000
    C40      C        0.58460    0.18990    0.59610    1.000
    C41      C        0.26350    0.13440    0.44800    1.000
    C42      C        0.31060    0.12810    0.43210    1.000
    C43      C        0.32090    0.19570    0.55980    1.000
    C44      C        0.27310    0.20020    0.57710    1.000
    C45      C        0.59420    0.23610    0.66180    1.000
    F5       F        0.49930    0.24520    0.62980    1.000
    B3       B        0.50000    0.19670    0.64270    1.000
    F6       F        0.50020    0.19000    0.78470    1.000
    C46      C        0.67990    0.19600    0.44060    1.000
    C47      C        0.72690    0.20010    0.42470    1.000
    C48      C        0.58600    0.12230    0.55390    1.000
    C49      C        0.41560    0.19040    0.40370    1.000
    C50      C        0.40600    0.23550    0.33820    1.000
    C51      C        0.60040    0.07790    0.59970    1.000
    O10      O        0.19528    0.80479    0.23930    1.000
    O11      O        0.14970    0.85021    0.35020    1.000
    O12      O        0.04748    0.95230    0.10900    1.000
    C52      C        0.14699    0.85296    0.11660    1.000
    C53      C        0.11449    0.88587    0.11730    1.000
    H4       H        0.10390    0.89720    0.19690    1.000
    C54      C        0.16589    0.83409    0.24480    1.000
    N7       N        0.45980    0.82390    0.57020    1.000
    N8       N        0.54020    0.82370    0.57220    1.000
    C55      C        0.26300    0.86540    0.44610    1.000
    C56      C        0.31070    0.87150    0.43320    1.000
    C57      C        0.41540    0.81010    0.59610    1.000
    C58      C        0.73650    0.86560    0.44800    1.000
    C59      C        0.68940    0.87190    0.43210    1.000
    C60      C        0.67910    0.80430    0.55980    1.000
    C61      C        0.72690    0.79980    0.57710    1.000
    C62      C        0.40580    0.76390    0.66180    1.000
    F7       F        0.50070    0.75480    0.62980    1.000
    B4       B        0.50000    0.80330    0.64270    1.000
    F8       F        0.49980    0.81000    0.78470    1.000
    C63      C        0.32010    0.80400    0.44060    1.000
    C64      C        0.27310    0.79990    0.42470    1.000
    C65      C        0.41400    0.87770    0.55390    1.000
    C66      C        0.58440    0.80960    0.40370    1.000
    C67      C        0.59400    0.76450    0.33820    1.000
    C68      C        0.39960    0.92210    0.59970    1.000
    O13      O        0.80479    0.80472    0.76070    1.000
    O14      O        0.85021    0.85030    0.64980    1.000
    O15      O        0.95230    0.95252    0.89100    1.000
    C69      C        0.85296    0.85301    0.88340    1.000
    C70      C        0.88587    0.88551    0.88270    1.000
    H5       H        0.89720    0.89610    0.80310    1.000
    C71      C        0.83409    0.83411    0.75520    1.000
    N9       N        0.82390    0.54020    0.42980    1.000
    N10      N        0.82370    0.45980    0.42780    1.000
    C72      C        0.86540    0.73700    0.55390    1.000
    C73      C        0.87150    0.68930    0.56680    1.000
    C74      C        0.81010    0.58460    0.40390    1.000
    C75      C        0.86560    0.26350    0.55200    1.000
    C76      C        0.87190    0.31060    0.56790    1.000
    C77      C        0.80430    0.32090    0.44020    1.000
    C78      C        0.79980    0.27310    0.42290    1.000
    C79      C        0.76390    0.59420    0.33820    1.000
    F9       F        0.75480    0.49930    0.37020    1.000
    B5       B        0.80330    0.50000    0.35730    1.000
    F10      F        0.81000    0.50020    0.21530    1.000
    C80      C        0.80400    0.67990    0.55940    1.000
    C81      C        0.79990    0.72690    0.57530    1.000
    C82      C        0.87770    0.58600    0.44610    1.000
    C83      C        0.80960    0.41560    0.59630    1.000
    C84      C        0.76450    0.40600    0.66180    1.000
    C85      C        0.92210    0.60040    0.40030    1.000
    O16      O        0.19521    0.19528    0.76070    1.000
    O17      O        0.14979    0.14970    0.64980    1.000
    O18      O        0.04770    0.04748    0.89100    1.000
    C86      C        0.14704    0.14699    0.88340    1.000
    C87      C        0.11413    0.11449    0.88270    1.000
    H6       H        0.10280    0.10390    0.80310    1.000
    C88      C        0.16591    0.16589    0.75520    1.000
    N11      N        0.17610    0.45980    0.42980    1.000
    N12      N        0.17630    0.54020    0.42780    1.000
    C89      C        0.13460    0.26300    0.55390    1.000
    C90      C        0.12850    0.31070    0.56680    1.000
    C91      C        0.18990    0.41540    0.40390    1.000
    C92      C        0.13440    0.73650    0.55200    1.000
    C93      C        0.12810    0.68940    0.56790    1.000
    C94      C        0.19570    0.67910    0.44020    1.000
    C95      C        0.20020    0.72690    0.42290    1.000
    C96      C        0.23610    0.40580    0.33820    1.000
    F11      F        0.24520    0.50070    0.37020    1.000
    B6       B        0.19670    0.50000    0.35730    1.000
    F12      F        0.19000    0.49980    0.21530    1.000
    C97      C        0.19600    0.32010    0.55940    1.000
    C98      C        0.20010    0.27310    0.57530    1.000
    C99      C        0.12230    0.41400    0.44610    1.000
    C100     C        0.19040    0.58440    0.59630    1.000
    C101     C        0.23550    0.59400    0.66180    1.000
    C102     C        0.07790    0.39960    0.40030    1.000
    O19      O        0.19528    0.80479    0.76070    1.000
    O20      O        0.14970    0.85021    0.64980    1.000
    O21      O        0.04748    0.95230    0.89100    1.000
    C103     C        0.14699    0.85296    0.88340    1.000
    C104     C        0.11449    0.88587    0.88270    1.000
    H7       H        0.10390    0.89720    0.80310    1.000
    C105     C        0.16589    0.83409    0.75520    1.000
    N13      N        0.45980    0.82390    0.42980    1.000
    N14      N        0.54020    0.82370    0.42780    1.000
    C106     C        0.26300    0.86540    0.55390    1.000
    C107     C        0.31070    0.87150    0.56680    1.000
    C108     C        0.41540    0.81010    0.40390    1.000
    C109     C        0.73650    0.86560    0.55200    1.000
    C110     C        0.68940    0.87190    0.56790    1.000
    C111     C        0.67910    0.80430    0.44020    1.000
    C112     C        0.72690    0.79980    0.42290    1.000
    C113     C        0.40580    0.76390    0.33820    1.000
    F13      F        0.50070    0.75480    0.37020    1.000
    B7       B        0.50000    0.80330    0.35730    1.000
    F14      F        0.49980    0.81000    0.21530    1.000
    C114     C        0.32010    0.80400    0.55940    1.000
    C115     C        0.27310    0.79990    0.57530    1.000
    C116     C        0.41400    0.87770    0.44610    1.000
    C117     C        0.58440    0.80960    0.59630    1.000
    C118     C        0.59400    0.76450    0.66180    1.000
    C119     C        0.39960    0.92210    0.40030    1.000
    O22      O        0.80472    0.19521    0.76070    1.000
    O23      O        0.85030    0.14979    0.64980    1.000
    O24      O        0.95252    0.04770    0.89100    1.000
    C120     C        0.85301    0.14704    0.88340    1.000
    C121     C        0.88551    0.11413    0.88270    1.000
    H8       H        0.89610    0.10280    0.80310    1.000
    C122     C        0.83411    0.16591    0.75520    1.000
    N15      N        0.54020    0.17610    0.42980    1.000
    N16      N        0.45980    0.17630    0.42780    1.000
    C123     C        0.73700    0.13460    0.55390    1.000
    C124     C        0.68930    0.12850    0.56680    1.000
    C125     C        0.58460    0.18990    0.40390    1.000
    C126     C        0.26350    0.13440    0.55200    1.000
    C127     C        0.31060    0.12810    0.56790    1.000
    C128     C        0.32090    0.19570    0.44020    1.000
    C129     C        0.27310    0.20020    0.42290    1.000
    C130     C        0.59420    0.23610    0.33820    1.000
    F15      F        0.49930    0.24520    0.37020    1.000
    B8       B        0.50000    0.19670    0.35730    1.000
    F16      F        0.50020    0.19000    0.21530    1.000
    C131     C        0.67990    0.19600    0.55940    1.000
    C132     C        0.72690    0.20010    0.57530    1.000
    C133     C        0.58600    0.12230    0.44610    1.000
    C134     C        0.41560    0.19040    0.59630    1.000
    C135     C        0.40600    0.23550    0.66180    1.000
    C136     C        0.60040    0.07790    0.40030    1.000
    Zn1      Zn       0.00000    0.00000    0.14489    1.000
    Zn2      Zn       0.00000    0.00000    0.85511    1.000
    Zn3      Zn       0.17847    0.17839    0.50000    1.000
    N17      N        0.16859    0.24615    0.50000    1.000
    N18      N        0.16841    0.75377    0.50000    1.000
    C137     C        0.16080    0.33840    0.50000    1.000
    C138     C        0.15630    0.38710    0.50000    1.000
    C139     C        0.13440    0.46070    0.50000    1.000
    C140     C        0.13450    0.53890    0.50000    1.000
    C141     C        0.12260    0.58620    0.50000    1.000
    C142     C        0.15650    0.61390    0.50000    1.000
    C143     C        0.16080    0.66140    0.50000    1.000
    Zn4      Zn       0.82153    0.82161    0.50000    1.000
    N19      N        0.83141    0.75385    0.50000    1.000
    N20      N        0.83159    0.24623    0.50000    1.000
    C144     C        0.83920    0.66160    0.50000    1.000
    C145     C        0.84370    0.61290    0.50000    1.000
    C146     C        0.86560    0.53930    0.50000    1.000
    C147     C        0.86550    0.46110    0.50000    1.000
    C148     C        0.87740    0.41380    0.50000    1.000
    C149     C        0.84350    0.38610    0.50000    1.000
    C150     C        0.83920    0.33860    0.50000    1.000
    Zn5      Zn       0.82161    0.17847    0.50000    1.000
    N21      N        0.75385    0.16859    0.50000    1.000
    N22      N        0.24623    0.16841    0.50000    1.000
    C151     C        0.66160    0.16080    0.50000    1.000
    C152     C        0.61290    0.15630    0.50000    1.000
    C153     C        0.53930    0.13440    0.50000    1.000
    C154     C        0.46110    0.13450    0.50000    1.000
    C155     C        0.41380    0.12260    0.50000    1.000
    C156     C        0.38610    0.15650    0.50000    1.000
    C157     C        0.33860    0.16080    0.50000    1.000
    Zn6      Zn       0.17839    0.82153    0.50000    1.000
    N23      N        0.24615    0.83141    0.50000    1.000
    N24      N        0.75377    0.83159    0.50000    1.000
    C158     C        0.33840    0.83920    0.50000    1.000
    C159     C        0.38710    0.84370    0.50000    1.000
    C160     C        0.46070    0.86560    0.50000    1.000
    C161     C        0.53890    0.86550    0.50000    1.000
    C162     C        0.58620    0.87740    0.50000    1.000
    C163     C        0.61390    0.84350    0.50000    1.000
    C164     C        0.66140    0.83920    0.50000    1.000
    C165     C        0.16296    0.16312    0.00000    1.000
    H9       H        0.18500    0.18550    0.00000    1.000
    C166     C        0.09763    0.09735    0.00000    1.000
    C167     C        0.06072    0.06116    0.00000    1.000
    C168     C        0.83704    0.83688    0.00000    1.000
    H10      H        0.81500    0.81450    0.00000    1.000
    C169     C        0.90237    0.90265    0.00000    1.000
    C170     C        0.93928    0.93884    0.00000    1.000
    C171     C        0.83688    0.16296    0.00000    1.000
    H11      H        0.81450    0.18500    0.00000    1.000
    C172     C        0.90265    0.09763    0.00000    1.000
    C173     C        0.93884    0.06072    0.00000    1.000
    C174     C        0.16312    0.83704    0.00000    1.000
    H12      H        0.18550    0.81500    0.00000    1.000
    C175     C        0.09735    0.90237    0.00000    1.000
    C176     C        0.06116    0.93928    0.00000    1.000
    O25      O        0.69521    0.69528    0.73930    1.000
    O26      O        0.64979    0.64970    0.85020    1.000
    O27      O        0.54770    0.54748    0.60900    1.000
    C177     C        0.64704    0.64699    0.61660    1.000
    C178     C        0.61413    0.61449    0.61730    1.000
    H13      H        0.60280    0.60390    0.69690    1.000
    C179     C        0.66591    0.66589    0.74480    1.000
    N25      N        0.67610    0.95980    0.07020    1.000
    N26      N        0.67630    0.04020    0.07220    1.000
    C180     C        0.63460    0.76300    0.94610    1.000
    C181     C        0.62850    0.81070    0.93320    1.000
    C182     C        0.68990    0.91540    0.09610    1.000
    C183     C        0.63440    0.23650    0.94800    1.000
    C184     C        0.62810    0.18940    0.93210    1.000
    C185     C        0.69570    0.17910    0.05980    1.000
    C186     C        0.70020    0.22690    0.07710    1.000
    C187     C        0.73610    0.90580    0.16180    1.000
    F17      F        0.74520    0.00070    0.12980    1.000
    B9       B        0.69670    0.00000    0.14270    1.000
    F18      F        0.69000    0.99980    0.28470    1.000
    C188     C        0.69600    0.82010    0.94060    1.000
    C189     C        0.70010    0.77310    0.92470    1.000
    C190     C        0.62230    0.91400    0.05390    1.000
    C191     C        0.69040    0.08440    0.90370    1.000
    C192     C        0.73550    0.09400    0.83820    1.000
    C193     C        0.57790    0.89960    0.09970    1.000
    O28      O        0.30479    0.30472    0.73930    1.000
    O29      O        0.35021    0.35030    0.85020    1.000
    O30      O        0.45230    0.45252    0.60900    1.000
    C194     C        0.35296    0.35301    0.61660    1.000
    C195     C        0.38587    0.38551    0.61730    1.000
    H14      H        0.39720    0.39610    0.69690    1.000
    C196     C        0.33409    0.33411    0.74480    1.000
    N27      N        0.32390    0.04020    0.07020    1.000
    N28      N        0.32370    0.95980    0.07220    1.000
    C197     C        0.36540    0.23700    0.94610    1.000
    C198     C        0.37150    0.18930    0.93320    1.000
    C199     C        0.31010    0.08460    0.09610    1.000
    C200     C        0.36560    0.76350    0.94800    1.000
    C201     C        0.37190    0.81060    0.93210    1.000
    C202     C        0.30430    0.82090    0.05980    1.000
    C203     C        0.29980    0.77310    0.07710    1.000
    C204     C        0.26390    0.09420    0.16180    1.000
    F19      F        0.25480    0.99930    0.12980    1.000
    B10      B        0.30330    0.00000    0.14270    1.000
    F20      F        0.31000    0.00020    0.28470    1.000
    C205     C        0.30400    0.17990    0.94060    1.000
    C206     C        0.29990    0.22690    0.92470    1.000
    C207     C        0.37770    0.08600    0.05390    1.000
    C208     C        0.30960    0.91560    0.90370    1.000
    C209     C        0.26450    0.90600    0.83820    1.000
    C210     C        0.42210    0.10040    0.09970    1.000
    O31      O        0.30472    0.69521    0.73930    1.000
    O32      O        0.35030    0.64979    0.85020    1.000
    O33      O        0.45252    0.54770    0.60900    1.000
    C211     C        0.35301    0.64704    0.61660    1.000
    C212     C        0.38551    0.61413    0.61730    1.000
    H15      H        0.39610    0.60280    0.69690    1.000
    C213     C        0.33411    0.66591    0.74480    1.000
    N29      N        0.04020    0.67610    0.07020    1.000
    N30      N        0.95980    0.67630    0.07220    1.000
    C214     C        0.23700    0.63460    0.94610    1.000
    C215     C        0.18930    0.62850    0.93320    1.000
    C216     C        0.08460    0.68990    0.09610    1.000
    C217     C        0.76350    0.63440    0.94800    1.000
    C218     C        0.81060    0.62810    0.93210    1.000
    C219     C        0.82090    0.69570    0.05980    1.000
    C220     C        0.77310    0.70020    0.07710    1.000
    C221     C        0.09420    0.73610    0.16180    1.000
    F21      F        0.99930    0.74520    0.12980    1.000
    B11      B        0.00000    0.69670    0.14270    1.000
    F22      F        0.00020    0.69000    0.28470    1.000
    C222     C        0.17990    0.69600    0.94060    1.000
    C223     C        0.22690    0.70010    0.92470    1.000
    C224     C        0.08600    0.62230    0.05390    1.000
    C225     C        0.91560    0.69040    0.90370    1.000
    C226     C        0.90600    0.73550    0.83820    1.000
    C227     C        0.10040    0.57790    0.09970    1.000
    O34      O        0.69528    0.30479    0.73930    1.000
    O35      O        0.64970    0.35021    0.85020    1.000
    O36      O        0.54748    0.45230    0.60900    1.000
    C228     C        0.64699    0.35296    0.61660    1.000
    C229     C        0.61449    0.38587    0.61730    1.000
    H16      H        0.60390    0.39720    0.69690    1.000
    C230     C        0.66589    0.33409    0.74480    1.000
    N31      N        0.95980    0.32390    0.07020    1.000
    N32      N        0.04020    0.32370    0.07220    1.000
    C231     C        0.76300    0.36540    0.94610    1.000
    C232     C        0.81070    0.37150    0.93320    1.000
    C233     C        0.91540    0.31010    0.09610    1.000
    C234     C        0.23650    0.36560    0.94800    1.000
    C235     C        0.18940    0.37190    0.93210    1.000
    C236     C        0.17910    0.30430    0.05980    1.000
    C237     C        0.22690    0.29980    0.07710    1.000
    C238     C        0.90580    0.26390    0.16180    1.000
    F23      F        0.00070    0.25480    0.12980    1.000
    B12      B        0.00000    0.30330    0.14270    1.000
    F24      F        0.99980    0.31000    0.28470    1.000
    C239     C        0.82010    0.30400    0.94060    1.000
    C240     C        0.77310    0.29990    0.92470    1.000
    C241     C        0.91400    0.37770    0.05390    1.000
    C242     C        0.08440    0.30960    0.90370    1.000
    C243     C        0.09400    0.26450    0.83820    1.000
    C244     C        0.89960    0.42210    0.09970    1.000
    O37      O        0.30479    0.30472    0.26070    1.000
    O38      O        0.35021    0.35030    0.14980    1.000
    O39      O        0.45230    0.45252    0.39100    1.000
    C245     C        0.35296    0.35301    0.38340    1.000
    C246     C        0.38587    0.38551    0.38270    1.000
    H17      H        0.39720    0.39610    0.30310    1.000
    C247     C        0.33409    0.33411    0.25520    1.000
    N33      N        0.32390    0.04020    0.92980    1.000
    N34      N        0.32370    0.95980    0.92780    1.000
    C248     C        0.36540    0.23700    0.05390    1.000
    C249     C        0.37150    0.18930    0.06680    1.000
    C250     C        0.31010    0.08460    0.90390    1.000
    C251     C        0.36560    0.76350    0.05200    1.000
    C252     C        0.37190    0.81060    0.06790    1.000
    C253     C        0.30430    0.82090    0.94020    1.000
    C254     C        0.29980    0.77310    0.92290    1.000
    C255     C        0.26390    0.09420    0.83820    1.000
    F25      F        0.25480    0.99930    0.87020    1.000
    B13      B        0.30330    0.00000    0.85730    1.000
    F26      F        0.31000    0.00020    0.71530    1.000
    C256     C        0.30400    0.17990    0.05940    1.000
    C257     C        0.29990    0.22690    0.07530    1.000
    C258     C        0.37770    0.08600    0.94610    1.000
    C259     C        0.30960    0.91560    0.09630    1.000
    C260     C        0.26450    0.90600    0.16180    1.000
    C261     C        0.42210    0.10040    0.90030    1.000
    O40      O        0.69521    0.69528    0.26070    1.000
    O41      O        0.64979    0.64970    0.14980    1.000
    O42      O        0.54770    0.54748    0.39100    1.000
    C262     C        0.64704    0.64699    0.38340    1.000
    C263     C        0.61413    0.61449    0.38270    1.000
    H18      H        0.60280    0.60390    0.30310    1.000
    C264     C        0.66591    0.66589    0.25520    1.000
    N35      N        0.67610    0.95980    0.92980    1.000
    N36      N        0.67630    0.04020    0.92780    1.000
    C265     C        0.63460    0.76300    0.05390    1.000
    C266     C        0.62850    0.81070    0.06680    1.000
    C267     C        0.68990    0.91540    0.90390    1.000
    C268     C        0.63440    0.23650    0.05200    1.000
    C269     C        0.62810    0.18940    0.06790    1.000
    C270     C        0.69570    0.17910    0.94020    1.000
    C271     C        0.70020    0.22690    0.92290    1.000
    C272     C        0.73610    0.90580    0.83820    1.000
    F27      F        0.74520    0.00070    0.87020    1.000
    B14      B        0.69670    0.00000    0.85730    1.000
    F28      F        0.69000    0.99980    0.71530    1.000
    C273     C        0.69600    0.82010    0.05940    1.000
    C274     C        0.70010    0.77310    0.07530    1.000
    C275     C        0.62230    0.91400    0.94610    1.000
    C276     C        0.69040    0.08440    0.09630    1.000
    C277     C        0.73550    0.09400    0.16180    1.000
    C278     C        0.57790    0.89960    0.90030    1.000
    O43      O        0.69528    0.30479    0.26070    1.000
    O44      O        0.64970    0.35021    0.14980    1.000
    O45      O        0.54748    0.45230    0.39100    1.000
    C279     C        0.64699    0.35296    0.38340    1.000
    C280     C        0.61449    0.38587    0.38270    1.000
    H19      H        0.60390    0.39720    0.30310    1.000
    C281     C        0.66589    0.33409    0.25520    1.000
    N37      N        0.95980    0.32390    0.92980    1.000
    N38      N        0.04020    0.32370    0.92780    1.000
    C282     C        0.76300    0.36540    0.05390    1.000
    C283     C        0.81070    0.37150    0.06680    1.000
    C284     C        0.91540    0.31010    0.90390    1.000
    C285     C        0.23650    0.36560    0.05200    1.000
    C286     C        0.18940    0.37190    0.06790    1.000
    C287     C        0.17910    0.30430    0.94020    1.000
    C288     C        0.22690    0.29980    0.92290    1.000
    C289     C        0.90580    0.26390    0.83820    1.000
    F29      F        0.00070    0.25480    0.87020    1.000
    B15      B        0.00000    0.30330    0.85730    1.000
    F30      F        0.99980    0.31000    0.71530    1.000
    C290     C        0.82010    0.30400    0.05940    1.000
    C291     C        0.77310    0.29990    0.07530    1.000
    C292     C        0.91400    0.37770    0.94610    1.000
    C293     C        0.08440    0.30960    0.09630    1.000
    C294     C        0.09400    0.26450    0.16180    1.000
    C295     C        0.89960    0.42210    0.90030    1.000
    O46      O        0.30472    0.69521    0.26070    1.000
    O47      O        0.35030    0.64979    0.14980    1.000
    O48      O        0.45252    0.54770    0.39100    1.000
    C296     C        0.35301    0.64704    0.38340    1.000
    C297     C        0.38551    0.61413    0.38270    1.000
    H20      H        0.39610    0.60280    0.30310    1.000
    C298     C        0.33411    0.66591    0.25520    1.000
    N39      N        0.04020    0.67610    0.92980    1.000
    N40      N        0.95980    0.67630    0.92780    1.000
    C299     C        0.23700    0.63460    0.05390    1.000
    C300     C        0.18930    0.62850    0.06680    1.000
    C301     C        0.08460    0.68990    0.90390    1.000
    C302     C        0.76350    0.63440    0.05200    1.000
    C303     C        0.81060    0.62810    0.06790    1.000
    C304     C        0.82090    0.69570    0.94020    1.000
    C305     C        0.77310    0.70020    0.92290    1.000
    C306     C        0.09420    0.73610    0.83820    1.000
    F31      F        0.99930    0.74520    0.87020    1.000
    B16      B        0.00000    0.69670    0.85730    1.000
    F32      F        0.00020    0.69000    0.71530    1.000
    C307     C        0.17990    0.69600    0.05940    1.000
    C308     C        0.22690    0.70010    0.07530    1.000
    C309     C        0.08600    0.62230    0.94610    1.000
    C310     C        0.91560    0.69040    0.09630    1.000
    C311     C        0.90600    0.73550    0.16180    1.000
    C312     C        0.10040    0.57790    0.90030    1.000
    Zn7      Zn       0.50000    0.50000    0.64489    1.000
    Zn8      Zn       0.50000    0.50000    0.35511    1.000
    Zn9      Zn       0.67847    0.67839    0.00000    1.000
    N41      N        0.66859    0.74615    0.00000    1.000
    N42      N        0.66841    0.25377    0.00000    1.000
    C313     C        0.66080    0.83840    0.00000    1.000
    C314     C        0.65630    0.88710    0.00000    1.000
    C315     C        0.63440    0.96070    0.00000    1.000
    C316     C        0.63450    0.03890    0.00000    1.000
    C317     C        0.62260    0.08620    0.00000    1.000
    C318     C        0.65650    0.11390    0.00000    1.000
    C319     C        0.66080    0.16140    0.00000    1.000
    Zn10     Zn       0.32153    0.32161    0.00000    1.000
    N43      N        0.33141    0.25385    0.00000    1.000
    N44      N        0.33159    0.74623    0.00000    1.000
    C320     C        0.33920    0.16160    0.00000    1.000
    C321     C        0.34370    0.11290    0.00000    1.000
    C322     C        0.36560    0.03930    0.00000    1.000
    C323     C        0.36550    0.96110    0.00000    1.000
    C324     C        0.37740    0.91380    0.00000    1.000
    C325     C        0.34350    0.88610    0.00000    1.000
    C326     C        0.33920    0.83860    0.00000    1.000
    Zn11     Zn       0.32161    0.67847    0.00000    1.000
    N45      N        0.25385    0.66859    0.00000    1.000
    N46      N        0.74623    0.66841    0.00000    1.000
    C327     C        0.16160    0.66080    0.00000    1.000
    C328     C        0.11290    0.65630    0.00000    1.000
    C329     C        0.03930    0.63440    0.00000    1.000
    C330     C        0.96110    0.63450    0.00000    1.000
    C331     C        0.91380    0.62260    0.00000    1.000
    C332     C        0.88610    0.65650    0.00000    1.000
    C333     C        0.83860    0.66080    0.00000    1.000
    Zn12     Zn       0.67839    0.32153    0.00000    1.000
    N47      N        0.74615    0.33141    0.00000    1.000
    N48      N        0.25377    0.33159    0.00000    1.000
    C334     C        0.83840    0.33920    0.00000    1.000
    C335     C        0.88710    0.34370    0.00000    1.000
    C336     C        0.96070    0.36560    0.00000    1.000
    C337     C        0.03890    0.36550    0.00000    1.000
    C338     C        0.08620    0.37740    0.00000    1.000
    C339     C        0.11390    0.34350    0.00000    1.000
    C340     C        0.16140    0.33920    0.00000    1.000
    C341     C        0.66296    0.66312    0.50000    1.000
    H21      H        0.68500    0.68550    0.50000    1.000
    C342     C        0.59763    0.59735    0.50000    1.000
    C343     C        0.56072    0.56116    0.50000    1.000
    C344     C        0.33704    0.33688    0.50000    1.000
    H22      H        0.31500    0.31450    0.50000    1.000
    C345     C        0.40237    0.40265    0.50000    1.000
    C346     C        0.43928    0.43884    0.50000    1.000
    C347     C        0.33688    0.66296    0.50000    1.000
    H23      H        0.31450    0.68500    0.50000    1.000
    C348     C        0.40265    0.59763    0.50000    1.000
    C349     C        0.43884    0.56072    0.50000    1.000
    C350     C        0.66312    0.33704    0.50000    1.000
    H24      H        0.68550    0.31500    0.50000    1.000
    C351     C        0.59735    0.40237    0.50000    1.000
    C352     C        0.56116    0.43928    0.50000    1.000
