# CIF file generated by openbabel 3.1.0, see https://openbabel.org
data_I
_chemical_name_common 'KEHGAH_charged'
_cell_length_a 14.3967
_cell_length_b 18.5633
_cell_length_c 18.5633
_cell_angle_alpha 120
_cell_angle_beta 90
_cell_angle_gamma 90
_space_group_name_H-M_alt 'P 1'
_space_group_name_Hall 'P 1'
loop_
    _symmetry_equiv_pos_as_xyz
    x,y,z
loop_
    _atom_site_label
    _atom_site_type_symbol
    _atom_site_fract_x
    _atom_site_fract_y
    _atom_site_fract_z
    _atom_site_occupancy
    Cd1      Cd       0.39646    0.33333    0.66666    1.000
    Cd2      Cd       0.89646    0.66667    0.33334    1.000
    Cd3      Cd       0.60354    0.66667    0.33334    1.000
    Cd4      Cd       0.10354    0.33333    0.66666    1.000
    H1       H        0.61870    0.42900    0.67890    1.000
    H2       H        0.47380    0.61980    0.70020    1.000
    H3       H        0.61510    0.64750    0.50650    1.000
    H4       H        0.60740    0.61700    0.60590    1.000
    H5       H        0.66380    0.53100    0.55920    1.000
    H6       H        0.61020    0.70170    0.76450    1.000
    H7       H        0.66680    0.66600    0.81450    1.000
    H8       H        0.80580    0.75200    0.68380    1.000
    H9       H        0.61870    0.24990    0.57100    1.000
    H10      H        0.47380    0.08040    0.38020    1.000
    H11      H        0.61510    0.85900    0.35250    1.000
    H12      H        0.60740    0.98890    0.38300    1.000
    H13      H        0.66380    0.02820    0.46900    1.000
    H14      H        0.61020    0.06280    0.29830    1.000
    H15      H        0.66680    0.14850    0.33400    1.000
    H16      H        0.80580    0.93180    0.24800    1.000
    H17      H        0.61870    0.32110    0.75010    1.000
    H18      H        0.47380    0.29980    0.91960    1.000
    H19      H        0.61510    0.49350    0.14100    1.000
    H20      H        0.60740    0.39410    0.01110    1.000
    H21      H        0.66380    0.44080    0.97180    1.000
    H22      H        0.61020    0.23550    0.93720    1.000
    H23      H        0.66680    0.18550    0.85150    1.000
    H24      H        0.80580    0.31620    0.06820    1.000
    H25      H        0.11870    0.57100    0.32110    1.000
    H26      H        0.97380    0.38020    0.29980    1.000
    H27      H        0.11510    0.35250    0.49350    1.000
    H28      H        0.10740    0.38300    0.39410    1.000
    H29      H        0.16380    0.46900    0.44080    1.000
    H30      H        0.11020    0.29830    0.23550    1.000
    H31      H        0.16680    0.33400    0.18550    1.000
    H32      H        0.30580    0.24800    0.31620    1.000
    H33      H        0.11870    0.75010    0.42900    1.000
    H34      H        0.97380    0.91960    0.61980    1.000
    H35      H        0.11510    0.14100    0.64750    1.000
    H36      H        0.10740    0.01110    0.61700    1.000
    H37      H        0.16380    0.97180    0.53100    1.000
    H38      H        0.11020    0.93720    0.70170    1.000
    H39      H        0.16680    0.85150    0.66600    1.000
    H40      H        0.30580    0.06820    0.75200    1.000
    H41      H        0.11870    0.67890    0.24990    1.000
    H42      H        0.97380    0.70020    0.08040    1.000
    H43      H        0.11510    0.50650    0.85900    1.000
    H44      H        0.10740    0.60590    0.98890    1.000
    H45      H        0.16380    0.55920    0.02820    1.000
    H46      H        0.11020    0.76450    0.06280    1.000
    H47      H        0.16680    0.81450    0.14850    1.000
    H48      H        0.30580    0.68380    0.93180    1.000
    H49      H        0.38130    0.57100    0.32110    1.000
    H50      H        0.52620    0.38020    0.29980    1.000
    H51      H        0.38490    0.35250    0.49350    1.000
    H52      H        0.39260    0.38300    0.39410    1.000
    H53      H        0.33620    0.46900    0.44080    1.000
    H54      H        0.38980    0.29830    0.23550    1.000
    H55      H        0.33320    0.33400    0.18550    1.000
    H56      H        0.19420    0.24800    0.31620    1.000
    H57      H        0.38130    0.75010    0.42900    1.000
    H58      H        0.52620    0.91960    0.61980    1.000
    H59      H        0.38490    0.14100    0.64750    1.000
    H60      H        0.39260    0.01110    0.61700    1.000
    H61      H        0.33620    0.97180    0.53100    1.000
    H62      H        0.38980    0.93720    0.70170    1.000
    H63      H        0.33320    0.85150    0.66600    1.000
    H64      H        0.19420    0.06820    0.75200    1.000
    H65      H        0.38130    0.67890    0.24990    1.000
    H66      H        0.52620    0.70020    0.08040    1.000
    H67      H        0.38490    0.50650    0.85900    1.000
    H68      H        0.39260    0.60590    0.98890    1.000
    H69      H        0.33620    0.55920    0.02820    1.000
    H70      H        0.38980    0.76450    0.06280    1.000
    H71      H        0.33320    0.81450    0.14850    1.000
    H72      H        0.19420    0.68380    0.93180    1.000
    H73      H        0.88130    0.42900    0.67890    1.000
    H74      H        0.02620    0.61980    0.70020    1.000
    H75      H        0.88490    0.64750    0.50650    1.000
    H76      H        0.89260    0.61700    0.60590    1.000
    H77      H        0.83620    0.53100    0.55920    1.000
    H78      H        0.88980    0.70170    0.76450    1.000
    H79      H        0.83320    0.66600    0.81450    1.000
    H80      H        0.69420    0.75200    0.68380    1.000
    H81      H        0.88130    0.24990    0.57100    1.000
    H82      H        0.02620    0.08040    0.38020    1.000
    H83      H        0.88490    0.85900    0.35250    1.000
    H84      H        0.89260    0.98890    0.38300    1.000
    H85      H        0.83620    0.02820    0.46900    1.000
    H86      H        0.88980    0.06280    0.29830    1.000
    H87      H        0.83320    0.14850    0.33400    1.000
    H88      H        0.69420    0.93180    0.24800    1.000
    H89      H        0.88130    0.32110    0.75010    1.000
    H90      H        0.02620    0.29980    0.91960    1.000
    H91      H        0.88490    0.49350    0.14100    1.000
    H92      H        0.89260    0.39410    0.01110    1.000
    H93      H        0.83620    0.44080    0.97180    1.000
    H94      H        0.88980    0.23550    0.93720    1.000
    H95      H        0.83320    0.18550    0.85150    1.000
    H96      H        0.69420    0.31620    0.06820    1.000
    H97      H        0.75000    0.52950    0.74200    1.000
    H98      H        0.75000    0.47460    0.64180    1.000
    H99      H        0.75000    0.21250    0.47050    1.000
    H100     H        0.75000    0.16720    0.52540    1.000
    H101     H        0.75000    0.25800    0.78750    1.000
    H102     H        0.75000    0.35820    0.83280    1.000
    H103     H        0.25000    0.47050    0.25800    1.000
    H104     H        0.25000    0.52540    0.35820    1.000
    H105     H        0.25000    0.78750    0.52950    1.000
    H106     H        0.25000    0.83280    0.47460    1.000
    H107     H        0.25000    0.74200    0.21250    1.000
    H108     H        0.25000    0.64180    0.16720    1.000
    C1       C        0.56880    0.46400    0.68220    1.000
    C2       C        0.49020    0.56740    0.69400    1.000
    C3       C        0.67790    0.64810    0.49100    1.000
    C4       C        0.66380    0.58310    0.68660    1.000
    C5       C        0.66380    0.58770    0.60820    1.000
    C6       C        0.66620    0.67010    0.76330    1.000
    C7       C        0.56880    0.21820    0.53600    1.000
    C8       C        0.49020    0.12660    0.43260    1.000
    C9       C        0.67790    0.84290    0.35190    1.000
    C10      C        0.66380    0.10350    0.41690    1.000
    C11      C        0.66380    0.02050    0.41230    1.000
    C12      C        0.66620    0.09320    0.32990    1.000
    C13      C        0.56880    0.31780    0.78180    1.000
    C14      C        0.49020    0.30600    0.87340    1.000
    C15      C        0.67790    0.50900    0.15710    1.000
    C16      C        0.66380    0.31340    0.89650    1.000
    C17      C        0.66380    0.39180    0.97950    1.000
    C18      C        0.66620    0.23670    0.90680    1.000
    C19      C        0.06880    0.53600    0.31780    1.000
    C20      C        0.99020    0.43260    0.30600    1.000
    C21      C        0.17790    0.35190    0.50900    1.000
    C22      C        0.16380    0.41690    0.31340    1.000
    C23      C        0.16380    0.41230    0.39180    1.000
    C24      C        0.16620    0.32990    0.23670    1.000
    C25      C        0.06880    0.78180    0.46400    1.000
    C26      C        0.99020    0.87340    0.56740    1.000
    C27      C        0.17790    0.15710    0.64810    1.000
    C28      C        0.16380    0.89650    0.58310    1.000
    C29      C        0.16380    0.97950    0.58770    1.000
    C30      C        0.16620    0.90680    0.67010    1.000
    C31      C        0.06880    0.68220    0.21820    1.000
    C32      C        0.99020    0.69400    0.12660    1.000
    C33      C        0.17790    0.49100    0.84290    1.000
    C34      C        0.16380    0.68660    0.10350    1.000
    C35      C        0.16380    0.60820    0.02050    1.000
    C36      C        0.16620    0.76330    0.09320    1.000
    C37      C        0.43120    0.53600    0.31780    1.000
    C38      C        0.50980    0.43260    0.30600    1.000
    C39      C        0.32210    0.35190    0.50900    1.000
    C40      C        0.33620    0.41690    0.31340    1.000
    C41      C        0.33620    0.41230    0.39180    1.000
    C42      C        0.33380    0.32990    0.23670    1.000
    C43      C        0.43120    0.78180    0.46400    1.000
    C44      C        0.50980    0.87340    0.56740    1.000
    C45      C        0.32210    0.15710    0.64810    1.000
    C46      C        0.33620    0.89650    0.58310    1.000
    C47      C        0.33620    0.97950    0.58770    1.000
    C48      C        0.33380    0.90680    0.67010    1.000
    C49      C        0.43120    0.68220    0.21820    1.000
    C50      C        0.50980    0.69400    0.12660    1.000
    C51      C        0.32210    0.49100    0.84290    1.000
    C52      C        0.33620    0.68660    0.10350    1.000
    C53      C        0.33620    0.60820    0.02050    1.000
    C54      C        0.33380    0.76330    0.09320    1.000
    C55      C        0.93120    0.46400    0.68220    1.000
    C56      C        0.00980    0.56740    0.69400    1.000
    C57      C        0.82210    0.64810    0.49100    1.000
    C58      C        0.83620    0.58310    0.68660    1.000
    C59      C        0.83620    0.58770    0.60820    1.000
    C60      C        0.83380    0.67010    0.76330    1.000
    C61      C        0.93120    0.21820    0.53600    1.000
    C62      C        0.00980    0.12660    0.43260    1.000
    C63      C        0.82210    0.84290    0.35190    1.000
    C64      C        0.83620    0.10350    0.41690    1.000
    C65      C        0.83620    0.02050    0.41230    1.000
    C66      C        0.83380    0.09320    0.32990    1.000
    C67      C        0.93120    0.31780    0.78180    1.000
    C68      C        0.00980    0.30600    0.87340    1.000
    C69      C        0.82210    0.50900    0.15710    1.000
    C70      C        0.83620    0.31340    0.89650    1.000
    C71      C        0.83620    0.39180    0.97950    1.000
    C72      C        0.83380    0.23670    0.90680    1.000
    C73      C        0.75000    0.63440    0.60760    1.000
    C74      C        0.75000    0.53200    0.68990    1.000
    C75      C        0.75000    0.72100    0.68420    1.000
    C76      C        0.75000    0.97320    0.36560    1.000
    C77      C        0.75000    0.15790    0.46800    1.000
    C78      C        0.75000    0.96320    0.27900    1.000
    C79      C        0.75000    0.39240    0.02680    1.000
    C80      C        0.75000    0.31010    0.84210    1.000
    C81      C        0.75000    0.31580    0.03680    1.000
    C82      C        0.25000    0.36560    0.39240    1.000
    C83      C        0.25000    0.46800    0.31010    1.000
    C84      C        0.25000    0.27900    0.31580    1.000
    C85      C        0.25000    0.02680    0.63440    1.000
    C86      C        0.25000    0.84210    0.53200    1.000
    C87      C        0.25000    0.03680    0.72100    1.000
    C88      C        0.25000    0.60760    0.97320    1.000
    C89      C        0.25000    0.68990    0.15790    1.000
    C90      C        0.25000    0.68420    0.96320    1.000
    N1       N        0.48120    0.44540    0.68070    1.000
    N2       N        0.42950    0.51380    0.68940    1.000
    N3       N        0.57960    0.54190    0.68920    1.000
    N4       N        0.70260    0.65600    0.42850    1.000
    N5       N        0.48120    0.23530    0.55460    1.000
    N6       N        0.42950    0.17560    0.48620    1.000
    N7       N        0.57960    0.14730    0.45810    1.000
    N8       N        0.70260    0.77250    0.34400    1.000
    N9       N        0.48120    0.31930    0.76470    1.000
    N10      N        0.42950    0.31060    0.82440    1.000
    N11      N        0.57960    0.31080    0.85270    1.000
    N12      N        0.70260    0.57150    0.22750    1.000
    N13      N        0.98120    0.55460    0.31930    1.000
    N14      N        0.92950    0.48620    0.31060    1.000
    N15      N        0.07960    0.45810    0.31080    1.000
    N16      N        0.20260    0.34400    0.57150    1.000
    N17      N        0.98120    0.76470    0.44540    1.000
    N18      N        0.92950    0.82440    0.51380    1.000
    N19      N        0.07960    0.85270    0.54190    1.000
    N20      N        0.20260    0.22750    0.65600    1.000
    N21      N        0.98120    0.68070    0.23530    1.000
    N22      N        0.92950    0.68940    0.17560    1.000
    N23      N        0.07960    0.68920    0.14730    1.000
    N24      N        0.20260    0.42850    0.77250    1.000
    N25      N        0.51880    0.55460    0.31930    1.000
    N26      N        0.57050    0.48620    0.31060    1.000
    N27      N        0.42040    0.45810    0.31080    1.000
    N28      N        0.29740    0.34400    0.57150    1.000
    N29      N        0.51880    0.76470    0.44540    1.000
    N30      N        0.57050    0.82440    0.51380    1.000
    N31      N        0.42040    0.85270    0.54190    1.000
    N32      N        0.29740    0.22750    0.65600    1.000
    N33      N        0.51880    0.68070    0.23530    1.000
    N34      N        0.57050    0.68940    0.17560    1.000
    N35      N        0.42040    0.68920    0.14730    1.000
    N36      N        0.29740    0.42850    0.77250    1.000
    N37      N        0.01880    0.44540    0.68070    1.000
    N38      N        0.07050    0.51380    0.68940    1.000
    N39      N        0.92040    0.54190    0.68920    1.000
    N40      N        0.79740    0.65600    0.42850    1.000
    N41      N        0.01880    0.23530    0.55460    1.000
    N42      N        0.07050    0.17560    0.48620    1.000
    N43      N        0.92040    0.14730    0.45810    1.000
    N44      N        0.79740    0.77250    0.34400    1.000
    N45      N        0.01880    0.31930    0.76470    1.000
    N46      N        0.07050    0.31060    0.82440    1.000
    N47      N        0.92040    0.31080    0.85270    1.000
    N48      N        0.79740    0.57150    0.22750    1.000
    N49      N        0.75000    0.64100    0.53080    1.000
    N50      N        0.75000    0.71310    0.75970    1.000
    N51      N        0.75000    0.88980    0.35900    1.000
    N52      N        0.75000    0.04660    0.28690    1.000
    N53      N        0.75000    0.46920    0.11020    1.000
    N54      N        0.75000    0.24030    0.95340    1.000
    N55      N        0.25000    0.35900    0.46920    1.000
    N56      N        0.25000    0.28690    0.24030    1.000
    N57      N        0.25000    0.11020    0.64100    1.000
    N58      N        0.25000    0.95340    0.71310    1.000
    N59      N        0.25000    0.53080    0.88980    1.000
    N60      N        0.25000    0.75970    0.04660    1.000
    Cl1      Cl       0.75000    0.33333    0.66666    1.000
    Cl2      Cl       0.25000    0.66667    0.33334    1.000
