# CIF file generated by openbabel 3.1.0, see https://openbabel.org
data_I
_chemical_name_common 'image0'
_cell_length_a 10.4309
_cell_length_b 11.4737
_cell_length_c 12.9497
_cell_angle_alpha 106.724
_cell_angle_beta 90.209
_cell_angle_gamma 93.187
_space_group_name_H-M_alt 'P 1'
_space_group_name_Hall 'P 1'
loop_
    _symmetry_equiv_pos_as_xyz
    x,y,z
loop_
    _atom_site_label
    _atom_site_type_symbol
    _atom_site_fract_x
    _atom_site_fract_y
    _atom_site_fract_z
    _atom_site_occupancy
    Nd1      Nd       0.52459    0.54627    0.66380    1.000
    O1       O        0.61412    0.72168    0.81402    1.000
    O2       O        0.40439    0.71589    0.78483    1.000
    O3       O        0.64444    0.49058    0.49260    1.000
    O4       O        0.71426    0.52562    0.34392    1.000
    O5       O        0.51059    0.32880    0.58586    1.000
    O6       O        0.46221    0.27437    0.40929    1.000
    C1       C        0.50550    0.76710    0.83276    1.000
    C2       C        0.50020    0.88790    0.91768    1.000
    C3       C        0.55370    0.99500    0.89830    1.000
    C4       C        0.60430    0.99480    0.79540    1.000
    H1       H        0.60340    0.92070    0.73880    1.000
    C5       C        0.65350    0.09980    0.77810    1.000
    H2       H        0.68590    0.09820    0.70930    1.000
    C6       C        0.65680    0.21180    0.86200    1.000
    H3       H        0.69280    0.28420    0.84920    1.000
    C7       C        0.60910    0.21600    0.96010    1.000
    H4       H        0.61170    0.29170    0.01510    1.000
    C8       C        0.55460    0.10850    0.98250    1.000
    C9       C        0.73550    0.51070    0.43340    1.000
    C10      C        0.87160    0.50610    0.46860    1.000
    C11      C        0.92480    0.59600    0.55740    1.000
    C12      C        0.85290    0.69570    0.61690    1.000
    H5       H        0.76710    0.70160    0.59520    1.000
    C13      C        0.90620    0.78220    0.70450    1.000
    H6       H        0.85670    0.84690    0.74390    1.000
    C14      C        0.03490    0.77580    0.73670    1.000
    H7       H        0.07110    0.83670    0.79750    1.000
    C15      C        0.10770    0.68380    0.68220    1.000
    H8       H        0.19390    0.68140    0.70510    1.000
    C16      C        0.05540    0.59060    0.59050    1.000
    C17      C        0.48830    0.25240    0.49555    1.000
    C18      C        0.49360    0.12045    0.49549    1.000
    C19      C        0.38640    0.06160    0.52660    1.000
    C20      C        0.26770    0.12090    0.55170    1.000
    H9       H        0.26320    0.20320    0.55090    1.000
    C21      C        0.16260    0.06070    0.57620    1.000
    H10      H        0.08400    0.10000    0.58990    1.000
    C22      C        0.16840    0.93930    0.58180    1.000
    H11      H        0.09430    0.89900    0.60130    1.000
    C23      C        0.27850    0.88040    0.55970    1.000
    H12      H        0.28030    0.79920    0.56390    1.000
    C24      C        0.39270    0.93790    0.53010    1.000
    C25      C        0.37900    0.05400    0.50300    1.000
    C26      C        0.25560    0.09850    0.51030    1.000
    H13      H        0.24590    0.17930    0.50750    1.000
    C27      C        0.14960    0.02860    0.52130    1.000
    H14      H        0.06750    0.06120    0.52480    1.000
    C28      C        0.15950    0.90870    0.52750    1.000
    H15      H        0.08420    0.86270    0.53690    1.000
    C29      C        0.27580    0.85760    0.52020    1.000
    H16      H        0.28290    0.77600    0.52200    1.000
    C30      C        0.38500    0.93200    0.51000    1.000
    Nd2      Nd       0.47541    0.45373    0.33620    1.000
    O7       O        0.38588    0.27832    0.18598    1.000
    O8       O        0.59561    0.28411    0.21517    1.000
    O9       O        0.35556    0.50942    0.50740    1.000
    O10      O        0.28574    0.47438    0.65608    1.000
    O11      O        0.48941    0.67120    0.41414    1.000
    O12      O        0.53779    0.72563    0.59071    1.000
    C31      C        0.49450    0.23290    0.16724    1.000
    C32      C        0.49980    0.11210    0.08232    1.000
    C33      C        0.44630    0.00500    0.10170    1.000
    C34      C        0.39570    0.00520    0.20460    1.000
    H17      H        0.39660    0.07930    0.26120    1.000
    C35      C        0.34650    0.90020    0.22190    1.000
    H18      H        0.31410    0.90180    0.29070    1.000
    C36      C        0.34320    0.78820    0.13800    1.000
    H19      H        0.30720    0.71580    0.15080    1.000
    C37      C        0.39090    0.78400    0.03990    1.000
    H20      H        0.38830    0.70830    0.98490    1.000
    C38      C        0.44540    0.89150    0.01750    1.000
    C39      C        0.26450    0.48930    0.56660    1.000
    C40      C        0.12840    0.49390    0.53140    1.000
    C41      C        0.07520    0.40400    0.44260    1.000
    C42      C        0.14710    0.30430    0.38310    1.000
    H21      H        0.23290    0.29840    0.40480    1.000
    C43      C        0.09380    0.21780    0.29550    1.000
    H22      H        0.14330    0.15310    0.25610    1.000
    C44      C        0.96510    0.22420    0.26330    1.000
    H23      H        0.92890    0.16330    0.20250    1.000
    C45      C        0.89230    0.31620    0.31780    1.000
    H24      H        0.80610    0.31860    0.29490    1.000
    C46      C        0.94460    0.40940    0.40950    1.000
    C47      C        0.51170    0.74760    0.50445    1.000
    C48      C        0.50640    0.87955    0.50451    1.000
    C49      C        0.61360    0.93840    0.47340    1.000
    C50      C        0.73230    0.87910    0.44830    1.000
    H25      H        0.73680    0.79680    0.44910    1.000
    C51      C        0.83740    0.93930    0.42380    1.000
    H26      H        0.91600    0.90000    0.41010    1.000
    C52      C        0.83160    0.06070    0.41820    1.000
    H27      H        0.90570    0.10100    0.39870    1.000
    C53      C        0.72150    0.11960    0.44030    1.000
    H28      H        0.71970    0.20080    0.43610    1.000
    C54      C        0.60730    0.06210    0.46990    1.000
    C55      C        0.62100    0.94600    0.49700    1.000
    C56      C        0.74440    0.90150    0.48970    1.000
    H29      H        0.75410    0.82070    0.49250    1.000
    C57      C        0.85040    0.97140    0.47870    1.000
    H30      H        0.93250    0.93880    0.47520    1.000
    C58      C        0.84050    0.09130    0.47250    1.000
    H31      H        0.91580    0.13730    0.46310    1.000
    C59      C        0.72420    0.14240    0.47980    1.000
    H32      H        0.71710    0.22400    0.47800    1.000
    C60      C        0.61500    0.06800    0.49000    1.000
