# CIF file generated by openbabel 3.1.0, see https://openbabel.org
data_I
_chemical_name_common 'ADODUU_clean'
_cell_length_a 7.0665
_cell_length_b 14.5262
_cell_length_c 16.7109
_cell_angle_alpha 104.066
_cell_angle_beta 102.206
_cell_angle_gamma 90
_space_group_name_H-M_alt 'P 1'
_space_group_name_Hall 'P 1'
loop_
    _symmetry_equiv_pos_as_xyz
    x,y,z
loop_
    _atom_site_label
    _atom_site_type_symbol
    _atom_site_fract_x
    _atom_site_fract_y
    _atom_site_fract_z
    _atom_site_occupancy
    Tb1      Tb       0.50772    0.96952    0.50268    1.000
    Tb2      Tb       0.00504    0.03048    0.49732    1.000
    H1       H        0.29210    0.52700    0.10100    1.000
    H2       H        0.31510    0.43390    0.03320    1.000
    H3       H        0.89140    0.49570    0.11320    1.000
    H4       H        0.91450    0.42900    0.17580    1.000
    H5       H        0.38150    0.34600    0.13360    1.000
    H6       H        0.36250    0.43390    0.20720    1.000
    H7       H        0.95960    0.28670    0.07140    1.000
    H8       H        0.89400    0.35250    0.00960    1.000
    H9       H        0.59520    0.34120    0.25260    1.000
    H10      H        0.79740    0.26110    0.33920    1.000
    H11      H        0.33700    0.12540    0.37080    1.000
    H12      H        0.13610    0.20580    0.28620    1.000
    H13      H        0.26940    0.20870    0.86660    1.000
    H14      H        0.12570    0.11670    0.73260    1.000
    H15      H        0.61500    0.12780    0.79980    1.000
    H16      H        0.75680    0.21980    0.93220    1.000
    H17      H        0.71300    0.56330    0.20340    1.000
    H18      H        0.56190    0.68420    0.28140    1.000
    H19      H        0.07920    0.78830    0.42820    1.000
    H20      H        0.23030    0.67550    0.34200    1.000
    H21      H        0.19110    0.47300    0.89900    1.000
    H22      H        0.28190    0.56610    0.96680    1.000
    H23      H        0.77820    0.50430    0.88680    1.000
    H24      H        0.73870    0.57100    0.82420    1.000
    H25      H        0.24790    0.65400    0.86640    1.000
    H26      H        0.15530    0.56610    0.79280    1.000
    H27      H        0.88820    0.71330    0.92860    1.000
    H28      H        0.88440    0.64750    0.99040    1.000
    H29      H        0.34260    0.65880    0.74740    1.000
    H30      H        0.45820    0.73890    0.66080    1.000
    H31      H        0.96620    0.87460    0.62920    1.000
    H32      H        0.84990    0.79420    0.71380    1.000
    H33      H        0.40280    0.79130    0.13340    1.000
    H34      H        0.39310    0.88330    0.26740    1.000
    H35      H        0.81520    0.87220    0.20020    1.000
    H36      H        0.82460    0.78020    0.06780    1.000
    H37      H        0.50960    0.43670    0.79660    1.000
    H38      H        0.28050    0.31580    0.71860    1.000
    H39      H        0.65100    0.21170    0.57180    1.000
    H40      H        0.88830    0.32450    0.65800    1.000
    C1       C        0.12757    0.41300    0.10674    1.000
    C2       C        0.22260    0.47140    0.06080    1.000
    C3       C        0.98450    0.46980    0.15240    1.000
    C4       C        0.29200    0.37950    0.16560    1.000
    C5       C        0.00580    0.32930    0.04220    1.000
    C6       C        0.34580    0.27680    0.25820    1.000
    C7       C        0.54360    0.29700    0.27520    1.000
    C8       C        0.66400    0.24850    0.32760    1.000
    C9       C        0.59280    0.18360    0.36240    1.000
    C10      C        0.38990    0.16780    0.34680    1.000
    C11      C        0.26990    0.21550    0.29540    1.000
    C12      C        0.02480    0.22380    0.91140    1.000
    C13      C        0.13710    0.19280    0.85280    1.000
    C14      C        0.05110    0.13750    0.77260    1.000
    C15      C        0.85300    0.11370    0.75240    1.000
    C16      C        0.74710    0.14440    0.81280    1.000
    C17      C        0.83140    0.19950    0.89220    1.000
    C18      C        0.75100    0.05950    0.66640    1.000
    C19      C        0.98610    0.60860    0.26260    1.000
    C20      C        0.78750    0.61020    0.24680    1.000
    C21      C        0.69610    0.68110    0.29500    1.000
    C22      C        0.80700    0.74700    0.36300    1.000
    C23      C        0.00560    0.74460    0.38180    1.000
    C24      C        0.09580    0.67610    0.33060    1.000
    C25      C        0.70820    0.82360    0.41220    1.000
    C26      C        0.72850    0.13420    0.41600    1.000
    C27      C        0.02083    0.58700    0.89326    1.000
    C28      C        0.16180    0.52860    0.93920    1.000
    C29      C        0.83210    0.53020    0.84760    1.000
    C30      C        0.12640    0.62050    0.83440    1.000
    C31      C        0.96360    0.67070    0.95780    1.000
    C32      C        0.08760    0.72320    0.74180    1.000
    C33      C        0.26840    0.70300    0.72480    1.000
    C34      C        0.33640    0.75150    0.67240    1.000
    C35      C        0.23040    0.81640    0.63760    1.000
    C36      C        0.04310    0.83220    0.65320    1.000
    C37      C        0.97450    0.78450    0.70460    1.000
    C38      C        0.11340    0.77620    0.08860    1.000
    C39      C        0.28430    0.80720    0.14720    1.000
    C40      C        0.27850    0.86250    0.22740    1.000
    C41      C        0.10060    0.88630    0.24760    1.000
    C42      C        0.93430    0.85560    0.18720    1.000
    C43      C        0.93920    0.80050    0.10780    1.000
    C44      C        0.08460    0.94050    0.33360    1.000
    C45      C        0.72350    0.39140    0.73740    1.000
    C46      C        0.54070    0.38980    0.75320    1.000
    C47      C        0.40110    0.31890    0.70500    1.000
    C48      C        0.44400    0.25300    0.63700    1.000
    C49      C        0.62380    0.25540    0.61820    1.000
    C50      C        0.76520    0.32390    0.66940    1.000
    C51      C        0.29600    0.17640    0.58780    1.000
    C52      C        0.31250    0.86580    0.58400    1.000
    O1       O        0.83861    0.04090    0.60622    1.000
    O2       O        0.57930    0.03450    0.65340    1.000
    O3       O        0.90729    0.15670    0.43358    1.000
    O4       O        0.66538    0.06650    0.44156    1.000
    O5       O        0.80643    0.88940    0.47226    1.000
    O6       O        0.52735    0.82470    0.39730    1.000
    O7       O        0.21619    0.31790    0.20758    1.000
    O8       O        0.09013    0.54450    0.21826    1.000
    O9       O        0.12034    0.28000    0.98768    1.000
    O10      O        0.23239    0.95910    0.39378    1.000
    O11      O        0.92590    0.96550    0.34660    1.000
    O12      O        0.47371    0.84330    0.56642    1.000
    O13      O        0.22382    0.93350    0.55844    1.000
    O14      O        0.33417    0.11060    0.52774    1.000
    O15      O        0.13005    0.17530    0.60270    1.000
    O16      O        0.00861    0.68210    0.79242    1.000
    O17      O        0.87187    0.45550    0.78174    1.000
    O18      O        0.13266    0.72000    0.01232    1.000
    O19      O        0.08010    0.50000    0.00000    1.000
