data_functionalizedCrystal
_audit_creation_method	'EQeq! by Chris Wilmer'
_symmetry_space_group_name_H-M	'P1'
_symmetry_Int_Tables_number	1
_symmetry_cell_setting	triclinic
loop_
_symmetry_equiv_pos_as_xyz
  x,y,z
_cell_length_a	25.888
_cell_length_b	25.888
_cell_length_c	25.888
_cell_angle_alpha	90
_cell_angle_beta	90
_cell_angle_gamma	90
loop_
_atom_site_label
_atom_site_type_symbol
_atom_site_fract_x
_atom_site_fract_y
_atom_site_fract_z
_atom_site_charge
Mof_Zn	Zn	0.29344	0.29344	0.20656	1.21
Mof_Zn	Zn	0.70656	0.70656	0.20656	1.21
Mof_Zn	Zn	0.20656	0.20656	0.20656	1.21
Mof_Zn	Zn	0.70656	0.29344	0.79344	1.21
Mof_Zn	Zn	0.20656	0.29344	0.29344	1.21
Mof_Zn	Zn	0.29344	0.70656	0.79344	1.21
Mof_Zn	Zn	0.29344	0.20656	0.29344	1.21
Mof_Zn	Zn	0.20656	0.79344	0.79344	1.21
Mof_Zn	Zn	0.20656	0.70656	0.70656	1.21
Mof_Zn	Zn	0.79344	0.70656	0.29344	1.21
Mof_Zn	Zn	0.79344	0.20656	0.79344	1.21
Mof_Zn	Zn	0.79344	0.29344	0.70656	1.21
Mof_Zn	Zn	0.79344	0.79344	0.20656	1.21
Mof_Zn	Zn	0.70656	0.20656	0.70656	1.21
Mof_Zn	Zn	0.29344	0.79344	0.70656	1.21
Mof_Zn	Zn	0.70656	0.79344	0.29344	1.21
Mof_Zn	Zn	0.29344	0.29344	0.79344	1.21
Mof_Zn	Zn	0.70656	0.70656	0.79344	1.21
Mof_Zn	Zn	0.70656	0.20656	0.29344	1.21
Mof_Zn	Zn	0.20656	0.70656	0.29344	1.21
Mof_Zn	Zn	0.29344	0.70656	0.20656	1.21
Mof_Zn	Zn	0.70656	0.29344	0.20656	1.21
Mof_Zn	Zn	0.20656	0.79344	0.20656	1.21
Mof_Zn	Zn	0.29344	0.20656	0.70656	1.21
Mof_Zn	Zn	0.20656	0.20656	0.79344	1.21
Mof_Zn	Zn	0.70656	0.79344	0.70656	1.21
Mof_Zn	Zn	0.20656	0.29344	0.70656	1.21
Mof_Zn	Zn	0.29344	0.79344	0.29344	1.21
Mof_Zn	Zn	0.79344	0.29344	0.29344	1.21
Mof_Zn	Zn	0.79344	0.79344	0.79344	1.21
Mof_Zn	Zn	0.79344	0.70656	0.70656	1.21
Mof_Zn	Zn	0.79344	0.20656	0.20656	1.21
Mof_O 	O 	0.25	0.25	0.25	-0.96
Mof_O 	O 	0.75	0.75	0.25	-0.96
Mof_O 	O 	0.75	0.25	0.75	-0.96
Mof_O 	O 	0.25	0.75	0.75	-0.96
Mof_O 	O 	0.25	0.25	0.75	-0.96
Mof_O 	O 	0.75	0.75	0.75	-0.96
Mof_O 	O 	0.75	0.25	0.25	-0.96
Mof_O 	O 	0.25	0.75	0.25	-0.96
Mof_O 	O 	0.28061	0.36632	0.21939	-0.508
Mof_C 	C 	0.28276	0.47333	0.21724	-0.014
Mof_H 	H 	0.3057	0.4555	0.1943	0.046
Mof_O 	O 	0.28061	0.86632	0.71939	-0.508
Mof_C 	C 	0.28276	0.97333	0.71724	-0.014
Mof_H 	H 	0.3057	0.9555	0.6943	0.046
Mof_O 	O 	0.71939	0.63368	0.21939	-0.508
Mof_C 	C 	0.71724	0.52667	0.21724	-0.014
Mof_H 	H 	0.6943	0.5445	0.1943	0.046
Mof_O 	O 	0.71939	0.13368	0.71939	-0.508
Mof_C 	C 	0.71724	0.02667	0.71724	-0.014
Mof_H 	H 	0.6943	0.0445	0.6943	0.046
Mof_O 	O 	0.21939	0.13368	0.21939	-0.508
Mof_C 	C 	0.21724	0.02667	0.21724	-0.014
Mof_H 	H 	0.1943	0.0445	0.1943	0.046
Mof_O 	O 	0.71939	0.36632	0.78061	-0.508
Mof_C 	C 	0.71724	0.47333	0.78276	-0.014
Mof_H 	H 	0.6943	0.4555	0.8057	0.046
Mof_O 	O 	0.71939	0.86632	0.28061	-0.508
Mof_C 	C 	0.71724	0.97333	0.28276	-0.014
Mof_H 	H 	0.6943	0.9555	0.3057	0.046
Mof_O 	O 	0.21939	0.36632	0.28061	-0.508
Mof_C 	C 	0.21724	0.47333	0.28276	-0.014
Mof_H 	H 	0.1943	0.4555	0.3057	0.046
Mof_O 	O 	0.28061	0.63368	0.78061	-0.508
Mof_C 	C 	0.28276	0.52667	0.78276	-0.014
Mof_H 	H 	0.3057	0.5445	0.8057	0.046
Mof_O 	O 	0.28061	0.13368	0.28061	-0.508
Mof_C 	C 	0.28276	0.02667	0.28276	-0.014
Mof_H 	H 	0.3057	0.0445	0.3057	0.046
Mof_O 	O 	0.21939	0.28061	0.36632	-0.508
Mof_C 	C 	0.21724	0.28276	0.47333	-0.014
Mof_H 	H 	0.1943	0.3057	0.4555	0.047
Mof_O 	O 	0.21939	0.78061	0.86632	-0.507
Mof_C 	C 	0.21724	0.78276	0.97333	-0.013
Mof_H 	H 	0.1943	0.8057	0.9555	0.047
Mof_O 	O 	0.21939	0.71939	0.63368	-0.507
Mof_C 	C 	0.21724	0.71724	0.52667	-0.013
Mof_H 	H 	0.1943	0.6943	0.5445	0.047
Mof_O 	O 	0.21939	0.21939	0.13368	-0.507
Mof_C 	C 	0.21724	0.21724	0.02667	-0.013
Mof_H 	H 	0.1943	0.1943	0.0445	0.047
Mof_O 	O 	0.78061	0.71939	0.36632	-0.507
Mof_C 	C 	0.78276	0.71724	0.47333	-0.013
Mof_H 	H 	0.8057	0.6943	0.4555	0.047
Mof_O 	O 	0.78061	0.21939	0.86632	-0.507
Mof_C 	C 	0.78276	0.21724	0.97333	-0.013
Mof_H 	H 	0.8057	0.1943	0.9555	0.047
Mof_O 	O 	0.28061	0.21939	0.36632	-0.507
Mof_C 	C 	0.28276	0.21724	0.47333	-0.013
Mof_H 	H 	0.3057	0.1943	0.4555	0.047
Mof_O 	O 	0.78061	0.28061	0.63368	-0.507
Mof_C 	C 	0.78276	0.28276	0.52667	-0.013
Mof_H 	H 	0.8057	0.3057	0.5445	0.047
Mof_O 	O 	0.78061	0.78061	0.13368	-0.507
Mof_C 	C 	0.78276	0.78276	0.02667	-0.013
Mof_H 	H 	0.8057	0.8057	0.0445	0.047
Mof_O 	O 	0.28061	0.28061	0.13368	-0.507
Mof_C 	C 	0.28276	0.28276	0.02667	-0.013
Mof_H 	H 	0.3057	0.3057	0.0445	0.047
Mof_O 	O 	0.36632	0.21939	0.28061	-0.507
Mof_C 	C 	0.47333	0.21724	0.28276	-0.013
Mof_H 	H 	0.4555	0.1943	0.3057	0.047
Mof_O 	O 	0.86632	0.21939	0.78061	-0.507
Mof_C 	C 	0.97333	0.21724	0.78276	-0.013
Mof_H 	H 	0.9555	0.1943	0.8057	0.047
Mof_O 	O 	0.63368	0.21939	0.71939	-0.507
Mof_C 	C 	0.52667	0.21724	0.71724	-0.013
Mof_H 	H 	0.5445	0.1943	0.6943	0.047
Mof_O 	O 	0.13368	0.21939	0.21939	-0.507
Mof_C 	C 	0.02667	0.21724	0.21724	-0.013
Mof_H 	H 	0.0445	0.1943	0.1943	0.047
Mof_O 	O 	0.36632	0.78061	0.71939	-0.507
Mof_C 	C 	0.47333	0.78276	0.71724	-0.013
Mof_H 	H 	0.4555	0.8057	0.6943	0.047
Mof_O 	O 	0.36632	0.28061	0.21939	-0.507
Mof_C 	C 	0.47333	0.28276	0.21724	-0.013
Mof_H 	H 	0.4555	0.3057	0.1943	0.047
Mof_O 	O 	0.86632	0.78061	0.21939	-0.507
Mof_C 	C 	0.97333	0.78276	0.21724	-0.013
Mof_H 	H 	0.9555	0.8057	0.1943	0.047
Mof_O 	O 	0.63368	0.78061	0.28061	-0.507
Mof_C 	C 	0.52667	0.78276	0.28276	-0.013
Mof_H 	H 	0.5445	0.8057	0.3057	0.047
Mof_O 	O 	0.13368	0.78061	0.78061	-0.507
Mof_C 	C 	0.02667	0.78276	0.78276	-0.013
Mof_H 	H 	0.0445	0.8057	0.8057	0.047
Mof_O 	O 	0.13368	0.28061	0.28061	-0.507
Mof_C 	C 	0.02667	0.28276	0.28276	-0.013
Mof_H 	H 	0.0445	0.3057	0.3057	0.047
Mof_O 	O 	0.36632	0.28061	0.78061	-0.507
Mof_C 	C 	0.47333	0.28276	0.78276	-0.013
Mof_H 	H 	0.4555	0.3057	0.8057	0.047
Mof_O 	O 	0.86632	0.28061	0.28061	-0.507
Mof_C 	C 	0.97333	0.28276	0.28276	-0.013
Mof_H 	H 	0.9555	0.3057	0.3057	0.047
Mof_O 	O 	0.63368	0.71939	0.78061	-0.507
Mof_C 	C 	0.52667	0.71724	0.78276	-0.013
Mof_H 	H 	0.5445	0.6943	0.8057	0.047
Mof_O 	O 	0.63368	0.21939	0.28061	-0.507
Mof_C 	C 	0.52667	0.21724	0.28276	-0.013
Mof_H 	H 	0.5445	0.1943	0.3057	0.047
Mof_O 	O 	0.13368	0.71939	0.28061	-0.507
Mof_C 	C 	0.02667	0.71724	0.28276	-0.013
Mof_H 	H 	0.0445	0.6943	0.3057	0.047
Mof_O 	O 	0.36632	0.71939	0.21939	-0.507
Mof_C 	C 	0.47333	0.71724	0.21724	-0.013
Mof_H 	H 	0.4555	0.6943	0.1943	0.047
Mof_O 	O 	0.86632	0.71939	0.71939	-0.507
Mof_C 	C 	0.97333	0.71724	0.71724	-0.013
Mof_H 	H 	0.9555	0.6943	0.6943	0.047
Mof_O 	O 	0.86632	0.21939	0.21939	-0.507
Mof_C 	C 	0.97333	0.21724	0.21724	-0.013
Mof_H 	H 	0.9555	0.1943	0.1943	0.047
Mof_O 	O 	0.63368	0.28061	0.21939	-0.507
Mof_C 	C 	0.52667	0.28276	0.21724	-0.013
Mof_H 	H 	0.5445	0.3057	0.1943	0.047
Mof_O 	O 	0.13368	0.28061	0.71939	-0.507
Mof_C 	C 	0.02667	0.28276	0.71724	-0.013
Mof_H 	H 	0.0445	0.3057	0.6943	0.047
Mof_O 	O 	0.28061	0.21939	0.63368	-0.507
Mof_C 	C 	0.28276	0.21724	0.52667	-0.013
Mof_H 	H 	0.3057	0.1943	0.5445	0.047
Mof_O 	O 	0.28061	0.71939	0.13368	-0.507
Mof_C 	C 	0.28276	0.71724	0.02667	-0.013
Mof_H 	H 	0.3057	0.6943	0.0445	0.047
Mof_O 	O 	0.71939	0.21939	0.36632	-0.507
Mof_C 	C 	0.71724	0.21724	0.47333	-0.013
Mof_H 	H 	0.6943	0.1943	0.4555	0.047
Mof_O 	O 	0.71939	0.71939	0.86632	-0.507
Mof_C 	C 	0.71724	0.71724	0.97333	-0.013
Mof_H 	H 	0.6943	0.6943	0.9555	0.047
Mof_O 	O 	0.21939	0.21939	0.86632	-0.507
Mof_C 	C 	0.21724	0.21724	0.97333	-0.013
Mof_H 	H 	0.1943	0.1943	0.9555	0.047
Mof_O 	O 	0.71939	0.78061	0.63368	-0.507
Mof_C 	C 	0.71724	0.78276	0.52667	-0.013
Mof_H 	H 	0.6943	0.8057	0.5445	0.047
Mof_O 	O 	0.71939	0.28061	0.13368	-0.507
Mof_C 	C 	0.71724	0.28276	0.02667	-0.013
Mof_H 	H 	0.6943	0.3057	0.0445	0.047
Mof_O 	O 	0.21939	0.28061	0.63368	-0.507
Mof_C 	C 	0.21724	0.28276	0.52667	-0.013
Mof_H 	H 	0.1943	0.3057	0.5445	0.047
Mof_O 	O 	0.28061	0.78061	0.36632	-0.507
Mof_C 	C 	0.28276	0.78276	0.47333	-0.013
Mof_H 	H 	0.3057	0.8057	0.4555	0.047
Mof_O 	O 	0.28061	0.28061	0.86632	-0.507
Mof_C 	C 	0.28276	0.28276	0.97333	-0.013
Mof_H 	H 	0.3057	0.3057	0.9555	0.047
Mof_O 	O 	0.21939	0.36632	0.71939	-0.507
Mof_C 	C 	0.21724	0.47333	0.71724	-0.013
Mof_H 	H 	0.1943	0.4555	0.6943	0.047
Mof_O 	O 	0.21939	0.86632	0.21939	-0.507
Mof_C 	C 	0.21724	0.97333	0.21724	-0.013
Mof_H 	H 	0.1943	0.9555	0.1943	0.047
Mof_O 	O 	0.21939	0.63368	0.28061	-0.507
Mof_C 	C 	0.21724	0.52667	0.28276	-0.013
Mof_H 	H 	0.1943	0.5445	0.3057	0.047
Mof_O 	O 	0.21939	0.13368	0.78061	-0.507
Mof_C 	C 	0.21724	0.02667	0.78276	-0.013
Mof_H 	H 	0.1943	0.0445	0.8057	0.047
Mof_O 	O 	0.78061	0.36632	0.28061	-0.507
Mof_C 	C 	0.78276	0.47333	0.28276	-0.013
Mof_H 	H 	0.8057	0.4555	0.3057	0.047
Mof_O 	O 	0.78061	0.86632	0.78061	-0.507
Mof_C 	C 	0.78276	0.97333	0.78276	-0.013
Mof_H 	H 	0.8057	0.9555	0.8057	0.047
Mof_O 	O 	0.28061	0.86632	0.28061	-0.507
Mof_C 	C 	0.28276	0.97333	0.28276	-0.013
Mof_H 	H 	0.3057	0.9555	0.3057	0.047
Mof_O 	O 	0.78061	0.63368	0.71939	-0.507
Mof_C 	C 	0.78276	0.52667	0.71724	-0.013
Mof_H 	H 	0.8057	0.5445	0.6943	0.047
Mof_O 	O 	0.78061	0.13368	0.21939	-0.507
Mof_C 	C 	0.78276	0.02667	0.21724	-0.013
Mof_H 	H 	0.8057	0.0445	0.1943	0.047
Mof_O 	O 	0.28061	0.63368	0.21939	-0.507
Mof_C 	C 	0.28276	0.52667	0.21724	-0.013
Mof_H 	H 	0.3057	0.5445	0.1943	0.047
Mof_O 	O 	0.71939	0.63368	0.78061	-0.507
Mof_C 	C 	0.71724	0.52667	0.78276	-0.013
Mof_H 	H 	0.6943	0.5445	0.8057	0.047
Mof_O 	O 	0.71939	0.13368	0.28061	-0.507
Mof_C 	C 	0.71724	0.02667	0.28276	-0.013
Mof_H 	H 	0.6943	0.0445	0.3057	0.047
Mof_O 	O 	0.28061	0.36632	0.78061	-0.507
Mof_C 	C 	0.28276	0.47333	0.78276	-0.013
Mof_H 	H 	0.3057	0.4555	0.8057	0.047
Mof_O 	O 	0.28061	0.13368	0.71939	-0.507
Mof_C 	C 	0.28276	0.02667	0.71724	-0.013
Mof_H 	H 	0.3057	0.0445	0.6943	0.047
Mof_O 	O 	0.71939	0.36632	0.21939	-0.507
Mof_C 	C 	0.71724	0.47333	0.21724	-0.013
Mof_H 	H 	0.6943	0.4555	0.1943	0.047
Mof_O 	O 	0.71939	0.86632	0.71939	-0.507
Mof_C 	C 	0.71724	0.97333	0.71724	-0.013
Mof_H 	H 	0.6943	0.9555	0.6943	0.047
Mof_O 	O 	0.78061	0.71939	0.63368	-0.507
Mof_C 	C 	0.78276	0.71724	0.52667	-0.013
Mof_H 	H 	0.8057	0.6943	0.5445	0.047
Mof_O 	O 	0.78061	0.21939	0.13368	-0.507
Mof_C 	C 	0.78276	0.21724	0.02667	-0.013
Mof_H 	H 	0.8057	0.1943	0.0445	0.047
Mof_O 	O 	0.78061	0.28061	0.36632	-0.507
Mof_C 	C 	0.78276	0.28276	0.47333	-0.013
Mof_H 	H 	0.8057	0.3057	0.4555	0.047
Mof_O 	O 	0.78061	0.78061	0.86632	-0.507
Mof_C 	C 	0.78276	0.78276	0.97333	-0.013
Mof_H 	H 	0.8057	0.8057	0.9555	0.047
Mof_O 	O 	0.21939	0.78061	0.13368	-0.507
Mof_C 	C 	0.21724	0.78276	0.02667	-0.013
Mof_H 	H 	0.1943	0.8057	0.0445	0.047
Mof_O 	O 	0.21939	0.71939	0.36632	-0.507
Mof_C 	C 	0.21724	0.71724	0.47333	-0.013
Mof_H 	H 	0.1943	0.6943	0.4555	0.047
Mof_O 	O 	0.63368	0.78061	0.71939	-0.507
Mof_C 	C 	0.52667	0.78276	0.71724	-0.013
Mof_H 	H 	0.5445	0.8057	0.6943	0.047
Mof_O 	O 	0.13368	0.78061	0.21939	-0.507
Mof_C 	C 	0.02667	0.78276	0.21724	-0.013
Mof_H 	H 	0.0445	0.8057	0.1943	0.047
Mof_O 	O 	0.36632	0.78061	0.28061	-0.507
Mof_C 	C 	0.47333	0.78276	0.28276	-0.013
Mof_H 	H 	0.4555	0.8057	0.3057	0.047
Mof_O 	O 	0.86632	0.78061	0.78061	-0.507
Mof_C 	C 	0.97333	0.78276	0.78276	-0.013
Mof_H 	H 	0.9555	0.8057	0.8057	0.047
Mof_O 	O 	0.13368	0.21939	0.78061	-0.507
Mof_C 	C 	0.02667	0.21724	0.78276	-0.013
Mof_H 	H 	0.0445	0.1943	0.8057	0.047
Mof_O 	O 	0.36632	0.21939	0.71939	-0.507
Mof_C 	C 	0.47333	0.21724	0.71724	-0.013
Mof_H 	H 	0.4555	0.1943	0.6943	0.047
Mof_O 	O 	0.63368	0.71939	0.21939	-0.507
Mof_C 	C 	0.52667	0.71724	0.21724	-0.013
Mof_H 	H 	0.5445	0.6943	0.1943	0.047
Mof_O 	O 	0.13368	0.71939	0.71939	-0.507
Mof_C 	C 	0.02667	0.71724	0.71724	-0.013
Mof_H 	H 	0.0445	0.6943	0.6943	0.047
Mof_O 	O 	0.86632	0.28061	0.71939	-0.507
Mof_C 	C 	0.97333	0.28276	0.71724	-0.013
Mof_H 	H 	0.9555	0.3057	0.6943	0.047
Mof_O 	O 	0.63368	0.28061	0.78061	-0.507
Mof_C 	C 	0.52667	0.28276	0.78276	-0.013
Mof_H 	H 	0.5445	0.3057	0.8057	0.047
Mof_O 	O 	0.36632	0.71939	0.78061	-0.507
Mof_C 	C 	0.47333	0.71724	0.78276	-0.013
Mof_H 	H 	0.4555	0.6943	0.8057	0.047
Mof_O 	O 	0.86632	0.71939	0.28061	-0.507
Mof_C 	C 	0.97333	0.71724	0.28276	-0.013
Mof_H 	H 	0.9555	0.6943	0.3057	0.047
Mof_O 	O 	0.71939	0.78061	0.36632	-0.507
Mof_C 	C 	0.71724	0.78276	0.47333	-0.013
Mof_H 	H 	0.6943	0.8057	0.4555	0.047
Mof_O 	O 	0.71939	0.28061	0.86632	-0.507
Mof_C 	C 	0.71724	0.28276	0.97333	-0.013
Mof_H 	H 	0.6943	0.3057	0.9555	0.047
Mof_O 	O 	0.28061	0.78061	0.63368	-0.507
Mof_C 	C 	0.28276	0.78276	0.52667	-0.013
Mof_H 	H 	0.3057	0.8057	0.5445	0.047
Mof_O 	O 	0.28061	0.71939	0.86632	-0.507
Mof_C 	C 	0.28276	0.71724	0.97333	-0.013
Mof_H 	H 	0.3057	0.6943	0.9555	0.047
Mof_O 	O 	0.71939	0.21939	0.63368	-0.507
Mof_C 	C 	0.71724	0.21724	0.52667	-0.013
Mof_H 	H 	0.6943	0.1943	0.5445	0.047
Mof_O 	O 	0.71939	0.71939	0.13368	-0.507
Mof_C 	C 	0.71724	0.71724	0.02667	-0.013
Mof_H 	H 	0.6943	0.6943	0.0445	0.047
Mof_O 	O 	0.78061	0.63368	0.28061	-0.507
Mof_C 	C 	0.78276	0.52667	0.28276	-0.013
Mof_H 	H 	0.8057	0.5445	0.3057	0.047
Mof_O 	O 	0.78061	0.13368	0.78061	-0.507
Mof_C 	C 	0.78276	0.02667	0.78276	-0.013
Mof_H 	H 	0.8057	0.0445	0.8057	0.047
Mof_O 	O 	0.78061	0.36632	0.71939	-0.507
Mof_C 	C 	0.78276	0.47333	0.71724	-0.013
Mof_H 	H 	0.8057	0.4555	0.6943	0.047
Mof_O 	O 	0.78061	0.86632	0.21939	-0.507
Mof_C 	C 	0.78276	0.97333	0.21724	-0.013
Mof_H 	H 	0.8057	0.9555	0.1943	0.047
Mof_O 	O 	0.21939	0.63368	0.71939	-0.507
Mof_C 	C 	0.21724	0.52667	0.71724	-0.013
Mof_H 	H 	0.1943	0.5445	0.6943	0.047
Mof_O 	O 	0.21939	0.86632	0.78061	-0.507
Mof_C 	C 	0.21724	0.97333	0.78276	-0.013
Mof_H 	H 	0.1943	0.9555	0.8057	0.047
Mof_C 	C 	0.25	0.38842	0.25	0.388
Mof_C 	C 	0.25	0.44631	0.25	-0.088
Mof_C 	C 	0.25	0.88842	0.75	0.388
Mof_C 	C 	0.25	0.94631	0.75	-0.088
Mof_C 	C 	0.75	0.61158	0.25	0.388
Mof_C 	C 	0.75	0.55369	0.25	-0.088
Mof_C 	C 	0.75	0.11158	0.75	0.388
Mof_C 	C 	0.75	0.05369	0.75	-0.088
Mof_C 	C 	0.25	0.11158	0.25	0.388
Mof_C 	C 	0.25	0.05369	0.25	-0.088
Mof_C 	C 	0.75	0.38842	0.75	0.388
Mof_C 	C 	0.75	0.44631	0.75	-0.088
Mof_C 	C 	0.75	0.88842	0.25	0.388
Mof_C 	C 	0.75	0.94631	0.25	-0.088
Mof_C 	C 	0.25	0.61158	0.75	0.388
Mof_C 	C 	0.25	0.55369	0.75	-0.088
Mof_C 	C 	0.25	0.25	0.38842	0.388
Mof_C 	C 	0.25	0.25	0.44631	-0.088
Mof_C 	C 	0.25	0.75	0.88842	0.388
Mof_C 	C 	0.25	0.75	0.94631	-0.088
Mof_C 	C 	0.25	0.75	0.61158	0.388
Mof_C 	C 	0.25	0.75	0.55369	-0.088
Mof_C 	C 	0.25	0.25	0.11158	0.388
Mof_C 	C 	0.25	0.25	0.05369	-0.088
Mof_C 	C 	0.75	0.75	0.38842	0.388
Mof_C 	C 	0.75	0.75	0.44631	-0.088
Mof_C 	C 	0.75	0.25	0.88842	0.388
Mof_C 	C 	0.75	0.25	0.94631	-0.088
Mof_C 	C 	0.75	0.25	0.61158	0.388
Mof_C 	C 	0.75	0.25	0.55369	-0.088
Mof_C 	C 	0.75	0.75	0.11158	0.388
Mof_C 	C 	0.75	0.75	0.05369	-0.088
Mof_C 	C 	0.38842	0.25	0.25	0.388
Mof_C 	C 	0.44631	0.25	0.25	-0.088
Mof_C 	C 	0.88842	0.25	0.75	0.388
Mof_C 	C 	0.94631	0.25	0.75	-0.088
Mof_C 	C 	0.61158	0.25	0.75	0.388
Mof_C 	C 	0.55369	0.25	0.75	-0.088
Mof_C 	C 	0.11158	0.25	0.25	0.388
Mof_C 	C 	0.05369	0.25	0.25	-0.088
Mof_C 	C 	0.38842	0.75	0.75	0.388
Mof_C 	C 	0.44631	0.75	0.75	-0.088
Mof_C 	C 	0.88842	0.75	0.25	0.388
Mof_C 	C 	0.94631	0.75	0.25	-0.088
Mof_C 	C 	0.61158	0.75	0.25	0.388
Mof_C 	C 	0.55369	0.75	0.25	-0.088
Mof_C 	C 	0.11158	0.75	0.75	0.388
Mof_C 	C 	0.05369	0.75	0.75	-0.088
Mof_C 	C 	0.38842	0.25	0.75	0.388
Mof_C 	C 	0.44631	0.25	0.75	-0.088
Mof_C 	C 	0.88842	0.25	0.25	0.388
Mof_C 	C 	0.94631	0.25	0.25	-0.088
Mof_C 	C 	0.61158	0.75	0.75	0.388
Mof_C 	C 	0.55369	0.75	0.75	-0.088
Mof_C 	C 	0.61158	0.25	0.25	0.388
Mof_C 	C 	0.55369	0.25	0.25	-0.088
Mof_C 	C 	0.11158	0.75	0.25	0.388
Mof_C 	C 	0.05369	0.75	0.25	-0.088
Mof_C 	C 	0.38842	0.75	0.25	0.388
Mof_C 	C 	0.44631	0.75	0.25	-0.088
Mof_C 	C 	0.88842	0.75	0.75	0.388
Mof_C 	C 	0.94631	0.75	0.75	-0.088
Mof_C 	C 	0.11158	0.25	0.75	0.388
Mof_C 	C 	0.05369	0.25	0.75	-0.088
Mof_C 	C 	0.25	0.25	0.61158	0.388
Mof_C 	C 	0.25	0.25	0.55369	-0.088
Mof_C 	C 	0.25	0.75	0.11158	0.388
Mof_C 	C 	0.25	0.75	0.05369	-0.088
Mof_C 	C 	0.75	0.25	0.38842	0.388
Mof_C 	C 	0.75	0.25	0.44631	-0.088
Mof_C 	C 	0.75	0.75	0.88842	0.388
Mof_C 	C 	0.75	0.75	0.94631	-0.088
Mof_C 	C 	0.25	0.25	0.88842	0.388
Mof_C 	C 	0.25	0.25	0.94631	-0.088
Mof_C 	C 	0.75	0.75	0.61158	0.388
Mof_C 	C 	0.75	0.75	0.55369	-0.088
Mof_C 	C 	0.75	0.25	0.11158	0.388
Mof_C 	C 	0.75	0.25	0.05369	-0.088
Mof_C 	C 	0.25	0.75	0.38842	0.388
Mof_C 	C 	0.25	0.75	0.44631	-0.088
Mof_C 	C 	0.25	0.38842	0.75	0.388
Mof_C 	C 	0.25	0.44631	0.75	-0.088
Mof_C 	C 	0.25	0.88842	0.25	0.388
Mof_C 	C 	0.25	0.94631	0.25	-0.088
Mof_C 	C 	0.25	0.61158	0.25	0.388
Mof_C 	C 	0.25	0.55369	0.25	-0.088
Mof_C 	C 	0.25	0.11158	0.75	0.388
Mof_C 	C 	0.25	0.05369	0.75	-0.088
Mof_C 	C 	0.75	0.38842	0.25	0.388
Mof_C 	C 	0.75	0.44631	0.25	-0.088
Mof_C 	C 	0.75	0.88842	0.75	0.388
Mof_C 	C 	0.75	0.94631	0.75	-0.088
Mof_C 	C 	0.75	0.61158	0.75	0.388
Mof_C 	C 	0.75	0.55369	0.75	-0.088
Mof_C 	C 	0.75	0.11158	0.25	0.388
Mof_C 	C 	0.75	0.05369	0.25	-0.088
_end
