data_functionalizedCrystal
_audit_creation_method	'EQeq! by Chris Wilmer'
_symmetry_space_group_name_H-M	'P1'
_symmetry_Int_Tables_number	1
_symmetry_cell_setting	triclinic
loop_
_symmetry_equiv_pos_as_xyz
  x,y,z
_cell_length_a	33.6189
_cell_length_b	7.053
_cell_length_c	20.3468
_cell_angle_alpha	90
_cell_angle_beta	116.039
_cell_angle_gamma	90
loop_
_atom_site_label
_atom_site_type_symbol
_atom_site_fract_x
_atom_site_fract_y
_atom_site_fract_z
_atom_site_charge
Mof_N 	N 	0.14554	0.1567	0.54656	-0.106
Mof_N 	N 	0.1987	0.9221	0.51025	-0.231
Mof_N 	N 	0.3291	0.0295	0.58924	-0.1
Mof_N 	N 	0.28617	0.9726	0.5603	-0.246
Mof_N 	N 	0.28889	0.2509	0.6132	-0.145
Mof_N 	N 	0.44635	0.5351	0.71361	-0.252
Mof_O 	O 	0.4609	0.9526	0.7833	-0.117
Mof_O 	O 	0.5213	0.836	0.8548	-0.49
Mof_O 	O 	0.44968	0.1574	0.0922	-0.185
Mof_O 	O 	0.5134	0.1219	0.1872	-0.451
Mof_C 	C 	0.15623	0.8834	0.48899	0.021
Mof_H 	H 	0.144	0.775	0.4615	0.019
Mof_C 	C 	0.13	0.0011	0.50703	-0.013
Mof_H 	H 	0.1003	0.9704	0.4909	0.052
Mof_C 	C 	0.18856	0.1954	0.56837	0.013
Mof_H 	H 	0.2006	0.304	0.5959	0.024
Mof_C 	C 	0.21558	0.0782	0.55097	-0.011
Mof_C 	C 	0.26344	0.1066	0.5754	0.073
Mof_C 	C 	0.32922	0.1964	0.62006	0.081
Mof_C 	C 	0.36997	0.3108	0.65507	0.063
Mof_C 	C 	0.4087	0.2502	0.65436	-0.139
Mof_H 	H 	0.4101	0.1329	0.6346	0.094
Mof_C 	C 	0.44557	0.3665	0.68354	0.091
Mof_H 	H 	0.4714	0.3244	0.6821	-0.015
Mof_C 	C 	0.37033	0.485	0.68654	-0.136
Mof_H 	H 	0.3449	0.5299	0.6888	0.067
Mof_C 	C 	0.4086	0.5918	0.71458	0.074
Mof_H 	H 	0.4082	0.709	0.7352	0.001
Mof_C 	C 	0.4928	0.9582	0.842	0.271
Mof_C 	C 	0.498	0.107	0.897	-0.129
Mof_C 	C 	0.5345	0.102	0.9647	0.063
Mof_C 	C 	0.5412	0.2458	0.0152	0.042
Mof_C 	C 	0.5123	0.396	0.9969	-0
Mof_C 	C 	0.4764	0.4029	0.9302	-0.036
Mof_C 	C 	0.4683	0.259	0.8783	0.01
Mof_C 	C 	0.494	0.901	0.092	-0.113
Mof_C 	C 	0.5322	0.793	0.1326	0.076
Mof_C 	C 	0.5403	0.6245	0.1058	-0.138
Mof_C 	C 	0.512	0.5625	0.0369	0.211
Mof_C 	C 	0.4752	0.67	0.9948	-0.21
Mof_C 	C 	0.4657	0.839	0.0212	0.021
Mof_C 	C 	0.45042	0.579	0.9215	-0.137
Mof_C 	C 	0.4844	0.0792	0.123	0.469
Mof_H 	H 	0.4205	0.551	0.9125	0.074
Mof_H 	H 	0.4431	0.2635	0.8314	0.002
Mof_H 	H 	0.555	0.9978	0.9771	0.038
Mof_H 	H 	0.5661	0.2408	0.0625	0.032
Mof_H 	H 	0.5659	0.5506	0.1355	0.084
Mof_H 	H 	0.5526	0.8379	0.1801	0.002
Mof_H 	H 	0.44	0.9118	0.9913	0.039
Mof_H 	H 	0.4502	0.6577	0.8829	0.073
Mof_N 	N 	0.64554	0.6567	0.54656	-0.11
Mof_N 	N 	0.6987	0.4221	0.51025	-0.232
Mof_N 	N 	0.8291	0.5295	0.58924	-0.101
Mof_N 	N 	0.78617	0.4726	0.5603	-0.248
Mof_N 	N 	0.78889	0.7509	0.6132	-0.145
Mof_N 	N 	0.94635	0.0351	0.71361	-0.248
Mof_O 	O 	0.9609	0.4526	0.7833	-0.126
Mof_O 	O 	0.0213	0.336	0.8548	-0.532
Mof_O 	O 	0.94968	0.6574	0.0922	-0.184
Mof_O 	O 	0.0134	0.6219	0.1872	-0.504
Mof_C 	C 	0.65623	0.3834	0.48899	0.013
Mof_H 	H 	0.644	0.275	0.4615	0.021
Mof_C 	C 	0.63	0.5011	0.50703	-0.003
Mof_H 	H 	0.6003	0.4704	0.4909	0.046
Mof_C 	C 	0.68856	0.6954	0.56837	0.013
Mof_H 	H 	0.7006	0.804	0.5959	0.024
Mof_C 	C 	0.71558	0.5782	0.55097	-0.01
Mof_C 	C 	0.76344	0.6066	0.5754	0.074
Mof_C 	C 	0.82922	0.6964	0.62006	0.084
Mof_C 	C 	0.86997	0.8108	0.65507	0.055
Mof_C 	C 	0.9087	0.7502	0.65436	-0.133
Mof_H 	H 	0.9101	0.6329	0.6346	0.093
Mof_C 	C 	0.94557	0.8665	0.68354	0.092
Mof_H 	H 	0.9714	0.8244	0.6821	-0.008
Mof_C 	C 	0.87033	0.985	0.68654	-0.115
Mof_H 	H 	0.8449	0.0299	0.6888	0.056
Mof_C 	C 	0.9086	0.0918	0.71458	0.057
Mof_H 	H 	0.9082	0.209	0.7352	0.004
Mof_C 	C 	0.9928	0.4582	0.842	0.223
Mof_C 	C 	0.998	0.607	0.897	-0.153
Mof_C 	C 	0.0345	0.602	0.9647	-0.042
Mof_C 	C 	0.0412	0.7458	0.0152	0.208
Mof_C 	C 	0.0123	0.896	0.9969	-0.148
Mof_C 	C 	0.9764	0.9029	0.9302	0.029
Mof_C 	C 	0.9683	0.759	0.8783	0.011
Mof_C 	C 	0.994	0.401	0.092	-0.148
Mof_C 	C 	0.0322	0.293	0.1326	-0.017
Mof_C 	C 	0.0403	0.1245	0.1058	0.055
Mof_C 	C 	0.012	0.0625	0.0369	0.009
Mof_C 	C 	0.9752	0.17	0.9948	-0.111
Mof_C 	C 	0.9657	0.339	0.0212	0.008
Mof_C 	C 	0.95042	0.079	0.9215	-0.321
Mof_C 	C 	0.9844	0.5792	0.123	0.441
Mof_H 	H 	0.9205	0.051	0.9125	0.122
Mof_H 	H 	0.9431	0.7635	0.8314	0.003
Mof_H 	H 	0.055	0.4978	0.9771	0.065
Mof_H 	H 	0.0661	0.7408	0.0625	-0.03
Mof_H 	H 	0.0659	0.0506	0.1355	0.009
Mof_H 	H 	0.0526	0.3379	0.1801	0.029
Mof_H 	H 	0.94	0.4118	0.9913	0.037
Mof_H 	H 	0.9502	0.1577	0.8829	0.126
Mof_N 	N 	0.85446	0.1567	0.95344	-0.126
Mof_N 	N 	0.8013	0.9221	0.98975	-0.201
Mof_N 	N 	0.6709	0.0295	0.91076	-0.098
Mof_N 	N 	0.71383	0.9726	0.9397	-0.241
Mof_N 	N 	0.71111	0.2509	0.8868	-0.144
Mof_N 	N 	0.55365	0.5351	0.78639	-0.251
Mof_O 	O 	0.5391	0.9526	0.7167	-0.118
Mof_O 	O 	0.4787	0.836	0.6452	-0.467
Mof_O 	O 	0.55032	0.1574	0.4078	-0.184
Mof_O 	O 	0.4866	0.1219	0.3128	-0.443
Mof_C 	C 	0.84377	0.8834	0.01101	-0.075
Mof_H 	H 	0.856	0.775	0.0385	0.048
Mof_C 	C 	0.87	0.0011	0.99297	0.092
Mof_H 	H 	0.8997	0.9704	0.0091	0
Mof_C 	C 	0.81144	0.1954	0.93163	0.026
Mof_H 	H 	0.7994	0.304	0.9041	0.021
Mof_C 	C 	0.78442	0.0782	0.94903	-0.016
Mof_C 	C 	0.73656	0.1066	0.9246	0.079
Mof_C 	C 	0.67078	0.1964	0.87994	0.083
Mof_C 	C 	0.63003	0.3108	0.84493	0.065
Mof_C 	C 	0.5913	0.2502	0.84564	-0.138
Mof_H 	H 	0.5899	0.1329	0.8654	0.095
Mof_C 	C 	0.55443	0.3665	0.81646	0.091
Mof_H 	H 	0.5286	0.3244	0.8179	-0.015
Mof_C 	C 	0.62967	0.485	0.81346	-0.136
Mof_H 	H 	0.6551	0.5299	0.8112	0.067
Mof_C 	C 	0.5914	0.5918	0.78542	0.074
Mof_H 	H 	0.5918	0.709	0.7648	-0
Mof_C 	C 	0.5072	0.9582	0.658	0.284
Mof_C 	C 	0.502	0.107	0.603	-0.067
Mof_C 	C 	0.4655	0.102	0.5353	-0.091
Mof_C 	C 	0.4588	0.2458	0.4848	0.207
Mof_C 	C 	0.4877	0.396	0.5031	-0.07
Mof_C 	C 	0.5236	0.4029	0.5698	-0.009
Mof_C 	C 	0.5317	0.259	0.6217	-0.022
Mof_C 	C 	0.506	0.901	0.408	-0.115
Mof_C 	C 	0.4678	0.793	0.3674	0.081
Mof_C 	C 	0.4597	0.6245	0.3942	-0.129
Mof_C 	C 	0.488	0.5625	0.4631	0.189
Mof_C 	C 	0.5248	0.67	0.5052	-0.154
Mof_C 	C 	0.5343	0.839	0.4788	0.007
Mof_C 	C 	0.54958	0.579	0.5785	-0.203
Mof_C 	C 	0.5156	0.0792	0.377	0.508
Mof_H 	H 	0.5795	0.551	0.5875	0.088
Mof_H 	H 	0.5569	0.2635	0.6686	0.016
Mof_H 	H 	0.445	0.9978	0.5229	0.068
Mof_H 	H 	0.4339	0.2408	0.4375	-0.024
Mof_H 	H 	0.4341	0.5506	0.3645	0.08
Mof_H 	H 	0.4474	0.8379	0.3199	0.007
Mof_H 	H 	0.56	0.9118	0.5087	0.008
Mof_H 	H 	0.5498	0.6577	0.6171	0.09
Mof_N 	N 	0.35446	0.6567	0.95344	-0.127
Mof_N 	N 	0.3013	0.4221	0.98975	-0.2
Mof_N 	N 	0.1709	0.5295	0.91076	-0.097
Mof_N 	N 	0.21383	0.4726	0.9397	-0.243
Mof_N 	N 	0.21111	0.7509	0.8868	-0.143
Mof_N 	N 	0.05365	0.0351	0.78639	-0.254
Mof_O 	O 	0.0391	0.4526	0.7167	-0.111
Mof_O 	O 	0.9787	0.336	0.6452	-0.419
Mof_O 	O 	0.05032	0.6574	0.4078	-0.184
Mof_O 	O 	0.9866	0.6219	0.3128	-0.388
Mof_C 	C 	0.34377	0.3834	0.01101	-0.088
Mof_H 	H 	0.356	0.275	0.0385	0.051
Mof_C 	C 	0.37	0.5011	0.99297	0.11
Mof_H 	H 	0.3997	0.4704	0.0091	-0.009
Mof_C 	C 	0.31144	0.6954	0.93163	0.027
Mof_H 	H 	0.2994	0.804	0.9041	0.023
Mof_C 	C 	0.28442	0.5782	0.94903	-0.014
Mof_C 	C 	0.23656	0.6066	0.9246	0.081
Mof_C 	C 	0.17078	0.6964	0.87994	0.086
Mof_C 	C 	0.13003	0.8108	0.84493	0.059
Mof_C 	C 	0.0913	0.7502	0.84564	-0.138
Mof_H 	H 	0.0899	0.6329	0.8654	0.095
Mof_C 	C 	0.05443	0.8665	0.81646	0.094
Mof_H 	H 	0.0286	0.8244	0.8179	-0.022
Mof_C 	C 	0.12967	0.985	0.81346	-0.116
Mof_H 	H 	0.1551	0.0299	0.8112	0.059
Mof_C 	C 	0.0914	0.0918	0.78542	0.062
Mof_H 	H 	0.0918	0.209	0.7648	0.006
Mof_C 	C 	0.0072	0.4582	0.658	0.332
Mof_C 	C 	0.002	0.607	0.603	-0.038
Mof_C 	C 	0.9655	0.602	0.5353	0.01
Mof_C 	C 	0.9588	0.7458	0.4848	0.04
Mof_C 	C 	0.9877	0.896	0.5031	0.08
Mof_C 	C 	0.0236	0.9029	0.5698	-0.071
Mof_C 	C 	0.0317	0.759	0.6217	-0.025
Mof_C 	C 	0.006	0.401	0.408	-0.081
Mof_C 	C 	0.9678	0.293	0.3674	0.17
Mof_C 	C 	0.9597	0.1245	0.3942	-0.311
Mof_C 	C 	0.988	0.0625	0.4631	0.377
Mof_C 	C 	0.0248	0.17	0.5052	-0.242
Mof_C 	C 	0.0343	0.339	0.4788	0.011
Mof_C 	C 	0.04958	0.079	0.5785	-0.039
Mof_C 	C 	0.0156	0.5792	0.377	0.545
Mof_H 	H 	0.0795	0.051	0.5875	0.043
Mof_H 	H 	0.0569	0.7635	0.6686	0.017
Mof_H 	H 	0.945	0.4978	0.5229	0.037
Mof_H 	H 	0.9339	0.7408	0.4375	0.038
Mof_H 	H 	0.9341	0.0506	0.3645	0.147
Mof_H 	H 	0.9474	0.3379	0.3199	-0.021
Mof_H 	H 	0.06	0.4118	0.5087	0.005
Mof_H 	H 	0.0498	0.1577	0.6171	0.041
Mof_N 	N 	0.85446	0.8433	0.45344	-0.114
Mof_N 	N 	0.8013	0.0779	0.48975	-0.232
Mof_N 	N 	0.6709	0.9705	0.41076	-0.098
Mof_N 	N 	0.71383	0.0274	0.4397	-0.252
Mof_N 	N 	0.71111	0.7491	0.3868	-0.146
Mof_N 	N 	0.55365	0.4649	0.28639	-0.252
Mof_O 	O 	0.5391	0.0474	0.2167	-0.123
Mof_O 	O 	0.4787	0.164	0.1452	-0.442
Mof_O 	O 	0.55032	0.8426	0.9078	-0.182
Mof_O 	O 	0.4866	0.8781	0.8128	-0.437
Mof_C 	C 	0.84377	0.1166	0.51101	0.001
Mof_H 	H 	0.856	0.225	0.5385	0.025
Mof_C 	C 	0.87	0.9989	0.49297	0.012
Mof_H 	H 	0.8997	0.0296	0.5091	0.038
Mof_C 	C 	0.81144	0.8046	0.43163	0.014
Mof_H 	H 	0.7994	0.696	0.4041	0.022
Mof_C 	C 	0.78442	0.9218	0.44903	-0.009
Mof_C 	C 	0.73656	0.8934	0.4246	0.077
Mof_C 	C 	0.67078	0.8036	0.37994	0.081
Mof_C 	C 	0.63003	0.6892	0.34493	0.063
Mof_C 	C 	0.5913	0.7498	0.34564	-0.14
Mof_H 	H 	0.5899	0.8671	0.3654	0.095
Mof_C 	C 	0.55443	0.6335	0.31646	0.09
Mof_H 	H 	0.5286	0.6756	0.3179	-0.015
Mof_C 	C 	0.62967	0.515	0.31346	-0.137
Mof_H 	H 	0.6551	0.4701	0.3112	0.065
Mof_C 	C 	0.5914	0.4082	0.28542	0.073
Mof_H 	H 	0.5918	0.291	0.2648	-0.002
Mof_C 	C 	0.5072	0.0418	0.158	0.294
Mof_C 	C 	0.502	0.893	0.103	-0.004
Mof_C 	C 	0.4655	0.898	0.0353	-0.241
Mof_C 	C 	0.4588	0.7542	0.9848	0.36
Mof_C 	C 	0.4877	0.604	0.0031	-0.129
Mof_C 	C 	0.5236	0.5971	0.0698	0.015
Mof_C 	C 	0.5317	0.741	0.1217	-0.055
Mof_C 	C 	0.506	0.099	0.908	-0.121
Mof_C 	C 	0.4678	0.207	0.8674	0.091
Mof_C 	C 	0.4597	0.3755	0.8942	-0.13
Mof_C 	C 	0.488	0.4375	0.9631	0.177
Mof_C 	C 	0.5248	0.33	0.0052	-0.1
Mof_C 	C 	0.5343	0.161	0.9788	-0.01
Mof_C 	C 	0.54958	0.421	0.0785	-0.261
Mof_C 	C 	0.5156	0.9208	0.877	0.552
Mof_H 	H 	0.5795	0.449	0.0875	0.1
Mof_H 	H 	0.5569	0.7365	0.1686	0.03
Mof_H 	H 	0.445	0.0022	0.0229	0.09
Mof_H 	H 	0.4339	0.7592	0.9375	-0.076
Mof_H 	H 	0.4341	0.4494	0.8645	0.079
Mof_H 	H 	0.4474	0.1621	0.8199	0.008
Mof_H 	H 	0.56	0.0882	0.0087	-0.028
Mof_H 	H 	0.5498	0.3423	0.1171	0.105
Mof_N 	N 	0.35446	0.3433	0.45344	-0.11
Mof_N 	N 	0.3013	0.5779	0.48975	-0.232
Mof_N 	N 	0.1709	0.4705	0.41076	-0.1
Mof_N 	N 	0.21383	0.5274	0.4397	-0.248
Mof_N 	N 	0.21111	0.2491	0.3868	-0.145
Mof_N 	N 	0.05365	0.9649	0.28639	-0.254
Mof_O 	O 	0.0391	0.5474	0.2167	-0.113
Mof_O 	O 	0.9787	0.664	0.1452	-0.401
Mof_O 	O 	0.05032	0.3426	0.9078	-0.183
Mof_O 	O 	0.9866	0.3781	0.8128	-0.38
Mof_C 	C 	0.34377	0.6166	0.51101	0.013
Mof_H 	H 	0.356	0.725	0.5385	0.022
Mof_C 	C 	0.37	0.4989	0.49297	-0.002
Mof_H 	H 	0.3997	0.5296	0.5091	0.046
Mof_C 	C 	0.31144	0.3046	0.43163	0.013
Mof_H 	H 	0.2994	0.196	0.4041	0.022
Mof_C 	C 	0.28442	0.4218	0.44903	-0.011
Mof_C 	C 	0.23656	0.3934	0.4246	0.074
Mof_C 	C 	0.17078	0.3036	0.37994	0.078
Mof_C 	C 	0.13003	0.1892	0.34493	0.068
Mof_C 	C 	0.0913	0.2498	0.34564	-0.145
Mof_H 	H 	0.0899	0.3671	0.3654	0.095
Mof_C 	C 	0.05443	0.1335	0.31646	0.09
Mof_H 	H 	0.0286	0.1756	0.3179	-0.022
Mof_C 	C 	0.12967	0.015	0.31346	-0.149
Mof_H 	H 	0.1551	0.9701	0.3112	0.072
Mof_C 	C 	0.0914	0.9082	0.28542	0.083
Mof_H 	H 	0.0918	0.791	0.2648	-0.002
Mof_C 	C 	0.0072	0.5418	0.158	0.336
Mof_C 	C 	0.002	0.393	0.103	0.01
Mof_C 	C 	0.9655	0.398	0.0353	-0.105
Mof_C 	C 	0.9588	0.2542	0.9848	0.145
Mof_C 	C 	0.9877	0.104	0.0031	0.052
Mof_C 	C 	0.0236	0.0971	0.0698	-0.069
Mof_C 	C 	0.0317	0.241	0.1217	-0.05
Mof_C 	C 	0.006	0.599	0.908	-0.081
Mof_C 	C 	0.9678	0.707	0.8674	0.163
Mof_C 	C 	0.9597	0.8755	0.8942	-0.282
Mof_C 	C 	0.988	0.9375	0.9631	0.344
Mof_C 	C 	0.0248	0.83	0.0052	-0.174
Mof_C 	C 	0.0343	0.661	0.9788	-0.006
Mof_C 	C 	0.04958	0.921	0.0785	-0.079
Mof_C 	C 	0.0156	0.4208	0.877	0.586
Mof_H 	H 	0.0795	0.949	0.0875	0.053
Mof_H 	H 	0.0569	0.2365	0.1686	0.026
Mof_H 	H 	0.945	0.5022	0.0229	0.053
Mof_H 	H 	0.9339	0.2592	0.9375	0.001
Mof_H 	H 	0.9341	0.9494	0.8645	0.141
Mof_H 	H 	0.9474	0.6621	0.8199	-0.012
Mof_H 	H 	0.06	0.5882	0.0087	-0.024
Mof_H 	H 	0.0498	0.8423	0.1171	0.053
Mof_N 	N 	0.14554	0.8433	0.04656	-0.095
Mof_N 	N 	0.1987	0.0779	0.01025	-0.261
Mof_N 	N 	0.3291	0.9705	0.08924	-0.101
Mof_N 	N 	0.28617	0.0274	0.0603	-0.254
Mof_N 	N 	0.28889	0.7491	0.1132	-0.147
Mof_N 	N 	0.44635	0.4649	0.21361	-0.252
Mof_O 	O 	0.4609	0.0474	0.2833	-0.122
Mof_O 	O 	0.5213	0.164	0.3548	-0.465
Mof_O 	O 	0.44968	0.8426	0.5922	-0.184
Mof_O 	O 	0.5134	0.8781	0.6872	-0.446
Mof_C 	C 	0.15623	0.1166	0.98899	0.099
Mof_H 	H 	0.144	0.225	0.9615	-0.004
Mof_C 	C 	0.13	0.9989	0.00703	-0.094
Mof_H 	H 	0.1003	0.0296	0.9909	0.091
Mof_C 	C 	0.18856	0.8046	0.06837	0.001
Mof_H 	H 	0.2006	0.696	0.0959	0.024
Mof_C 	C 	0.21558	0.9218	0.05097	-0.004
Mof_C 	C 	0.26344	0.8934	0.0754	0.071
Mof_C 	C 	0.32922	0.8036	0.12006	0.078
Mof_C 	C 	0.36997	0.6892	0.15507	0.062
Mof_C 	C 	0.4087	0.7498	0.15436	-0.141
Mof_H 	H 	0.4101	0.8671	0.1346	0.094
Mof_C 	C 	0.44557	0.6335	0.18354	0.09
Mof_H 	H 	0.4714	0.6756	0.1821	-0.015
Mof_C 	C 	0.37033	0.515	0.18654	-0.136
Mof_H 	H 	0.3449	0.4701	0.1888	0.065
Mof_C 	C 	0.4086	0.4082	0.21458	0.072
Mof_H 	H 	0.4082	0.291	0.2352	-0.001
Mof_C 	C 	0.4928	0.0418	0.342	0.281
Mof_C 	C 	0.498	0.893	0.397	-0.066
Mof_C 	C 	0.5345	0.898	0.4647	-0.087
Mof_C 	C 	0.5412	0.7542	0.5152	0.195
Mof_C 	C 	0.5123	0.604	0.4969	-0.059
Mof_C 	C 	0.4764	0.5971	0.4302	-0.012
Mof_C 	C 	0.4683	0.741	0.3783	-0.023
Mof_C 	C 	0.494	0.099	0.592	-0.119
Mof_C 	C 	0.5322	0.207	0.6326	0.086
Mof_C 	C 	0.5403	0.3755	0.6058	-0.139
Mof_C 	C 	0.512	0.4375	0.5369	0.199
Mof_C 	C 	0.4752	0.33	0.4948	-0.156
Mof_C 	C 	0.4657	0.161	0.5212	0.004
Mof_C 	C 	0.45042	0.421	0.4215	-0.195
Mof_C 	C 	0.4844	0.9208	0.623	0.513
Mof_H 	H 	0.4205	0.449	0.4125	0.086
Mof_H 	H 	0.4431	0.7365	0.3314	0.016
Mof_H 	H 	0.555	0.0022	0.4771	0.061
Mof_H 	H 	0.5661	0.7592	0.5625	-0.02
Mof_H 	H 	0.5659	0.4494	0.6355	0.083
Mof_H 	H 	0.5526	0.1621	0.6801	0.003
Mof_H 	H 	0.44	0.0882	0.4913	0.003
Mof_H 	H 	0.4502	0.3423	0.3829	0.088
Mof_N 	N 	0.64554	0.3433	0.04656	-0.094
Mof_N 	N 	0.6987	0.5779	0.01025	-0.262
Mof_N 	N 	0.8291	0.4705	0.08924	-0.103
Mof_N 	N 	0.78617	0.5274	0.0603	-0.25
Mof_N 	N 	0.78889	0.2491	0.1132	-0.147
Mof_N 	N 	0.94635	0.9649	0.21361	-0.248
Mof_O 	O 	0.9609	0.5474	0.2833	-0.128
Mof_O 	O 	0.0213	0.664	0.3548	-0.508
Mof_O 	O 	0.94968	0.3426	0.5922	-0.183
Mof_O 	O 	0.0134	0.3781	0.6872	-0.501
Mof_C 	C 	0.65623	0.6166	0.98899	0.114
Mof_H 	H 	0.644	0.725	0.9615	-0.008
Mof_C 	C 	0.63	0.4989	0.00703	-0.114
Mof_H 	H 	0.6003	0.5296	0.9909	0.101
Mof_C 	C 	0.68856	0.3046	0.06837	-0
Mof_H 	H 	0.7006	0.196	0.0959	0.023
Mof_C 	C 	0.71558	0.4218	0.05097	-0.006
Mof_C 	C 	0.76344	0.3934	0.0754	0.068
Mof_C 	C 	0.82922	0.3036	0.12006	0.076
Mof_C 	C 	0.86997	0.1892	0.15507	0.065
Mof_C 	C 	0.9087	0.2498	0.15436	-0.14
Mof_H 	H 	0.9101	0.3671	0.1346	0.093
Mof_C 	C 	0.94557	0.1335	0.18354	0.088
Mof_H 	H 	0.9714	0.1756	0.1821	-0.008
Mof_C 	C 	0.87033	0.015	0.18654	-0.148
Mof_H 	H 	0.8449	0.9701	0.1888	0.07
Mof_C 	C 	0.9086	0.9082	0.21458	0.079
Mof_H 	H 	0.9082	0.791	0.2352	-0.004
Mof_C 	C 	0.9928	0.5418	0.342	0.237
Mof_C 	C 	0.998	0.393	0.397	-0.088
Mof_C 	C 	0.0345	0.398	0.4647	-0.21
Mof_C 	C 	0.0412	0.2542	0.5152	0.398
Mof_C 	C 	0.0123	0.104	0.4969	-0.234
Mof_C 	C 	0.9764	0.0971	0.4302	0.063
Mof_C 	C 	0.9683	0.241	0.3783	-0.025
Mof_C 	C 	0.994	0.599	0.592	-0.159
Mof_C 	C 	0.0322	0.707	0.6326	0.012
Mof_C 	C 	0.0403	0.8755	0.6058	0.012
Mof_C 	C 	0.012	0.9375	0.5369	0.037
Mof_C 	C 	0.9752	0.83	0.4948	-0.084
Mof_C 	C 	0.9657	0.661	0.5212	0.006
Mof_C 	C 	0.95042	0.921	0.4215	-0.36
Mof_C 	C 	0.9844	0.4208	0.623	0.47
Mof_H 	H 	0.9205	0.949	0.4125	0.131
Mof_H 	H 	0.9431	0.2365	0.3314	0.018
Mof_H 	H 	0.055	0.5022	0.4771	0.1
Mof_H 	H 	0.0661	0.2592	0.5625	-0.093
Mof_H 	H 	0.0659	0.9494	0.6355	0.026
Mof_H 	H 	0.0526	0.6621	0.6801	0.024
Mof_H 	H 	0.94	0.5882	0.4913	0.004
Mof_H 	H 	0.9502	0.8423	0.3829	0.137
Mof_Zn	Zn	0.5	0.71631	0.75	1.249
Mof_Zn	Zn	-5.24531e-17	0.21631	0.75	1.242
Mof_Zn	Zn	0.5	0.28369	0.25	1.248
Mof_Zn	Zn	8.16338e-34	0.78369	0.25	1.241
Mof_Zn	Zn	0.25	0.75	0.5	1.155
Mof_Zn	Zn	0.75	0.75	-0	1.148
Mof_Zn	Zn	0.75	0.25	0.5	1.154
Mof_Zn	Zn	0.25	0.25	-0	1.148
_end
