data_functionalizedCrystal
_audit_creation_method	'EQeq! by Chris Wilmer'
_symmetry_space_group_name_H-M	'P1'
_symmetry_Int_Tables_number	1
_symmetry_cell_setting	triclinic
loop_
_symmetry_equiv_pos_as_xyz
  x,y,z
_cell_length_a	12.1479
_cell_length_b	13.0321
_cell_length_c	13.1281
_cell_angle_alpha	64.689
_cell_angle_beta	89.711
_cell_angle_gamma	64.509
loop_
_atom_site_label
_atom_site_type_symbol
_atom_site_fract_x
_atom_site_fract_y
_atom_site_fract_z
_atom_site_charge
Mof_Cu	Cu	0.7956	0.5187	0.7118	0.925
Mof_Cu	Cu	0.9347	0.3731	0.39	0.883
Mof_N 	N 	0.667	0.639	0.753	-0.267
Mof_N 	N 	0.627	0.382	0.956	-0.178
Mof_N 	N 	0.791	0.518	0.391	-0.273
Mof_N 	N 	0.998	0.334	0.542	-0.071
Mof_N 	N 	0.809	0.202	0.19	-0.335
Mof_H 	H 	0.8778	0.205	0.1808	-0.152
Mof_H 	H 	0.7386	0.2705	0.1519	0.156
Mof_N 	N 	0.682	0.272	0.485	-0.124
Mof_O 	O 	0.886	0.617	0.678	-0.531
Mof_O 	O 	0.914	0.782	0.611	-0.664
Mof_O 	O 	0.529	0.633	0.8768	-0.332
Mof_O 	O 	0.75	0.393	0.82	-0.333
Mof_O 	O 	0.848	0.383	0.262	-0.574
Mof_O 	O 	0.692	0.453	0.13	-0.391
Mof_O 	O 	0.716	0.583	0.528	-0.324
Mof_O 	O 	0.93	0.39	0.683	-0.314
Mof_O 	O 	0.87	0.108	0.495	-0.791
Mof_C 	C 	0.714	0.82	0.653	-0.361
Mof_C 	C 	0.677	0.947	0.605	0.278
Mof_H 	H 	0.7338	0.9763	0.5754	-0.12
Mof_C 	C 	0.558	0.036	0.6	-0.337
Mof_H 	H 	0.5338	0.1241	0.5638	0.141
Mof_C 	C 	0.478	0.992	0.648	0.236
Mof_H 	H 	0.3992	0.0502	0.6477	-0.048
Mof_C 	C 	0.512	0.864	0.698	-0.3
Mof_H 	H 	0.4551	0.8369	0.7299	0.147
Mof_C 	C 	0.63	0.773	0.702	0.244
Mof_C 	C 	0.616	0.583	0.831	0.128
Mof_C 	C 	0.669	0.44	0.871	0.122
Mof_C 	C 	0.694	0.241	0.013	-0.206
Mof_H 	H 	0.7024	0.2114	0.9558	0.129
Mof_H 	H 	0.647	0.207	0.0651	0.073
Mof_C 	C 	0.824	0.191	0.082	0.048
Mof_H 	H 	0.8767	0.1014	0.1005	-0.003
Mof_H 	H 	0.863	0.2409	0.0362	-0.016
Mof_C 	C 	0.843	0.732	0.65	0.494
Mof_C 	C 	0.674	0.599	0.2	-0.266
Mof_C 	C 	0.583	0.704	0.1	0.153
Mof_H 	H 	0.5691	0.6903	0.0381	-0.031
Mof_C 	C 	0.515	0.821	0.09	-0.229
Mof_H 	H 	0.4563	0.8882	0.023	0.097
Mof_C 	C 	0.535	0.842	0.185	0.131
Mof_H 	H 	0.4908	0.9234	0.1794	-0.026
Mof_C 	C 	0.62	0.742	0.284	-0.241
Mof_H 	H 	0.6288	0.7549	0.3468	0.122
Mof_C 	C 	0.695	0.62	0.292	0.193
Mof_C 	C 	0.793	0.514	0.494	0.145
Mof_C 	C 	0.917	0.403	0.58	0.083
Mof_C 	C 	0.117	0.233	0.619	-1.31
Mof_H 	H 	0.132	0.2529	0.679	0.477
Mof_H 	H 	0.1826	0.2312	0.576	0.428
Mof_N 	N 	0.228	0.027	0.762	1.376
Mof_H 	H 	0.227	0.9692	0.8258	-0.114
Mof_H 	H 	0.2926	0.038	0.7537	-0.406
Mof_C 	C 	0.125	0.104	0.673	2.386
Mof_H 	H 	0.0473	0.1099	0.6967	-0.687
Mof_H 	H 	0.1349	0.0743	0.6157	-0.026
Mof_C 	C 	0.744	0.47	0.198	0.451
Mof_C 	C 	0.754	0.209	0.427	0.341
Mof_H 	H 	0.766	0.2711	0.3599	-0.168
Mof_H 	H 	0.7092	0.1764	0.4005	-0.107
Mof_C 	C 	0.566	0.387	0.405	-0.324
Mof_H 	H 	0.5167	0.4289	0.4463	0.128
Mof_H 	H 	0.5184	0.3602	0.3726	0.12
Mof_H 	H 	0.5858	0.4452	0.3438	0.127
Mof_C 	C 	0.709	0.249	0.585	-0.088
Mof_H 	H 	0.7857	0.1698	0.6245	0.011
Mof_H 	H 	0.6433	0.2399	0.6235	0.044
Mof_H 	H 	0.718	0.3178	0.5862	0.05
Mof_Na	Na	0.981	0.107	0.3441	2.323
Mof_H 	H 	0.1711	0.0601	0.6309	-0.791
Mof_H 	H 	0.1767	0.0573	0.7504	-1.734
Mof_H 	H 	0.0215	0.0264	0.7502	-0.015
Mof_H 	H 	0.955	0.1298	0.6299	-0.063
Mof_N 	N 	0.02	0.085	0.685	0.028
Mof_Cu	Cu	0.2044	0.4813	0.2882	0.921
Mof_Cu	Cu	0.0653	0.6269	0.61	0.883
Mof_N 	N 	0.333	0.361	0.247	-0.269
Mof_N 	N 	0.373	0.618	0.044	-0.249
Mof_N 	N 	0.209	0.482	0.609	-0.272
Mof_N 	N 	0.002	0.666	0.458	-0.074
Mof_N 	N 	0.191	0.798	0.81	-0.325
Mof_H 	H 	0.1222	0.795	0.8192	-0.146
Mof_H 	H 	0.2614	0.7295	0.8481	0.16
Mof_N 	N 	0.318	0.728	0.515	-0.125
Mof_O 	O 	0.114	0.383	0.322	-0.535
Mof_O 	O 	0.086	0.218	0.389	-0.663
Mof_O 	O 	0.471	0.367	0.1232	-0.354
Mof_O 	O 	0.25	0.607	0.18	-0.349
Mof_O 	O 	0.152	0.617	0.738	-0.57
Mof_O 	O 	0.308	0.547	0.87	-0.374
Mof_O 	O 	0.284	0.417	0.472	-0.323
Mof_O 	O 	0.07	0.61	0.317	-0.321
Mof_O 	O 	0.13	0.892	0.505	-0.791
Mof_C 	C 	0.286	0.18	0.347	-0.353
Mof_C 	C 	0.323	0.053	0.395	0.257
Mof_H 	H 	0.2662	0.0237	0.4246	-0.114
Mof_C 	C 	0.442	0.964	0.4	-0.312
Mof_H 	H 	0.4662	0.8759	0.4362	0.132
Mof_C 	C 	0.522	0.008	0.352	0.205
Mof_H 	H 	0.6008	0.9498	0.3523	-0.037
Mof_C 	C 	0.488	0.136	0.302	-0.285
Mof_H 	H 	0.5449	0.1631	0.2701	0.138
Mof_C 	C 	0.37	0.227	0.298	0.229
Mof_C 	C 	0.384	0.417	0.169	0.121
Mof_C 	C 	0.331	0.56	0.129	0.12
Mof_C 	C 	0.306	0.759	0.987	0.065
Mof_H 	H 	0.2976	0.7886	0.0442	0.002
Mof_H 	H 	0.353	0.793	0.9349	0.013
Mof_C 	C 	0.176	0.809	0.918	-0.078
Mof_H 	H 	0.1233	0.8986	0.8995	0.049
Mof_H 	H 	0.137	0.7591	0.9638	0.044
Mof_C 	C 	0.157	0.268	0.35	0.488
Mof_C 	C 	0.326	0.401	0.8	-0.257
Mof_C 	C 	0.417	0.296	0.9	0.15
Mof_H 	H 	0.4309	0.3097	0.9619	-0.008
Mof_C 	C 	0.485	0.179	0.91	-0.22
Mof_H 	H 	0.5437	0.1118	0.977	0.117
Mof_C 	C 	0.465	0.158	0.815	0.133
Mof_H 	H 	0.5092	0.0766	0.8206	-0.017
Mof_C 	C 	0.38	0.258	0.716	-0.237
Mof_H 	H 	0.3712	0.2451	0.6532	0.121
Mof_C 	C 	0.305	0.38	0.708	0.192
Mof_C 	C 	0.207	0.486	0.506	0.144
Mof_C 	C 	0.083	0.597	0.42	0.084
Mof_C 	C 	0.883	0.767	0.381	-1.293
Mof_H 	H 	0.868	0.7471	0.321	0.468
Mof_H 	H 	0.8174	0.7688	0.424	0.423
Mof_N 	N 	0.772	0.973	0.238	1.377
Mof_H 	H 	0.773	0.0308	0.1742	-0.127
Mof_H 	H 	0.7074	0.962	0.2463	-0.413
Mof_C 	C 	0.875	0.896	0.327	2.359
Mof_H 	H 	0.9527	0.8901	0.3033	-0.674
Mof_H 	H 	0.8651	0.9257	0.3843	-0.026
Mof_C 	C 	0.256	0.53	0.802	0.449
Mof_C 	C 	0.246	0.791	0.573	0.342
Mof_H 	H 	0.234	0.7289	0.6401	-0.17
Mof_H 	H 	0.2908	0.8236	0.5995	-0.107
Mof_C 	C 	0.434	0.613	0.595	-0.322
Mof_H 	H 	0.4833	0.5711	0.5537	0.128
Mof_H 	H 	0.4816	0.6398	0.6274	0.119
Mof_H 	H 	0.4142	0.5548	0.6562	0.126
Mof_C 	C 	0.291	0.751	0.415	-0.083
Mof_H 	H 	0.2143	0.8302	0.3755	0.008
Mof_H 	H 	0.3567	0.7601	0.3765	0.042
Mof_H 	H 	0.282	0.6822	0.4138	0.047
Mof_Na	Na	0.019	0.893	0.6559	2.339
Mof_H 	H 	0.8289	0.9399	0.3691	-0.782
Mof_H 	H 	0.8233	0.9427	0.2496	-1.726
Mof_H 	H 	0.9785	0.9736	0.2498	-0.014
Mof_H 	H 	0.045	0.8702	0.3701	-0.062
Mof_N 	N 	0.98	0.915	0.315	0.02
Mof_Cu	Cu	0.5	0.5	-0	0.895
_end
