# CIF file generated by openbabel 3.1.0, see https://openbabel.org
data_I
_chemical_name_common 'EDEPAG_clean'
_cell_length_a 11.0552
_cell_length_b 11.0713
_cell_length_c 17.6488
_cell_angle_alpha 93.084
_cell_angle_beta 104.429
_cell_angle_gamma 119.032
_space_group_name_H-M_alt 'P 1'
_space_group_name_Hall 'P 1'
loop_
    _symmetry_equiv_pos_as_xyz
    x,y,z
loop_
    _atom_site_label
    _atom_site_type_symbol
    _atom_site_fract_x
    _atom_site_fract_y
    _atom_site_fract_z
    _atom_site_occupancy
    Eu1      Eu       0.32056    0.39764    0.37876    1.000
    Eu2      Eu       0.00114    0.10577    0.09493    1.000
    Eu3      Eu       0.67944    0.60236    0.62124    1.000
    Eu4      Eu       0.99886    0.89423    0.90507    1.000
    H1       H        0.33200    0.92450    0.23360    1.000
    H2       H        0.36580    0.73660    0.26380    1.000
    H3       H        0.00940    0.46840    0.07500    1.000
    H4       H        0.98080    0.65760    0.04190    1.000
    H5       H        0.40260    0.32490    0.70540    1.000
    H6       H        0.28160    0.14540    0.76910    1.000
    H7       H        0.90650    0.97980    0.58360    1.000
    H8       H        0.02790    0.15680    0.51690    1.000
    H9       H        0.65410    0.18080    0.61280    1.000
    H10      H        0.34240    0.02610    0.39700    1.000
    H11      H        0.54570    0.54320    0.87770    1.000
    H12      H        0.64890    0.67100    0.11640    1.000
    H13      H        0.66800    0.07550    0.76640    1.000
    H14      H        0.63420    0.26340    0.73620    1.000
    H15      H        0.99060    0.53160    0.92500    1.000
    H16      H        0.01920    0.34240    0.95810    1.000
    H17      H        0.59740    0.67510    0.29460    1.000
    H18      H        0.71840    0.85460    0.23090    1.000
    H19      H        0.09350    0.02020    0.41640    1.000
    H20      H        0.97210    0.84320    0.48310    1.000
    H21      H        0.34590    0.81920    0.38720    1.000
    H22      H        0.65760    0.97390    0.60300    1.000
    H23      H        0.45430    0.45680    0.12230    1.000
    H24      H        0.35110    0.32900    0.88360    1.000
    C1       C        0.11710    0.92010    0.11860    1.000
    C2       C        0.15120    0.80750    0.13600    1.000
    C3       C        0.26710    0.83240    0.20130    1.000
    C4       C        0.28730    0.72070    0.21910    1.000
    C5       C        0.19150    0.58470    0.17090    1.000
    C6       C        0.07600    0.56090    0.10650    1.000
    C7       C        0.05750    0.67300    0.08770    1.000
    C8       C        0.20460    0.46290    0.19680    1.000
    C9       C        0.30120    0.37420    0.56080    1.000
    C10      C        0.22690    0.26090    0.60680    1.000
    C11      C        0.30250    0.25580    0.68070    1.000
    C12      C        0.23020    0.14880    0.71810    1.000
    C13      C        0.08290    0.04500    0.68260    1.000
    C14      C        0.00680    0.04910    0.60780    1.000
    C15      C        0.07820    0.15510    0.56870    1.000
    C16      C        0.00750    0.92540    0.72190    1.000
    C17      C        0.50340    0.26600    0.51060    1.000
    C18      C        0.50090    0.12790    0.50440    1.000
    C19      C        0.59190    0.10800    0.56650    1.000
    C20      C        0.40780    0.01620    0.43900    1.000
    C21      C        0.73700    0.77020    0.99500    1.000
    C22      C        0.61500    0.62860    0.99790    1.000
    C23      C        0.52710    0.52600    0.92700    1.000
    C24      C        0.58740    0.60090    0.06890    1.000
    C25      C        0.88290    0.07990    0.88140    1.000
    C26      C        0.84880    0.19250    0.86400    1.000
    C27      C        0.73290    0.16760    0.79870    1.000
    C28      C        0.71270    0.27930    0.78090    1.000
    C29      C        0.80850    0.41530    0.82910    1.000
    C30      C        0.92400    0.43910    0.89350    1.000
    C31      C        0.94250    0.32700    0.91230    1.000
    C32      C        0.79540    0.53710    0.80320    1.000
    C33      C        0.69880    0.62580    0.43920    1.000
    C34      C        0.77310    0.73910    0.39320    1.000
    C35      C        0.69750    0.74420    0.31930    1.000
    C36      C        0.76980    0.85120    0.28190    1.000
    C37      C        0.91710    0.95500    0.31740    1.000
    C38      C        0.99320    0.95090    0.39220    1.000
    C39      C        0.92180    0.84490    0.43130    1.000
    C40      C        0.99250    0.07460    0.27810    1.000
    C41      C        0.49660    0.73400    0.48940    1.000
    C42      C        0.49910    0.87210    0.49560    1.000
    C43      C        0.40810    0.89200    0.43350    1.000
    C44      C        0.59220    0.98380    0.56100    1.000
    C45      C        0.26300    0.22980    0.00500    1.000
    C46      C        0.38500    0.37140    0.00210    1.000
    C47      C        0.47290    0.47400    0.07300    1.000
    C48      C        0.41260    0.39910    0.93110    1.000
    O1       O        0.14430    0.01180    0.17480    1.000
    O2       O        0.05570    0.91700    0.04660    1.000
    O3       O        0.30560    0.48800    0.25820    1.000
    O4       O        0.10980    0.34040    0.15340    1.000
    O5       O        0.22830    0.36440    0.49030    1.000
    O6       O        0.42950    0.47090    0.59830    1.000
    O7       O        0.87900    0.82730    0.68240    1.000
    O8       O        0.07830    0.93030    0.79280    1.000
    O9       O        0.40510    0.26820    0.45530    1.000
    O10      O        0.60440    0.36590    0.56580    1.000
    O11      O        0.79090    0.87310    0.05400    1.000
    O12      O        0.77860    0.77740    0.93440    1.000
    O13      O        0.85570    0.98820    0.82520    1.000
    O14      O        0.94430    0.08300    0.95340    1.000
    O15      O        0.69440    0.51200    0.74180    1.000
    O16      O        0.89020    0.65960    0.84660    1.000
    O17      O        0.77170    0.63560    0.50970    1.000
    O18      O        0.57050    0.52910    0.40170    1.000
    O19      O        0.12100    0.17270    0.31760    1.000
    O20      O        0.92170    0.06970    0.20720    1.000
    O21      O        0.59490    0.73180    0.54470    1.000
    O22      O        0.39560    0.63410    0.43420    1.000
    O23      O        0.20910    0.12690    0.94600    1.000
    O24      O        0.22140    0.22260    0.06560    1.000
