# CIF file generated by openbabel 3.1.0, see https://openbabel.org
data_I
_chemical_name_common 'image0'
_cell_length_a 18.853
_cell_length_b 18.853
_cell_length_c 20.639
_cell_angle_alpha 90
_cell_angle_beta 90
_cell_angle_gamma 90
_space_group_name_H-M_alt 'P 1'
_space_group_name_Hall 'P 1'
loop_
    _symmetry_equiv_pos_as_xyz
    x,y,z
loop_
    _atom_site_label
    _atom_site_type_symbol
    _atom_site_fract_x
    _atom_site_fract_y
    _atom_site_fract_z
    _atom_site_occupancy
    Cu1      Cu       0.71849    0.07189    0.64776    1.000
    Cu2      Cu       0.63781    0.19834    0.73151    1.000
    Cu3      Cu       0.56622    0.14625    0.59561    1.000
    O1       O        0.62660    0.11750    0.67050    1.000
    H1       H        0.59930    0.08150    0.69400    1.000
    N1       N        0.74950    0.09500    0.73370    1.000
    N2       N        0.72000    0.14760    0.76660    1.000
    C1       C        0.74900    0.15320    0.82570    1.000
    H2       H        0.73760    0.18760    0.85620    1.000
    C2       C        0.79880    0.09960    0.83440    1.000
    H3       H        0.82640    0.09010    0.87080    1.000
    C3       C        0.79750    0.06590    0.77900    1.000
    H4       H        0.82550    0.02640    0.77030    1.000
    N3       N        0.54190    0.22900    0.71110    1.000
    N4       N        0.50780    0.19990    0.65900    1.000
    C4       C        0.44510    0.22300    0.65860    1.000
    H5       H        0.41320    0.21420    0.62520    1.000
    C5       C        0.42840    0.26310    0.71340    1.000
    H6       H        0.38550    0.28310    0.72610    1.000
    C6       C        0.49160    0.26470    0.74250    1.000
    H7       H        0.49980    0.28850    0.78120    1.000
    N5       N        0.62790    0.08990    0.53830    1.000
    N6       N        0.68540    0.06100    0.55870    1.000
    C7       C        0.71440    0.02200    0.51030    1.000
    H8       H        0.75520    0.99450    0.51360    1.000
    C8       C        0.67420    0.02950    0.45680    1.000
    H9       H        0.68140    0.00880    0.41650    1.000
    C9       C        0.61810    0.07630    0.47560    1.000
    H10      H        0.58210    0.09370    0.44930    1.000
    N7       N        0.66490    0.28230    0.78860    1.000
    C10      C        0.72710    0.31840    0.77400    1.000
    H11      H        0.74910    0.31150    0.73410    1.000
    C11      C        0.75660    0.36470    0.81890    1.000
    H12      H        0.79830    0.38890    0.80900    1.000
    C12      C        0.72390    0.37500    0.87850    1.000
    C13      C        0.66160    0.33890    0.89320    1.000
    H13      H        0.63970    0.34580    0.93300    1.000
    C14      C        0.63210    0.29260    0.84820    1.000
    H14      H        0.59050    0.26840    0.85810    1.000
    C15      C        0.75840    0.41760    0.92910    1.000
    C16      C        0.71590    0.46450    0.96370    1.000
    H15      H        0.66750    0.46690    0.95510    1.000
    C17      C        0.74560    0.50760    0.01110    1.000
    H16      H        0.71710    0.53890    0.03420    1.000
    N8       N        0.81780    0.50390    0.02390    1.000
    C18      C        0.86040    0.45710    0.98930    1.000
    H17      H        0.90880    0.45470    0.99790    1.000
    C19      C        0.83070    0.41400    0.94200    1.000
    H18      H        0.85920    0.38270    0.91880    1.000
    N9       N        0.81680    0.03940    0.62670    1.000
    C20      C        0.86460    0.09220    0.60940    1.000
    H19      H        0.84840    0.13760    0.59990    1.000
    C21      C        0.93670    0.07710    0.60620    1.000
    H20      H        0.96870    0.11240    0.59460    1.000
    C22      C        0.96090    0.00920    0.62030    1.000
    C23      C        0.91310    0.95640    0.63760    1.000
    H21      H        0.92930    0.91100    0.64710    1.000
    C24      C        0.84100    0.97150    0.64080    1.000
    H22      H        0.80900    0.93620    0.65240    1.000
    Cu4      Cu       0.28151    0.92811    0.64776    1.000
    Cu5      Cu       0.36219    0.80166    0.73151    1.000
    Cu6      Cu       0.43378    0.85375    0.59561    1.000
    O2       O        0.37340    0.88250    0.67050    1.000
    H23      H        0.40070    0.91850    0.69400    1.000
    N10      N        0.25050    0.90500    0.73370    1.000
    N11      N        0.28000    0.85240    0.76660    1.000
    C25      C        0.25100    0.84680    0.82570    1.000
    H24      H        0.26240    0.81240    0.85620    1.000
    C26      C        0.20120    0.90040    0.83440    1.000
    H25      H        0.17360    0.90990    0.87080    1.000
    C27      C        0.20250    0.93410    0.77900    1.000
    H26      H        0.17450    0.97360    0.77030    1.000
    N12      N        0.45810    0.77100    0.71110    1.000
    N13      N        0.49220    0.80010    0.65900    1.000
    C28      C        0.55490    0.77700    0.65860    1.000
    H27      H        0.58680    0.78580    0.62520    1.000
    C29      C        0.57160    0.73690    0.71340    1.000
    H28      H        0.61450    0.71690    0.72610    1.000
    C30      C        0.50840    0.73530    0.74250    1.000
    H29      H        0.50020    0.71150    0.78120    1.000
    N14      N        0.37210    0.91010    0.53830    1.000
    N15      N        0.31460    0.93900    0.55870    1.000
    C31      C        0.28560    0.97800    0.51030    1.000
    H30      H        0.24480    0.00550    0.51360    1.000
    C32      C        0.32580    0.97050    0.45680    1.000
    H31      H        0.31860    0.99120    0.41650    1.000
    C33      C        0.38190    0.92370    0.47560    1.000
    H32      H        0.41790    0.90630    0.44930    1.000
    N16      N        0.33510    0.71770    0.78860    1.000
    C34      C        0.27290    0.68160    0.77400    1.000
    H33      H        0.25090    0.68850    0.73410    1.000
    C35      C        0.24340    0.63530    0.81890    1.000
    H34      H        0.20170    0.61110    0.80900    1.000
    C36      C        0.27610    0.62500    0.87850    1.000
    C37      C        0.33840    0.66110    0.89320    1.000
    H35      H        0.36030    0.65420    0.93300    1.000
    C38      C        0.36790    0.70740    0.84820    1.000
    H36      H        0.40950    0.73160    0.85810    1.000
    C39      C        0.24160    0.58240    0.92910    1.000
    C40      C        0.28410    0.53550    0.96370    1.000
    H37      H        0.33250    0.53310    0.95510    1.000
    C41      C        0.25440    0.49240    0.01110    1.000
    H38      H        0.28290    0.46110    0.03420    1.000
    N17      N        0.18220    0.49610    0.02390    1.000
    C42      C        0.13960    0.54290    0.98930    1.000
    H39      H        0.09120    0.54530    0.99790    1.000
    C43      C        0.16930    0.58600    0.94200    1.000
    H40      H        0.14080    0.61730    0.91880    1.000
    N18      N        0.18320    0.96060    0.62670    1.000
    C44      C        0.13540    0.90780    0.60940    1.000
    H41      H        0.15160    0.86240    0.59990    1.000
    C45      C        0.06330    0.92290    0.60620    1.000
    H42      H        0.03130    0.88760    0.59460    1.000
    C46      C        0.03910    0.99080    0.62030    1.000
    C47      C        0.08690    0.04360    0.63760    1.000
    H43      H        0.07070    0.08900    0.64710    1.000
    C48      C        0.15900    0.02850    0.64080    1.000
    H44      H        0.19100    0.06380    0.65240    1.000
    Cu7      Cu       0.92811    0.71849    0.14776    1.000
    Cu8      Cu       0.80166    0.63781    0.23151    1.000
    Cu9      Cu       0.85375    0.56622    0.09561    1.000
    O3       O        0.88250    0.62660    0.17050    1.000
    H45      H        0.91850    0.59930    0.19400    1.000
    N19      N        0.90500    0.74950    0.23370    1.000
    N20      N        0.85240    0.72000    0.26660    1.000
    C49      C        0.84680    0.74900    0.32570    1.000
    H46      H        0.81240    0.73760    0.35620    1.000
    C50      C        0.90040    0.79880    0.33440    1.000
    H47      H        0.90990    0.82640    0.37080    1.000
    C51      C        0.93410    0.79750    0.27900    1.000
    H48      H        0.97360    0.82550    0.27030    1.000
    N21      N        0.77100    0.54190    0.21110    1.000
    N22      N        0.80010    0.50780    0.15900    1.000
    C52      C        0.77700    0.44510    0.15860    1.000
    H49      H        0.78580    0.41320    0.12520    1.000
    C53      C        0.73690    0.42840    0.21340    1.000
    H50      H        0.71690    0.38550    0.22610    1.000
    C54      C        0.73530    0.49160    0.24250    1.000
    H51      H        0.71150    0.49980    0.28120    1.000
    N23      N        0.91010    0.62790    0.03830    1.000
    N24      N        0.93900    0.68540    0.05870    1.000
    C55      C        0.97800    0.71440    0.01030    1.000
    H52      H        0.00550    0.75520    0.01360    1.000
    C56      C        0.97050    0.67420    0.95680    1.000
    H53      H        0.99120    0.68140    0.91650    1.000
    C57      C        0.92370    0.61810    0.97560    1.000
    H54      H        0.90630    0.58210    0.94930    1.000
    N25      N        0.71770    0.66490    0.28860    1.000
    C58      C        0.68160    0.72710    0.27400    1.000
    H55      H        0.68850    0.74910    0.23410    1.000
    C59      C        0.63530    0.75660    0.31890    1.000
    H56      H        0.61110    0.79830    0.30900    1.000
    C60      C        0.62500    0.72390    0.37850    1.000
    C61      C        0.66110    0.66160    0.39320    1.000
    H57      H        0.65420    0.63970    0.43300    1.000
    C62      C        0.70740    0.63210    0.34820    1.000
    H58      H        0.73160    0.59050    0.35810    1.000
    C63      C        0.58240    0.75840    0.42910    1.000
    C64      C        0.53550    0.71590    0.46370    1.000
    H59      H        0.53310    0.66750    0.45510    1.000
    C65      C        0.49240    0.74560    0.51110    1.000
    H60      H        0.46110    0.71710    0.53420    1.000
    N26      N        0.49610    0.81780    0.52390    1.000
    C66      C        0.54290    0.86040    0.48930    1.000
    H61      H        0.54530    0.90880    0.49790    1.000
    C67      C        0.58600    0.83070    0.44200    1.000
    H62      H        0.61730    0.85920    0.41880    1.000
    N27      N        0.96060    0.81680    0.12670    1.000
    C68      C        0.90780    0.86460    0.10940    1.000
    H63      H        0.86240    0.84840    0.09990    1.000
    C69      C        0.92290    0.93670    0.10620    1.000
    H64      H        0.88760    0.96870    0.09460    1.000
    C70      C        0.99080    0.96090    0.12030    1.000
    C71      C        0.04360    0.91310    0.13760    1.000
    H65      H        0.08900    0.92930    0.14710    1.000
    C72      C        0.02850    0.84100    0.14080    1.000
    H66      H        0.06380    0.80900    0.15240    1.000
    Cu10     Cu       0.07189    0.28151    0.14776    1.000
    Cu11     Cu       0.19834    0.36219    0.23151    1.000
    Cu12     Cu       0.14625    0.43378    0.09561    1.000
    O4       O        0.11750    0.37340    0.17050    1.000
    H67      H        0.08150    0.40070    0.19400    1.000
    N28      N        0.09500    0.25050    0.23370    1.000
    N29      N        0.14760    0.28000    0.26660    1.000
    C73      C        0.15320    0.25100    0.32570    1.000
    H68      H        0.18760    0.26240    0.35620    1.000
    C74      C        0.09960    0.20120    0.33440    1.000
    H69      H        0.09010    0.17360    0.37080    1.000
    C75      C        0.06590    0.20250    0.27900    1.000
    H70      H        0.02640    0.17450    0.27030    1.000
    N30      N        0.22900    0.45810    0.21110    1.000
    N31      N        0.19990    0.49220    0.15900    1.000
    C76      C        0.22300    0.55490    0.15860    1.000
    H71      H        0.21420    0.58680    0.12520    1.000
    C77      C        0.26310    0.57160    0.21340    1.000
    H72      H        0.28310    0.61450    0.22610    1.000
    C78      C        0.26470    0.50840    0.24250    1.000
    H73      H        0.28850    0.50020    0.28120    1.000
    N32      N        0.08990    0.37210    0.03830    1.000
    N33      N        0.06100    0.31460    0.05870    1.000
    C79      C        0.02200    0.28560    0.01030    1.000
    H74      H        0.99450    0.24480    0.01360    1.000
    C80      C        0.02950    0.32580    0.95680    1.000
    H75      H        0.00880    0.31860    0.91650    1.000
    C81      C        0.07630    0.38190    0.97560    1.000
    H76      H        0.09370    0.41790    0.94930    1.000
    N34      N        0.28230    0.33510    0.28860    1.000
    C82      C        0.31840    0.27290    0.27400    1.000
    H77      H        0.31150    0.25090    0.23410    1.000
    C83      C        0.36470    0.24340    0.31890    1.000
    H78      H        0.38890    0.20170    0.30900    1.000
    C84      C        0.37500    0.27610    0.37850    1.000
    C85      C        0.33890    0.33840    0.39320    1.000
    H79      H        0.34580    0.36030    0.43300    1.000
    C86      C        0.29260    0.36790    0.34820    1.000
    H80      H        0.26840    0.40950    0.35810    1.000
    C87      C        0.41760    0.24160    0.42910    1.000
    C88      C        0.46450    0.28410    0.46370    1.000
    H81      H        0.46690    0.33250    0.45510    1.000
    C89      C        0.50760    0.25440    0.51110    1.000
    H82      H        0.53890    0.28290    0.53420    1.000
    N35      N        0.50390    0.18220    0.52390    1.000
    C90      C        0.45710    0.13960    0.48930    1.000
    H83      H        0.45470    0.09120    0.49790    1.000
    C91      C        0.41400    0.16930    0.44200    1.000
    H84      H        0.38270    0.14080    0.41880    1.000
    N36      N        0.03940    0.18320    0.12670    1.000
    C92      C        0.09220    0.13540    0.10940    1.000
    H85      H        0.13760    0.15160    0.09990    1.000
    C93      C        0.07710    0.06330    0.10620    1.000
    H86      H        0.11240    0.03130    0.09460    1.000
    C94      C        0.00920    0.03910    0.12030    1.000
    C95      C        0.95640    0.08690    0.13760    1.000
    H87      H        0.91100    0.07070    0.14710    1.000
    C96      C        0.97150    0.15900    0.14080    1.000
    H88      H        0.93620    0.19100    0.15240    1.000
    Cu13     Cu       0.21849    0.42811    0.64776    1.000
    Cu14     Cu       0.13781    0.30166    0.73151    1.000
    Cu15     Cu       0.06622    0.35375    0.59561    1.000
    O5       O        0.12660    0.38250    0.67050    1.000
    H89      H        0.09930    0.41850    0.69400    1.000
    N37      N        0.24950    0.40500    0.73370    1.000
    N38      N        0.22000    0.35240    0.76660    1.000
    C97      C        0.24900    0.34680    0.82570    1.000
    H90      H        0.23760    0.31240    0.85620    1.000
    C98      C        0.29880    0.40040    0.83440    1.000
    H91      H        0.32640    0.40990    0.87080    1.000
    C99      C        0.29750    0.43410    0.77900    1.000
    H92      H        0.32550    0.47360    0.77030    1.000
    N39      N        0.04190    0.27100    0.71110    1.000
    N40      N        0.00780    0.30010    0.65900    1.000
    C100     C        0.94510    0.27700    0.65860    1.000
    H93      H        0.91320    0.28580    0.62520    1.000
    C101     C        0.92840    0.23690    0.71340    1.000
    H94      H        0.88550    0.21690    0.72610    1.000
    C102     C        0.99160    0.23530    0.74250    1.000
    H95      H        0.99980    0.21150    0.78120    1.000
    N41      N        0.12790    0.41010    0.53830    1.000
    N42      N        0.18540    0.43900    0.55870    1.000
    C103     C        0.21440    0.47800    0.51030    1.000
    H96      H        0.25520    0.50550    0.51360    1.000
    C104     C        0.17420    0.47050    0.45680    1.000
    H97      H        0.18140    0.49120    0.41650    1.000
    C105     C        0.11810    0.42370    0.47560    1.000
    H98      H        0.08210    0.40630    0.44930    1.000
    N43      N        0.16490    0.21770    0.78860    1.000
    C106     C        0.22710    0.18160    0.77400    1.000
    H99      H        0.24910    0.18850    0.73410    1.000
    C107     C        0.25660    0.13530    0.81890    1.000
    H100     H        0.29830    0.11110    0.80900    1.000
    C108     C        0.22390    0.12500    0.87850    1.000
    C109     C        0.16160    0.16110    0.89320    1.000
    H101     H        0.13970    0.15420    0.93300    1.000
    C110     C        0.13210    0.20740    0.84820    1.000
    H102     H        0.09050    0.23160    0.85810    1.000
    C111     C        0.25840    0.08240    0.92910    1.000
    C112     C        0.21590    0.03550    0.96370    1.000
    H103     H        0.16750    0.03310    0.95510    1.000
    C113     C        0.24560    0.99240    0.01110    1.000
    H104     H        0.21710    0.96110    0.03420    1.000
    N44      N        0.31780    0.99610    0.02390    1.000
    C114     C        0.36040    0.04290    0.98930    1.000
    H105     H        0.40880    0.04530    0.99790    1.000
    C115     C        0.33070    0.08600    0.94200    1.000
    H106     H        0.35920    0.11730    0.91880    1.000
    N45      N        0.31680    0.46060    0.62670    1.000
    C116     C        0.36460    0.40780    0.60940    1.000
    H107     H        0.34840    0.36240    0.59990    1.000
    C117     C        0.43670    0.42290    0.60620    1.000
    H108     H        0.46870    0.38760    0.59460    1.000
    C118     C        0.46090    0.49080    0.62030    1.000
    C119     C        0.41310    0.54360    0.63760    1.000
    H109     H        0.42930    0.58900    0.64710    1.000
    C120     C        0.34100    0.52850    0.64080    1.000
    H110     H        0.30900    0.56380    0.65240    1.000
    Cu16     Cu       0.78151    0.57189    0.64776    1.000
    Cu17     Cu       0.86219    0.69834    0.73151    1.000
    Cu18     Cu       0.93378    0.64625    0.59561    1.000
    O6       O        0.87340    0.61750    0.67050    1.000
    H111     H        0.90070    0.58150    0.69400    1.000
    N46      N        0.75050    0.59500    0.73370    1.000
    N47      N        0.78000    0.64760    0.76660    1.000
    C121     C        0.75100    0.65320    0.82570    1.000
    H112     H        0.76240    0.68760    0.85620    1.000
    C122     C        0.70120    0.59960    0.83440    1.000
    H113     H        0.67360    0.59010    0.87080    1.000
    C123     C        0.70250    0.56590    0.77900    1.000
    H114     H        0.67450    0.52640    0.77030    1.000
    N48      N        0.95810    0.72900    0.71110    1.000
    N49      N        0.99220    0.69990    0.65900    1.000
    C124     C        0.05490    0.72300    0.65860    1.000
    H115     H        0.08680    0.71420    0.62520    1.000
    C125     C        0.07160    0.76310    0.71340    1.000
    H116     H        0.11450    0.78310    0.72610    1.000
    C126     C        0.00840    0.76470    0.74250    1.000
    H117     H        0.00020    0.78850    0.78120    1.000
    N50      N        0.87210    0.58990    0.53830    1.000
    N51      N        0.81460    0.56100    0.55870    1.000
    C127     C        0.78560    0.52200    0.51030    1.000
    H118     H        0.74480    0.49450    0.51360    1.000
    C128     C        0.82580    0.52950    0.45680    1.000
    H119     H        0.81860    0.50880    0.41650    1.000
    C129     C        0.88190    0.57630    0.47560    1.000
    H120     H        0.91790    0.59370    0.44930    1.000
    N52      N        0.83510    0.78230    0.78860    1.000
    C130     C        0.77290    0.81840    0.77400    1.000
    H121     H        0.75090    0.81150    0.73410    1.000
    C131     C        0.74340    0.86470    0.81890    1.000
    H122     H        0.70170    0.88890    0.80900    1.000
    C132     C        0.77610    0.87500    0.87850    1.000
    C133     C        0.83840    0.83890    0.89320    1.000
    H123     H        0.86030    0.84580    0.93300    1.000
    C134     C        0.86790    0.79260    0.84820    1.000
    H124     H        0.90950    0.76840    0.85810    1.000
    C135     C        0.74160    0.91760    0.92910    1.000
    C136     C        0.78410    0.96450    0.96370    1.000
    H125     H        0.83250    0.96690    0.95510    1.000
    C137     C        0.75440    0.00760    0.01110    1.000
    H126     H        0.78290    0.03890    0.03420    1.000
    N53      N        0.68220    0.00390    0.02390    1.000
    C138     C        0.63960    0.95710    0.98930    1.000
    H127     H        0.59120    0.95470    0.99790    1.000
    C139     C        0.66930    0.91400    0.94200    1.000
    H128     H        0.64080    0.88270    0.91880    1.000
    N54      N        0.68320    0.53940    0.62670    1.000
    C140     C        0.63540    0.59220    0.60940    1.000
    H129     H        0.65160    0.63760    0.59990    1.000
    C141     C        0.56330    0.57710    0.60620    1.000
    H130     H        0.53130    0.61240    0.59460    1.000
    C142     C        0.53910    0.50920    0.62030    1.000
    C143     C        0.58690    0.45640    0.63760    1.000
    H131     H        0.57070    0.41100    0.64710    1.000
    C144     C        0.65900    0.47150    0.64080    1.000
    H132     H        0.69100    0.43620    0.65240    1.000
    Cu19     Cu       0.42811    0.78151    0.14776    1.000
    Cu20     Cu       0.30166    0.86219    0.23151    1.000
    Cu21     Cu       0.35375    0.93378    0.09561    1.000
    O7       O        0.38250    0.87340    0.17050    1.000
    H133     H        0.41850    0.90070    0.19400    1.000
    N55      N        0.40500    0.75050    0.23370    1.000
    N56      N        0.35240    0.78000    0.26660    1.000
    C145     C        0.34680    0.75100    0.32570    1.000
    H134     H        0.31240    0.76240    0.35620    1.000
    C146     C        0.40040    0.70120    0.33440    1.000
    H135     H        0.40990    0.67360    0.37080    1.000
    C147     C        0.43410    0.70250    0.27900    1.000
    H136     H        0.47360    0.67450    0.27030    1.000
    N57      N        0.27100    0.95810    0.21110    1.000
    N58      N        0.30010    0.99220    0.15900    1.000
    C148     C        0.27700    0.05490    0.15860    1.000
    H137     H        0.28580    0.08680    0.12520    1.000
    C149     C        0.23690    0.07160    0.21340    1.000
    H138     H        0.21690    0.11450    0.22610    1.000
    C150     C        0.23530    0.00840    0.24250    1.000
    H139     H        0.21150    0.00020    0.28120    1.000
    N59      N        0.41010    0.87210    0.03830    1.000
    N60      N        0.43900    0.81460    0.05870    1.000
    C151     C        0.47800    0.78560    0.01030    1.000
    H140     H        0.50550    0.74480    0.01360    1.000
    C152     C        0.47050    0.82580    0.95680    1.000
    H141     H        0.49120    0.81860    0.91650    1.000
    C153     C        0.42370    0.88190    0.97560    1.000
    H142     H        0.40630    0.91790    0.94930    1.000
    N61      N        0.21770    0.83510    0.28860    1.000
    C154     C        0.18160    0.77290    0.27400    1.000
    H143     H        0.18850    0.75090    0.23410    1.000
    C155     C        0.13530    0.74340    0.31890    1.000
    H144     H        0.11110    0.70170    0.30900    1.000
    C156     C        0.12500    0.77610    0.37850    1.000
    C157     C        0.16110    0.83840    0.39320    1.000
    H145     H        0.15420    0.86030    0.43300    1.000
    C158     C        0.20740    0.86790    0.34820    1.000
    H146     H        0.23160    0.90950    0.35810    1.000
    C159     C        0.08240    0.74160    0.42910    1.000
    C160     C        0.03550    0.78410    0.46370    1.000
    H147     H        0.03310    0.83250    0.45510    1.000
    C161     C        0.99240    0.75440    0.51110    1.000
    H148     H        0.96110    0.78290    0.53420    1.000
    N62      N        0.99610    0.68220    0.52390    1.000
    C162     C        0.04290    0.63960    0.48930    1.000
    H149     H        0.04530    0.59120    0.49790    1.000
    C163     C        0.08600    0.66930    0.44200    1.000
    H150     H        0.11730    0.64080    0.41880    1.000
    N63      N        0.46060    0.68320    0.12670    1.000
    C164     C        0.40780    0.63540    0.10940    1.000
    H151     H        0.36240    0.65160    0.09990    1.000
    C165     C        0.42290    0.56330    0.10620    1.000
    H152     H        0.38760    0.53130    0.09460    1.000
    C166     C        0.49080    0.53910    0.12030    1.000
    C167     C        0.54360    0.58690    0.13760    1.000
    H153     H        0.58900    0.57070    0.14710    1.000
    C168     C        0.52850    0.65900    0.14080    1.000
    H154     H        0.56380    0.69100    0.15240    1.000
    Cu22     Cu       0.57189    0.21849    0.14776    1.000
    Cu23     Cu       0.69834    0.13781    0.23151    1.000
    Cu24     Cu       0.64625    0.06622    0.09561    1.000
    O8       O        0.61750    0.12660    0.17050    1.000
    H155     H        0.58150    0.09930    0.19400    1.000
    N64      N        0.59500    0.24950    0.23370    1.000
    N65      N        0.64760    0.22000    0.26660    1.000
    C169     C        0.65320    0.24900    0.32570    1.000
    H156     H        0.68760    0.23760    0.35620    1.000
    C170     C        0.59960    0.29880    0.33440    1.000
    H157     H        0.59010    0.32640    0.37080    1.000
    C171     C        0.56590    0.29750    0.27900    1.000
    H158     H        0.52640    0.32550    0.27030    1.000
    N66      N        0.72900    0.04190    0.21110    1.000
    N67      N        0.69990    0.00780    0.15900    1.000
    C172     C        0.72300    0.94510    0.15860    1.000
    H159     H        0.71420    0.91320    0.12520    1.000
    C173     C        0.76310    0.92840    0.21340    1.000
    H160     H        0.78310    0.88550    0.22610    1.000
    C174     C        0.76470    0.99160    0.24250    1.000
    H161     H        0.78850    0.99980    0.28120    1.000
    N68      N        0.58990    0.12790    0.03830    1.000
    N69      N        0.56100    0.18540    0.05870    1.000
    C175     C        0.52200    0.21440    0.01030    1.000
    H162     H        0.49450    0.25520    0.01360    1.000
    C176     C        0.52950    0.17420    0.95680    1.000
    H163     H        0.50880    0.18140    0.91650    1.000
    C177     C        0.57630    0.11810    0.97560    1.000
    H164     H        0.59370    0.08210    0.94930    1.000
    N70      N        0.78230    0.16490    0.28860    1.000
    C178     C        0.81840    0.22710    0.27400    1.000
    H165     H        0.81150    0.24910    0.23410    1.000
    C179     C        0.86470    0.25660    0.31890    1.000
    H166     H        0.88890    0.29830    0.30900    1.000
    C180     C        0.87500    0.22390    0.37850    1.000
    C181     C        0.83890    0.16160    0.39320    1.000
    H167     H        0.84580    0.13970    0.43300    1.000
    C182     C        0.79260    0.13210    0.34820    1.000
    H168     H        0.76840    0.09050    0.35810    1.000
    C183     C        0.91760    0.25840    0.42910    1.000
    C184     C        0.96450    0.21590    0.46370    1.000
    H169     H        0.96690    0.16750    0.45510    1.000
    C185     C        0.00760    0.24560    0.51110    1.000
    H170     H        0.03890    0.21710    0.53420    1.000
    N71      N        0.00390    0.31780    0.52390    1.000
    C186     C        0.95710    0.36040    0.48930    1.000
    H171     H        0.95470    0.40880    0.49790    1.000
    C187     C        0.91400    0.33070    0.44200    1.000
    H172     H        0.88270    0.35920    0.41880    1.000
    N72      N        0.53940    0.31680    0.12670    1.000
    C188     C        0.59220    0.36460    0.10940    1.000
    H173     H        0.63760    0.34840    0.09990    1.000
    C189     C        0.57710    0.43670    0.10620    1.000
    H174     H        0.61240    0.46870    0.09460    1.000
    C190     C        0.50920    0.46090    0.12030    1.000
    C191     C        0.45640    0.41310    0.13760    1.000
    H175     H        0.41100    0.42930    0.14710    1.000
    C192     C        0.47150    0.34100    0.14080    1.000
    H176     H        0.43620    0.30900    0.15240    1.000
