data_functionalizedCrystal
_audit_creation_method	'EQeq! by Chris Wilmer'
_symmetry_space_group_name_H-M	'P1'
_symmetry_Int_Tables_number	1
_symmetry_cell_setting	triclinic
loop_
_symmetry_equiv_pos_as_xyz
  x,y,z
_cell_length_a	18.9
_cell_length_b	18.9
_cell_length_c	33.561
_cell_angle_alpha	90
_cell_angle_beta	90
_cell_angle_gamma	90
loop_
_atom_site_label
_atom_site_type_symbol
_atom_site_fract_x
_atom_site_fract_y
_atom_site_fract_z
_atom_site_charge
Mof_Cu	Cu	0.95012	0.51492	0.78038	0.907
Mof_Cu	Cu	0.54988	0.98508	0.78038	0.907
Mof_Cu	Cu	0.98508	0.95012	0.78038	0.906
Mof_Cu	Cu	0.51492	0.54988	0.78038	0.906
Mof_Cu	Cu	0.04988	0.01492	0.71962	0.906
Mof_Cu	Cu	0.45012	0.48508	0.71962	0.906
Mof_Cu	Cu	0.01492	0.45012	0.71962	0.906
Mof_Cu	Cu	0.48508	0.04988	0.71962	0.906
Mof_Cu	Cu	0.04988	0.48508	0.21962	0.906
Mof_Cu	Cu	0.45012	0.01492	0.21962	0.906
Mof_Cu	Cu	0.01492	0.04988	0.21962	0.906
Mof_Cu	Cu	0.48508	0.45012	0.21962	0.906
Mof_Cu	Cu	0.95012	0.98508	0.28038	0.906
Mof_Cu	Cu	0.54988	0.51492	0.28038	0.906
Mof_Cu	Cu	0.98508	0.54988	0.28038	0.906
Mof_Cu	Cu	0.51492	0.95012	0.28038	0.906
Mof_H 	H 	0.7854	0.1382	0.9544	0.058
Mof_H 	H 	0.8586	0.13	0.9003	0.048
Mof_H 	H 	0.9311	0.3263	0.921	0.047
Mof_H 	H 	0.8601	0.3338	0.9763	0.058
Mof_H 	H 	0.9495	0.1246	0.8575	0.055
Mof_H 	H 	0.0096	0.2311	0.7612	0.052
Mof_H 	H 	0.9277	0.3348	0.8545	0.055
Mof_H 	H 	0.7146	0.3618	0.9544	0.058
Mof_H 	H 	0.6414	0.37	0.9003	0.048
Mof_H 	H 	0.5689	0.1737	0.921	0.047
Mof_H 	H 	0.6399	0.1662	0.9763	0.058
Mof_H 	H 	0.5505	0.3754	0.8575	0.055
Mof_H 	H 	0.4904	0.2689	0.7612	0.053
Mof_H 	H 	0.5723	0.1652	0.8545	0.055
Mof_H 	H 	0.3618	0.7854	0.9544	0.058
Mof_H 	H 	0.37	0.8586	0.9003	0.048
Mof_H 	H 	0.1737	0.9311	0.921	0.047
Mof_H 	H 	0.1662	0.8601	0.9763	0.058
Mof_H 	H 	0.3754	0.9495	0.8575	0.055
Mof_H 	H 	0.2689	0.0096	0.7612	0.052
Mof_H 	H 	0.1652	0.9277	0.8545	0.055
Mof_H 	H 	0.1382	0.7146	0.9544	0.058
Mof_H 	H 	0.13	0.6414	0.9003	0.048
Mof_H 	H 	0.3263	0.5689	0.921	0.047
Mof_H 	H 	0.3338	0.6399	0.9763	0.058
Mof_H 	H 	0.1246	0.5505	0.8575	0.055
Mof_H 	H 	0.2311	0.4904	0.7612	0.053
Mof_H 	H 	0.3348	0.5723	0.8545	0.055
Mof_H 	H 	0.2146	0.6382	0.5456	0.058
Mof_H 	H 	0.1414	0.63	0.5997	0.048
Mof_H 	H 	0.0689	0.8263	0.579	0.047
Mof_H 	H 	0.1399	0.8338	0.5237	0.059
Mof_H 	H 	0.0505	0.6246	0.6425	0.055
Mof_H 	H 	0.9904	0.7311	0.7388	0.052
Mof_H 	H 	0.0723	0.8348	0.6455	0.055
Mof_H 	H 	0.2854	0.8618	0.5456	0.059
Mof_H 	H 	0.3586	0.87	0.5997	0.048
Mof_H 	H 	0.4311	0.6737	0.579	0.046
Mof_H 	H 	0.3601	0.6662	0.5237	0.059
Mof_H 	H 	0.4495	0.8754	0.6425	0.055
Mof_H 	H 	0.5096	0.7689	0.7388	0.053
Mof_H 	H 	0.4277	0.6652	0.6455	0.055
Mof_H 	H 	0.6382	0.2854	0.5456	0.058
Mof_H 	H 	0.63	0.3586	0.5997	0.048
Mof_H 	H 	0.8263	0.4311	0.579	0.046
Mof_H 	H 	0.8338	0.3601	0.5237	0.059
Mof_H 	H 	0.6246	0.4495	0.6425	0.055
Mof_H 	H 	0.7311	0.5096	0.7388	0.053
Mof_H 	H 	0.8348	0.4277	0.6455	0.055
Mof_H 	H 	0.8618	0.2146	0.5456	0.058
Mof_H 	H 	0.87	0.1414	0.5997	0.048
Mof_H 	H 	0.6737	0.0689	0.579	0.047
Mof_H 	H 	0.6662	0.1399	0.5237	0.059
Mof_H 	H 	0.8754	0.0505	0.6425	0.055
Mof_H 	H 	0.7689	0.9904	0.7388	0.052
Mof_H 	H 	0.6652	0.0723	0.6455	0.055
Mof_H 	H 	0.2146	0.8618	0.0456	0.059
Mof_H 	H 	0.1414	0.87	0.0997	0.048
Mof_H 	H 	0.0689	0.6737	0.079	0.047
Mof_H 	H 	0.1399	0.6662	0.0237	0.059
Mof_H 	H 	0.0505	0.8754	0.1425	0.055
Mof_H 	H 	0.9904	0.7689	0.2388	0.052
Mof_H 	H 	0.0723	0.6652	0.1455	0.055
Mof_H 	H 	0.2854	0.6382	0.0456	0.058
Mof_H 	H 	0.3586	0.63	0.0997	0.048
Mof_H 	H 	0.4311	0.8263	0.079	0.047
Mof_H 	H 	0.3601	0.8338	0.0237	0.059
Mof_H 	H 	0.4495	0.6246	0.1425	0.055
Mof_H 	H 	0.5096	0.7311	0.2388	0.053
Mof_H 	H 	0.4277	0.8348	0.1455	0.055
Mof_H 	H 	0.6382	0.2146	0.0456	0.058
Mof_H 	H 	0.63	0.1414	0.0997	0.048
Mof_H 	H 	0.8263	0.0689	0.079	0.047
Mof_H 	H 	0.8338	0.1399	0.0237	0.059
Mof_H 	H 	0.6246	0.0505	0.1425	0.055
Mof_H 	H 	0.7311	0.9904	0.2388	0.053
Mof_H 	H 	0.8348	0.0723	0.1455	0.055
Mof_H 	H 	0.8618	0.2854	0.0456	0.059
Mof_H 	H 	0.87	0.3586	0.0997	0.048
Mof_H 	H 	0.6737	0.4311	0.079	0.047
Mof_H 	H 	0.6662	0.3601	0.0237	0.059
Mof_H 	H 	0.8754	0.4495	0.1425	0.055
Mof_H 	H 	0.7689	0.5096	0.2388	0.053
Mof_H 	H 	0.6652	0.4277	0.1455	0.055
Mof_H 	H 	0.7854	0.3618	0.4544	0.058
Mof_H 	H 	0.8586	0.37	0.4003	0.048
Mof_H 	H 	0.9311	0.1737	0.421	0.047
Mof_H 	H 	0.8601	0.1662	0.4763	0.059
Mof_H 	H 	0.9495	0.3754	0.3575	0.055
Mof_H 	H 	0.0096	0.2689	0.2612	0.052
Mof_H 	H 	0.9277	0.1652	0.3545	0.055
Mof_H 	H 	0.7146	0.1382	0.4544	0.059
Mof_H 	H 	0.6414	0.13	0.4003	0.048
Mof_H 	H 	0.5689	0.3263	0.421	0.046
Mof_H 	H 	0.6399	0.3338	0.4763	0.059
Mof_H 	H 	0.5505	0.1246	0.3575	0.055
Mof_H 	H 	0.4904	0.2311	0.2612	0.053
Mof_H 	H 	0.5723	0.3348	0.3545	0.055
Mof_H 	H 	0.3618	0.7146	0.4544	0.058
Mof_H 	H 	0.37	0.6414	0.4003	0.048
Mof_H 	H 	0.1737	0.5689	0.421	0.046
Mof_H 	H 	0.1662	0.6399	0.4763	0.059
Mof_H 	H 	0.3754	0.5505	0.3575	0.055
Mof_H 	H 	0.2689	0.4904	0.2612	0.053
Mof_H 	H 	0.1652	0.5723	0.3545	0.055
Mof_H 	H 	0.1382	0.7854	0.4544	0.058
Mof_H 	H 	0.13	0.8586	0.4003	0.048
Mof_H 	H 	0.3263	0.9311	0.421	0.047
Mof_H 	H 	0.3338	0.8601	0.4763	0.059
Mof_H 	H 	0.1246	0.9495	0.3575	0.055
Mof_H 	H 	0.2311	0.0096	0.2612	0.052
Mof_H 	H 	0.3348	0.9277	0.3545	0.055
Mof_C 	C 	0.8114	0.2384	0.9711	0.046
Mof_C 	C 	0.8137	0.1767	0.94756	-0.073
Mof_C 	C 	0.857	0.1721	0.91457	-0.042
Mof_C 	C 	0.8987	0.2294	0.90201	0.013
Mof_C 	C 	0.9006	0.2891	0.92704	-0.043
Mof_C 	C 	0.8579	0.2935	0.96049	-0.076
Mof_C 	C 	0.934	0.2286	0.86293	0.001
Mof_C 	C 	0.9542	0.1673	0.84409	-0.022
Mof_C 	C 	0.9817	0.1669	0.80563	-0.078
Mof_C 	C 	0.9896	0.2308	0.78651	0.025
Mof_C 	C 	0.9693	0.2949	0.80339	-0.081
Mof_C 	C 	0.9414	0.2928	0.84223	-0.021
Mof_C 	C 	0.9981	0.0993	0.78498	0.339
Mof_C 	C 	0.9733	0.3628	0.78172	0.349
Mof_C 	C 	0.6886	0.2616	0.9711	0.046
Mof_C 	C 	0.6863	0.3233	0.94756	-0.073
Mof_C 	C 	0.643	0.3279	0.91457	-0.042
Mof_C 	C 	0.6013	0.2706	0.90201	0.013
Mof_C 	C 	0.5994	0.2109	0.92704	-0.042
Mof_C 	C 	0.6421	0.2065	0.96049	-0.076
Mof_C 	C 	0.566	0.2714	0.86293	0.002
Mof_C 	C 	0.5458	0.3327	0.84409	-0.023
Mof_C 	C 	0.5183	0.3331	0.80563	-0.077
Mof_C 	C 	0.5104	0.2692	0.78651	0.023
Mof_C 	C 	0.5307	0.2051	0.80339	-0.08
Mof_C 	C 	0.5586	0.2072	0.84223	-0.021
Mof_C 	C 	0.5019	0.4007	0.78498	0.338
Mof_C 	C 	0.5267	0.1372	0.78172	0.348
Mof_C 	C 	0.2616	0.8114	0.9711	0.046
Mof_C 	C 	0.3233	0.8137	0.94756	-0.073
Mof_C 	C 	0.3279	0.857	0.91457	-0.042
Mof_C 	C 	0.2706	0.8987	0.90201	0.013
Mof_C 	C 	0.2109	0.9006	0.92704	-0.043
Mof_C 	C 	0.2065	0.8579	0.96049	-0.076
Mof_C 	C 	0.2714	0.934	0.86293	0.001
Mof_C 	C 	0.3327	0.9542	0.84409	-0.022
Mof_C 	C 	0.3331	0.9817	0.80563	-0.077
Mof_C 	C 	0.2692	0.9896	0.78651	0.025
Mof_C 	C 	0.2051	0.9693	0.80339	-0.081
Mof_C 	C 	0.2072	0.9414	0.84223	-0.021
Mof_C 	C 	0.4007	0.9981	0.78498	0.339
Mof_C 	C 	0.1372	0.9733	0.78172	0.35
Mof_C 	C 	0.2384	0.6886	0.9711	0.046
Mof_C 	C 	0.1767	0.6863	0.94756	-0.073
Mof_C 	C 	0.1721	0.643	0.91457	-0.042
Mof_C 	C 	0.2294	0.6013	0.90201	0.013
Mof_C 	C 	0.2891	0.5994	0.92704	-0.042
Mof_C 	C 	0.2935	0.6421	0.96049	-0.076
Mof_C 	C 	0.2286	0.566	0.86293	0.002
Mof_C 	C 	0.1673	0.5458	0.84409	-0.023
Mof_C 	C 	0.1669	0.5183	0.80563	-0.077
Mof_C 	C 	0.2308	0.5104	0.78651	0.023
Mof_C 	C 	0.2949	0.5307	0.80339	-0.08
Mof_C 	C 	0.2928	0.5586	0.84223	-0.021
Mof_C 	C 	0.0993	0.5019	0.78498	0.338
Mof_C 	C 	0.3628	0.5267	0.78172	0.349
Mof_C 	C 	0.1886	0.7384	0.5289	0.048
Mof_C 	C 	0.1863	0.6767	0.55244	-0.074
Mof_C 	C 	0.143	0.6721	0.58543	-0.041
Mof_C 	C 	0.1013	0.7294	0.59799	0.012
Mof_C 	C 	0.0994	0.7891	0.57296	-0.042
Mof_C 	C 	0.1421	0.7935	0.53951	-0.077
Mof_C 	C 	0.066	0.7286	0.63707	0.001
Mof_C 	C 	0.0458	0.6673	0.65591	-0.022
Mof_C 	C 	0.0183	0.6669	0.69437	-0.077
Mof_C 	C 	0.0104	0.7308	0.71349	0.025
Mof_C 	C 	0.0307	0.7949	0.69661	-0.081
Mof_C 	C 	0.0586	0.7928	0.65777	-0.021
Mof_C 	C 	0.0019	0.5993	0.71502	0.339
Mof_C 	C 	0.0267	0.8628	0.71828	0.35
Mof_C 	C 	0.3114	0.7616	0.5289	0.048
Mof_C 	C 	0.3137	0.8233	0.55244	-0.074
Mof_C 	C 	0.357	0.8279	0.58543	-0.041
Mof_C 	C 	0.3987	0.7706	0.59799	0.012
Mof_C 	C 	0.4006	0.7109	0.57296	-0.042
Mof_C 	C 	0.3579	0.7065	0.53951	-0.077
Mof_C 	C 	0.434	0.7714	0.63707	0.002
Mof_C 	C 	0.4542	0.8327	0.65591	-0.023
Mof_C 	C 	0.4817	0.8331	0.69437	-0.077
Mof_C 	C 	0.4896	0.7692	0.71349	0.023
Mof_C 	C 	0.4693	0.7051	0.69661	-0.08
Mof_C 	C 	0.4414	0.7072	0.65777	-0.021
Mof_C 	C 	0.4981	0.9007	0.71502	0.338
Mof_C 	C 	0.4733	0.6372	0.71828	0.348
Mof_C 	C 	0.7384	0.3114	0.5289	0.048
Mof_C 	C 	0.6767	0.3137	0.55244	-0.074
Mof_C 	C 	0.6721	0.357	0.58543	-0.041
Mof_C 	C 	0.7294	0.3987	0.59799	0.012
Mof_C 	C 	0.7891	0.4006	0.57296	-0.042
Mof_C 	C 	0.7935	0.3579	0.53951	-0.077
Mof_C 	C 	0.7286	0.434	0.63707	0.002
Mof_C 	C 	0.6673	0.4542	0.65591	-0.023
Mof_C 	C 	0.6669	0.4817	0.69437	-0.077
Mof_C 	C 	0.7308	0.4896	0.71349	0.023
Mof_C 	C 	0.7949	0.4693	0.69661	-0.08
Mof_C 	C 	0.7928	0.4414	0.65777	-0.021
Mof_C 	C 	0.5993	0.4981	0.71502	0.338
Mof_C 	C 	0.8628	0.4733	0.71828	0.348
Mof_C 	C 	0.7616	0.1886	0.5289	0.048
Mof_C 	C 	0.8233	0.1863	0.55244	-0.074
Mof_C 	C 	0.8279	0.143	0.58543	-0.041
Mof_C 	C 	0.7706	0.1013	0.59799	0.013
Mof_C 	C 	0.7109	0.0994	0.57296	-0.042
Mof_C 	C 	0.7065	0.1421	0.53951	-0.077
Mof_C 	C 	0.7714	0.066	0.63707	0.001
Mof_C 	C 	0.8327	0.0458	0.65591	-0.022
Mof_C 	C 	0.8331	0.0183	0.69437	-0.078
Mof_C 	C 	0.7692	0.0104	0.71349	0.025
Mof_C 	C 	0.7051	0.0307	0.69661	-0.081
Mof_C 	C 	0.7072	0.0586	0.65777	-0.021
Mof_C 	C 	0.9007	0.0019	0.71502	0.339
Mof_C 	C 	0.6372	0.0267	0.71828	0.349
Mof_C 	C 	0.1886	0.7616	0.0289	0.047
Mof_C 	C 	0.1863	0.8233	0.05244	-0.073
Mof_C 	C 	0.143	0.8279	0.08543	-0.042
Mof_C 	C 	0.1013	0.7706	0.09799	0.013
Mof_C 	C 	0.0994	0.7109	0.07296	-0.042
Mof_C 	C 	0.1421	0.7065	0.03951	-0.077
Mof_C 	C 	0.066	0.7714	0.13707	0.001
Mof_C 	C 	0.0458	0.8327	0.15591	-0.022
Mof_C 	C 	0.0183	0.8331	0.19437	-0.077
Mof_C 	C 	0.0104	0.7692	0.21349	0.025
Mof_C 	C 	0.0307	0.7051	0.19661	-0.081
Mof_C 	C 	0.0586	0.7072	0.15777	-0.021
Mof_C 	C 	0.0019	0.9007	0.21502	0.339
Mof_C 	C 	0.0267	0.6372	0.21828	0.349
Mof_C 	C 	0.3114	0.7384	0.0289	0.048
Mof_C 	C 	0.3137	0.6767	0.05244	-0.074
Mof_C 	C 	0.357	0.6721	0.08543	-0.041
Mof_C 	C 	0.3987	0.7294	0.09799	0.012
Mof_C 	C 	0.4006	0.7891	0.07296	-0.042
Mof_C 	C 	0.3579	0.7935	0.03951	-0.077
Mof_C 	C 	0.434	0.7286	0.13707	0.002
Mof_C 	C 	0.4542	0.6673	0.15591	-0.023
Mof_C 	C 	0.4817	0.6669	0.19437	-0.077
Mof_C 	C 	0.4896	0.7308	0.21349	0.023
Mof_C 	C 	0.4693	0.7949	0.19661	-0.08
Mof_C 	C 	0.4414	0.7928	0.15777	-0.021
Mof_C 	C 	0.4981	0.5993	0.21502	0.338
Mof_C 	C 	0.4733	0.8628	0.21828	0.348
Mof_C 	C 	0.7384	0.1886	0.0289	0.047
Mof_C 	C 	0.6767	0.1863	0.05244	-0.074
Mof_C 	C 	0.6721	0.143	0.08543	-0.042
Mof_C 	C 	0.7294	0.1013	0.09799	0.013
Mof_C 	C 	0.7891	0.0994	0.07296	-0.042
Mof_C 	C 	0.7935	0.1421	0.03951	-0.077
Mof_C 	C 	0.7286	0.066	0.13707	0.001
Mof_C 	C 	0.6673	0.0458	0.15591	-0.023
Mof_C 	C 	0.6669	0.0183	0.19437	-0.077
Mof_C 	C 	0.7308	0.0104	0.21349	0.025
Mof_C 	C 	0.7949	0.0307	0.19661	-0.081
Mof_C 	C 	0.7928	0.0586	0.15777	-0.021
Mof_C 	C 	0.5993	0.0019	0.21502	0.338
Mof_C 	C 	0.8628	0.0267	0.21828	0.35
Mof_C 	C 	0.7616	0.3114	0.0289	0.048
Mof_C 	C 	0.8233	0.3137	0.05244	-0.074
Mof_C 	C 	0.8279	0.357	0.08543	-0.041
Mof_C 	C 	0.7706	0.3987	0.09799	0.012
Mof_C 	C 	0.7109	0.4006	0.07296	-0.042
Mof_C 	C 	0.7065	0.3579	0.03951	-0.077
Mof_C 	C 	0.7714	0.434	0.13707	0.002
Mof_C 	C 	0.8327	0.4542	0.15591	-0.023
Mof_C 	C 	0.8331	0.4817	0.19437	-0.077
Mof_C 	C 	0.7692	0.4896	0.21349	0.023
Mof_C 	C 	0.7051	0.4693	0.19661	-0.08
Mof_C 	C 	0.7072	0.4414	0.15777	-0.021
Mof_C 	C 	0.9007	0.4981	0.21502	0.338
Mof_C 	C 	0.6372	0.4733	0.21828	0.348
Mof_C 	C 	0.8114	0.2616	0.4711	0.048
Mof_C 	C 	0.8137	0.3233	0.44756	-0.074
Mof_C 	C 	0.857	0.3279	0.41457	-0.041
Mof_C 	C 	0.8987	0.2706	0.40201	0.012
Mof_C 	C 	0.9006	0.2109	0.42704	-0.042
Mof_C 	C 	0.8579	0.2065	0.46049	-0.077
Mof_C 	C 	0.934	0.2714	0.36293	0.001
Mof_C 	C 	0.9542	0.3327	0.34409	-0.022
Mof_C 	C 	0.9817	0.3331	0.30563	-0.077
Mof_C 	C 	0.9896	0.2692	0.28651	0.025
Mof_C 	C 	0.9693	0.2051	0.30339	-0.081
Mof_C 	C 	0.9414	0.2072	0.34223	-0.021
Mof_C 	C 	0.9981	0.4007	0.28498	0.339
Mof_C 	C 	0.9733	0.1372	0.28172	0.35
Mof_C 	C 	0.6886	0.2384	0.4711	0.048
Mof_C 	C 	0.6863	0.1767	0.44756	-0.074
Mof_C 	C 	0.643	0.1721	0.41457	-0.041
Mof_C 	C 	0.6013	0.2294	0.40201	0.012
Mof_C 	C 	0.5994	0.2891	0.42704	-0.042
Mof_C 	C 	0.6421	0.2935	0.46049	-0.077
Mof_C 	C 	0.566	0.2286	0.36293	0.002
Mof_C 	C 	0.5458	0.1673	0.34409	-0.023
Mof_C 	C 	0.5183	0.1669	0.30563	-0.077
Mof_C 	C 	0.5104	0.2308	0.28651	0.023
Mof_C 	C 	0.5307	0.2949	0.30339	-0.08
Mof_C 	C 	0.5586	0.2928	0.34223	-0.021
Mof_C 	C 	0.5019	0.0993	0.28498	0.338
Mof_C 	C 	0.5267	0.3628	0.28172	0.348
Mof_C 	C 	0.2616	0.6886	0.4711	0.048
Mof_C 	C 	0.3233	0.6863	0.44756	-0.074
Mof_C 	C 	0.3279	0.643	0.41457	-0.041
Mof_C 	C 	0.2706	0.6013	0.40201	0.012
Mof_C 	C 	0.2109	0.5994	0.42704	-0.042
Mof_C 	C 	0.2065	0.6421	0.46049	-0.077
Mof_C 	C 	0.2714	0.566	0.36293	0.002
Mof_C 	C 	0.3327	0.5458	0.34409	-0.023
Mof_C 	C 	0.3331	0.5183	0.30563	-0.077
Mof_C 	C 	0.2692	0.5104	0.28651	0.023
Mof_C 	C 	0.2051	0.5307	0.30339	-0.08
Mof_C 	C 	0.2072	0.5586	0.34223	-0.021
Mof_C 	C 	0.4007	0.5019	0.28498	0.338
Mof_C 	C 	0.1372	0.5267	0.28172	0.348
Mof_C 	C 	0.2384	0.8114	0.4711	0.048
Mof_C 	C 	0.1767	0.8137	0.44756	-0.074
Mof_C 	C 	0.1721	0.857	0.41457	-0.041
Mof_C 	C 	0.2294	0.8987	0.40201	0.013
Mof_C 	C 	0.2891	0.9006	0.42704	-0.042
Mof_C 	C 	0.2935	0.8579	0.46049	-0.077
Mof_C 	C 	0.2286	0.934	0.36293	0.001
Mof_C 	C 	0.1673	0.9542	0.34409	-0.022
Mof_C 	C 	0.1669	0.9817	0.30563	-0.078
Mof_C 	C 	0.2308	0.9896	0.28651	0.025
Mof_C 	C 	0.2949	0.9693	0.30339	-0.081
Mof_C 	C 	0.2928	0.9414	0.34223	-0.021
Mof_C 	C 	0.0993	0.9981	0.28498	0.339
Mof_C 	C 	0.3628	0.9733	0.28172	0.349
Mof_C 	C 	0.75	0.25	-0	-0.068
Mof_C 	C 	0.25	0.75	-0	-0.068
Mof_C 	C 	0.25	0.75	0.5	-0.071
Mof_C 	C 	0.75	0.25	0.5	-0.071
Mof_O 	O 	0.94423	0.41546	0.79807	-0.403
Mof_O 	O 	0.00547	0.36289	0.74841	-0.403
Mof_O 	O 	0.02585	0.10066	0.75124	-0.398
Mof_O 	O 	0.97976	0.04262	0.80439	-0.397
Mof_O 	O 	0.55577	0.08454	0.79807	-0.403
Mof_O 	O 	0.49453	0.13711	0.74841	-0.403
Mof_O 	O 	0.47415	0.39934	0.75124	-0.397
Mof_O 	O 	0.52024	0.45738	0.80439	-0.397
Mof_O 	O 	0.08454	0.94423	0.79807	-0.403
Mof_O 	O 	0.13711	0.00547	0.74841	-0.404
Mof_O 	O 	0.39934	0.02585	0.75124	-0.397
Mof_O 	O 	0.45738	0.97976	0.80439	-0.397
Mof_O 	O 	0.41546	0.55577	0.79807	-0.403
Mof_O 	O 	0.36289	0.49453	0.74841	-0.403
Mof_O 	O 	0.10066	0.47415	0.75124	-0.397
Mof_O 	O 	0.04262	0.52024	0.80439	-0.397
Mof_O 	O 	0.05577	0.91546	0.70193	-0.403
Mof_O 	O 	0.99453	0.86289	0.75159	-0.404
Mof_O 	O 	0.97415	0.60066	0.74876	-0.397
Mof_O 	O 	0.02024	0.54262	0.69561	-0.397
Mof_O 	O 	0.44423	0.58454	0.70193	-0.403
Mof_O 	O 	0.50547	0.63711	0.75159	-0.403
Mof_O 	O 	0.52585	0.89934	0.74876	-0.397
Mof_O 	O 	0.47976	0.95738	0.69561	-0.397
Mof_O 	O 	0.91546	0.44423	0.70193	-0.403
Mof_O 	O 	0.86289	0.50547	0.75159	-0.403
Mof_O 	O 	0.60066	0.52585	0.74876	-0.397
Mof_O 	O 	0.54262	0.47976	0.69561	-0.397
Mof_O 	O 	0.58454	0.05577	0.70193	-0.403
Mof_O 	O 	0.63711	0.99453	0.75159	-0.403
Mof_O 	O 	0.89934	0.97415	0.74876	-0.398
Mof_O 	O 	0.95738	0.02024	0.69561	-0.397
Mof_O 	O 	0.05577	0.58454	0.20193	-0.403
Mof_O 	O 	0.99453	0.63711	0.25159	-0.403
Mof_O 	O 	0.97415	0.89934	0.24876	-0.398
Mof_O 	O 	0.02024	0.95738	0.19561	-0.397
Mof_O 	O 	0.44423	0.91546	0.20193	-0.403
Mof_O 	O 	0.50547	0.86289	0.25159	-0.403
Mof_O 	O 	0.52585	0.60066	0.24876	-0.397
Mof_O 	O 	0.47976	0.54262	0.19561	-0.397
Mof_O 	O 	0.91546	0.05577	0.20193	-0.403
Mof_O 	O 	0.86289	0.99453	0.25159	-0.404
Mof_O 	O 	0.60066	0.97415	0.24876	-0.397
Mof_O 	O 	0.54262	0.02024	0.19561	-0.397
Mof_O 	O 	0.58454	0.44423	0.20193	-0.403
Mof_O 	O 	0.63711	0.50547	0.25159	-0.403
Mof_O 	O 	0.89934	0.52585	0.24876	-0.397
Mof_O 	O 	0.95738	0.47976	0.19561	-0.397
Mof_O 	O 	0.94423	0.08454	0.29807	-0.403
Mof_O 	O 	0.00547	0.13711	0.24841	-0.404
Mof_O 	O 	0.02585	0.39934	0.25124	-0.397
Mof_O 	O 	0.97976	0.45738	0.30439	-0.397
Mof_O 	O 	0.55577	0.41546	0.29807	-0.403
Mof_O 	O 	0.49453	0.36289	0.24841	-0.403
Mof_O 	O 	0.47415	0.10066	0.25124	-0.397
Mof_O 	O 	0.52024	0.04262	0.30439	-0.397
Mof_O 	O 	0.08454	0.55577	0.29807	-0.403
Mof_O 	O 	0.13711	0.49453	0.24841	-0.403
Mof_O 	O 	0.39934	0.47415	0.25124	-0.397
Mof_O 	O 	0.45738	0.52024	0.30439	-0.397
Mof_O 	O 	0.41546	0.94423	0.29807	-0.403
Mof_O 	O 	0.36289	0.00547	0.24841	-0.403
Mof_O 	O 	0.10066	0.02585	0.25124	-0.398
Mof_O 	O 	0.04262	0.97976	0.30439	-0.397
_end
