# CIF file generated by openbabel 3.1.0, see https://openbabel.org
data_I
_chemical_name_common 'image0'
_cell_length_a 12.6539
_cell_length_b 12.6539
_cell_length_c 15.1151
_cell_angle_alpha 90
_cell_angle_beta 90
_cell_angle_gamma 120
_space_group_name_H-M_alt 'P 1'
_space_group_name_Hall 'P 1'
loop_
    _symmetry_equiv_pos_as_xyz
    x,y,z
loop_
    _atom_site_label
    _atom_site_type_symbol
    _atom_site_fract_x
    _atom_site_fract_y
    _atom_site_fract_z
    _atom_site_occupancy
    Ti1      Ti       0.52750    0.21230    0.35853    1.000
    Ti2      Ti       0.49026    0.75639    0.81731    1.000
    O1       O        0.43225    0.68870    0.70891    1.000
    O2       O        0.48479    0.31651    0.41903    1.000
    O3       O        0.61320    0.48320    0.46866    1.000
    O4       O        0.49798    0.62502    0.86057    1.000
    O5       O        0.56028    0.31810    0.25412    1.000
    O6       O        0.33190    0.49407    0.92108    1.000
    O7       O        0.52705    0.41053    0.32778    1.000
    O8       O        0.39440    0.50384    0.76780    1.000
    C1       C        0.50300    0.39620    0.47915    1.000
    C2       C        0.43740    0.59610    0.72361    1.000
    C3       C        0.40254    0.42000    0.52076    1.000
    C4       C        0.54032    0.60331    0.66622    1.000
    C5       C        0.41218    0.54752    0.52254    1.000
    C6       C        0.53781    0.48142    0.65561    1.000
    C7       C        0.52183    0.64615    0.57513    1.000
    C8       C        0.42050    0.38448    0.61224    1.000
    C9       C        0.49477    0.43394    0.99883    1.000
    C10      C        0.47050    0.41238    0.16183    1.000
    C11      C        0.53724    0.40007    0.08186    1.000
    C12      C        0.49814    0.54358    0.17193    1.000
    C13      C        0.47710    0.59594    0.08916    1.000
    C14      C        0.52466    0.56616    0.00562    1.000
    C15      C        0.44351    0.56912    0.93002    1.000
    C16      C        0.51332    0.38860    0.24951    1.000
    Ti3      Ti       0.78770    0.31520    0.35853    1.000
    Ti4      Ti       0.24361    0.73387    0.81731    1.000
    O9       O        0.31130    0.74355    0.70891    1.000
    O10      O        0.68349    0.16828    0.41903    1.000
    O11      O        0.51680    0.13000    0.46866    1.000
    O12      O        0.37498    0.87296    0.86057    1.000
    O13      O        0.68190    0.24218    0.25412    1.000
    O14      O        0.50593    0.83783    0.92108    1.000
    O15      O        0.58947    0.11652    0.32778    1.000
    O16      O        0.49616    0.89056    0.76780    1.000
    C17      C        0.60380    0.10680    0.47915    1.000
    C18      C        0.40390    0.84130    0.72361    1.000
    C19      C        0.58000    0.98254    0.52076    1.000
    C20      C        0.39669    0.93701    0.66622    1.000
    C21      C        0.45248    0.86466    0.52254    1.000
    C22      C        0.51858    0.05639    0.65561    1.000
    C23      C        0.35385    0.87568    0.57513    1.000
    C24      C        0.61552    0.03602    0.61224    1.000
    C25      C        0.56606    0.06083    0.99883    1.000
    C26      C        0.58762    0.05812    0.16183    1.000
    C27      C        0.59993    0.13717    0.08186    1.000
    C28      C        0.45642    0.95456    0.17193    1.000
    C29      C        0.40406    0.88116    0.08916    1.000
    C30      C        0.43384    0.95850    0.00562    1.000
    C31      C        0.43088    0.87439    0.93002    1.000
    C32      C        0.61140    0.12472    0.24951    1.000
    Ti5      Ti       0.68480    0.47250    0.35853    1.000
    Ti6      Ti       0.26613    0.50974    0.81731    1.000
    O17      O        0.25645    0.56775    0.70891    1.000
    O18      O        0.83172    0.51521    0.41903    1.000
    O19      O        0.87000    0.38680    0.46866    1.000
    O20      O        0.12704    0.50202    0.86057    1.000
    O21      O        0.75782    0.43972    0.25412    1.000
    O22      O        0.16217    0.66810    0.92108    1.000
    O23      O        0.88348    0.47295    0.32778    1.000
    O24      O        0.10944    0.60560    0.76780    1.000
    C33      C        0.89320    0.49700    0.47915    1.000
    C34      C        0.15870    0.56260    0.72361    1.000
    C35      C        0.01746    0.59746    0.52076    1.000
    C36      C        0.06299    0.45968    0.66622    1.000
    C37      C        0.13534    0.58782    0.52254    1.000
    C38      C        0.94361    0.46219    0.65561    1.000
    C39      C        0.12432    0.47817    0.57513    1.000
    C40      C        0.96398    0.57950    0.61224    1.000
    C41      C        0.93917    0.50523    0.99883    1.000
    C42      C        0.94188    0.52950    0.16183    1.000
    C43      C        0.86283    0.46276    0.08186    1.000
    C44      C        0.04544    0.50186    0.17193    1.000
    C45      C        0.11884    0.52290    0.08916    1.000
    C46      C        0.04150    0.47534    0.00562    1.000
    C47      C        0.12561    0.55649    0.93002    1.000
    C48      C        0.87528    0.48668    0.24951    1.000
    O25      O        0.66667    0.33333    0.40397    1.000
    O26      O        0.33333    0.66667    0.84779    1.000
