data_functionalizedCrystal
_audit_creation_method	'EQeq! by Chris Wilmer'
_symmetry_space_group_name_H-M	'P1'
_symmetry_Int_Tables_number	1
_symmetry_cell_setting	triclinic
loop_
_symmetry_equiv_pos_as_xyz
  x,y,z
_cell_length_a	8.7253
_cell_length_b	12.7809
_cell_length_c	19.4746
_cell_angle_alpha	90
_cell_angle_beta	90
_cell_angle_gamma	109.959
loop_
_atom_site_label
_atom_site_type_symbol
_atom_site_fract_x
_atom_site_fract_y
_atom_site_fract_z
_atom_site_charge
Mof_Nd	Nd	0.25807	0.51614	0.5	2.286
Mof_Nd	Nd	0.74193	0.48386	-0	1.814
Mof_Nd	Nd	0.74193	0.48386	0.5	2.289
Mof_Nd	Nd	0.25807	0.51614	-0	1.798
Mof_H 	H 	0.239	0.9032	0.5416	0.031
Mof_H 	H 	0.6628	0.666	0.6868	0.161
Mof_H 	H 	0.6602	0.5404	0.684	0.17
Mof_H 	H 	0.761	0.0968	0.0416	0.016
Mof_H 	H 	0.3372	0.334	0.1868	0.151
Mof_H 	H 	0.3398	0.4596	0.184	0.17
Mof_H 	H 	0.3358	0.0968	0.9584	0.027
Mof_H 	H 	0.9968	0.334	0.8132	0.168
Mof_H 	H 	0.1198	0.4596	0.816	0.174
Mof_H 	H 	0.6642	0.9032	0.4584	0.031
Mof_H 	H 	0.0032	0.666	0.3132	0.135
Mof_H 	H 	0.8802	0.5404	0.316	0.153
Mof_H 	H 	0.761	0.0968	0.4584	0.031
Mof_H 	H 	0.3372	0.334	0.3132	0.155
Mof_H 	H 	0.3398	0.4596	0.316	0.167
Mof_H 	H 	0.239	0.9032	0.9584	0.024
Mof_H 	H 	0.6628	0.666	0.8132	0.174
Mof_H 	H 	0.6602	0.5404	0.816	0.177
Mof_H 	H 	0.6642	0.9032	0.0416	0.015
Mof_H 	H 	0.0032	0.666	0.1868	0.128
Mof_H 	H 	0.8802	0.5404	0.184	0.154
Mof_H 	H 	0.3358	0.0968	0.5416	0.032
Mof_H 	H 	0.9968	0.334	0.6868	0.159
Mof_H 	H 	0.1198	0.4596	0.684	0.169
Mof_H 	H 	0.4128	0.6042	0.75	-0.043
Mof_H 	H 	0.4203	0.481	0.75	-0.07
Mof_H 	H 	0.5872	0.3958	0.25	-0.049
Mof_H 	H 	0.5797	0.519	0.25	-0.074
Mof_H 	H 	0.8086	0.3958	0.75	-0.04
Mof_H 	H 	0.9393	0.519	0.75	-0.067
Mof_H 	H 	0.1914	0.6042	0.25	-0.033
Mof_H 	H 	0.0607	0.481	0.25	-0.06
Mof_C 	C 	0.34531	0.94242	0.52466	-0.025
Mof_C 	C 	0.49228	0.56876	0.61974	0.538
Mof_C 	C 	0.59026	0.58732	0.68508	-0.53
Mof_C 	C 	0.65469	0.05758	0.02466	-0.021
Mof_C 	C 	0.50772	0.43124	0.11974	0.51
Mof_C 	C 	0.40974	0.41268	0.18508	-0.52
Mof_C 	C 	0.40289	0.05758	0.97534	0.13
Mof_C 	C 	0.92352	0.43124	0.88026	0.498
Mof_C 	C 	0.00294	0.41268	0.81492	-0.498
Mof_C 	C 	0.59711	0.94242	0.47534	-0.025
Mof_C 	C 	0.07648	0.56876	0.38026	0.508
Mof_C 	C 	0.99706	0.58732	0.31492	-0.468
Mof_C 	C 	0.65469	0.05758	0.47534	-0.024
Mof_C 	C 	0.50772	0.43124	0.38026	0.535
Mof_C 	C 	0.40974	0.41268	0.31492	-0.528
Mof_C 	C 	0.34531	0.94242	0.97534	0.138
Mof_C 	C 	0.49228	0.56876	0.88026	0.507
Mof_C 	C 	0.59026	0.58732	0.81492	-0.513
Mof_C 	C 	0.59711	0.94242	0.02466	-0.023
Mof_C 	C 	0.07648	0.56876	0.11974	0.476
Mof_C 	C 	0.99706	0.58732	0.18508	-0.454
Mof_C 	C 	0.40289	0.05758	0.52466	-0.023
Mof_C 	C 	0.92352	0.43124	0.61974	0.536
Mof_C 	C 	0.00294	0.41268	0.68508	-0.521
Mof_C 	C 	0.37958	0.75916	0.5	0.327
Mof_C 	C 	0.44175	0.8835	0.5	-0.075
Mof_C 	C 	0.62042	0.24084	-0	0.151
Mof_C 	C 	0.55825	0.1165	-0	-0.208
Mof_C 	C 	0.62042	0.24084	0.5	0.327
Mof_C 	C 	0.55825	0.1165	0.5	-0.076
Mof_C 	C 	0.37958	0.75916	-0	0.149
Mof_C 	C 	0.44175	0.8835	-0	-0.212
Mof_C 	C 	0.48764	0.56088	0.75	0.304
Mof_C 	C 	0.51236	0.43912	0.25	0.305
Mof_C 	C 	0.92676	0.43912	0.75	0.292
Mof_C 	C 	0.07324	0.56088	0.25	0.244
Mof_O 	O 	0.23509	0.70698	0.51954	-0.455
Mof_O 	O 	0.35586	0.58272	0.61886	-0.527
Mof_O 	O 	0.54654	0.53908	0.56543	-0.712
Mof_O 	O 	0.76491	0.29302	0.01954	-0.413
Mof_O 	O 	0.64414	0.41728	0.11886	-0.491
Mof_O 	O 	0.45346	0.46092	0.06543	-0.668
Mof_O 	O 	0.52811	0.29302	0.98046	-0.221
Mof_O 	O 	0.77314	0.41728	0.88114	-0.433
Mof_O 	O 	0.00746	0.46092	0.93457	-0.532
Mof_O 	O 	0.47189	0.70698	0.48046	-0.455
Mof_O 	O 	0.22686	0.58272	0.38114	-0.523
Mof_O 	O 	0.99254	0.53908	0.43457	-0.701
Mof_O 	O 	0.76491	0.29302	0.48046	-0.455
Mof_O 	O 	0.64414	0.41728	0.38114	-0.529
Mof_O 	O 	0.45346	0.46092	0.43457	-0.712
Mof_O 	O 	0.23509	0.70698	0.98046	-0.217
Mof_O 	O 	0.35586	0.58272	0.88114	-0.432
Mof_O 	O 	0.54654	0.53908	0.93457	-0.535
Mof_O 	O 	0.47189	0.70698	0.01954	-0.413
Mof_O 	O 	0.22686	0.58272	0.11886	-0.484
Mof_O 	O 	0.99254	0.53908	0.06543	-0.653
Mof_O 	O 	0.52811	0.29302	0.51954	-0.454
Mof_O 	O 	0.77314	0.41728	0.61886	-0.527
Mof_O 	O 	0.00746	0.46092	0.56543	-0.712
_end
