# CIF file generated by openbabel 3.1.0, see https://openbabel.org
data_I
_chemical_name_common 'image0'
_cell_length_a 10.104
_cell_length_b 10.81
_cell_length_c 10.993
_cell_angle_alpha 90
_cell_angle_beta 90
_cell_angle_gamma 90
_space_group_name_H-M_alt 'P 1'
_space_group_name_Hall 'P 1'
loop_
    _symmetry_equiv_pos_as_xyz
    x,y,z
loop_
    _atom_site_label
    _atom_site_type_symbol
    _atom_site_fract_x
    _atom_site_fract_y
    _atom_site_fract_z
    _atom_site_occupancy
    O1       O        0.20019    0.02758    0.54562    1.000
    O2       O        0.55340    0.65758    0.26820    1.000
    O3       O        0.30965    0.69153    0.22555    1.000
    O4       O        0.19918    0.02642    0.31719    1.000
    O5       O        0.99166    0.97590    0.42845    1.000
    O6       O        0.46362    0.86834    0.27610    1.000
    P1       P        0.14181    0.97025    0.43213    1.000
    P2       P        0.43154    0.73320    0.29475    1.000
    Co1      Co       0.35445    0.00184    0.21405    1.000
    H1       H        0.16800    0.84690    0.43400    1.000
    H2       H        0.40500    0.72300    0.41660    1.000
    O7       O        0.29981    0.97242    0.04562    1.000
    O8       O        0.94660    0.34242    0.76820    1.000
    O9       O        0.19035    0.30847    0.72555    1.000
    O10      O        0.30082    0.97358    0.81719    1.000
    O11      O        0.50834    0.02410    0.92845    1.000
    O12      O        0.03638    0.13166    0.77610    1.000
    P3       P        0.35819    0.02975    0.93213    1.000
    P4       P        0.06846    0.26680    0.79475    1.000
    Co2      Co       0.14555    0.99816    0.71405    1.000
    H3       H        0.33200    0.15310    0.93400    1.000
    H4       H        0.09500    0.27700    0.91660    1.000
    O13      O        0.79981    0.52758    0.95438    1.000
    O14      O        0.44660    0.15758    0.23180    1.000
    O15      O        0.69035    0.19153    0.27445    1.000
    O16      O        0.80082    0.52642    0.18281    1.000
    O17      O        0.00834    0.47590    0.07155    1.000
    O18      O        0.53638    0.36834    0.22390    1.000
    P5       P        0.85819    0.47025    0.06787    1.000
    P6       P        0.56846    0.23320    0.20525    1.000
    Co3      Co       0.64555    0.50184    0.28595    1.000
    H5       H        0.83200    0.34690    0.06600    1.000
    H6       H        0.59500    0.22300    0.08340    1.000
    O19      O        0.70019    0.47242    0.45438    1.000
    O20      O        0.05340    0.84242    0.73180    1.000
    O21      O        0.80965    0.80847    0.77445    1.000
    O22      O        0.69918    0.47358    0.68281    1.000
    O23      O        0.49166    0.52410    0.57155    1.000
    O24      O        0.96362    0.63166    0.72390    1.000
    P7       P        0.64181    0.52975    0.56787    1.000
    P8       P        0.93154    0.76680    0.70525    1.000
    Co4      Co       0.85445    0.49816    0.78595    1.000
    H7       H        0.66800    0.65310    0.56600    1.000
    H8       H        0.90500    0.77700    0.58340    1.000
