data_functionalizedCrystal
_audit_creation_method	'EQeq! by Chris Wilmer'
_symmetry_space_group_name_H-M	'P1'
_symmetry_Int_Tables_number	1
_symmetry_cell_setting	triclinic
loop_
_symmetry_equiv_pos_as_xyz
  x,y,z
_cell_length_a	15.078
_cell_length_b	15.078
_cell_length_c	5.7
_cell_angle_alpha	90
_cell_angle_beta	90
_cell_angle_gamma	90
loop_
_atom_site_label
_atom_site_type_symbol
_atom_site_fract_x
_atom_site_fract_y
_atom_site_fract_z
_atom_site_charge
Mof_H 	H 	0.7022	0.3024	0.4165	0.06
Mof_H 	H 	0.2022	0.8024	0.9165	0.055
Mof_H 	H 	0.7978	0.6976	0.9165	0.057
Mof_H 	H 	0.2978	0.1976	0.4165	0.061
Mof_H 	H 	0.9476	0.4522	0.6665	0.069
Mof_H 	H 	0.4476	0.9522	0.1665	0.06
Mof_H 	H 	0.5524	0.5478	0.1665	0.061
Mof_H 	H 	0.0524	0.0478	0.6665	0.063
Mof_H 	H 	0.7978	0.3024	0.0835	0.052
Mof_H 	H 	0.2978	0.8024	0.5835	0.062
Mof_H 	H 	0.7022	0.6976	0.5835	0.062
Mof_H 	H 	0.2022	0.1976	0.0835	0.05
Mof_H 	H 	0.5524	0.4522	0.8335	0.055
Mof_H 	H 	0.0524	0.9522	0.3335	0.057
Mof_H 	H 	0.9476	0.5478	0.3335	0.065
Mof_H 	H 	0.4476	0.0478	0.8335	0.056
Mof_H 	H 	0.2978	0.6976	0.5835	0.062
Mof_H 	H 	0.7978	0.1976	0.0835	0.052
Mof_H 	H 	0.2022	0.3024	0.0835	0.05
Mof_H 	H 	0.7022	0.8024	0.5835	0.062
Mof_H 	H 	0.0524	0.5478	0.3335	0.059
Mof_H 	H 	0.5524	0.0478	0.8335	0.056
Mof_H 	H 	0.4476	0.4522	0.8335	0.055
Mof_H 	H 	0.9476	0.9522	0.3335	0.064
Mof_H 	H 	0.2022	0.6976	0.9165	0.055
Mof_H 	H 	0.7022	0.1976	0.4165	0.061
Mof_H 	H 	0.2978	0.3024	0.4165	0.061
Mof_H 	H 	0.7978	0.8024	0.9165	0.057
Mof_H 	H 	0.4476	0.5478	0.1665	0.061
Mof_H 	H 	0.9476	0.0478	0.6665	0.069
Mof_H 	H 	0.0524	0.4522	0.6665	0.062
Mof_H 	H 	0.5524	0.9522	0.1665	0.06
Mof_Ag	Ag	-1.19477e-33	0.25	0.875	0.64
Mof_Ag	Ag	0.5	0.75	0.375	0.627
Mof_Ag	Ag	3.22092e-33	0.75	0.125	0.602
Mof_Ag	Ag	0.5	0.25	0.625	0.632
Mof_N 	N 	0.883	0.25	0.628	-0.211
Mof_C 	C 	0.823	0.25	0.5	0.1
Mof_C 	C 	0.737	0.25	0.378	-0.163
Mof_N 	N 	0.617	0.75	0.128	-0.211
Mof_C 	C 	0.677	0.75	-0	0.075
Mof_C 	C 	0.763	0.75	0.878	-0.131
Mof_N 	N 	8.54946e-33	0.633	0.878	-0.209
Mof_C 	C 	-1.37194e-33	0.573	0.75	0.099
Mof_C 	C 	5.76012e-33	0.487	0.628	-0.167
Mof_N 	N 	0.5	0.133	0.378	-0.215
Mof_C 	C 	0.5	0.073	0.25	0.095
Mof_C 	C 	0.5	0.987	0.128	-0.17
Mof_N 	N 	0.5	0.367	0.378	-0.215
Mof_C 	C 	0.5	0.427	0.25	0.097
Mof_C 	C 	0.5	0.513	0.128	-0.174
Mof_N 	N 	-1.19052e-33	0.867	0.878	-0.209
Mof_C 	C 	-1.37194e-33	0.927	0.75	0.1
Mof_C 	C 	-1.54487e-33	0.013	0.628	-0.171
Mof_N 	N 	0.617	0.25	0.872	-0.202
Mof_C 	C 	0.677	0.25	-0	0.077
Mof_C 	C 	0.763	0.25	0.122	-0.14
Mof_N 	N 	0.883	0.75	0.372	-0.211
Mof_C 	C 	0.823	0.75	0.5	0.099
Mof_C 	C 	0.737	0.75	0.622	-0.165
Mof_N 	N 	0.383	0.25	0.872	-0.202
Mof_C 	C 	0.323	0.25	-0	0.076
Mof_C 	C 	0.237	0.25	0.122	-0.138
Mof_N 	N 	0.5	0.633	0.622	-0.211
Mof_C 	C 	0.5	0.573	0.75	0.095
Mof_C 	C 	0.5	0.487	0.872	-0.134
Mof_N 	N 	-4.35826e-34	0.133	0.122	-0.219
Mof_C 	C 	-8.63147e-34	0.073	0.25	0.091
Mof_C 	C 	4.17977e-33	0.987	0.372	-0.159
Mof_N 	N 	-1.65332e-33	0.367	0.122	-0.219
Mof_C 	C 	1.57185e-33	0.427	0.25	0.093
Mof_C 	C 	4.17977e-33	0.513	0.372	-0.163
Mof_N 	N 	0.5	0.867	0.622	-0.212
Mof_C 	C 	0.5	0.927	0.75	0.098
Mof_C 	C 	0.5	0.013	0.872	-0.14
Mof_N 	N 	0.117	0.75	0.372	-0.214
Mof_C 	C 	0.177	0.75	0.5	0.098
Mof_C 	C 	0.263	0.75	0.622	-0.166
Mof_N 	N 	0.383	0.75	0.128	-0.21
Mof_C 	C 	0.323	0.75	-0	0.075
Mof_C 	C 	0.237	0.75	0.878	-0.13
Mof_N 	N 	0.117	0.25	0.628	-0.214
Mof_C 	C 	0.177	0.25	0.5	0.099
Mof_C 	C 	0.263	0.25	0.378	-0.164
_end
