data_functionalizedCrystal
_audit_creation_method	'EQeq! by Chris Wilmer'
_symmetry_space_group_name_H-M	'P1'
_symmetry_Int_Tables_number	1
_symmetry_cell_setting	triclinic
loop_
_symmetry_equiv_pos_as_xyz
  x,y,z
_cell_length_a	7.5739
_cell_length_b	8.6167
_cell_length_c	9.867
_cell_angle_alpha	86.99
_cell_angle_beta	89.87
_cell_angle_gamma	85.24
loop_
_atom_site_label
_atom_site_type_symbol
_atom_site_fract_x
_atom_site_fract_y
_atom_site_fract_z
_atom_site_charge
Mof_Eu	Eu	0.56547	0.88473	0.83312	2.077
Mof_O 	O 	0.4104	0.2778	0.9611	-0.517
Mof_O 	O 	0.8669	0.7612	0.8647	-0.473
Mof_O 	O 	0.5704	0.6445	0.7245	-0.495
Mof_O 	O 	0.5014	0.162	0.7724	-0.572
Mof_O 	O 	0.3098	0.9706	0.9927	-0.638
Mof_O 	O 	0.2829	0.7602	0.8819	-0.469
Mof_N 	N 	0.0306	0.649	0.0387	-0.112
Mof_N 	N 	0.4338	0.456	0.628	-0.107
Mof_C 	C 	0.4257	0.2731	0.8345	0.52
Mof_C 	C 	0.9261	0.6425	0.931	0.318
Mof_C 	C 	0.8751	0.4884	0.8901	-0.22
Mof_H 	H 	0.7464	0.4839	0.9057	0.111
Mof_H 	H 	0.8961	0.4815	0.7915	0.088
Mof_C 	C 	0.5345	0.5736	0.6221	0.275
Mof_C 	C 	0.2348	0.8461	0.9742	0.427
Mof_C 	C 	0.0912	0.7984	0.0697	-0.216
Mof_H 	H 	0.1367	0.7923	0.1639	0.064
Mof_H 	H 	0.9899	0.8788	0.0636	0.081
Mof_C 	C 	0.3416	0.4144	0.7534	-0.305
Mof_H 	H 	0.2186	0.3946	0.7304	0.108
Mof_H 	H 	0.3354	0.5049	0.8116	0.147
Mof_C 	C 	0.6102	0.6284	0.4894	-0.183
Mof_H 	H 	0.5689	0.7397	0.4718	0.035
Mof_H 	H 	0.7408	0.6219	0.4982	0.056
Mof_Eu	Eu	0.43453	0.11527	0.16688	2.077
Mof_O 	O 	0.5896	0.7222	0.0389	-0.517
Mof_O 	O 	0.1331	0.2388	0.1353	-0.473
Mof_O 	O 	0.4296	0.3555	0.2755	-0.495
Mof_O 	O 	0.4986	0.838	0.2276	-0.572
Mof_O 	O 	0.6902	0.0294	0.0073	-0.638
Mof_O 	O 	0.7171	0.2398	0.1181	-0.469
Mof_N 	N 	0.9694	0.351	0.9613	-0.112
Mof_N 	N 	0.5662	0.544	0.372	-0.107
Mof_C 	C 	0.5743	0.7269	0.1655	0.52
Mof_C 	C 	0.0739	0.3575	0.069	0.318
Mof_C 	C 	0.1249	0.5116	0.1099	-0.22
Mof_H 	H 	0.2536	0.5161	0.0943	0.111
Mof_H 	H 	0.1039	0.5185	0.2085	0.088
Mof_C 	C 	0.4655	0.4264	0.3779	0.275
Mof_C 	C 	0.7652	0.1539	0.0258	0.427
Mof_C 	C 	0.9088	0.2016	0.9303	-0.216
Mof_H 	H 	0.8633	0.2077	0.8361	0.064
Mof_H 	H 	0.0101	0.1212	0.9364	0.081
Mof_C 	C 	0.6584	0.5856	0.2466	-0.305
Mof_H 	H 	0.7814	0.6054	0.2696	0.108
Mof_H 	H 	0.6646	0.4951	0.1884	0.147
Mof_C 	C 	0.3898	0.3716	0.5106	-0.183
Mof_H 	H 	0.4311	0.2603	0.5282	0.035
Mof_H 	H 	0.2592	0.3781	0.5018	0.056
_end
