# CIF file generated by openbabel 3.1.0, see https://openbabel.org
data_I
_chemical_name_common 'GOSBOH_clean'
_cell_length_a 14.174
_cell_length_b 15.4556
_cell_length_c 15.4556
_cell_angle_alpha 68.9104
_cell_angle_beta 72.2001
_cell_angle_gamma 107.8
_space_group_name_H-M_alt 'P 1'
_space_group_name_Hall 'P 1'
loop_
    _symmetry_equiv_pos_as_xyz
    x,y,z
loop_
    _atom_site_label
    _atom_site_type_symbol
    _atom_site_fract_x
    _atom_site_fract_y
    _atom_site_fract_z
    _atom_site_occupancy
    Cu1      Cu       0.00000    0.00000    0.50000    1.000
    Cu2      Cu       0.50000    0.50000    0.50000    1.000
    Cu3      Cu       0.00000    0.50000    0.00000    1.000
    H1       H        0.92240    0.58480    0.59470    1.000
    H2       H        0.48490    0.47510    0.86890    1.000
    H3       H        0.55710    0.50380    0.27290    1.000
    H4       H        0.07760    0.41520    0.40530    1.000
    H5       H        0.22200    0.12460    0.30030    1.000
    H6       H        0.99020    0.34400    0.52490    1.000
    H7       H        0.64620    0.13110    0.34400    1.000
    H8       H        0.89590    0.66760    0.90960    1.000
    H9       H        0.44290    0.49620    0.72710    1.000
    H10      H        0.52280    0.88290    0.62020    1.000
    H11      H        0.47720    0.11710    0.37980    1.000
    H12      H        0.09740    0.57510    0.12460    1.000
    H13      H        0.33760    0.82050    0.58480    1.000
    H14      H        0.19450    0.09040    0.57720    1.000
    H15      H        0.83000    0.27290    0.22330    1.000
    H16      H        0.57570    0.80210    0.49350    1.000
    H17      H        0.48510    0.27830    0.38590    1.000
    H18      H        0.52230    0.30030    0.57510    1.000
    H19      H        0.63990    0.49690    0.88290    1.000
    H20      H        0.20680    0.33580    0.27830    1.000
    H21      H        0.26680    0.37980    0.50770    1.000
    H22      H        0.05330    0.22330    0.50380    1.000
    H23      H        0.77360    0.70440    0.80210    1.000
    H24      H        0.51490    0.72170    0.61410    1.000
    H25      H        0.79320    0.66420    0.72170    1.000
    H26      H        0.93080    0.50650    0.29560    1.000
    H27      H        0.03720    0.51280    0.57400    1.000
    H28      H        0.17000    0.72710    0.77670    1.000
    H29      H        0.51710    0.59470    0.82050    1.000
    H30      H        0.14300    0.62020    0.49690    1.000
    H31      H        0.42430    0.19790    0.50650    1.000
    H32      H        0.77450    0.50770    0.11250    1.000
    H33      H        0.94670    0.77670    0.49620    1.000
    H34      H        0.52440    0.91320    0.51280    1.000
    H35      H        0.90260    0.42490    0.87540    1.000
    H36      H        0.22550    0.49230    0.88750    1.000
    H37      H        0.66240    0.17950    0.41520    1.000
    H38      H        0.10410    0.33240    0.09040    1.000
    H39      H        0.11300    0.88750    0.62020    1.000
    H40      H        0.80550    0.90960    0.42280    1.000
    H41      H        0.38880    0.42600    0.08680    1.000
    H42      H        0.51510    0.52490    0.13110    1.000
    H43      H        0.06920    0.49350    0.70440    1.000
    H44      H        0.22830    0.42280    0.66760    1.000
    H45      H        0.36010    0.50310    0.11710    1.000
    H46      H        0.87100    0.38590    0.33580    1.000
    H47      H        0.85700    0.37980    0.50310    1.000
    H48      H        0.77800    0.87540    0.69970    1.000
    H49      H        0.12900    0.61410    0.66420    1.000
    H50      H        0.48290    0.40530    0.17950    1.000
    H51      H        0.88700    0.11250    0.37980    1.000
    H52      H        0.96280    0.48720    0.42600    1.000
    H53      H        0.47560    0.08680    0.48720    1.000
    H54      H        0.61120    0.57400    0.91320    1.000
    H55      H        0.47770    0.69970    0.42490    1.000
    H56      H        0.00980    0.65600    0.47510    1.000
    H57      H        0.22640    0.29560    0.19790    1.000
    H58      H        0.77170    0.57720    0.33240    1.000
    H59      H        0.35380    0.86890    0.65600    1.000
    H60      H        0.73320    0.62020    0.49230    1.000
    C1       C        0.92400    0.15600    0.40020    1.000
    C2       C        0.27000    0.49500    0.61500    1.000
    C3       C        0.76800    0.44380    0.15600    1.000
    C4       C        0.92300    0.41800    0.43600    1.000
    C5       C        0.88900    0.48000    0.87200    1.000
    C6       C        0.00610    0.21010    0.47440    1.000
    C7       C        0.22500    0.11000    0.50500    1.000
    C8       C        0.63400    0.18000    0.36500    1.000
    C9       C        0.40900    0.64800    0.48000    1.000
    C10      C        0.99390    0.78990    0.52560    1.000
    C11      C        0.50500    0.14600    0.41800    1.000
    C12      C        0.12300    0.56300    0.64100    1.000
    C13      C        0.11500    0.38500    0.11000    1.000
    C14      C        0.11100    0.52000    0.12800    1.000
    C15      C        0.00100    0.63500    0.54500    1.000
    C16      C        0.64100    0.56400    0.85400    1.000
    C17      C        0.44000    0.20400    0.43700    1.000
    C18      C        0.51950    0.52560    0.68450    1.000
    C19      C        0.35900    0.43600    0.14600    1.000
    C20      C        0.79600    0.31550    0.21010    1.000
    C21      C        0.56000    0.79600    0.56300    1.000
    C22      C        0.07700    0.58200    0.56400    1.000
    C23      C        0.23900    0.12800    0.35200    1.000
    C24      C        0.36600    0.82000    0.63500    1.000
    C25      C        0.45400    0.45500    0.18000    1.000
    C26      C        0.88500    0.61500    0.89000    1.000
    C27      C        0.20400    0.68450    0.78990    1.000
    C28      C        0.32420    0.40020    0.44380    1.000
    C29      C        0.76400    0.64100    0.79600    1.000
    C30      C        0.23600    0.35900    0.20400    1.000
    C31      C        0.73000    0.50500    0.38500    1.000
    C32      C        0.76100    0.87200    0.64800    1.000
    C33      C        0.87700    0.43700    0.35900    1.000
    C34      C        0.23200    0.55620    0.84400    1.000
    C35      C        0.49500    0.85400    0.58200    1.000
    C36      C        0.99900    0.36500    0.45500    1.000
    C37      C        0.77500    0.89000    0.49500    1.000
    C38      C        0.67580    0.59980    0.55620    1.000
    C39      C        0.07600    0.84400    0.59980    1.000
    C40      C        0.59100    0.35200    0.52000    1.000
    C41      C        0.48050    0.47440    0.31550    1.000
    C42      C        0.54600    0.54500    0.82000    1.000
    N1       N        0.83100    0.51600    0.82400    1.000
    N2       N        0.16900    0.48400    0.17600    1.000
    N3       N        0.56030    0.53430    0.59300    1.000
    N4       N        0.68500    0.34000    0.48400    1.000
    N5       N        0.84670    0.40700    0.12730    1.000
    N6       N        0.59050    0.55940    0.71110    1.000
    N7       N        0.77100    0.43400    0.40100    1.000
    N8       N        0.03110    0.72950    0.55940    1.000
    N9       N        0.97400    0.12730    0.46570    1.000
    N10      N        0.40950    0.44060    0.28890    1.000
    N11      N        0.68300    0.37500    0.25400    1.000
    N12      N        0.17200    0.40100    0.16500    1.000
    N13      N        0.83610    0.91380    0.54400    1.000
    N14      N        0.16390    0.08620    0.45600    1.000
    N15      N        0.61990    0.45600    0.45780    1.000
    N16      N        0.02600    0.87270    0.53430    1.000
    N17      N        0.69200    0.62900    0.62500    1.000
    N18      N        0.96890    0.27050    0.44060    1.000
    N19      N        0.38010    0.54400    0.54220    1.000
    N20      N        0.65500    0.82400    0.66000    1.000
    N21      N        0.66300    0.83500    0.56600    1.000
    N22      N        0.31500    0.66000    0.51600    1.000
    N23      N        0.69840    0.28890    0.27050    1.000
    N24      N        0.07770    0.45780    0.08620    1.000
    N25      N        0.93700    0.25400    0.37100    1.000
    N26      N        0.30800    0.37100    0.37500    1.000
    N27      N        0.30160    0.71110    0.72950    1.000
    N28      N        0.92230    0.54220    0.91380    1.000
    N29      N        0.34500    0.17600    0.34000    1.000
    N30      N        0.06300    0.74600    0.62900    1.000
    N31      N        0.22900    0.56600    0.59900    1.000
    N32      N        0.33700    0.16500    0.43400    1.000
    N33      N        0.82800    0.59900    0.83500    1.000
    N34      N        0.43970    0.46570    0.40700    1.000
    N35      N        0.31700    0.62500    0.74600    1.000
    N36      N        0.15330    0.59300    0.87270    1.000
