data_functionalizedCrystal
_audit_creation_method	'EQeq! by Chris Wilmer'
_symmetry_space_group_name_H-M	'P1'
_symmetry_Int_Tables_number	1
_symmetry_cell_setting	triclinic
loop_
_symmetry_equiv_pos_as_xyz
  x,y,z
_cell_length_a	20.9259
_cell_length_b	20.9259
_cell_length_c	9.6322
_cell_angle_alpha	90
_cell_angle_beta	90
_cell_angle_gamma	90
loop_
_atom_site_label
_atom_site_type_symbol
_atom_site_fract_x
_atom_site_fract_y
_atom_site_fract_z
_atom_site_charge
Mof_K 	K 	0.33809	0.98095	0.14419	2.981
Mof_C 	C 	0.2749	0.88904	0.7448	-0.061
Mof_C 	C 	0.2267	0.9077	0.8343	-0.024
Mof_H 	H 	0.2343	0.9388	0.9012	-0.093
Mof_C 	C 	0.1665	0.8793	0.8231	-0.01
Mof_H 	H 	0.1347	0.892	0.8847	-0.043
Mof_C 	C 	0.2605	0.8423	0.6478	-0.079
Mof_H 	H 	0.2917	0.8281	0.5863	0.026
Mof_C 	C 	0.1999	0.8172	0.6434	0.037
Mof_H 	H 	0.1913	0.786	0.5773	-0.054
Mof_C 	C 	0.3397	0.91947	0.7499	0.107
Mof_C 	C 	0.4842	0.1258	0.021	-0.095
Mof_C 	C 	0.5422	0.1574	0.0254	-0.016
Mof_H 	H 	0.5756	0.1449	0.9677	-0.068
Mof_C 	C 	0.5501	0.2076	0.1164	0.016
Mof_H 	H 	0.5895	0.2282	0.1186	-0.061
Mof_C 	C 	0.4361	0.1475	0.1088	-0.028
Mof_H 	H 	0.3962	0.1281	0.1088	-0.1
Mof_C 	C 	0.4485	0.1983	0.196	0.015
Mof_H 	H 	0.4159	0.2123	0.2543	-0.104
Mof_C 	C 	0.4734	0.07031	0.9255	0.134
Mof_C 	C 	0.59421	0.9166	0.4882	-0.072
Mof_C 	C 	0.5855	0.8655	0.3985	-0.057
Mof_H 	H 	0.5474	0.8426	0.3992	0.004
Mof_C 	C 	0.634	0.8491	0.3082	0.007
Mof_H 	H 	0.6269	0.8152	0.2476	0.005
Mof_C 	C 	0.6527	0.9479	0.4805	-0.028
Mof_H 	H 	0.661	0.9825	0.5385	-0.092
Mof_C 	C 	0.6979	0.9279	0.3879	-0.004
Mof_H 	H 	0.7364	0.9501	0.3842	0.007
Mof_C 	C 	0.54226	0.93736	0.5834	0.116
Mof_C 	C 	0.43963	0.92609	0.6584	0.127
Mof_C 	C 	0.4042	0.9957	0.8444	0.023
Mof_C 	C 	0.4518	0.97625	0.7509	-0.077
Mof_C 	C 	0.5113	0.00592	0.7548	0.042
Mof_N 	N 	0.15233	0.835	0.7288	-0.318
Mof_N 	N 	0.5044	0.22824	0.2012	-0.368
Mof_N 	N 	0.69	0.8782	0.302	-0.146
Mof_N 	N 	0.38175	0.89792	0.6549	-0.188
Mof_N 	N 	0.34697	0.96484	0.8467	-0.325
Mof_N 	N 	0.4151	0.04367	0.9326	-0.322
Mof_N 	N 	0.5226	0.05444	0.8447	-0.301
Mof_N 	N 	0.55849	0.98545	0.6704	-0.323
Mof_N 	N 	0.48643	0.90682	0.5715	-0.187
Mof_K 	K 	0.16191	0.51905	0.14419	2.99
Mof_C 	C 	0.2251	0.61096	0.7448	-0.062
Mof_C 	C 	0.2733	0.5923	0.8343	-0.024
Mof_H 	H 	0.2657	0.5612	0.9012	-0.095
Mof_C 	C 	0.3335	0.6207	0.8231	-0.01
Mof_H 	H 	0.3653	0.608	0.8847	-0.043
Mof_C 	C 	0.2395	0.6577	0.6478	-0.079
Mof_H 	H 	0.2083	0.6719	0.5863	0.026
Mof_C 	C 	0.3001	0.6828	0.6434	0.037
Mof_H 	H 	0.3087	0.714	0.5773	-0.054
Mof_C 	C 	0.1603	0.58053	0.7499	0.107
Mof_C 	C 	0.0158	0.3742	0.021	-0.101
Mof_C 	C 	0.9578	0.3426	0.0254	-0.011
Mof_H 	H 	0.9244	0.3551	0.9677	-0.07
Mof_C 	C 	0.9499	0.2924	0.1164	0.013
Mof_H 	H 	0.9105	0.2718	0.1186	-0.059
Mof_C 	C 	0.0639	0.3525	0.1088	-0.025
Mof_H 	H 	0.1038	0.3719	0.1088	-0.103
Mof_C 	C 	0.0515	0.3017	0.196	0.015
Mof_H 	H 	0.0841	0.2877	0.2543	-0.104
Mof_C 	C 	0.0266	0.42969	0.9255	0.14
Mof_C 	C 	0.90579	0.5834	0.4882	-0.073
Mof_C 	C 	0.9145	0.6345	0.3985	-0.057
Mof_H 	H 	0.9526	0.6574	0.3992	0.005
Mof_C 	C 	0.866	0.6509	0.3082	0.007
Mof_H 	H 	0.8731	0.6848	0.2476	0.006
Mof_C 	C 	0.8473	0.5521	0.4805	-0.027
Mof_H 	H 	0.839	0.5175	0.5385	-0.094
Mof_C 	C 	0.8021	0.5721	0.3879	-0.004
Mof_H 	H 	0.7636	0.5499	0.3842	0.007
Mof_C 	C 	0.95774	0.56264	0.5834	0.117
Mof_C 	C 	0.06037	0.57391	0.6584	0.127
Mof_C 	C 	0.0958	0.5043	0.8444	0.021
Mof_C 	C 	0.0482	0.52375	0.7509	-0.078
Mof_C 	C 	0.9887	0.49408	0.7548	0.044
Mof_N 	N 	0.34767	0.665	0.7288	-0.318
Mof_N 	N 	0.9956	0.27176	0.2012	-0.367
Mof_N 	N 	0.81	0.6218	0.302	-0.146
Mof_N 	N 	0.11825	0.60208	0.6549	-0.188
Mof_N 	N 	0.15303	0.53516	0.8467	-0.325
Mof_N 	N 	0.0849	0.45633	0.9326	-0.323
Mof_N 	N 	0.9774	0.44556	0.8447	-0.304
Mof_N 	N 	0.94151	0.51455	0.6704	-0.325
Mof_N 	N 	0.01357	0.59318	0.5715	-0.187
Mof_K 	K 	0.01905	0.83809	0.64419	2.986
Mof_C 	C 	0.11096	0.7749	0.2448	-0.063
Mof_C 	C 	0.0923	0.7267	0.3343	-0.025
Mof_H 	H 	0.0612	0.7343	0.4012	-0.096
Mof_C 	C 	0.1207	0.6665	0.3231	-0.011
Mof_H 	H 	0.108	0.6347	0.3847	-0.044
Mof_C 	C 	0.1577	0.7605	0.1478	-0.08
Mof_H 	H 	0.1719	0.7917	0.0863	0.025
Mof_C 	C 	0.1828	0.6999	0.1434	0.036
Mof_H 	H 	0.214	0.6913	0.0773	-0.055
Mof_C 	C 	0.08053	0.8397	0.2499	0.106
Mof_C 	C 	0.8742	0.9842	0.521	-0.086
Mof_C 	C 	0.8426	0.0422	0.5254	-0.032
Mof_H 	H 	0.8551	0.0756	0.4677	-0.061
Mof_C 	C 	0.7924	0.0501	0.6164	0.022
Mof_H 	H 	0.7718	0.0895	0.6186	-0.063
Mof_C 	C 	0.8525	0.9361	0.6088	-0.034
Mof_H 	H 	0.8719	0.8962	0.6088	-0.098
Mof_C 	C 	0.8017	0.9485	0.696	0.024
Mof_H 	H 	0.7877	0.9159	0.7543	-0.106
Mof_C 	C 	0.92969	0.9734	0.4255	0.138
Mof_C 	C 	0.0834	0.09421	0.9882	-0.074
Mof_C 	C 	0.1345	0.0855	0.8985	-0.055
Mof_H 	H 	0.1574	0.0474	0.8992	0.005
Mof_C 	C 	0.1509	0.134	0.8082	0.006
Mof_H 	H 	0.1848	0.1269	0.7476	0.006
Mof_C 	C 	0.0521	0.1527	0.9805	-0.024
Mof_H 	H 	0.0175	0.161	0.0385	-0.093
Mof_C 	C 	0.0721	0.1979	0.8879	-0.004
Mof_H 	H 	0.0499	0.2364	0.8842	0.008
Mof_C 	C 	0.06264	0.04226	0.0834	0.123
Mof_C 	C 	0.07391	0.93963	0.1584	0.126
Mof_C 	C 	0.0043	0.9042	0.3444	0.017
Mof_C 	C 	0.02375	0.9518	0.2509	-0.081
Mof_C 	C 	0.99408	0.0113	0.2548	0.043
Mof_N 	N 	0.165	0.65233	0.2288	-0.318
Mof_N 	N 	0.77176	0.0044	0.7012	-0.372
Mof_N 	N 	0.1218	0.19	0.802	-0.146
Mof_N 	N 	0.10208	0.88175	0.1549	-0.189
Mof_N 	N 	0.03516	0.84697	0.3467	-0.326
Mof_N 	N 	0.95633	0.9151	0.4326	-0.319
Mof_N 	N 	0.94556	0.0226	0.3447	-0.304
Mof_N 	N 	0.01455	0.05849	0.1704	-0.322
Mof_N 	N 	0.09318	0.98643	0.0715	-0.192
Mof_K 	K 	0.48095	0.66191	0.64419	2.995
Mof_C 	C 	0.38904	0.7251	0.2448	-0.063
Mof_C 	C 	0.4077	0.7733	0.3343	-0.024
Mof_H 	H 	0.4388	0.7657	0.4012	-0.096
Mof_C 	C 	0.3793	0.8335	0.3231	-0.011
Mof_H 	H 	0.392	0.8653	0.3847	-0.043
Mof_C 	C 	0.3423	0.7395	0.1478	-0.079
Mof_H 	H 	0.3281	0.7083	0.0863	0.026
Mof_C 	C 	0.3172	0.8001	0.1434	0.036
Mof_H 	H 	0.286	0.8087	0.0773	-0.055
Mof_C 	C 	0.41947	0.6603	0.2499	0.107
Mof_C 	C 	0.6258	0.5158	0.521	-0.096
Mof_C 	C 	0.6574	0.4578	0.5254	-0.021
Mof_H 	H 	0.6449	0.4244	0.4677	-0.065
Mof_C 	C 	0.7076	0.4499	0.6164	0.018
Mof_H 	H 	0.7282	0.4105	0.6186	-0.062
Mof_C 	C 	0.6475	0.5639	0.6088	-0.028
Mof_H 	H 	0.6281	0.6038	0.6088	-0.102
Mof_C 	C 	0.6983	0.5515	0.696	0.015
Mof_H 	H 	0.7123	0.5841	0.7543	-0.104
Mof_C 	C 	0.57031	0.5266	0.4255	0.135
Mof_C 	C 	0.4166	0.40579	0.9882	-0.072
Mof_C 	C 	0.3655	0.4145	0.8985	-0.058
Mof_H 	H 	0.3426	0.4526	0.8992	0.005
Mof_C 	C 	0.3491	0.366	0.8082	0.007
Mof_H 	H 	0.3152	0.3731	0.7476	0.005
Mof_C 	C 	0.4479	0.3473	0.9805	-0.029
Mof_H 	H 	0.4825	0.339	0.0385	-0.093
Mof_C 	C 	0.4279	0.3021	0.8879	-0.003
Mof_H 	H 	0.4501	0.2636	0.8842	0.006
Mof_C 	C 	0.43736	0.45774	0.0834	0.116
Mof_C 	C 	0.42609	0.56037	0.1584	0.127
Mof_C 	C 	0.4957	0.5958	0.3444	0.021
Mof_C 	C 	0.47625	0.5482	0.2509	-0.079
Mof_C 	C 	0.50592	0.4887	0.2548	0.044
Mof_N 	N 	0.335	0.84767	0.2288	-0.318
Mof_N 	N 	0.72824	0.4956	0.7012	-0.368
Mof_N 	N 	0.3782	0.31	0.802	-0.147
Mof_N 	N 	0.39792	0.61825	0.1549	-0.189
Mof_N 	N 	0.46484	0.65303	0.3467	-0.326
Mof_N 	N 	0.54367	0.5849	0.4326	-0.323
Mof_N 	N 	0.55444	0.4774	0.3447	-0.302
Mof_N 	N 	0.48545	0.44151	0.1704	-0.325
Mof_N 	N 	0.40682	0.51357	0.0715	-0.187
Mof_K 	K 	0.66191	0.01905	0.85581	2.98
Mof_C 	C 	0.7251	0.11096	0.2552	-0.062
Mof_C 	C 	0.7733	0.0923	0.1657	-0.025
Mof_H 	H 	0.7657	0.0612	0.0988	-0.094
Mof_C 	C 	0.8335	0.1207	0.1769	-0.01
Mof_H 	H 	0.8653	0.108	0.1153	-0.043
Mof_C 	C 	0.7395	0.1577	0.3522	-0.079
Mof_H 	H 	0.7083	0.1719	0.4137	0.026
Mof_C 	C 	0.8001	0.1828	0.3566	0.037
Mof_H 	H 	0.8087	0.214	0.4227	-0.054
Mof_C 	C 	0.6603	0.08053	0.2501	0.107
Mof_C 	C 	0.5158	0.8742	0.979	-0.095
Mof_C 	C 	0.4578	0.8426	0.9746	-0.016
Mof_H 	H 	0.4244	0.8551	0.0323	-0.068
Mof_C 	C 	0.4499	0.7924	0.8836	0.016
Mof_H 	H 	0.4105	0.7718	0.8814	-0.061
Mof_C 	C 	0.5639	0.8525	0.8912	-0.028
Mof_H 	H 	0.6038	0.8719	0.8912	-0.1
Mof_C 	C 	0.5515	0.8017	0.804	0.015
Mof_H 	H 	0.5841	0.7877	0.7457	-0.104
Mof_C 	C 	0.5266	0.92969	0.0745	0.134
Mof_C 	C 	0.40579	0.0834	0.5118	-0.072
Mof_C 	C 	0.4145	0.1345	0.6015	-0.057
Mof_H 	H 	0.4526	0.1574	0.6008	0.004
Mof_C 	C 	0.366	0.1509	0.6918	0.007
Mof_H 	H 	0.3731	0.1848	0.7524	0.005
Mof_C 	C 	0.3473	0.0521	0.5195	-0.028
Mof_H 	H 	0.339	0.0175	0.4615	-0.092
Mof_C 	C 	0.3021	0.0721	0.6121	-0.004
Mof_H 	H 	0.2636	0.0499	0.6158	0.007
Mof_C 	C 	0.45774	0.06264	0.4166	0.116
Mof_C 	C 	0.56037	0.07391	0.3416	0.127
Mof_C 	C 	0.5958	0.0043	0.1556	0.023
Mof_C 	C 	0.5482	0.02375	0.2491	-0.077
Mof_C 	C 	0.4887	0.99408	0.2452	0.042
Mof_N 	N 	0.84767	0.165	0.2712	-0.318
Mof_N 	N 	0.4956	0.77176	0.7988	-0.368
Mof_N 	N 	0.31	0.1218	0.698	-0.146
Mof_N 	N 	0.61825	0.10208	0.3451	-0.188
Mof_N 	N 	0.65303	0.03516	0.1533	-0.325
Mof_N 	N 	0.5849	0.95633	0.0674	-0.322
Mof_N 	N 	0.4774	0.94556	0.1553	-0.301
Mof_N 	N 	0.44151	0.01455	0.3296	-0.323
Mof_N 	N 	0.51357	0.09318	0.4285	-0.187
Mof_K 	K 	0.83809	0.48095	0.85581	2.99
Mof_C 	C 	0.7749	0.38904	0.2552	-0.062
Mof_C 	C 	0.7267	0.4077	0.1657	-0.024
Mof_H 	H 	0.7343	0.4388	0.0988	-0.095
Mof_C 	C 	0.6665	0.3793	0.1769	-0.01
Mof_H 	H 	0.6347	0.392	0.1153	-0.043
Mof_C 	C 	0.7605	0.3423	0.3522	-0.079
Mof_H 	H 	0.7917	0.3281	0.4137	0.026
Mof_C 	C 	0.6999	0.3172	0.3566	0.037
Mof_H 	H 	0.6913	0.286	0.4227	-0.054
Mof_C 	C 	0.8397	0.41947	0.2501	0.107
Mof_C 	C 	0.9842	0.6258	0.979	-0.101
Mof_C 	C 	0.0422	0.6574	0.9746	-0.011
Mof_H 	H 	0.0756	0.6449	0.0323	-0.07
Mof_C 	C 	0.0501	0.7076	0.8836	0.013
Mof_H 	H 	0.0895	0.7282	0.8814	-0.059
Mof_C 	C 	0.9361	0.6475	0.8912	-0.025
Mof_H 	H 	0.8962	0.6281	0.8912	-0.103
Mof_C 	C 	0.9485	0.6983	0.804	0.015
Mof_H 	H 	0.9159	0.7123	0.7457	-0.104
Mof_C 	C 	0.9734	0.57031	0.0745	0.14
Mof_C 	C 	0.09421	0.4166	0.5118	-0.073
Mof_C 	C 	0.0855	0.3655	0.6015	-0.057
Mof_H 	H 	0.0474	0.3426	0.6008	0.005
Mof_C 	C 	0.134	0.3491	0.6918	0.007
Mof_H 	H 	0.1269	0.3152	0.7524	0.006
Mof_C 	C 	0.1527	0.4479	0.5195	-0.027
Mof_H 	H 	0.161	0.4825	0.4615	-0.094
Mof_C 	C 	0.1979	0.4279	0.6121	-0.004
Mof_H 	H 	0.2364	0.4501	0.6158	0.007
Mof_C 	C 	0.04226	0.43736	0.4166	0.117
Mof_C 	C 	0.93963	0.42609	0.3416	0.127
Mof_C 	C 	0.9042	0.4957	0.1556	0.021
Mof_C 	C 	0.9518	0.47625	0.2491	-0.078
Mof_C 	C 	0.0113	0.50592	0.2452	0.044
Mof_N 	N 	0.65233	0.335	0.2712	-0.318
Mof_N 	N 	0.0044	0.72824	0.7988	-0.367
Mof_N 	N 	0.19	0.3782	0.698	-0.146
Mof_N 	N 	0.88175	0.39792	0.3451	-0.188
Mof_N 	N 	0.84697	0.46484	0.1533	-0.325
Mof_N 	N 	0.9151	0.54367	0.0674	-0.323
Mof_N 	N 	0.0226	0.55444	0.1553	-0.304
Mof_N 	N 	0.05849	0.48545	0.3296	-0.325
Mof_N 	N 	0.98643	0.40682	0.4285	-0.187
Mof_K 	K 	0.98095	0.16191	0.35581	2.986
Mof_C 	C 	0.88904	0.2251	0.7552	-0.063
Mof_C 	C 	0.9077	0.2733	0.6657	-0.025
Mof_H 	H 	0.9388	0.2657	0.5988	-0.096
Mof_C 	C 	0.8793	0.3335	0.6769	-0.011
Mof_H 	H 	0.892	0.3653	0.6153	-0.044
Mof_C 	C 	0.8423	0.2395	0.8522	-0.08
Mof_H 	H 	0.8281	0.2083	0.9137	0.025
Mof_C 	C 	0.8172	0.3001	0.8566	0.036
Mof_H 	H 	0.786	0.3087	0.9227	-0.055
Mof_C 	C 	0.91947	0.1603	0.7501	0.106
Mof_C 	C 	0.1258	0.0158	0.479	-0.086
Mof_C 	C 	0.1574	0.9578	0.4746	-0.032
Mof_H 	H 	0.1449	0.9244	0.5323	-0.061
Mof_C 	C 	0.2076	0.9499	0.3836	0.022
Mof_H 	H 	0.2282	0.9105	0.3814	-0.063
Mof_C 	C 	0.1475	0.0639	0.3912	-0.034
Mof_H 	H 	0.1281	0.1038	0.3912	-0.098
Mof_C 	C 	0.1983	0.0515	0.304	0.024
Mof_H 	H 	0.2123	0.0841	0.2457	-0.106
Mof_C 	C 	0.07031	0.0266	0.5745	0.138
Mof_C 	C 	0.9166	0.90579	0.0118	-0.074
Mof_C 	C 	0.8655	0.9145	0.1015	-0.055
Mof_H 	H 	0.8426	0.9526	0.1008	0.005
Mof_C 	C 	0.8491	0.866	0.1918	0.006
Mof_H 	H 	0.8152	0.8731	0.2524	0.006
Mof_C 	C 	0.9479	0.8473	0.0195	-0.024
Mof_H 	H 	0.9825	0.839	0.9615	-0.093
Mof_C 	C 	0.9279	0.8021	0.1121	-0.004
Mof_H 	H 	0.9501	0.7636	0.1158	0.008
Mof_C 	C 	0.93736	0.95774	0.9166	0.123
Mof_C 	C 	0.92609	0.06037	0.8416	0.126
Mof_C 	C 	0.9957	0.0958	0.6556	0.017
Mof_C 	C 	0.97625	0.0482	0.7491	-0.081
Mof_C 	C 	0.00592	0.9887	0.7452	0.043
Mof_N 	N 	0.835	0.34767	0.7712	-0.318
Mof_N 	N 	0.22824	0.9956	0.2988	-0.372
Mof_N 	N 	0.8782	0.81	0.198	-0.146
Mof_N 	N 	0.89792	0.11825	0.8451	-0.189
Mof_N 	N 	0.96484	0.15303	0.6533	-0.326
Mof_N 	N 	0.04367	0.0849	0.5674	-0.319
Mof_N 	N 	0.05444	0.9774	0.6553	-0.304
Mof_N 	N 	0.98545	0.94151	0.8296	-0.322
Mof_N 	N 	0.90682	0.01357	0.9285	-0.192
Mof_K 	K 	0.51905	0.33809	0.35581	2.995
Mof_C 	C 	0.61096	0.2749	0.7552	-0.063
Mof_C 	C 	0.5923	0.2267	0.6657	-0.024
Mof_H 	H 	0.5612	0.2343	0.5988	-0.096
Mof_C 	C 	0.6207	0.1665	0.6769	-0.011
Mof_H 	H 	0.608	0.1347	0.6153	-0.043
Mof_C 	C 	0.6577	0.2605	0.8522	-0.079
Mof_H 	H 	0.6719	0.2917	0.9137	0.026
Mof_C 	C 	0.6828	0.1999	0.8566	0.036
Mof_H 	H 	0.714	0.1913	0.9227	-0.055
Mof_C 	C 	0.58053	0.3397	0.7501	0.107
Mof_C 	C 	0.3742	0.4842	0.479	-0.096
Mof_C 	C 	0.3426	0.5422	0.4746	-0.021
Mof_H 	H 	0.3551	0.5756	0.5323	-0.065
Mof_C 	C 	0.2924	0.5501	0.3836	0.018
Mof_H 	H 	0.2718	0.5895	0.3814	-0.062
Mof_C 	C 	0.3525	0.4361	0.3912	-0.028
Mof_H 	H 	0.3719	0.3962	0.3912	-0.102
Mof_C 	C 	0.3017	0.4485	0.304	0.015
Mof_H 	H 	0.2877	0.4159	0.2457	-0.104
Mof_C 	C 	0.42969	0.4734	0.5745	0.135
Mof_C 	C 	0.5834	0.59421	0.0118	-0.072
Mof_C 	C 	0.6345	0.5855	0.1015	-0.058
Mof_H 	H 	0.6574	0.5474	0.1008	0.005
Mof_C 	C 	0.6509	0.634	0.1918	0.007
Mof_H 	H 	0.6848	0.6269	0.2524	0.005
Mof_C 	C 	0.5521	0.6527	0.0195	-0.029
Mof_H 	H 	0.5175	0.661	0.9615	-0.093
Mof_C 	C 	0.5721	0.6979	0.1121	-0.003
Mof_H 	H 	0.5499	0.7364	0.1158	0.006
Mof_C 	C 	0.56264	0.54226	0.9166	0.116
Mof_C 	C 	0.57391	0.43963	0.8416	0.127
Mof_C 	C 	0.5043	0.4042	0.6556	0.021
Mof_C 	C 	0.52375	0.4518	0.7491	-0.079
Mof_C 	C 	0.49408	0.5113	0.7452	0.044
Mof_N 	N 	0.665	0.15233	0.7712	-0.318
Mof_N 	N 	0.27176	0.5044	0.2988	-0.368
Mof_N 	N 	0.6218	0.69	0.198	-0.147
Mof_N 	N 	0.60208	0.38175	0.8451	-0.189
Mof_N 	N 	0.53516	0.34697	0.6533	-0.326
Mof_N 	N 	0.45633	0.4151	0.5674	-0.323
Mof_N 	N 	0.44556	0.5226	0.6553	-0.302
Mof_N 	N 	0.51455	0.55849	0.8296	-0.325
Mof_N 	N 	0.59318	0.48643	0.9285	-0.187
_end
