# CIF file generated by openbabel 3.1.0, see https://openbabel.org
data_I
_chemical_name_common 'image0'
_cell_length_a 28.598
_cell_length_b 28.598
_cell_length_c 17.074
_cell_angle_alpha 90
_cell_angle_beta 90
_cell_angle_gamma 90
_space_group_name_H-M_alt 'P 1'
_space_group_name_Hall 'P 1'
loop_
    _symmetry_equiv_pos_as_xyz
    x,y,z
loop_
    _atom_site_label
    _atom_site_type_symbol
    _atom_site_fract_x
    _atom_site_fract_y
    _atom_site_fract_z
    _atom_site_occupancy
    Zn1      Zn       0.17720    0.06671    0.36751    1.000
    Zn2      Zn       0.28121    0.12308    0.38132    1.000
    O1       O        0.17637    0.22653    0.96880    1.000
    O2       O        0.13208    0.21377    0.76860    1.000
    O3       O        0.05381    0.29225    0.92320    1.000
    O4       O        0.13898    0.34795    0.85880    1.000
    C1       C        0.12808    0.26653    0.87830    1.000
    O5       O        0.18796    0.10135    0.27260    1.000
    O6       O        0.27495    0.52012    0.88520    1.000
    C2       C        0.15270    0.19570    0.70150    1.000
    C3       C        0.07606    0.27360    0.85450    1.000
    H1       H        0.06190    0.24400    0.83950    1.000
    H2       H        0.07350    0.29520    0.81100    1.000
    O7       O        0.84150    0.34815    0.86940    1.000
    O8       O        0.24564    0.14214    0.47190    1.000
    C4       C        0.20693    0.47482    0.87250    1.000
    C5       C        0.18650    0.15670    0.56440    1.000
    C6       C        0.18284    0.20140    0.03670    1.000
    O9       O        0.24901    0.14593    0.28780    1.000
    C7       C        0.97810    0.29730    0.85730    1.000
    H3       H        0.98850    0.28090    0.81370    1.000
    O10      O        0.17641    0.10820    0.45750    1.000
    C8       C        0.93285    0.31420    0.86100    1.000
    H4       H        0.91330    0.30900    0.81840    1.000
    C9       C        0.15010    0.31090    0.90840    1.000
    H5       H        0.13870    0.31750    0.96080    1.000
    H6       H        0.18380    0.30720    0.91100    1.000
    C10      C        0.86600    0.35330    0.92760    1.000
    O11      O        0.20755    0.55619    0.86430    1.000
    C11      C        0.15530    0.25258    0.80410    1.000
    H7       H        0.15640    0.27870    0.76790    1.000
    H8       H        0.18710    0.24400    0.81780    1.000
    C12      C        0.20410    0.15710    0.17720    1.000
    C13      C        0.23710    0.18620    0.13900    1.000
    H9       H        0.26660    0.18990    0.16090    1.000
    C14      C        0.12930    0.22900    0.94000    1.000
    H10      H        0.10800    0.23660    0.98230    1.000
    H11      H        0.12010    0.19920    0.91770    1.000
    C15      C        0.23160    0.51983    0.87430    1.000
    C16      C        0.21430    0.13340    0.25100    1.000
    C17      C        0.21210    0.18770    0.60560    1.000
    H12      H        0.24150    0.19580    0.58690    1.000
    C18      C        0.16320    0.38910    0.86660    1.000
    C19      C        0.22890    0.43590    0.89820    1.000
    H13      H        0.25920    0.43830    0.91790    1.000
    C20      C        0.00710    0.30550    0.91940    1.000
    C21      C        0.20410    0.13460    0.49240    1.000
    C22      C        0.22670    0.20870    0.07160    1.000
    H14      H        0.24830    0.22870    0.04860    1.000
    C23      C        0.15120    0.17360    0.07100    1.000
    H15      H        0.12230    0.16900    0.04710    1.000
    C24      C        0.19620    0.20870    0.67650    1.000
    H16      H        0.21440    0.23010    0.70420    1.000
    C25      C        0.16060    0.15170    0.14070    1.000
    H17      H        0.13780    0.13310    0.16400    1.000
    O12      O        0.85200    0.37340    0.98380    1.000
    C26      C        0.12450    0.16470    0.65980    1.000
    H18      H        0.09470    0.15740    0.67770    1.000
    C27      C        0.16330    0.47120    0.84100    1.000
    H19      H        0.14860    0.49770    0.82120    1.000
    C28      C        0.14140    0.14490    0.59150    1.000
    H20      H        0.12300    0.12390    0.56340    1.000
    C29      C        0.20710    0.39250    0.89560    1.000
    H21      H        0.22260    0.36590    0.91370    1.000
    C30      C        0.91620    0.33690    0.92060    1.000
    C31      C        0.14080    0.42850    0.83810    1.000
    H22      H        0.11080    0.42620    0.81720    1.000
    C32      C        0.99120    0.32820    0.98080    1.000
    H23      H        0.01160    0.33450    0.02190    1.000
    C33      C        0.94720    0.34240    0.98620    1.000
    H24      H        0.93640    0.35590    0.03240    1.000
    Zn3      Zn       0.82280    0.93329    0.36751    1.000
    Zn4      Zn       0.71879    0.87692    0.38132    1.000
    O13      O        0.82363    0.77347    0.96880    1.000
    O14      O        0.86792    0.78623    0.76860    1.000
    O15      O        0.94619    0.70775    0.92320    1.000
    O16      O        0.86102    0.65205    0.85880    1.000
    C34      C        0.87192    0.73347    0.87830    1.000
    O17      O        0.81204    0.89865    0.27260    1.000
    O18      O        0.72505    0.47988    0.88520    1.000
    C35      C        0.84730    0.80430    0.70150    1.000
    C36      C        0.92394    0.72640    0.85450    1.000
    H25      H        0.93810    0.75600    0.83950    1.000
    H26      H        0.92650    0.70480    0.81100    1.000
    O19      O        0.15850    0.65185    0.86940    1.000
    O20      O        0.75436    0.85786    0.47190    1.000
    C37      C        0.79307    0.52518    0.87250    1.000
    C38      C        0.81350    0.84330    0.56440    1.000
    C39      C        0.81716    0.79860    0.03670    1.000
    O21      O        0.75099    0.85407    0.28780    1.000
    C40      C        0.02190    0.70270    0.85730    1.000
    H27      H        0.01150    0.71910    0.81370    1.000
    O22      O        0.82359    0.89180    0.45750    1.000
    C41      C        0.06715    0.68580    0.86100    1.000
    H28      H        0.08670    0.69100    0.81840    1.000
    C42      C        0.84990    0.68910    0.90840    1.000
    H29      H        0.86130    0.68250    0.96080    1.000
    H30      H        0.81620    0.69280    0.91100    1.000
    C43      C        0.13400    0.64670    0.92760    1.000
    O23      O        0.79245    0.44381    0.86430    1.000
    C44      C        0.84470    0.74742    0.80410    1.000
    H31      H        0.84360    0.72130    0.76790    1.000
    H32      H        0.81290    0.75600    0.81780    1.000
    C45      C        0.79590    0.84290    0.17720    1.000
    C46      C        0.76290    0.81380    0.13900    1.000
    H33      H        0.73340    0.81010    0.16090    1.000
    C47      C        0.87070    0.77100    0.94000    1.000
    H34      H        0.89200    0.76340    0.98230    1.000
    H35      H        0.87990    0.80080    0.91770    1.000
    C48      C        0.76840    0.48017    0.87430    1.000
    C49      C        0.78570    0.86660    0.25100    1.000
    C50      C        0.78790    0.81230    0.60560    1.000
    H36      H        0.75850    0.80420    0.58690    1.000
    C51      C        0.83680    0.61090    0.86660    1.000
    C52      C        0.77110    0.56410    0.89820    1.000
    H37      H        0.74080    0.56170    0.91790    1.000
    C53      C        0.99290    0.69450    0.91940    1.000
    C54      C        0.79590    0.86540    0.49240    1.000
    C55      C        0.77330    0.79130    0.07160    1.000
    H38      H        0.75170    0.77130    0.04860    1.000
    C56      C        0.84880    0.82640    0.07100    1.000
    H39      H        0.87770    0.83100    0.04710    1.000
    C57      C        0.80380    0.79130    0.67650    1.000
    H40      H        0.78560    0.76990    0.70420    1.000
    C58      C        0.83940    0.84830    0.14070    1.000
    H41      H        0.86220    0.86690    0.16400    1.000
    O24      O        0.14800    0.62660    0.98380    1.000
    C59      C        0.87550    0.83530    0.65980    1.000
    H42      H        0.90530    0.84260    0.67770    1.000
    C60      C        0.83670    0.52880    0.84100    1.000
    H43      H        0.85140    0.50230    0.82120    1.000
    C61      C        0.85860    0.85510    0.59150    1.000
    H44      H        0.87700    0.87610    0.56340    1.000
    C62      C        0.79290    0.60750    0.89560    1.000
    H45      H        0.77740    0.63410    0.91370    1.000
    C63      C        0.08380    0.66310    0.92060    1.000
    C64      C        0.85920    0.57150    0.83810    1.000
    H46      H        0.88920    0.57380    0.81720    1.000
    C65      C        0.00880    0.67180    0.98080    1.000
    H47      H        0.98840    0.66550    0.02190    1.000
    C66      C        0.05280    0.65760    0.98620    1.000
    H48      H        0.06360    0.64410    0.03240    1.000
    Zn5      Zn       0.67720    0.43329    0.86751    1.000
    Zn6      Zn       0.78121    0.37692    0.88132    1.000
    O25      O        0.67637    0.27347    0.46880    1.000
    O26      O        0.63208    0.28623    0.26860    1.000
    O27      O        0.55381    0.20775    0.42320    1.000
    O28      O        0.63898    0.15205    0.35880    1.000
    C67      C        0.62808    0.23347    0.37830    1.000
    O29      O        0.68796    0.39865    0.77260    1.000
    O30      O        0.77495    0.97988    0.38520    1.000
    C68      C        0.65270    0.30430    0.20150    1.000
    C69      C        0.57606    0.22640    0.35450    1.000
    H49      H        0.56190    0.25600    0.33950    1.000
    H50      H        0.57350    0.20480    0.31100    1.000
    O31      O        0.34150    0.15185    0.36940    1.000
    O32      O        0.74564    0.35786    0.97190    1.000
    C70      C        0.70693    0.02518    0.37250    1.000
    C71      C        0.68650    0.34330    0.06440    1.000
    C72      C        0.68284    0.29860    0.53670    1.000
    O33      O        0.74901    0.35407    0.78780    1.000
    C73      C        0.47810    0.20270    0.35730    1.000
    H51      H        0.48850    0.21910    0.31370    1.000
    O34      O        0.67641    0.39180    0.95750    1.000
    C74      C        0.43285    0.18580    0.36100    1.000
    H52      H        0.41330    0.19100    0.31840    1.000
    C75      C        0.65010    0.18910    0.40840    1.000
    H53      H        0.63870    0.18250    0.46080    1.000
    H54      H        0.68380    0.19280    0.41100    1.000
    C76      C        0.36600    0.14670    0.42760    1.000
    O35      O        0.70755    0.94381    0.36430    1.000
    C77      C        0.65530    0.24742    0.30410    1.000
    H55      H        0.65640    0.22130    0.26790    1.000
    H56      H        0.68710    0.25600    0.31780    1.000
    C78      C        0.70410    0.34290    0.67720    1.000
    C79      C        0.73710    0.31380    0.63900    1.000
    H57      H        0.76660    0.31010    0.66090    1.000
    C80      C        0.62930    0.27100    0.44000    1.000
    H58      H        0.60800    0.26340    0.48230    1.000
    H59      H        0.62010    0.30080    0.41770    1.000
    C81      C        0.73160    0.98017    0.37430    1.000
    C82      C        0.71430    0.36660    0.75100    1.000
    C83      C        0.71210    0.31230    0.10560    1.000
    H60      H        0.74150    0.30420    0.08690    1.000
    C84      C        0.66320    0.11090    0.36660    1.000
    C85      C        0.72890    0.06410    0.39820    1.000
    H61      H        0.75920    0.06170    0.41790    1.000
    C86      C        0.50710    0.19450    0.41940    1.000
    C87      C        0.70410    0.36540    0.99240    1.000
    C88      C        0.72670    0.29130    0.57160    1.000
    H62      H        0.74830    0.27130    0.54860    1.000
    C89      C        0.65120    0.32640    0.57100    1.000
    H63      H        0.62230    0.33100    0.54710    1.000
    C90      C        0.69620    0.29130    0.17650    1.000
    H64      H        0.71440    0.26990    0.20420    1.000
    C91      C        0.66060    0.34830    0.64070    1.000
    H65      H        0.63780    0.36690    0.66400    1.000
    O36      O        0.35200    0.12660    0.48380    1.000
    C92      C        0.62450    0.33530    0.15980    1.000
    H66      H        0.59470    0.34260    0.17770    1.000
    C93      C        0.66330    0.02880    0.34100    1.000
    H67      H        0.64860    0.00230    0.32120    1.000
    C94      C        0.64140    0.35510    0.09150    1.000
    H68      H        0.62300    0.37610    0.06340    1.000
    C95      C        0.70710    0.10750    0.39560    1.000
    H69      H        0.72260    0.13410    0.41370    1.000
    C96      C        0.41620    0.16310    0.42060    1.000
    C97      C        0.64080    0.07150    0.33810    1.000
    H70      H        0.61080    0.07380    0.31720    1.000
    C98      C        0.49120    0.17180    0.48080    1.000
    H71      H        0.51160    0.16550    0.52190    1.000
    C99      C        0.44720    0.15760    0.48620    1.000
    H72      H        0.43640    0.14410    0.53240    1.000
    Zn7      Zn       0.32280    0.56671    0.86751    1.000
    Zn8      Zn       0.21879    0.62308    0.88132    1.000
    O37      O        0.32363    0.72653    0.46880    1.000
    O38      O        0.36792    0.71377    0.26860    1.000
    O39      O        0.44619    0.79225    0.42320    1.000
    O40      O        0.36102    0.84795    0.35880    1.000
    C100     C        0.37192    0.76653    0.37830    1.000
    O41      O        0.31204    0.60135    0.77260    1.000
    O42      O        0.22505    0.02012    0.38520    1.000
    C101     C        0.34730    0.69570    0.20150    1.000
    C102     C        0.42394    0.77360    0.35450    1.000
    H73      H        0.43810    0.74400    0.33950    1.000
    H74      H        0.42650    0.79520    0.31100    1.000
    O43      O        0.65850    0.84815    0.36940    1.000
    O44      O        0.25436    0.64214    0.97190    1.000
    C103     C        0.29307    0.97482    0.37250    1.000
    C104     C        0.31350    0.65670    0.06440    1.000
    C105     C        0.31716    0.70140    0.53670    1.000
    O45      O        0.25099    0.64593    0.78780    1.000
    C106     C        0.52190    0.79730    0.35730    1.000
    H75      H        0.51150    0.78090    0.31370    1.000
    O46      O        0.32359    0.60820    0.95750    1.000
    C107     C        0.56715    0.81420    0.36100    1.000
    H76      H        0.58670    0.80900    0.31840    1.000
    C108     C        0.34990    0.81090    0.40840    1.000
    H77      H        0.36130    0.81750    0.46080    1.000
    H78      H        0.31620    0.80720    0.41100    1.000
    C109     C        0.63400    0.85330    0.42760    1.000
    O47      O        0.29245    0.05619    0.36430    1.000
    C110     C        0.34470    0.75258    0.30410    1.000
    H79      H        0.34360    0.77870    0.26790    1.000
    H80      H        0.31290    0.74400    0.31780    1.000
    C111     C        0.29590    0.65710    0.67720    1.000
    C112     C        0.26290    0.68620    0.63900    1.000
    H81      H        0.23340    0.68990    0.66090    1.000
    C113     C        0.37070    0.72900    0.44000    1.000
    H82      H        0.39200    0.73660    0.48230    1.000
    H83      H        0.37990    0.69920    0.41770    1.000
    C114     C        0.26840    0.01983    0.37430    1.000
    C115     C        0.28570    0.63340    0.75100    1.000
    C116     C        0.28790    0.68770    0.10560    1.000
    H84      H        0.25850    0.69580    0.08690    1.000
    C117     C        0.33680    0.88910    0.36660    1.000
    C118     C        0.27110    0.93590    0.39820    1.000
    H85      H        0.24080    0.93830    0.41790    1.000
    C119     C        0.49290    0.80550    0.41940    1.000
    C120     C        0.29590    0.63460    0.99240    1.000
    C121     C        0.27330    0.70870    0.57160    1.000
    H86      H        0.25170    0.72870    0.54860    1.000
    C122     C        0.34880    0.67360    0.57100    1.000
    H87      H        0.37770    0.66900    0.54710    1.000
    C123     C        0.30380    0.70870    0.17650    1.000
    H88      H        0.28560    0.73010    0.20420    1.000
    C124     C        0.33940    0.65170    0.64070    1.000
    H89      H        0.36220    0.63310    0.66400    1.000
    O48      O        0.64800    0.87340    0.48380    1.000
    C125     C        0.37550    0.66470    0.15980    1.000
    H90      H        0.40530    0.65740    0.17770    1.000
    C126     C        0.33670    0.97120    0.34100    1.000
    H91      H        0.35140    0.99770    0.32120    1.000
    C127     C        0.35860    0.64490    0.09150    1.000
    H92      H        0.37700    0.62390    0.06340    1.000
    C128     C        0.29290    0.89250    0.39560    1.000
    H93      H        0.27740    0.86590    0.41370    1.000
    C129     C        0.58380    0.83690    0.42060    1.000
    C130     C        0.35920    0.92850    0.33810    1.000
    H94      H        0.38920    0.92620    0.31720    1.000
    C131     C        0.50880    0.82820    0.48080    1.000
    H95      H        0.48840    0.83450    0.52190    1.000
    C132     C        0.55280    0.84240    0.48620    1.000
    H96      H        0.56360    0.85590    0.53240    1.000
    Zn9      Zn       0.06671    0.82280    0.63249    1.000
    Zn10     Zn       0.12308    0.71879    0.61868    1.000
    O49      O        0.22653    0.82363    0.03120    1.000
    O50      O        0.21377    0.86792    0.23140    1.000
    O51      O        0.29225    0.94619    0.07680    1.000
    O52      O        0.34795    0.86102    0.14120    1.000
    C133     C        0.26653    0.87192    0.12170    1.000
    O53      O        0.10135    0.81204    0.72740    1.000
    O54      O        0.52012    0.72505    0.11480    1.000
    C134     C        0.19570    0.84730    0.29850    1.000
    C135     C        0.27360    0.92394    0.14550    1.000
    H97      H        0.24400    0.93810    0.16050    1.000
    H98      H        0.29520    0.92650    0.18900    1.000
    O55      O        0.34815    0.15850    0.13060    1.000
    O56      O        0.14214    0.75436    0.52810    1.000
    C136     C        0.47482    0.79307    0.12750    1.000
    C137     C        0.15670    0.81350    0.43560    1.000
    C138     C        0.20140    0.81716    0.96330    1.000
    O57      O        0.14593    0.75099    0.71220    1.000
    C139     C        0.29730    0.02190    0.14270    1.000
    H99      H        0.28090    0.01150    0.18630    1.000
    O58      O        0.10820    0.82359    0.54250    1.000
    C140     C        0.31420    0.06715    0.13900    1.000
    H100     H        0.30900    0.08670    0.18160    1.000
    C141     C        0.31090    0.84990    0.09160    1.000
    H101     H        0.31750    0.86130    0.03920    1.000
    H102     H        0.30720    0.81620    0.08900    1.000
    C142     C        0.35330    0.13400    0.07240    1.000
    O59      O        0.55619    0.79245    0.13570    1.000
    C143     C        0.25258    0.84470    0.19590    1.000
    H103     H        0.27870    0.84360    0.23210    1.000
    H104     H        0.24400    0.81290    0.18220    1.000
    C144     C        0.15710    0.79590    0.82280    1.000
    C145     C        0.18620    0.76290    0.86100    1.000
    H105     H        0.18990    0.73340    0.83910    1.000
    C146     C        0.22900    0.87070    0.06000    1.000
    H106     H        0.23660    0.89200    0.01770    1.000
    H107     H        0.19920    0.87990    0.08230    1.000
    C147     C        0.51983    0.76840    0.12570    1.000
    C148     C        0.13340    0.78570    0.74900    1.000
    C149     C        0.18770    0.78790    0.39440    1.000
    H108     H        0.19580    0.75850    0.41310    1.000
    C150     C        0.38910    0.83680    0.13340    1.000
    C151     C        0.43590    0.77110    0.10180    1.000
    H109     H        0.43830    0.74080    0.08210    1.000
    C152     C        0.30550    0.99290    0.08060    1.000
    C153     C        0.13460    0.79590    0.50760    1.000
    C154     C        0.20870    0.77330    0.92840    1.000
    H110     H        0.22870    0.75170    0.95140    1.000
    C155     C        0.17360    0.84880    0.92900    1.000
    H111     H        0.16900    0.87770    0.95290    1.000
    C156     C        0.20870    0.80380    0.32350    1.000
    H112     H        0.23010    0.78560    0.29580    1.000
    C157     C        0.15170    0.83940    0.85930    1.000
    H113     H        0.13310    0.86220    0.83600    1.000
    O60      O        0.37340    0.14800    0.01620    1.000
    C158     C        0.16470    0.87550    0.34020    1.000
    H114     H        0.15740    0.90530    0.32230    1.000
    C159     C        0.47120    0.83670    0.15900    1.000
    H115     H        0.49770    0.85140    0.17880    1.000
    C160     C        0.14490    0.85860    0.40850    1.000
    H116     H        0.12390    0.87700    0.43660    1.000
    C161     C        0.39250    0.79290    0.10440    1.000
    H117     H        0.36590    0.77740    0.08630    1.000
    C162     C        0.33690    0.08380    0.07940    1.000
    C163     C        0.42850    0.85920    0.16190    1.000
    H118     H        0.42620    0.88920    0.18280    1.000
    C164     C        0.32820    0.00880    0.01920    1.000
    H119     H        0.33450    0.98840    0.97810    1.000
    C165     C        0.34240    0.05280    0.01380    1.000
    H120     H        0.35590    0.06360    0.96760    1.000
    Zn11     Zn       0.93329    0.17720    0.63249    1.000
    Zn12     Zn       0.87692    0.28121    0.61868    1.000
    O61      O        0.77347    0.17637    0.03120    1.000
    O62      O        0.78623    0.13208    0.23140    1.000
    O63      O        0.70775    0.05381    0.07680    1.000
    O64      O        0.65205    0.13898    0.14120    1.000
    C166     C        0.73347    0.12808    0.12170    1.000
    O65      O        0.89865    0.18796    0.72740    1.000
    O66      O        0.47988    0.27495    0.11480    1.000
    C167     C        0.80430    0.15270    0.29850    1.000
    C168     C        0.72640    0.07606    0.14550    1.000
    H121     H        0.75600    0.06190    0.16050    1.000
    H122     H        0.70480    0.07350    0.18900    1.000
    O67      O        0.65185    0.84150    0.13060    1.000
    O68      O        0.85786    0.24564    0.52810    1.000
    C169     C        0.52518    0.20693    0.12750    1.000
    C170     C        0.84330    0.18650    0.43560    1.000
    C171     C        0.79860    0.18284    0.96330    1.000
    O69      O        0.85407    0.24901    0.71220    1.000
    C172     C        0.70270    0.97810    0.14270    1.000
    H123     H        0.71910    0.98850    0.18630    1.000
    O70      O        0.89180    0.17641    0.54250    1.000
    C173     C        0.68580    0.93285    0.13900    1.000
    H124     H        0.69100    0.91330    0.18160    1.000
    C174     C        0.68910    0.15010    0.09160    1.000
    H125     H        0.68250    0.13870    0.03920    1.000
    H126     H        0.69280    0.18380    0.08900    1.000
    C175     C        0.64670    0.86600    0.07240    1.000
    O71      O        0.44381    0.20755    0.13570    1.000
    C176     C        0.74742    0.15530    0.19590    1.000
    H127     H        0.72130    0.15640    0.23210    1.000
    H128     H        0.75600    0.18710    0.18220    1.000
    C177     C        0.84290    0.20410    0.82280    1.000
    C178     C        0.81380    0.23710    0.86100    1.000
    H129     H        0.81010    0.26660    0.83910    1.000
    C179     C        0.77100    0.12930    0.06000    1.000
    H130     H        0.76340    0.10800    0.01770    1.000
    H131     H        0.80080    0.12010    0.08230    1.000
    C180     C        0.48017    0.23160    0.12570    1.000
    C181     C        0.86660    0.21430    0.74900    1.000
    C182     C        0.81230    0.21210    0.39440    1.000
    H132     H        0.80420    0.24150    0.41310    1.000
    C183     C        0.61090    0.16320    0.13340    1.000
    C184     C        0.56410    0.22890    0.10180    1.000
    H133     H        0.56170    0.25920    0.08210    1.000
    C185     C        0.69450    0.00710    0.08060    1.000
    C186     C        0.86540    0.20410    0.50760    1.000
    C187     C        0.79130    0.22670    0.92840    1.000
    H134     H        0.77130    0.24830    0.95140    1.000
    C188     C        0.82640    0.15120    0.92900    1.000
    H135     H        0.83100    0.12230    0.95290    1.000
    C189     C        0.79130    0.19620    0.32350    1.000
    H136     H        0.76990    0.21440    0.29580    1.000
    C190     C        0.84830    0.16060    0.85930    1.000
    H137     H        0.86690    0.13780    0.83600    1.000
    O72      O        0.62660    0.85200    0.01620    1.000
    C191     C        0.83530    0.12450    0.34020    1.000
    H138     H        0.84260    0.09470    0.32230    1.000
    C192     C        0.52880    0.16330    0.15900    1.000
    H139     H        0.50230    0.14860    0.17880    1.000
    C193     C        0.85510    0.14140    0.40850    1.000
    H140     H        0.87610    0.12300    0.43660    1.000
    C194     C        0.60750    0.20710    0.10440    1.000
    H141     H        0.63410    0.22260    0.08630    1.000
    C195     C        0.66310    0.91620    0.07940    1.000
    C196     C        0.57150    0.14080    0.16190    1.000
    H142     H        0.57380    0.11080    0.18280    1.000
    C197     C        0.67180    0.99120    0.01920    1.000
    H143     H        0.66550    0.01160    0.97810    1.000
    C198     C        0.65760    0.94720    0.01380    1.000
    H144     H        0.64410    0.93640    0.96760    1.000
    Zn13     Zn       0.56671    0.67720    0.13249    1.000
    Zn14     Zn       0.62308    0.78121    0.11868    1.000
    O73      O        0.72653    0.67637    0.53120    1.000
    O74      O        0.71377    0.63208    0.73140    1.000
    O75      O        0.79225    0.55381    0.57680    1.000
    O76      O        0.84795    0.63898    0.64120    1.000
    C199     C        0.76653    0.62808    0.62170    1.000
    O77      O        0.60135    0.68796    0.22740    1.000
    O78      O        0.02012    0.77495    0.61480    1.000
    C200     C        0.69570    0.65270    0.79850    1.000
    C201     C        0.77360    0.57606    0.64550    1.000
    H145     H        0.74400    0.56190    0.66050    1.000
    H146     H        0.79520    0.57350    0.68900    1.000
    O79      O        0.84815    0.34150    0.63060    1.000
    O80      O        0.64214    0.74564    0.02810    1.000
    C202     C        0.97482    0.70693    0.62750    1.000
    C203     C        0.65670    0.68650    0.93560    1.000
    C204     C        0.70140    0.68284    0.46330    1.000
    O81      O        0.64593    0.74901    0.21220    1.000
    C205     C        0.79730    0.47810    0.64270    1.000
    H147     H        0.78090    0.48850    0.68630    1.000
    O82      O        0.60820    0.67641    0.04250    1.000
    C206     C        0.81420    0.43285    0.63900    1.000
    H148     H        0.80900    0.41330    0.68160    1.000
    C207     C        0.81090    0.65010    0.59160    1.000
    H149     H        0.81750    0.63870    0.53920    1.000
    H150     H        0.80720    0.68380    0.58900    1.000
    C208     C        0.85330    0.36600    0.57240    1.000
    O83      O        0.05619    0.70755    0.63570    1.000
    C209     C        0.75258    0.65530    0.69590    1.000
    H151     H        0.77870    0.65640    0.73210    1.000
    H152     H        0.74400    0.68710    0.68220    1.000
    C210     C        0.65710    0.70410    0.32280    1.000
    C211     C        0.68620    0.73710    0.36100    1.000
    H153     H        0.68990    0.76660    0.33910    1.000
    C212     C        0.72900    0.62930    0.56000    1.000
    H154     H        0.73660    0.60800    0.51770    1.000
    H155     H        0.69920    0.62010    0.58230    1.000
    C213     C        0.01983    0.73160    0.62570    1.000
    C214     C        0.63340    0.71430    0.24900    1.000
    C215     C        0.68770    0.71210    0.89440    1.000
    H156     H        0.69580    0.74150    0.91310    1.000
    C216     C        0.88910    0.66320    0.63340    1.000
    C217     C        0.93590    0.72890    0.60180    1.000
    H157     H        0.93830    0.75920    0.58210    1.000
    C218     C        0.80550    0.50710    0.58060    1.000
    C219     C        0.63460    0.70410    0.00760    1.000
    C220     C        0.70870    0.72670    0.42840    1.000
    H158     H        0.72870    0.74830    0.45140    1.000
    C221     C        0.67360    0.65120    0.42900    1.000
    H159     H        0.66900    0.62230    0.45290    1.000
    C222     C        0.70870    0.69620    0.82350    1.000
    H160     H        0.73010    0.71440    0.79580    1.000
    C223     C        0.65170    0.66060    0.35930    1.000
    H161     H        0.63310    0.63780    0.33600    1.000
    O84      O        0.87340    0.35200    0.51620    1.000
    C224     C        0.66470    0.62450    0.84020    1.000
    H162     H        0.65740    0.59470    0.82230    1.000
    C225     C        0.97120    0.66330    0.65900    1.000
    H163     H        0.99770    0.64860    0.67880    1.000
    C226     C        0.64490    0.64140    0.90850    1.000
    H164     H        0.62390    0.62300    0.93660    1.000
    C227     C        0.89250    0.70710    0.60440    1.000
    H165     H        0.86590    0.72260    0.58630    1.000
    C228     C        0.83690    0.41620    0.57940    1.000
    C229     C        0.92850    0.64080    0.66190    1.000
    H166     H        0.92620    0.61080    0.68280    1.000
    C230     C        0.82820    0.49120    0.51920    1.000
    H167     H        0.83450    0.51160    0.47810    1.000
    C231     C        0.84240    0.44720    0.51380    1.000
    H168     H        0.85590    0.43640    0.46760    1.000
    Zn15     Zn       0.43329    0.32280    0.13249    1.000
    Zn16     Zn       0.37692    0.21879    0.11868    1.000
    O85      O        0.27347    0.32363    0.53120    1.000
    O86      O        0.28623    0.36792    0.73140    1.000
    O87      O        0.20775    0.44619    0.57680    1.000
    O88      O        0.15205    0.36102    0.64120    1.000
    C232     C        0.23347    0.37192    0.62170    1.000
    O89      O        0.39865    0.31204    0.22740    1.000
    O90      O        0.97988    0.22505    0.61480    1.000
    C233     C        0.30430    0.34730    0.79850    1.000
    C234     C        0.22640    0.42394    0.64550    1.000
    H169     H        0.25600    0.43810    0.66050    1.000
    H170     H        0.20480    0.42650    0.68900    1.000
    O91      O        0.15185    0.65850    0.63060    1.000
    O92      O        0.35786    0.25436    0.02810    1.000
    C235     C        0.02518    0.29307    0.62750    1.000
    C236     C        0.34330    0.31350    0.93560    1.000
    C237     C        0.29860    0.31716    0.46330    1.000
    O93      O        0.35407    0.25099    0.21220    1.000
    C238     C        0.20270    0.52190    0.64270    1.000
    H171     H        0.21910    0.51150    0.68630    1.000
    O94      O        0.39180    0.32359    0.04250    1.000
    C239     C        0.18580    0.56715    0.63900    1.000
    H172     H        0.19100    0.58670    0.68160    1.000
    C240     C        0.18910    0.34990    0.59160    1.000
    H173     H        0.18250    0.36130    0.53920    1.000
    H174     H        0.19280    0.31620    0.58900    1.000
    C241     C        0.14670    0.63400    0.57240    1.000
    O95      O        0.94381    0.29245    0.63570    1.000
    C242     C        0.24742    0.34470    0.69590    1.000
    H175     H        0.22130    0.34360    0.73210    1.000
    H176     H        0.25600    0.31290    0.68220    1.000
    C243     C        0.34290    0.29590    0.32280    1.000
    C244     C        0.31380    0.26290    0.36100    1.000
    H177     H        0.31010    0.23340    0.33910    1.000
    C245     C        0.27100    0.37070    0.56000    1.000
    H178     H        0.26340    0.39200    0.51770    1.000
    H179     H        0.30080    0.37990    0.58230    1.000
    C246     C        0.98017    0.26840    0.62570    1.000
    C247     C        0.36660    0.28570    0.24900    1.000
    C248     C        0.31230    0.28790    0.89440    1.000
    H180     H        0.30420    0.25850    0.91310    1.000
    C249     C        0.11090    0.33680    0.63340    1.000
    C250     C        0.06410    0.27110    0.60180    1.000
    H181     H        0.06170    0.24080    0.58210    1.000
    C251     C        0.19450    0.49290    0.58060    1.000
    C252     C        0.36540    0.29590    0.00760    1.000
    C253     C        0.29130    0.27330    0.42840    1.000
    H182     H        0.27130    0.25170    0.45140    1.000
    C254     C        0.32640    0.34880    0.42900    1.000
    H183     H        0.33100    0.37770    0.45290    1.000
    C255     C        0.29130    0.30380    0.82350    1.000
    H184     H        0.26990    0.28560    0.79580    1.000
    C256     C        0.34830    0.33940    0.35930    1.000
    H185     H        0.36690    0.36220    0.33600    1.000
    O96      O        0.12660    0.64800    0.51620    1.000
    C257     C        0.33530    0.37550    0.84020    1.000
    H186     H        0.34260    0.40530    0.82230    1.000
    C258     C        0.02880    0.33670    0.65900    1.000
    H187     H        0.00230    0.35140    0.67880    1.000
    C259     C        0.35510    0.35860    0.90850    1.000
    H188     H        0.37610    0.37700    0.93660    1.000
    C260     C        0.10750    0.29290    0.60440    1.000
    H189     H        0.13410    0.27740    0.58630    1.000
    C261     C        0.16310    0.58380    0.57940    1.000
    C262     C        0.07150    0.35920    0.66190    1.000
    H190     H        0.07380    0.38920    0.68280    1.000
    C263     C        0.17180    0.50880    0.51920    1.000
    H191     H        0.16550    0.48840    0.47810    1.000
    C264     C        0.15760    0.55280    0.51380    1.000
    H192     H        0.14410    0.56360    0.46760    1.000
