data_functionalizedCrystal
_audit_creation_method	'EQeq! by Chris Wilmer'
_symmetry_space_group_name_H-M	'P1'
_symmetry_Int_Tables_number	1
_symmetry_cell_setting	triclinic
loop_
_symmetry_equiv_pos_as_xyz
  x,y,z
_cell_length_a	15.2003
_cell_length_b	10.2122
_cell_length_c	18.5903
_cell_angle_alpha	90
_cell_angle_beta	103.53
_cell_angle_gamma	90
loop_
_atom_site_label
_atom_site_type_symbol
_atom_site_fract_x
_atom_site_fract_y
_atom_site_fract_z
_atom_site_charge
Mof_V 	V 	0.16025	0.38417	0.08394	1.723
Mof_V 	V 	0.2479	0.45352	0.28394	1.722
Mof_P 	P 	0.21364	0.37837	0.92221	0.515
Mof_P 	P 	0.83657	0.33134	0.83572	0.48
Mof_O 	O 	0.21142	0.4257	0.99987	-0.534
Mof_O 	O 	0.82529	0.427	0.89613	-0.533
Mof_O 	O 	0.2025	0.3566	0.19155	-1.444
Mof_O 	O 	0.29814	0.2992	0.92159	-0.609
Mof_O 	O 	0.20981	0.5014	0.8742	-0.529
Mof_O 	O 	0.76704	0.2219	0.83032	-0.557
Mof_O 	O 	0.82841	0.3994	0.76113	-0.57
Mof_C 	C 	0.116	0.279	0.8877	-0.408
Mof_H 	H 	0.114	0.2091	0.9242	0.096
Mof_H 	H 	0.1224	0.2363	0.8414	0.097
Mof_C 	C 	0.9468	0.2589	0.8599	-0.374
Mof_H 	H 	0.9524	0.1972	0.8201	0.071
Mof_H 	H 	0.9517	0.2071	0.9056	0.086
Mof_C 	C 	0.0263	0.3535	0.8722	0.191
Mof_H 	H 	0.0213	0.4089	0.8277	-0.042
Mof_H 	H 	0.0248	0.4115	0.9145	-0.103
Mof_H 	H 	0.214	0.294	0.196	0.723
Mof_V 	V 	0.66025	0.88417	0.08394	1.719
Mof_V 	V 	0.7479	0.95352	0.28394	1.72
Mof_P 	P 	0.71364	0.87837	0.92221	0.518
Mof_P 	P 	0.33657	0.83134	0.83572	0.479
Mof_O 	O 	0.71142	0.9257	0.99987	-0.532
Mof_O 	O 	0.32529	0.927	0.89613	-0.531
Mof_O 	O 	0.7025	0.8566	0.19155	-1.447
Mof_O 	O 	0.79814	0.7992	0.92159	-0.607
Mof_O 	O 	0.70981	0.0014	0.8742	-0.535
Mof_O 	O 	0.26704	0.7219	0.83032	-0.556
Mof_O 	O 	0.32841	0.8994	0.76113	-0.568
Mof_C 	C 	0.616	0.779	0.8877	-0.408
Mof_H 	H 	0.614	0.7091	0.9242	0.097
Mof_H 	H 	0.6224	0.7363	0.8414	0.097
Mof_C 	C 	0.4468	0.7589	0.8599	-0.373
Mof_H 	H 	0.4524	0.6972	0.8201	0.071
Mof_H 	H 	0.4517	0.7071	0.9056	0.087
Mof_C 	C 	0.5263	0.8535	0.8722	0.191
Mof_H 	H 	0.5213	0.9089	0.8277	-0.041
Mof_H 	H 	0.5248	0.9115	0.9145	-0.102
Mof_H 	H 	0.714	0.794	0.196	0.724
Mof_V 	V 	0.83975	0.38417	0.41606	1.722
Mof_V 	V 	0.7521	0.45352	0.21606	1.721
Mof_P 	P 	0.78636	0.37837	0.57779	0.514
Mof_P 	P 	0.16343	0.33134	0.66428	0.479
Mof_O 	O 	0.78858	0.4257	0.50013	-0.534
Mof_O 	O 	0.17471	0.427	0.60387	-0.534
Mof_O 	O 	0.7975	0.3566	0.30845	-1.444
Mof_O 	O 	0.70186	0.2992	0.57841	-0.608
Mof_O 	O 	0.79019	0.5014	0.6258	-0.53
Mof_O 	O 	0.23296	0.2219	0.66968	-0.557
Mof_O 	O 	0.17159	0.3994	0.73887	-0.57
Mof_C 	C 	0.884	0.279	0.6123	-0.408
Mof_H 	H 	0.886	0.2091	0.5758	0.097
Mof_H 	H 	0.8776	0.2363	0.6586	0.097
Mof_C 	C 	0.0532	0.2589	0.6401	-0.373
Mof_H 	H 	0.0476	0.1972	0.6799	0.071
Mof_H 	H 	0.0483	0.2071	0.5944	0.087
Mof_C 	C 	0.9737	0.3535	0.6278	0.191
Mof_H 	H 	0.9787	0.4089	0.6723	-0.042
Mof_H 	H 	0.9752	0.4115	0.5855	-0.103
Mof_H 	H 	0.786	0.294	0.304	0.723
Mof_V 	V 	0.33975	0.88417	0.41606	1.721
Mof_V 	V 	0.2521	0.95352	0.21606	1.72
Mof_P 	P 	0.28636	0.87837	0.57779	0.516
Mof_P 	P 	0.66343	0.83134	0.66428	0.479
Mof_O 	O 	0.28858	0.9257	0.50013	-0.534
Mof_O 	O 	0.67471	0.927	0.60387	-0.533
Mof_O 	O 	0.2975	0.8566	0.30845	-1.446
Mof_O 	O 	0.20186	0.7992	0.57841	-0.608
Mof_O 	O 	0.29019	0.0014	0.6258	-0.531
Mof_O 	O 	0.73296	0.7219	0.66968	-0.556
Mof_O 	O 	0.67159	0.8994	0.73887	-0.568
Mof_C 	C 	0.384	0.779	0.6123	-0.408
Mof_H 	H 	0.386	0.7091	0.5758	0.097
Mof_H 	H 	0.3776	0.7363	0.6586	0.097
Mof_C 	C 	0.5532	0.7589	0.6401	-0.373
Mof_H 	H 	0.5476	0.6972	0.6799	0.071
Mof_H 	H 	0.5483	0.7071	0.5944	0.087
Mof_C 	C 	0.4737	0.8535	0.6278	0.191
Mof_H 	H 	0.4787	0.9089	0.6723	-0.041
Mof_H 	H 	0.4752	0.9115	0.5855	-0.103
Mof_H 	H 	0.286	0.794	0.304	0.723
Mof_V 	V 	0.83975	0.61583	0.91606	1.722
Mof_V 	V 	0.7521	0.54648	0.71606	1.721
Mof_P 	P 	0.78636	0.62163	0.07779	0.514
Mof_P 	P 	0.16343	0.66866	0.16428	0.479
Mof_O 	O 	0.78858	0.5743	0.00013	-0.535
Mof_O 	O 	0.17471	0.573	0.10387	-0.534
Mof_O 	O 	0.7975	0.6434	0.80845	-1.445
Mof_O 	O 	0.70186	0.7008	0.07841	-0.61
Mof_O 	O 	0.79019	0.4986	0.1258	-0.529
Mof_O 	O 	0.23296	0.7781	0.16968	-0.557
Mof_O 	O 	0.17159	0.6006	0.23887	-0.57
Mof_C 	C 	0.884	0.721	0.1123	-0.408
Mof_H 	H 	0.886	0.7909	0.0758	0.096
Mof_H 	H 	0.8776	0.7637	0.1586	0.097
Mof_C 	C 	0.0532	0.7411	0.1401	-0.374
Mof_H 	H 	0.0476	0.8028	0.1799	0.071
Mof_H 	H 	0.0483	0.7929	0.0944	0.086
Mof_C 	C 	0.9737	0.6465	0.1278	0.191
Mof_H 	H 	0.9787	0.5911	0.1723	-0.042
Mof_H 	H 	0.9752	0.5885	0.0855	-0.103
Mof_H 	H 	0.786	0.706	0.804	0.723
Mof_V 	V 	0.33975	0.11583	0.91606	1.719
Mof_V 	V 	0.2521	0.04648	0.71606	1.72
Mof_P 	P 	0.28636	0.12163	0.07779	0.518
Mof_P 	P 	0.66343	0.16866	0.16428	0.479
Mof_O 	O 	0.28858	0.0743	0.00013	-0.532
Mof_O 	O 	0.67471	0.073	0.10387	-0.531
Mof_O 	O 	0.2975	0.1434	0.80845	-1.447
Mof_O 	O 	0.20186	0.2008	0.07841	-0.607
Mof_O 	O 	0.29019	0.9986	0.1258	-0.535
Mof_O 	O 	0.73296	0.2781	0.16968	-0.556
Mof_O 	O 	0.67159	0.1006	0.23887	-0.568
Mof_C 	C 	0.384	0.221	0.1123	-0.408
Mof_H 	H 	0.386	0.2909	0.0758	0.097
Mof_H 	H 	0.3776	0.2637	0.1586	0.097
Mof_C 	C 	0.5532	0.2411	0.1401	-0.373
Mof_H 	H 	0.5476	0.3028	0.1799	0.071
Mof_H 	H 	0.5483	0.2929	0.0944	0.087
Mof_C 	C 	0.4737	0.1465	0.1278	0.191
Mof_H 	H 	0.4787	0.0911	0.1723	-0.041
Mof_H 	H 	0.4752	0.0885	0.0855	-0.102
Mof_H 	H 	0.286	0.206	0.804	0.724
Mof_V 	V 	0.16025	0.61583	0.58394	1.722
Mof_V 	V 	0.2479	0.54648	0.78394	1.721
Mof_P 	P 	0.21364	0.62163	0.42221	0.514
Mof_P 	P 	0.83657	0.66866	0.33572	0.479
Mof_O 	O 	0.21142	0.5743	0.49987	-0.534
Mof_O 	O 	0.82529	0.573	0.39613	-0.534
Mof_O 	O 	0.2025	0.6434	0.69155	-1.444
Mof_O 	O 	0.29814	0.7008	0.42159	-0.608
Mof_O 	O 	0.20981	0.4986	0.3742	-0.53
Mof_O 	O 	0.76704	0.7781	0.33032	-0.557
Mof_O 	O 	0.82841	0.6006	0.26113	-0.57
Mof_C 	C 	0.116	0.721	0.3877	-0.408
Mof_H 	H 	0.114	0.7909	0.4242	0.097
Mof_H 	H 	0.1224	0.7637	0.3414	0.097
Mof_C 	C 	0.9468	0.7411	0.3599	-0.373
Mof_H 	H 	0.9524	0.8028	0.3201	0.071
Mof_H 	H 	0.9517	0.7929	0.4056	0.087
Mof_C 	C 	0.0263	0.6465	0.3722	0.191
Mof_H 	H 	0.0213	0.5911	0.3277	-0.042
Mof_H 	H 	0.0248	0.5885	0.4145	-0.103
Mof_H 	H 	0.214	0.706	0.696	0.723
Mof_V 	V 	0.66025	0.11583	0.58394	1.721
Mof_V 	V 	0.7479	0.04648	0.78394	1.72
Mof_P 	P 	0.71364	0.12163	0.42221	0.516
Mof_P 	P 	0.33657	0.16866	0.33572	0.479
Mof_O 	O 	0.71142	0.0743	0.49987	-0.534
Mof_O 	O 	0.32529	0.073	0.39613	-0.533
Mof_O 	O 	0.7025	0.1434	0.69155	-1.446
Mof_O 	O 	0.79814	0.2008	0.42159	-0.608
Mof_O 	O 	0.70981	0.9986	0.3742	-0.531
Mof_O 	O 	0.26704	0.2781	0.33032	-0.556
Mof_O 	O 	0.32841	0.1006	0.26113	-0.568
Mof_C 	C 	0.616	0.221	0.3877	-0.408
Mof_H 	H 	0.614	0.2909	0.4242	0.097
Mof_H 	H 	0.6224	0.2637	0.3414	0.097
Mof_C 	C 	0.4468	0.2411	0.3599	-0.373
Mof_H 	H 	0.4524	0.3028	0.3201	0.071
Mof_H 	H 	0.4517	0.2929	0.4056	0.087
Mof_C 	C 	0.5263	0.1465	0.3722	0.191
Mof_H 	H 	0.5213	0.0911	0.3277	-0.041
Mof_H 	H 	0.5248	0.0885	0.4145	-0.103
Mof_H 	H 	0.714	0.206	0.696	0.723
_end
