data_functionalizedCrystal
_audit_creation_method	'EQeq! by Chris Wilmer'
_symmetry_space_group_name_H-M	'P1'
_symmetry_Int_Tables_number	1
_symmetry_cell_setting	triclinic
loop_
_symmetry_equiv_pos_as_xyz
  x,y,z
_cell_length_a	10.0224
_cell_length_b	11.4488
_cell_length_c	15.1754
_cell_angle_alpha	90.8601
_cell_angle_beta	90
_cell_angle_gamma	90
loop_
_atom_site_label
_atom_site_type_symbol
_atom_site_fract_x
_atom_site_fract_y
_atom_site_fract_z
_atom_site_charge
Mof_Fe	Fe	0.9263	0.75432	0.13442	1.015
Mof_Fe	Fe	0.87877	0.25961	0.69674	0.955
Mof_Fe	Fe	0.4263	0.74568	0.36558	0.93
Mof_Fe	Fe	0.37877	0.24039	0.80326	0.916
Mof_Fe	Fe	0.0737	0.24568	0.86558	0.827
Mof_Fe	Fe	0.12123	0.74039	0.30326	0.892
Mof_Fe	Fe	0.5737	0.25432	0.63442	0.913
Mof_Fe	Fe	0.62123	0.75961	0.19674	0.93
Mof_Fe	Fe	-0	0.5	-0	0.753
Mof_Fe	Fe	0.5	0	0.5	0.88
Mof_Fe	Fe	-0	0	-0	0.695
Mof_Fe	Fe	0.5	0.5	0.5	0.96
Mof_H 	H 	0.773	0.8534	0.3684	-0.084
Mof_H 	H 	0.056	0.4761	0.2571	-0.11
Mof_H 	H 	0.628	0.5345	0.0755	-0.108
Mof_H 	H 	0.23	0.9647	0.2067	-0.119
Mof_H 	H 	0.128	0.6956	0.9166	-0.111
Mof_H 	H 	0.714	0.9956	0.0266	-0.095
Mof_H 	H 	0.273	0.6466	0.1316	-0.112
Mof_H 	H 	0.556	0.0239	0.2429	-0.185
Mof_H 	H 	0.128	0.9655	0.4245	-0.094
Mof_H 	H 	0.73	0.5353	0.2933	-0.094
Mof_H 	H 	0.628	0.8044	0.5834	-0.073
Mof_H 	H 	0.214	0.5044	0.4734	-0.111
Mof_H 	H 	0.227	0.1466	0.6316	-0.112
Mof_H 	H 	0.944	0.5239	0.7429	-0.064
Mof_H 	H 	0.372	0.4655	0.9245	-0.069
Mof_H 	H 	0.77	0.0353	0.7933	-0.072
Mof_H 	H 	0.872	0.3044	0.0834	-0.034
Mof_H 	H 	0.286	0.0044	0.9734	-0.081
Mof_H 	H 	0.727	0.3534	0.8684	-0.08
Mof_H 	H 	0.444	0.9761	0.7571	0.007
Mof_H 	H 	0.872	0.0345	0.5755	-0.088
Mof_H 	H 	0.27	0.4647	0.7067	-0.111
Mof_H 	H 	0.372	0.1956	0.4166	-0.1
Mof_H 	H 	0.786	0.4956	0.5266	-0.089
Mof_C 	C 	0.8424	0.82611	0.32951	0.473
Mof_C 	C 	0.0368	0.51856	0.20416	0.49
Mof_C 	C 	0.7178	0.56176	0.06976	0.481
Mof_C 	C 	0.1558	0.9405	0.1703	0.556
Mof_C 	C 	0.0833	0.74142	0.96142	0.569
Mof_C 	C 	0.7299	0.93501	0.06571	0.481
Mof_C 	C 	0.3424	0.67389	0.17049	0.479
Mof_C 	C 	0.5368	0.98144	0.29584	0.662
Mof_C 	C 	0.2178	0.93824	0.43024	0.471
Mof_C 	C 	0.6558	0.5595	0.3297	0.48
Mof_C 	C 	0.5833	0.75858	0.53858	0.472
Mof_C 	C 	0.2299	0.56499	0.43429	0.499
Mof_C 	C 	0.1576	0.17389	0.67049	0.478
Mof_C 	C 	0.9632	0.48144	0.79584	0.449
Mof_C 	C 	0.2822	0.43824	0.93024	0.45
Mof_C 	C 	0.8442	0.0595	0.8297	0.37
Mof_C 	C 	0.9167	0.25858	0.03858	0.321
Mof_C 	C 	0.2701	0.06499	0.93429	0.473
Mof_C 	C 	0.6576	0.32611	0.82951	0.47
Mof_C 	C 	0.4632	0.01856	0.70416	0.292
Mof_C 	C 	0.7822	0.06176	0.56976	0.48
Mof_C 	C 	0.3442	0.4405	0.6703	0.486
Mof_C 	C 	0.4167	0.24142	0.46142	0.481
Mof_C 	C 	0.7701	0.43501	0.56571	0.49
Mof_O 	O 	0.8114	0.80737	0.24903	-0.453
Mof_O 	O 	0.95381	0.81103	0.36305	-0.339
Mof_O 	O 	0.01487	0.62776	0.21448	-0.499
Mof_O 	O 	0.02901	0.46277	0.13449	-0.413
Mof_O 	O 	0.74999	0.6498	0.1186	-0.46
Mof_O 	O 	0.79346	0.50732	0.01979	-0.38
Mof_O 	O 	0.0939	0.84674	0.18956	-0.508
Mof_O 	O 	0.13186	0.00508	0.10814	-0.456
Mof_O 	O 	0.01847	0.68636	0.02079	-0.547
Mof_O 	O 	0.09163	0.84846	0.95456	-0.352
Mof_O 	O 	0.85086	0.89991	0.06935	-0.428
Mof_O 	O 	0.63333	0.89417	0.10567	-0.384
Mof_O 	O 	0.3114	0.69263	0.25097	-0.462
Mof_O 	O 	0.45381	0.68897	0.13695	-0.401
Mof_O 	O 	0.51487	0.87224	0.28552	-0.505
Mof_O 	O 	0.52901	0.03723	0.36551	-0.467
Mof_O 	O 	0.24999	0.8502	0.3814	-0.455
Mof_O 	O 	0.29346	0.99268	0.48021	-0.354
Mof_O 	O 	0.5939	0.65326	0.31044	-0.465
Mof_O 	O 	0.63186	0.49492	0.39186	-0.384
Mof_O 	O 	0.51847	0.81364	0.47921	-0.443
Mof_O 	O 	0.59163	0.65154	0.54544	-0.387
Mof_O 	O 	0.35086	0.60009	0.43065	-0.472
Mof_O 	O 	0.13333	0.60583	0.39433	-0.405
Mof_O 	O 	0.1886	0.19263	0.75097	-0.472
Mof_O 	O 	0.04619	0.18897	0.63695	-0.438
Mof_O 	O 	0.98513	0.37224	0.78552	-0.417
Mof_O 	O 	0.97099	0.53723	0.86551	-0.299
Mof_O 	O 	0.25001	0.3502	0.8814	-0.443
Mof_O 	O 	0.20654	0.49268	0.98021	-0.326
Mof_O 	O 	0.9061	0.15326	0.81044	-0.403
Mof_O 	O 	0.86814	0.99492	0.89186	-0.228
Mof_O 	O 	0.98153	0.31364	0.97921	-0.294
Mof_O 	O 	0.90837	0.15154	0.04544	-0.331
Mof_O 	O 	0.14914	0.10009	0.93065	-0.429
Mof_O 	O 	0.36667	0.10583	0.89433	-0.382
Mof_O 	O 	0.6886	0.30737	0.74903	-0.462
Mof_O 	O 	0.54619	0.31103	0.86305	-0.373
Mof_O 	O 	0.48513	0.12776	0.71448	-0.421
Mof_O 	O 	0.47099	0.96277	0.63449	-0.287
Mof_O 	O 	0.75001	0.1498	0.6186	-0.457
Mof_O 	O 	0.70654	0.00732	0.51979	-0.395
Mof_O 	O 	0.4061	0.34674	0.68956	-0.468
Mof_O 	O 	0.36814	0.50508	0.60814	-0.391
Mof_O 	O 	0.48153	0.18636	0.52079	-0.459
Mof_O 	O 	0.40837	0.34846	0.45456	-0.4
Mof_O 	O 	0.64914	0.39991	0.56935	-0.463
Mof_O 	O 	0.86667	0.39417	0.60567	-0.373
_end
