data_functionalizedCrystal
_audit_creation_method	'EQeq! by Chris Wilmer'
_symmetry_space_group_name_H-M	'P1'
_symmetry_Int_Tables_number	1
_symmetry_cell_setting	triclinic
loop_
_symmetry_equiv_pos_as_xyz
  x,y,z
_cell_length_a	18.416
_cell_length_b	10.154
_cell_length_c	27.01
_cell_angle_alpha	90
_cell_angle_beta	90
_cell_angle_gamma	90
loop_
_atom_site_label
_atom_site_type_symbol
_atom_site_fract_x
_atom_site_fract_y
_atom_site_fract_z
_atom_site_charge
Mof_Zn	Zn	0.82834	0.68796	0.96752	1.239
Mof_Zn	Zn	0.68785	0.99096	0.5663	1.157
Mof_O 	O 	0.413	0.9222	0.06578	-0.506
Mof_O 	O 	0.4306	0.8115	0.99415	-0.41
Mof_O 	O 	0.7649	0.6554	0.02915	-0.592
Mof_O 	O 	0.6688	0.0211	0.42999	-0.451
Mof_O 	O 	0.6589	0.3181	0.41033	-0.392
Mof_O 	O 	0.6796	0.4112	0.48237	-0.345
Mof_C 	C 	0.5748	0.7564	0.0248	-0.051
Mof_H 	H 	0.568	0.7589	0.9907	0.096
Mof_O 	O 	0.6774	0.8933	0.49809	-0.505
Mof_O 	O 	0.6974	0.7084	0.96517	-0.313
Mof_C 	C 	0.5295	0.7864	0.1079	-0.029
Mof_H 	H 	0.4932	0.8137	0.1296	0.038
Mof_C 	C 	0.6489	0.7008	0.0964	-0.034
Mof_H 	H 	0.6924	0.6674	0.1087	-0.002
Mof_C 	C 	0.6596	0.6103	0.2529	-0.083
Mof_H 	H 	0.6898	0.5438	0.2645	0.051
Mof_C 	C 	0.6059	0.7188	0.1827	0.003
Mof_C 	C 	0.4488	0.8508	0.0385	0.344
Mof_C 	C 	0.6429	0.6178	0.2014	-0.043
Mof_H 	H 	0.6582	0.5506	0.1804	0.016
Mof_C 	C 	0.5952	0.7358	0.1279	-0.008
Mof_C 	C 	0.5775	0.8162	0.2157	-0.045
Mof_H 	H 	0.5515	0.8879	0.2038	0.038
Mof_C 	C 	0.6388	0.7152	0.0443	-0.071
Mof_C 	C 	0.6319	0.6988	0.2846	0.036
Mof_C 	C 	0.669	0.6649	0.442	0.018
Mof_H 	H 	0.6787	0.6577	0.4757	0.041
Mof_C 	C 	0.6706	0.9108	0.4531	0.384
Mof_C 	C 	0.6609	0.5498	0.4131	-0.071
Mof_C 	C 	0.5899	0.801	0.266	-0.074
Mof_H 	H 	0.5694	0.8611	0.2879	0.056
Mof_C 	C 	0.6506	0.8005	0.3689	-0.019
Mof_H 	H 	0.6462	0.8833	0.3545	0.053
Mof_C 	C 	0.7044	0.6879	0.0105	0.287
Mof_C 	C 	0.6456	0.6864	0.3401	-0.01
Mof_C 	C 	0.6625	0.7877	0.4207	-0.089
Mof_C 	C 	0.5176	0.7964	0.0579	-0.077
Mof_C 	C 	0.652	0.5638	0.3627	-0.024
Mof_H 	H 	0.6502	0.4886	0.3431	0.055
Mof_C 	C 	0.6683	0.4199	0.4362	0.299
Mof_Zn	Zn	0.17166	0.31204	0.46752	1.234
Mof_Zn	Zn	0.31215	0.00904	0.0663	1.15
Mof_O 	O 	0.587	0.0778	0.56578	-0.512
Mof_O 	O 	0.5694	0.1885	0.49415	-0.442
Mof_O 	O 	0.2351	0.3446	0.52915	-0.591
Mof_O 	O 	0.3312	0.9789	0.92999	-0.446
Mof_O 	O 	0.3411	0.6819	0.91033	-0.39
Mof_O 	O 	0.3204	0.5888	0.98237	-0.334
Mof_C 	C 	0.4252	0.2436	0.5248	0.049
Mof_H 	H 	0.432	0.2411	0.4907	0.042
Mof_O 	O 	0.3226	0.1067	0.99809	-0.489
Mof_O 	O 	0.3026	0.2916	0.46517	-0.346
Mof_C 	C 	0.4705	0.2136	0.6079	0.008
Mof_H 	H 	0.5068	0.1863	0.6296	0.027
Mof_C 	C 	0.3511	0.2992	0.5964	0.004
Mof_H 	H 	0.3076	0.3326	0.6087	-0.013
Mof_C 	C 	0.3404	0.3897	0.7529	-0.072
Mof_H 	H 	0.3102	0.4562	0.7645	0.049
Mof_C 	C 	0.3941	0.2812	0.6827	0.019
Mof_C 	C 	0.5512	0.1492	0.5385	0.397
Mof_C 	C 	0.3571	0.3822	0.7014	-0.055
Mof_H 	H 	0.3418	0.4494	0.6804	0.023
Mof_C 	C 	0.4048	0.2642	0.6279	-0.035
Mof_C 	C 	0.4225	0.1838	0.7157	-0.056
Mof_H 	H 	0.4485	0.1121	0.7038	0.044
Mof_C 	C 	0.3612	0.2848	0.5443	-0.119
Mof_C 	C 	0.3681	0.3012	0.7846	0.029
Mof_C 	C 	0.331	0.3351	0.942	0.014
Mof_H 	H 	0.3213	0.3423	0.9757	0.047
Mof_C 	C 	0.3294	0.0892	0.9531	0.382
Mof_C 	C 	0.3391	0.4502	0.9131	-0.064
Mof_C 	C 	0.4101	0.199	0.766	-0.065
Mof_H 	H 	0.4306	0.1389	0.7879	0.054
Mof_C 	C 	0.3494	0.1995	0.8689	-0.023
Mof_H 	H 	0.3538	0.1167	0.8545	0.055
Mof_C 	C 	0.2956	0.3121	0.5105	0.343
Mof_C 	C 	0.3544	0.3136	0.8401	-0.004
Mof_C 	C 	0.3375	0.2123	0.9207	-0.082
Mof_C 	C 	0.4824	0.2036	0.5579	-0.123
Mof_C 	C 	0.348	0.4362	0.8627	-0.028
Mof_H 	H 	0.3498	0.5114	0.8431	0.057
Mof_C 	C 	0.3317	0.5801	0.9362	0.296
Mof_Zn	Zn	0.32834	0.81204	0.96752	1.238
Mof_Zn	Zn	0.18785	0.50904	0.5663	1.158
Mof_O 	O 	0.913	0.5778	0.06578	-0.508
Mof_O 	O 	0.9306	0.6885	0.99415	-0.41
Mof_O 	O 	0.2649	0.8446	0.02915	-0.591
Mof_O 	O 	0.1688	0.4789	0.42999	-0.453
Mof_O 	O 	0.1589	0.1819	0.41033	-0.392
Mof_O 	O 	0.1796	0.0888	0.48237	-0.345
Mof_C 	C 	0.0748	0.7436	0.0248	-0.049
Mof_H 	H 	0.068	0.7411	0.9907	0.094
Mof_O 	O 	0.1774	0.6067	0.49809	-0.504
Mof_O 	O 	0.1974	0.7916	0.96517	-0.314
Mof_C 	C 	0.0295	0.7136	0.1079	-0.026
Mof_H 	H 	0.9932	0.6863	0.1296	0.036
Mof_C 	C 	0.1489	0.7992	0.0964	-0.033
Mof_H 	H 	0.1924	0.8326	0.1087	-0.002
Mof_C 	C 	0.1596	0.8897	0.2529	-0.083
Mof_H 	H 	0.1898	0.9562	0.2645	0.052
Mof_C 	C 	0.1059	0.7812	0.1827	0.003
Mof_C 	C 	0.9488	0.6492	0.0385	0.343
Mof_C 	C 	0.1429	0.8822	0.2014	-0.043
Mof_H 	H 	0.1582	0.9494	0.1804	0.017
Mof_C 	C 	0.0952	0.7642	0.1279	-0.01
Mof_C 	C 	0.0775	0.6838	0.2157	-0.045
Mof_H 	H 	0.0515	0.6121	0.2038	0.038
Mof_C 	C 	0.1388	0.7848	0.0443	-0.072
Mof_C 	C 	0.1319	0.8012	0.2846	0.037
Mof_C 	C 	0.169	0.8351	0.442	0.02
Mof_H 	H 	0.1787	0.8423	0.4757	0.04
Mof_C 	C 	0.1706	0.5892	0.4531	0.386
Mof_C 	C 	0.1609	0.9502	0.4131	-0.072
Mof_C 	C 	0.0899	0.699	0.266	-0.074
Mof_H 	H 	0.0694	0.6389	0.2879	0.056
Mof_C 	C 	0.1506	0.6995	0.3689	-0.018
Mof_H 	H 	0.1462	0.6167	0.3545	0.052
Mof_C 	C 	0.2044	0.8121	0.0105	0.288
Mof_C 	C 	0.1456	0.8136	0.3401	-0.012
Mof_C 	C 	0.1625	0.7123	0.4207	-0.09
Mof_C 	C 	0.0176	0.7036	0.0579	-0.078
Mof_C 	C 	0.152	0.9362	0.3627	-0.019
Mof_H 	H 	0.1502	0.0114	0.3431	0.052
Mof_C 	C 	0.1683	0.0801	0.4362	0.299
Mof_Zn	Zn	0.67166	0.18796	0.46752	1.234
Mof_Zn	Zn	0.81215	0.49096	0.0663	1.151
Mof_O 	O 	0.087	0.4222	0.56578	-0.512
Mof_O 	O 	0.0694	0.3115	0.49415	-0.442
Mof_O 	O 	0.7351	0.1554	0.52915	-0.591
Mof_O 	O 	0.8312	0.5211	0.92999	-0.449
Mof_O 	O 	0.8411	0.8181	0.91033	-0.39
Mof_O 	O 	0.8204	0.9112	0.98237	-0.334
Mof_C 	C 	0.9252	0.2564	0.5248	0.049
Mof_H 	H 	0.932	0.2589	0.4907	0.042
Mof_O 	O 	0.8226	0.3933	0.99809	-0.489
Mof_O 	O 	0.8026	0.2084	0.46517	-0.346
Mof_C 	C 	0.9705	0.2864	0.6079	0.009
Mof_H 	H 	0.0068	0.3137	0.6296	0.027
Mof_C 	C 	0.8511	0.2008	0.5964	0.004
Mof_H 	H 	0.8076	0.1674	0.6087	-0.013
Mof_C 	C 	0.8404	0.1103	0.7529	-0.073
Mof_H 	H 	0.8102	0.0438	0.7645	0.05
Mof_C 	C 	0.8941	0.2188	0.6827	0.02
Mof_C 	C 	0.0512	0.3508	0.5385	0.397
Mof_C 	C 	0.8571	0.1178	0.7014	-0.055
Mof_H 	H 	0.8418	0.0506	0.6804	0.023
Mof_C 	C 	0.9048	0.2358	0.6279	-0.036
Mof_C 	C 	0.9225	0.3162	0.7157	-0.056
Mof_H 	H 	0.9485	0.3879	0.7038	0.043
Mof_C 	C 	0.8612	0.2152	0.5443	-0.119
Mof_C 	C 	0.8681	0.1988	0.7846	0.03
Mof_C 	C 	0.831	0.1649	0.942	0.015
Mof_H 	H 	0.8213	0.1577	0.9757	0.047
Mof_C 	C 	0.8294	0.4108	0.9531	0.384
Mof_C 	C 	0.8391	0.0498	0.9131	-0.066
Mof_C 	C 	0.9101	0.301	0.766	-0.065
Mof_H 	H 	0.9306	0.3611	0.7879	0.054
Mof_C 	C 	0.8494	0.3005	0.8689	-0.022
Mof_H 	H 	0.8538	0.3833	0.8545	0.055
Mof_C 	C 	0.7956	0.1879	0.5105	0.343
Mof_C 	C 	0.8544	0.1864	0.8401	-0.005
Mof_C 	C 	0.8375	0.2877	0.9207	-0.083
Mof_C 	C 	0.9824	0.2964	0.5579	-0.124
Mof_C 	C 	0.848	0.0638	0.8627	-0.026
Mof_H 	H 	0.8498	0.9886	0.8431	0.056
Mof_C 	C 	0.8317	0.9199	0.9362	0.296
_end
