# CIF file generated by openbabel 3.1.0, see https://openbabel.org
data_I
_chemical_name_common 'HEZKIH_clean'
_cell_length_a 13.0757
_cell_length_b 14.1157
_cell_length_c 16.6631
_cell_angle_alpha 66.602
_cell_angle_beta 87.138
_cell_angle_gamma 89.757
_space_group_name_H-M_alt 'P 1'
_space_group_name_Hall 'P 1'
loop_
    _symmetry_equiv_pos_as_xyz
    x,y,z
loop_
    _atom_site_label
    _atom_site_type_symbol
    _atom_site_fract_x
    _atom_site_fract_y
    _atom_site_fract_z
    _atom_site_occupancy
    Zn1      Zn       0.23522    0.83370    0.41793    1.000
    Zn2      Zn       0.90283    0.46107    0.28174    1.000
    Zn3      Zn       0.74708    0.58992    0.12895    1.000
    Zn4      Zn       0.40818    0.95917    0.25723    1.000
    H1       H        0.08720    0.73110    0.24550    1.000
    H2       H        0.98690    0.81750    0.00030    1.000
    H3       H        0.22190    0.97460    0.04460    1.000
    H4       H        0.17050    0.09700    0.91470    1.000
    H5       H        0.25050    0.02380    0.89110    1.000
    H6       H        0.08890    0.11870    0.77640    1.000
    H7       H        0.17110    0.22780    0.26290    1.000
    H8       H        0.12090    0.27660    0.48630    1.000
    H9       H        0.31030    0.04910    0.48310    1.000
    H10      H        0.22750    0.25780    0.60750    1.000
    H11      H        0.12470    0.18840    0.62740    1.000
    H12      H        0.29720    0.11410    0.73610    1.000
    H13      H        0.57930    0.68300    0.30260    1.000
    H14      H        0.72530    0.47330    0.50650    1.000
    H15      H        0.49080    0.63740    0.55220    1.000
    H16      H        0.69770    0.37690    0.65170    1.000
    H17      H        0.76900    0.47550    0.63680    1.000
    H18      H        0.64700    0.36780    0.79740    1.000
    H19      H        0.82850    0.48150    0.76050    1.000
    H20      H        0.76670    0.47280    0.90700    1.000
    H21      H        0.85560    0.39300    0.90980    1.000
    H22      H        0.80500    0.40110    0.04690    1.000
    H23      H        0.68110    0.18830    0.27560    1.000
    H24      H        0.61700    0.17450    0.04520    1.000
    C1       C        0.23160    0.87430    0.21700    1.000
    C2       C        0.95120    0.67160    0.16000    1.000
    C3       C        0.16220    0.85640    0.15420    1.000
    C4       C        0.09150    0.77590    0.18520    1.000
    C5       C        0.02620    0.76110    0.12720    1.000
    C6       C        0.03240    0.82680    0.03940    1.000
    C7       C        0.10560    0.90680    0.00830    1.000
    C8       C        0.17120    0.92110    0.06560    1.000
    C9       C        0.17950    0.04940    0.88450    1.000
    C10      C        0.15820    0.10290    0.79030    1.000
    C11      C        0.30050    0.07500    0.31600    1.000
    C12      C        0.05490    0.34140    0.32430    1.000
    C13      C        0.24770    0.13000    0.36670    1.000
    C14      C        0.18220    0.20960    0.32300    1.000
    C15      C        0.13280    0.26250    0.36860    1.000
    C16      C        0.15290    0.23920    0.45590    1.000
    C17      C        0.22080    0.16000    0.49800    1.000
    C18      C        0.26640    0.10450    0.45370    1.000
    C19      C        0.20010    0.18610    0.63140    1.000
    C20      C        0.22760    0.13040    0.72410    1.000
    C21      C        0.44630    0.75570    0.38880    1.000
    C22      C        0.72580    0.54430    0.33190    1.000
    C23      C        0.52410    0.67270    0.42300    1.000
    C24      C        0.58670    0.64820    0.36380    1.000
    C25      C        0.65990    0.57240    0.39540    1.000
    C26      C        0.67380    0.52360    0.48520    1.000
    C27      C        0.61160    0.54960    0.54280    1.000
    C28      C        0.53520    0.62240    0.51200    1.000
    C29      C        0.70400    0.43910    0.66480    1.000
    C30      C        0.70230    0.40920    0.76170    1.000
    C31      C        0.77560    0.43870    0.79870    1.000
    C32      C        0.78430    0.41230    0.89350    1.000
    C33      C        0.71150    0.29470    0.03150    1.000
    C34      C        0.76220    0.34210    0.07740    1.000
    C35      C        0.75000    0.30270    0.16840    1.000
    C36      C        0.68820    0.21560    0.21350    1.000
    C37      C        0.63720    0.16890    0.16730    1.000
    C38      C        0.65020    0.20780    0.07660    1.000
    C39      C        0.80050    0.35380    0.21880    1.000
    C40      C        0.56220    0.08170    0.21390    1.000
    O1       O        0.30110    0.94240    0.18291    1.000
    O2       O        0.21500    0.82230    0.29730    1.000
    O3       O        0.96800    0.59990    0.23259    1.000
    O4       O        0.87910    0.67400    0.11259    1.000
    O5       O        0.10770    0.96520    0.92012    1.000
    O6       O        0.32480    0.97954    0.35626    1.000
    O7       O        0.32320    0.12290    0.23700    1.000
    O8       O        0.99960    0.37600    0.37201    1.000
    O9       O        0.04320    0.37060    0.24438    1.000
    O10      O        0.24470    0.12990    0.58330    1.000
    O11      O        0.46480    0.82090    0.31092    1.000
    O12      O        0.37030    0.75460    0.43771    1.000
    O13      O        0.79840    0.48300    0.36286    1.000
    O14      O        0.70500    0.58150    0.25336    1.000
    O15      O        0.61820    0.50610    0.63236    1.000
    O16      O        0.71620    0.32800    0.94239    1.000
    O17      O        0.83319    0.44855    0.17813    1.000
    O18      O        0.81230    0.30720    0.29849    1.000
    O19      O        0.51650    0.04350    0.16840    1.000
    O20      O        0.54310    0.05190    0.29430    1.000
    Zn5      Zn       0.76478    0.16630    0.58207    1.000
    Zn6      Zn       0.09717    0.53893    0.71826    1.000
    Zn7      Zn       0.25292    0.41008    0.87105    1.000
    Zn8      Zn       0.59182    0.04083    0.74277    1.000
    H25      H        0.91280    0.26890    0.75450    1.000
    H26      H        0.01310    0.18250    0.99970    1.000
    H27      H        0.77810    0.02540    0.95540    1.000
    H28      H        0.82950    0.90300    0.08530    1.000
    H29      H        0.74950    0.97620    0.10890    1.000
    H30      H        0.91110    0.88130    0.22360    1.000
    H31      H        0.82890    0.77220    0.73710    1.000
    H32      H        0.87910    0.72340    0.51370    1.000
    H33      H        0.68970    0.95090    0.51690    1.000
    H34      H        0.77250    0.74220    0.39250    1.000
    H35      H        0.87530    0.81160    0.37260    1.000
    H36      H        0.70280    0.88590    0.26390    1.000
    H37      H        0.42070    0.31700    0.69740    1.000
    H38      H        0.27470    0.52670    0.49350    1.000
    H39      H        0.50920    0.36260    0.44780    1.000
    H40      H        0.30230    0.62310    0.34830    1.000
    H41      H        0.23100    0.52450    0.36320    1.000
    H42      H        0.35300    0.63220    0.20260    1.000
    H43      H        0.17150    0.51850    0.23950    1.000
    H44      H        0.23330    0.52720    0.09300    1.000
    H45      H        0.14440    0.60700    0.09020    1.000
    H46      H        0.19500    0.59890    0.95310    1.000
    H47      H        0.31890    0.81170    0.72440    1.000
    H48      H        0.38300    0.82550    0.95480    1.000
    C41      C        0.76840    0.12570    0.78300    1.000
    C42      C        0.04880    0.32840    0.84000    1.000
    C43      C        0.83780    0.14360    0.84580    1.000
    C44      C        0.90850    0.22410    0.81480    1.000
    C45      C        0.97380    0.23890    0.87280    1.000
    C46      C        0.96760    0.17320    0.96060    1.000
    C47      C        0.89440    0.09320    0.99170    1.000
    C48      C        0.82880    0.07890    0.93440    1.000
    C49      C        0.82050    0.95060    0.11550    1.000
    C50      C        0.84180    0.89710    0.20970    1.000
    C51      C        0.69950    0.92500    0.68400    1.000
    C52      C        0.94510    0.65860    0.67570    1.000
    C53      C        0.75230    0.87000    0.63330    1.000
    C54      C        0.81780    0.79040    0.67700    1.000
    C55      C        0.86720    0.73750    0.63140    1.000
    C56      C        0.84710    0.76080    0.54410    1.000
    C57      C        0.77920    0.84000    0.50200    1.000
    C58      C        0.73360    0.89550    0.54630    1.000
    C59      C        0.79990    0.81390    0.36860    1.000
    C60      C        0.77240    0.86960    0.27590    1.000
    C61      C        0.55370    0.24430    0.61120    1.000
    C62      C        0.27420    0.45570    0.66810    1.000
    C63      C        0.47590    0.32730    0.57700    1.000
    C64      C        0.41330    0.35180    0.63620    1.000
    C65      C        0.34010    0.42760    0.60460    1.000
    C66      C        0.32620    0.47640    0.51480    1.000
    C67      C        0.38840    0.45040    0.45720    1.000
    C68      C        0.46480    0.37760    0.48800    1.000
    C69      C        0.29600    0.56090    0.33520    1.000
    C70      C        0.29770    0.59080    0.23830    1.000
    C71      C        0.22440    0.56130    0.20130    1.000
    C72      C        0.21570    0.58770    0.10650    1.000
    C73      C        0.28850    0.70530    0.96850    1.000
    C74      C        0.23780    0.65790    0.92260    1.000
    C75      C        0.25000    0.69730    0.83160    1.000
    C76      C        0.31180    0.78440    0.78650    1.000
    C77      C        0.36280    0.83110    0.83270    1.000
    C78      C        0.34980    0.79220    0.92340    1.000
    C79      C        0.19950    0.64620    0.78120    1.000
    C80      C        0.43780    0.91830    0.78610    1.000
    O21      O        0.69890    0.05760    0.81709    1.000
    O22      O        0.78500    0.17770    0.70270    1.000
    O23      O        0.03200    0.40010    0.76741    1.000
    O24      O        0.12090    0.32600    0.88741    1.000
    O25      O        0.89230    0.03480    0.07988    1.000
    O26      O        0.67520    0.02046    0.64374    1.000
    O27      O        0.67680    0.87710    0.76300    1.000
    O28      O        0.00040    0.62400    0.62799    1.000
    O29      O        0.95680    0.62940    0.75562    1.000
    O30      O        0.75530    0.87010    0.41670    1.000
    O31      O        0.53520    0.17910    0.68908    1.000
    O32      O        0.62970    0.24540    0.56229    1.000
    O33      O        0.20160    0.51700    0.63714    1.000
    O34      O        0.29500    0.41850    0.74664    1.000
    O35      O        0.38180    0.49390    0.36764    1.000
    O36      O        0.28380    0.67200    0.05761    1.000
    O37      O        0.16681    0.55145    0.82187    1.000
    O38      O        0.18770    0.69280    0.70151    1.000
    O39      O        0.48350    0.95650    0.83160    1.000
    O40      O        0.45690    0.94810    0.70570    1.000
