data_functionalizedCrystal
_audit_creation_method	'EQeq! by Chris Wilmer'
_symmetry_space_group_name_H-M	'P1'
_symmetry_Int_Tables_number	1
_symmetry_cell_setting	triclinic
loop_
_symmetry_equiv_pos_as_xyz
  x,y,z
_cell_length_a	8.1256
_cell_length_b	10.5021
_cell_length_c	11.3817
_cell_angle_alpha	62.5251
_cell_angle_beta	84.3293
_cell_angle_gamma	77.633
loop_
_atom_site_label
_atom_site_type_symbol
_atom_site_fract_x
_atom_site_fract_y
_atom_site_fract_z
_atom_site_charge
Mof_Fe	Fe	0.35798	0.24441	0.5078	0.645
Mof_Fe	Fe	0.85798	0.75221	0.4922	0.624
Mof_H 	H 	0.5727	0.9499	0.5426	-0.071
Mof_H 	H 	0.2755	0.9369	0.6316	-0.013
Mof_H 	H 	0.2694	0.7338	0.8298	0.088
Mof_H 	H 	0.4525	0.9314	0.0014	0.064
Mof_H 	H 	0.4555	0.128	0.7978	0.01
Mof_H 	H 	0.291	0.5438	0.011	0.085
Mof_H 	H 	0.2904	0.3479	0.2152	-0.002
Mof_H 	H 	0.4068	0.7677	0.1864	0.086
Mof_H 	H 	0.4062	0.5636	0.3846	-0.016
Mof_H 	H 	0.0727	0.4925	0.4574	-0.124
Mof_H 	H 	0.7755	0.5685	0.3684	-0.023
Mof_H 	H 	0.7694	0.5636	0.1702	0.076
Mof_H 	H 	0.9525	0.9328	0.9986	0.078
Mof_H 	H 	0.9555	0.9258	0.2022	-0.008
Mof_H 	H 	0.791	0.5548	0.989	0.074
Mof_H 	H 	0.7904	0.5631	0.7848	-0.007
Mof_H 	H 	0.9068	0.9541	0.8136	0.077
Mof_H 	H 	0.9062	0.9482	0.6154	-0.014
Mof_C 	C 	0.5951	0.01216	0.45528	0.318
Mof_C 	C 	0.3113	0.93607	0.70706	0.128
Mof_C 	C 	0.3067	0.81315	0.8265	-0.144
Mof_C 	C 	0.3576	0.80826	0.94128	0.049
Mof_C 	C 	0.415	0.92967	0.92766	-0.074
Mof_C 	C 	0.4163	0.04796	0.80448	0.028
Mof_C 	C 	0.3521	0.68011	0.07278	0.073
Mof_C 	C 	0.3154	0.55083	0.08574	-0.147
Mof_C 	C 	0.3153	0.43313	0.20914	0.098
Mof_C 	C 	0.3843	0.6832	0.189	-0.151
Mof_C 	C 	0.3826	0.55978	0.30804	0.097
Mof_C 	C 	0.0951	0.46744	0.54472	0.449
Mof_C 	C 	0.8113	0.64313	0.29294	0.09
Mof_C 	C 	0.8067	0.63965	0.1735	-0.152
Mof_C 	C 	0.8576	0.74954	0.05872	0.058
Mof_C 	C 	0.915	0.85733	0.07234	-0.148
Mof_C 	C 	0.9163	0.85244	0.19552	0.089
Mof_C 	C 	0.8521	0.75289	0.92722	0.056
Mof_C 	C 	0.8154	0.63657	0.91426	-0.145
Mof_C 	C 	0.8153	0.64227	0.79086	0.087
Mof_C 	C 	0.8843	0.8722	0.811	-0.148
Mof_C 	C 	0.8826	0.86782	0.69196	0.085
Mof_N 	N 	0.3491	0.43536	0.32048	-0.195
Mof_N 	N 	0.364	0.05347	0.69406	-0.206
Mof_N 	N 	0.8491	0.75584	0.67952	-0.196
Mof_N 	N 	0.864	0.74753	0.30594	-0.199
Mof_O 	O 	0.5077	0.13779	0.40542	-0.361
Mof_O 	O 	0.7098	0.96322	0.39776	-0.329
Mof_O 	O 	0.0077	0.54321	0.59458	-0.357
Mof_O 	O 	0.2098	0.36098	0.60224	-0.382
_end
