data_functionalizedCrystal
_audit_creation_method	'EQeq! by Chris Wilmer'
_symmetry_space_group_name_H-M	'P1'
_symmetry_Int_Tables_number	1
_symmetry_cell_setting	triclinic
loop_
_symmetry_equiv_pos_as_xyz
  x,y,z
_cell_length_a	8.8622
_cell_length_b	19.1014
_cell_length_c	14.8612
_cell_angle_alpha	86.4434
_cell_angle_beta	84.8205
_cell_angle_gamma	84.5316
loop_
_atom_site_label
_atom_site_type_symbol
_atom_site_fract_x
_atom_site_fract_y
_atom_site_fract_z
_atom_site_charge
Mof_Cd	Cd	0.70461	0.701	0.9215	0.414
Mof_Cd	Cd	0.13047	0.9787	0.70358	0.321
Mof_Cd	Cd	0.25347	0.52971	0.83246	0.335
Mof_Cd	Cd	0.69195	0.8298	0.56794	0.315
Mof_Cd	Cd	0.15344	0.85185	0.04353	0.288
Mof_Cd	Cd	0.29539	0.299	0.0785	0.413
Mof_Cd	Cd	0.86953	0.0213	0.29642	0.32
Mof_Cd	Cd	0.74653	0.47029	0.16754	0.334
Mof_Cd	Cd	0.30805	0.1702	0.43206	0.314
Mof_Cd	Cd	0.84656	0.14815	0.95647	0.288
Mof_C 	C 	0.4466	0.5921	0.8517	0
Mof_C 	C 	0.9524	0.8011	0.0103	-0.001
Mof_C 	C 	0.7306	0.5686	0.0834	0.004
Mof_C 	C 	0.3735	0.7906	0.0151	-0.007
Mof_C 	C 	0.0398	0.5987	0.8553	-0.004
Mof_C 	C 	0.1773	0.9484	0.846	0.009
Mof_C 	C 	0.1162	0.9114	0.1655	-0.002
Mof_C 	C 	0.8802	0.8848	0.614	0.018
Mof_C 	C 	0.4611	0.8793	0.6096	0.008
Mof_C 	C 	0.7306	0.7172	0.5366	0.012
Mof_C 	C 	0.2182	0.069	0.6224	0
Mof_C 	C 	0.5534	0.4079	0.1483	0
Mof_C 	C 	0.0476	0.1989	0.9897	-0.001
Mof_C 	C 	0.2694	0.4314	0.9166	0.004
Mof_C 	C 	0.6265	0.2094	0.9849	-0.007
Mof_C 	C 	0.9602	0.4013	0.1447	-0.004
Mof_C 	C 	0.8227	0.0516	0.154	0.009
Mof_C 	C 	0.8838	0.0886	0.8345	-0.002
Mof_C 	C 	0.1198	0.1152	0.386	0.018
Mof_C 	C 	0.5389	0.1207	0.3904	0.008
Mof_C 	C 	0.2694	0.2828	0.4634	0.012
Mof_C 	C 	0.7818	0.931	0.3776	0
Mof_N 	N 	0.5379	0.6263	0.8656	-0.13
Mof_N 	N 	0.8544	0.7759	0.9882	-0.128
Mof_N 	N 	0.7197	0.6198	0.0418	-0.134
Mof_N 	N 	0.4883	0.7628	0.9918	-0.128
Mof_N 	N 	0.9312	0.6349	0.8652	-0.128
Mof_N 	N 	0.1793	0.9291	0.9183	-0.142
Mof_N 	N 	0.0858	0.9438	0.2268	-0.131
Mof_N 	N 	0.9674	0.9157	0.643	-0.141
Mof_N 	N 	0.3483	0.9031	0.6386	-0.136
Mof_N 	N 	0.7395	0.6608	0.531	-0.112
Mof_N 	N 	0.2608	0.1111	0.5728	-0.145
Mof_N 	N 	0.4621	0.3737	0.1344	-0.13
Mof_N 	N 	0.1456	0.2241	0.0118	-0.128
Mof_N 	N 	0.2803	0.3802	0.9582	-0.134
Mof_N 	N 	0.5117	0.2372	0.0082	-0.128
Mof_N 	N 	0.0688	0.3651	0.1348	-0.128
Mof_N 	N 	0.8207	0.0709	0.0817	-0.142
Mof_N 	N 	0.9142	0.0562	0.7732	-0.131
Mof_N 	N 	0.0326	0.0843	0.357	-0.141
Mof_N 	N 	0.6517	0.0969	0.3614	-0.136
Mof_N 	N 	0.2605	0.3392	0.469	-0.112
Mof_N 	N 	0.7392	0.8889	0.4272	-0.145
Mof_Cl	Cl	0.6939	0.77967	0.76976	-0.392
Mof_Cl	Cl	0.2632	0.4939	0.6748	-0.373
Mof_Cl	Cl	0.3061	0.22033	0.23024	-0.392
Mof_Cl	Cl	0.7368	0.5061	0.3252	-0.373
Mof_H 	H 	0.534	0.8784	0.2151	0.017
Mof_H 	H 	0.5845	0.8943	0.0649	0.074
Mof_H 	H 	0.3821	0.0903	0.0817	0.08
Mof_H 	H 	0.3386	0.0692	0.2319	0.038
Mof_H 	H 	0.4617	0.9837	0.3677	0.138
Mof_H 	H 	0.4133	0.9092	0.3504	0.14
Mof_H 	H 	0.2924	0.9747	0.3515	0.143
Mof_H 	H 	0.466	0.1216	0.7849	0.017
Mof_H 	H 	0.4155	0.1057	0.9351	0.074
Mof_H 	H 	0.6179	0.9097	0.9183	0.08
Mof_H 	H 	0.6614	0.9308	0.7681	0.038
Mof_H 	H 	0.5383	0.0163	0.6323	0.138
Mof_H 	H 	0.5867	0.0908	0.6496	0.14
Mof_H 	H 	0.7076	0.0253	0.6485	0.143
Mof_C 	C 	0.5033	0.9216	0.187	0.048
Mof_C 	C 	0.5325	0.9309	0.0967	-0.116
Mof_C 	C 	0.4868	0.9944	0.0484	0.041
Mof_C 	C 	0.4136	0.0461	0.1068	-0.105
Mof_C 	C 	0.3881	0.0337	0.1971	0.048
Mof_C 	C 	0.3968	0.9588	0.3352	-0.359
Mof_C 	C 	0.4967	0.0784	0.813	0.048
Mof_C 	C 	0.4675	0.0691	0.9033	-0.116
Mof_C 	C 	0.5132	0.0056	0.9516	0.041
Mof_C 	C 	0.5864	0.9539	0.8932	-0.105
Mof_C 	C 	0.6119	0.9663	0.8029	0.048
Mof_C 	C 	0.6032	0.0412	0.6648	-0.359
Mof_N 	N 	0.432	0.9721	0.2374	-0.083
Mof_N 	N 	0.568	0.0279	0.7626	-0.083
Mof_H 	H 	0.4334	0.5167	0.3446	0.045
Mof_H 	H 	0.4524	0.593	0.4566	0.089
Mof_H 	H 	0.9994	0.6134	0.4908	0.084
Mof_H 	H 	0.9925	0.5374	0.3796	0.054
Mof_H 	H 	0.4612	0.7157	0.6924	0.039
Mof_H 	H 	0.4592	0.6522	0.5686	0.079
Mof_H 	H 	0.0056	0.6778	0.5926	0.073
Mof_H 	H 	0.0144	0.741	0.7169	0.044
Mof_H 	H 	0.231	0.4899	0.2267	0.155
Mof_H 	H 	0.1073	0.4521	0.2888	0.166
Mof_H 	H 	0.2803	0.4283	0.2956	0.166
Mof_H 	H 	0.2175	0.738	0.8534	0.15
Mof_H 	H 	0.1738	0.8104	0.8023	0.153
Mof_H 	H 	0.3453	0.7822	0.8059	0.167
Mof_C 	C 	0.3453	0.5361	0.376	0.053
Mof_C 	C 	0.3575	0.5818	0.4429	-0.103
Mof_C 	C 	0.2258	0.6107	0.4895	0.061
Mof_C 	C 	0.0902	0.5935	0.4628	-0.105
Mof_C 	C 	0.0858	0.5482	0.3964	0.047
Mof_C 	C 	0.3685	0.7071	0.6724	0.039
Mof_C 	C 	0.3675	0.6695	0.5983	-0.104
Mof_C 	C 	0.2311	0.6563	0.5658	0.053
Mof_C 	C 	0.0994	0.6846	0.6125	-0.102
Mof_C 	C 	0.1046	0.7222	0.687	0.036
Mof_C 	C 	0.2075	0.4679	0.2855	-0.394
Mof_C 	C 	0.2443	0.769	0.8023	-0.388
Mof_N 	N 	0.2133	0.5194	0.3555	-0.076
Mof_N 	N 	0.2384	0.7325	0.7179	-0.073
Mof_H 	H 	0.5666	0.4833	0.6554	0.045
Mof_H 	H 	0.5476	0.407	0.5434	0.089
Mof_H 	H 	0.0006	0.3866	0.5092	0.084
Mof_H 	H 	0.0075	0.4626	0.6204	0.054
Mof_H 	H 	0.5388	0.2843	0.3076	0.039
Mof_H 	H 	0.5408	0.3478	0.4314	0.079
Mof_H 	H 	0.9944	0.3222	0.4074	0.073
Mof_H 	H 	0.9856	0.259	0.2831	0.044
Mof_H 	H 	0.769	0.5101	0.7733	0.155
Mof_H 	H 	0.8927	0.5479	0.7112	0.166
Mof_H 	H 	0.7197	0.5717	0.7044	0.166
Mof_H 	H 	0.7825	0.262	0.1466	0.15
Mof_H 	H 	0.8262	0.1896	0.1977	0.153
Mof_H 	H 	0.6547	0.2178	0.1941	0.167
Mof_C 	C 	0.6547	0.4639	0.624	0.053
Mof_C 	C 	0.6425	0.4182	0.5571	-0.103
Mof_C 	C 	0.7742	0.3893	0.5105	0.061
Mof_C 	C 	0.9098	0.4065	0.5372	-0.105
Mof_C 	C 	0.9142	0.4518	0.6036	0.047
Mof_C 	C 	0.6315	0.2929	0.3276	0.039
Mof_C 	C 	0.6325	0.3305	0.4017	-0.104
Mof_C 	C 	0.7689	0.3437	0.4342	0.053
Mof_C 	C 	0.9006	0.3154	0.3875	-0.102
Mof_C 	C 	0.8954	0.2778	0.313	0.036
Mof_C 	C 	0.7925	0.5321	0.7145	-0.394
Mof_C 	C 	0.7557	0.231	0.1977	-0.388
Mof_N 	N 	0.7867	0.4806	0.6445	-0.076
Mof_N 	N 	0.7616	0.2675	0.2821	-0.073
_end
