data_functionalizedCrystal
_audit_creation_method	'EQeq! by Chris Wilmer'
_symmetry_space_group_name_H-M	'P1'
_symmetry_Int_Tables_number	1
_symmetry_cell_setting	triclinic
loop_
_symmetry_equiv_pos_as_xyz
  x,y,z
_cell_length_a	11.196
_cell_length_b	13.02
_cell_length_c	16.52
_cell_angle_alpha	84.072
_cell_angle_beta	85.182
_cell_angle_gamma	79.138
loop_
_atom_site_label
_atom_site_type_symbol
_atom_site_fract_x
_atom_site_fract_y
_atom_site_fract_z
_atom_site_charge
Mof_Co	Co	0.25004	0.07919	0.48157	1.131
Mof_Co	Co	0.34665	0.14208	0.67449	1.089
Mof_N 	N 	0.4874	0.19854	0.72628	-0.233
Mof_N 	N 	0.647	0.27556	0.72842	-0.142
Mof_N 	N 	0.2084	0.7612	0.5144	-0.138
Mof_N 	N 	0.2654	0.9159	0.48702	-0.243
Mof_N 	N 	0.2016	0.228	0.74123	-0.259
Mof_N 	N 	0.041	0.26489	0.82718	-0.146
Mof_N 	N 	0.3581	0.15572	0.23344	-0.138
Mof_N 	N 	0.2719	0.1121	0.35374	-0.219
Mof_O 	O 	0.4608	0.59328	0.22875	-0.397
Mof_O 	O 	0.3243	0.50257	0.19559	-0.297
Mof_O 	O 	0.35091	0.2689	0.5836	-0.429
Mof_O 	O 	0.21878	0.24168	0.49551	-0.428
Mof_O 	O 	0.06174	0.09562	0.46904	-0.418
Mof_O 	O 	0.9941	0.10108	0.60043	-0.312
Mof_O 	O 	0.43749	0.07628	0.47777	-0.453
Mof_O 	O 	0.4867	0.05248	0.60785	-0.476
Mof_C 	C 	0.3917	0.5269	0.24458	0.333
Mof_C 	C 	0.3921	0.4727	0.32869	-0.088
Mof_C 	C 	0.4643	0.4807	0.3897	-0.02
Mof_H 	H 	0.522	0.5241	0.3848	0.046
Mof_C 	C 	0.4414	0.4157	0.4608	-0.008
Mof_H 	H 	0.4851	0.4092	0.5071	0.041
Mof_C 	C 	0.3486	0.3634	0.45462	-0.096
Mof_C 	C 	0.3024	0.285	0.51604	0.348
Mof_C 	C 	0.9788	0.102	0.52544	0.338
Mof_C 	C 	0.8517	0.1068	0.50239	-0.088
Mof_C 	C 	0.8081	0.1227	0.4267	-0.021
Mof_H 	H 	0.8549	0.1369	0.379	0.045
Mof_C 	C 	0.6823	0.1151	0.42885	-0.003
Mof_H 	H 	0.6378	0.125	0.3827	0.039
Mof_C 	C 	0.6345	0.0919	0.50561	-0.107
Mof_C 	C 	0.5094	0.0723	0.53248	0.379
Mof_C 	C 	0.5692	0.1387	0.77923	-0.002
Mof_H 	H 	0.5576	0.0764	0.8091	-0.003
Mof_C 	C 	0.5384	0.2793	0.69754	0.103
Mof_H 	H 	0.5035	0.3327	0.6603	0
Mof_C 	C 	0.6682	0.1842	0.78094	-0.001
Mof_H 	H 	0.7361	0.1595	0.8109	0.035
Mof_C 	C 	0.7323	0.3442	0.70371	0.128
Mof_C 	C 	0.8475	0.3009	0.67106	-0.137
Mof_H 	H 	0.8695	0.2287	0.6687	0.103
Mof_C 	C 	0.9293	0.3665	0.64205	0.016
Mof_H 	H 	0.0057	0.338	0.6195	0.029
Mof_C 	C 	0.8975	0.4755	0.64653	-0.02
Mof_C 	C 	0.783	0.516	0.6824	-0.002
Mof_H 	H 	0.7617	0.5877	0.6874	0.034
Mof_C 	C 	0.7004	0.451	0.71085	-0.133
Mof_H 	H 	0.6244	0.479	0.7344	0.083
Mof_C 	C 	0.9829	0.5471	0.61304	0.009
Mof_C 	C 	0.0571	0.5278	0.5416	-0.031
Mof_H 	H 	0.0564	0.4677	0.5158	0.05
Mof_C 	C 	0.1318	0.5978	0.5091	-0.108
Mof_H 	H 	0.1792	0.5854	0.4609	0.078
Mof_C 	C 	0.1357	0.6864	0.54835	0.113
Mof_C 	C 	0.0667	0.704	0.62078	-0.123
Mof_H 	H 	0.0719	0.7613	0.6487	0.071
Mof_C 	C 	0.9903	0.6356	0.65102	-0.013
Mof_H 	H 	0.9418	0.6493	0.6986	0.033
Mof_C 	C 	0.3108	0.7474	0.4597	-0.002
Mof_H 	H 	0.3488	0.6852	0.4384	0.036
Mof_C 	C 	0.3437	0.8427	0.4439	0.013
Mof_H 	H 	0.4095	0.8568	0.4091	0.02
Mof_C 	C 	0.1861	0.8632	0.52855	0.089
Mof_H 	H 	0.1225	0.8932	0.5634	-0.018
Mof_C 	C 	0.1111	0.1912	0.78361	0.09
Mof_H 	H 	0.0974	0.123	0.7834	-0.039
Mof_C 	C 	0.1894	0.3305	0.75922	0.007
Mof_H 	H 	0.2412	0.3764	0.7384	0.021
Mof_C 	C 	0.0908	0.3546	0.8117	-0
Mof_H 	H 	0.0624	0.4188	0.8331	0.03
Mof_C 	C 	0.9358	0.2505	0.88015	0.136
Mof_C 	C 	0.9251	0.1508	0.91531	-0.15
Mof_H 	H 	0.9851	0.0933	0.9039	0.074
Mof_C 	C 	0.8248	0.1376	0.96736	0.021
Mof_H 	H 	0.817	0.0703	0.9893	0.008
Mof_C 	C 	0.735	0.2224	0.98803	-0.076
Mof_C 	C 	0.7475	0.3209	0.95129	0.026
Mof_H 	H 	0.6877	0.3785	0.9626	0.018
Mof_C 	C 	0.8465	0.3357	0.89824	-0.15
Mof_H 	H 	0.853	0.4026	0.8748	0.091
Mof_C 	C 	0.6329	0.2054	0.04886	0.062
Mof_C 	C 	0.6011	0.1061	0.06678	-0.055
Mof_H 	H 	0.6407	0.0505	0.0377	0.052
Mof_C 	C 	0.5113	0.0894	0.12716	-0.087
Mof_H 	H 	0.4913	0.023	0.1382	0.05
Mof_C 	C 	0.4513	0.1708	0.17105	0.1
Mof_C 	C 	0.4756	0.2705	0.1515	-0.093
Mof_H 	H 	0.4315	0.3265	0.1782	0.087
Mof_C 	C 	0.5673	0.2868	0.0913	-0.046
Mof_H 	H 	0.5849	0.354	0.0794	0.063
Mof_C 	C 	0.2345	0.1982	0.2315	-0
Mof_H 	H 	0.1951	0.2384	0.1884	0.042
Mof_C 	C 	0.1832	0.1687	0.30585	0.005
Mof_H 	H 	0.1007	0.1845	0.3218	0.033
Mof_C 	C 	0.3749	0.1058	0.30804	0.098
Mof_H 	H 	0.45	0.0709	0.3253	-0
Mof_S 	S 	0.29178	0.38818	0.35962	0.06
Mof_S 	S 	0.7406	0.08256	0.57708	0.053
Mof_Co	Co	0.35783	0.63629	0.93492	1.127
Mof_Co	Co	0.445	0.71735	0.13598	1.135
Mof_N 	N 	0.3764	0.63543	0.80701	-0.236
Mof_N 	N 	0.4489	0.65904	0.68006	-0.142
Mof_N 	N 	0.1232	0.81907	0.28583	-0.138
Mof_N 	N 	0.2895	0.79284	0.20322	-0.241
Mof_N 	N 	0.572	0.7816	0.1915	-0.235
Mof_N 	N 	0.7192	0.86832	0.20638	-0.142
Mof_N 	N 	0.2981	0.3249	0.97436	-0.138
Mof_N 	N 	0.3727	0.47111	0.95011	-0.217
Mof_O 	O 	0.54333	0.63048	0.93445	-0.455
Mof_O 	O 	0.58924	0.63827	0.06425	-0.415
Mof_O 	O 	0.0937	0.6683	0.05514	-0.28
Mof_O 	O 	0.1701	0.6475	0.92692	-0.426
Mof_O 	O 	0.32619	0.64566	0.06739	-0.676
Mof_H 	H 	0.328	0.5745	0.0921	0.234
Mof_H 	H 	0.2437	0.6834	0.0771	0.216
Mof_C 	C 	0.454	0.6796	0.75796	0.088
Mof_H 	H 	0.506	0.72	0.7747	-0.021
Mof_C 	C 	0.3163	0.5843	0.75764	0.002
Mof_H 	H 	0.2554	0.5461	0.7758	0.026
Mof_C 	C 	0.3602	0.5987	0.67902	-0.003
Mof_H 	H 	0.3355	0.5731	0.6338	0.037
Mof_C 	C 	0.531	0.6877	0.61336	0.112
Mof_C 	C 	0.5803	0.6175	0.55803	-0.12
Mof_H 	H 	0.552	0.5547	0.5585	0.076
Mof_C 	C 	0.6729	0.6402	0.50094	-0.013
Mof_H 	H 	0.7054	0.5924	0.4632	0.036
Mof_C 	C 	0.7176	0.7337	0.49957	-0.011
Mof_C 	C 	0.6601	0.8056	0.5532	-0.016
Mof_H 	H 	0.685	0.8701	0.5516	0.042
Mof_C 	C 	0.5662	0.7839	0.6092	-0.117
Mof_H 	H 	0.5276	0.8341	0.6435	0.066
Mof_C 	C 	0.824	0.7548	0.4437	0.012
Mof_C 	C 	0.8752	0.6886	0.3849	-0.033
Mof_H 	H 	0.844	0.628	0.3813	0.047
Mof_C 	C 	0.9717	0.7092	0.331	-0.084
Mof_H 	H 	0.0024	0.6646	0.2907	0.067
Mof_C 	C 	0.0215	0.7975	0.33823	0.093
Mof_C 	C 	0.9723	0.8654	0.39672	-0.08
Mof_H 	H 	0.0045	0.9252	0.4016	0.068
Mof_C 	C 	0.8741	0.8425	0.4477	-0.037
Mof_H 	H 	0.8407	0.8886	0.4864	0.051
Mof_C 	C 	0.2009	0.7506	0.24208	0.103
Mof_H 	H 	0.1927	0.6813	0.2396	-0.003
Mof_C 	C 	0.268	0.8958	0.22351	-0.012
Mof_H 	H 	0.3162	0.9455	0.2054	0.02
Mof_C 	C 	0.1663	0.9122	0.2735	0.011
Mof_H 	H 	0.1316	0.9747	0.2956	0.033
Mof_C 	C 	0.6151	0.6313	0.99021	0.337
Mof_C 	C 	0.7468	0.6242	0.96275	-0.129
Mof_C 	C 	0.9658	0.6327	0.96034	-0.11
Mof_C 	C 	0.0856	0.6509	0.98243	0.294
Mof_C 	C 	0.9293	0.6235	0.88491	-0.02
Mof_H 	H 	0.9815	0.6205	0.838	0.042
Mof_C 	C 	0.8034	0.6189	0.88558	-0.008
Mof_H 	H 	0.764	0.613	0.8394	0.036
Mof_C 	C 	0.572	0.8007	0.27207	0.005
Mof_H 	H 	0.5188	0.7791	0.3139	0.023
Mof_C 	C 	0.6617	0.824	0.15349	0.094
Mof_H 	H 	0.6829	0.8236	0.0979	-0.014
Mof_C 	C 	0.6609	0.8553	0.28147	0.005
Mof_H 	H 	0.6785	0.8792	0.3295	0.036
Mof_C 	C 	0.8164	0.9255	0.18236	0.145
Mof_C 	C 	0.9087	0.8869	0.1258	-0.153
Mof_H 	H 	0.9129	0.8206	0.1082	0.102
Mof_C 	C 	0.9945	0.9481	0.09588	0.042
Mof_H 	H 	0.0555	0.9231	0.0573	0.013
Mof_C 	C 	0.99	0.0471	0.12315	-0.043
Mof_C 	C 	0.9009	0.0813	0.185	0.019
Mof_H 	H 	0.8999	0.1449	0.2063	0.025
Mof_C 	C 	0.8154	0.0205	0.21408	-0.15
Mof_H 	H 	0.757	0.0432	0.255	0.086
Mof_C 	C 	0.0719	0.1176	0.08481	0.032
Mof_C 	C 	0.1881	0.0801	0.0517	-0.071
Mof_H 	H 	0.2164	0.008	0.0548	0.036
Mof_C 	C 	0.2631	0.1464	0.01426	-0.031
Mof_H 	H 	0.3405	0.1194	0.9924	0.007
Mof_C 	C 	0.2207	0.2542	0.0098	0.102
Mof_C 	C 	0.103	0.2954	0.03869	-0.086
Mof_H 	H 	0.0734	0.3673	0.0324	0.077
Mof_C 	C 	0.03	0.2263	0.07741	-0.051
Mof_H 	H 	0.9521	0.2531	0.0987	0.061
Mof_C 	C 	0.3917	0.3084	0.91443	0.002
Mof_H 	H 	0.4187	0.2472	0.8887	0.022
Mof_C 	C 	0.4363	0.398	0.90042	0
Mof_H 	H 	0.5003	0.4089	0.8629	0.026
Mof_C 	C 	0.2908	0.4249	0.99458	0.026
Mof_H 	H 	0.2358	0.4562	0.0341	0.042
Mof_S 	S 	0.84728	0.6353	0.03324	0.107
_end
