data_functionalizedCrystal
_audit_creation_method	'EQeq! by Chris Wilmer'
_symmetry_space_group_name_H-M	'P1'
_symmetry_Int_Tables_number	1
_symmetry_cell_setting	triclinic
loop_
_symmetry_equiv_pos_as_xyz
  x,y,z
_cell_length_a	11.628
_cell_length_b	15.578
_cell_length_c	13.065
_cell_angle_alpha	90
_cell_angle_beta	90
_cell_angle_gamma	90
loop_
_atom_site_label
_atom_site_type_symbol
_atom_site_fract_x
_atom_site_fract_y
_atom_site_fract_z
_atom_site_charge
Mof_Nd	Nd	0.75	0.7143	0.06014	2.047
Mof_Nd	Nd	0.25	0.7857	0.56014	2.058
Mof_Nd	Nd	0.25	0.2857	0.93986	2.052
Mof_Nd	Nd	0.75	0.2143	0.43986	2.057
Mof_U 	U 	0.75	0.75393	0.34056	0.014
Mof_U 	U 	0.25	0.74607	0.84056	0.014
Mof_U 	U 	0.25	0.24607	0.65944	0.013
Mof_U 	U 	0.75	0.25393	0.15944	0.014
Mof_U 	U 	-0	0	-0	0.025
Mof_U 	U 	-3.2269e-33	0.5	0.5	0.022
Mof_U 	U 	0.5	0	-0	0.024
Mof_U 	U 	0.5	0.5	0.5	0.024
Mof_C 	C 	0.8705	0.7695	0.717	-0.05
Mof_C 	C 	0.0012	0.7662	0.7171	0.37
Mof_C 	C 	0.8101	0.8094	0.7953	-0.075
Mof_C 	C 	0.873	0.8544	0.8811	0.356
Mof_C 	C 	0.8748	0.6732	0.5636	0.28
Mof_C 	C 	0.8098	0.7286	0.6383	-0.025
Mof_C 	C 	0.1295	0.7305	0.217	-0.054
Mof_C 	C 	0.9988	0.7338	0.2171	0.375
Mof_C 	C 	0.1899	0.6906	0.2953	-0.076
Mof_C 	C 	0.127	0.6456	0.3811	0.357
Mof_C 	C 	0.1252	0.8268	0.0636	0.276
Mof_C 	C 	0.1902	0.7714	0.1383	-0.024
Mof_C 	C 	0.3705	0.2305	0.283	-0.054
Mof_C 	C 	0.5012	0.2338	0.2829	0.375
Mof_C 	C 	0.3101	0.1906	0.2047	-0.075
Mof_C 	C 	0.373	0.1456	0.1189	0.356
Mof_C 	C 	0.3748	0.3268	0.4364	0.279
Mof_C 	C 	0.3098	0.2714	0.3617	-0.024
Mof_C 	C 	0.6295	0.2695	0.783	-0.055
Mof_C 	C 	0.4988	0.2662	0.7829	0.375
Mof_C 	C 	0.6899	0.3094	0.7047	-0.075
Mof_C 	C 	0.627	0.3544	0.6189	0.356
Mof_C 	C 	0.6252	0.1732	0.9364	0.277
Mof_C 	C 	0.6902	0.2286	0.8617	-0.023
Mof_C 	C 	0.1295	0.2305	0.283	-0.054
Mof_C 	C 	0.9988	0.2338	0.2829	0.374
Mof_C 	C 	0.1899	0.1906	0.2047	-0.075
Mof_C 	C 	0.127	0.1456	0.1189	0.356
Mof_C 	C 	0.1252	0.3268	0.4364	0.279
Mof_C 	C 	0.1902	0.2714	0.3617	-0.024
Mof_C 	C 	0.8705	0.2695	0.783	-0.05
Mof_C 	C 	0.0012	0.2662	0.7829	0.37
Mof_C 	C 	0.8101	0.3094	0.7047	-0.077
Mof_C 	C 	0.873	0.3544	0.6189	0.357
Mof_C 	C 	0.8748	0.1732	0.9364	0.281
Mof_C 	C 	0.8098	0.2286	0.8617	-0.025
Mof_C 	C 	0.6295	0.7695	0.717	-0.054
Mof_C 	C 	0.4988	0.7662	0.7171	0.375
Mof_C 	C 	0.6899	0.8094	0.7953	-0.074
Mof_C 	C 	0.627	0.8544	0.8811	0.355
Mof_C 	C 	0.6252	0.6732	0.5636	0.279
Mof_C 	C 	0.6902	0.7286	0.6383	-0.023
Mof_C 	C 	0.3705	0.7305	0.217	-0.055
Mof_C 	C 	0.5012	0.7338	0.2171	0.375
Mof_C 	C 	0.3101	0.6906	0.2953	-0.076
Mof_C 	C 	0.373	0.6456	0.3811	0.357
Mof_C 	C 	0.3748	0.8268	0.0636	0.273
Mof_C 	C 	0.3098	0.7714	0.1383	-0.023
Mof_O 	O 	0.9261	0.9224	0.8578	-0.198
Mof_O 	O 	0.8695	0.8251	0.969	-0.411
Mof_O 	O 	0.9303	0.6128	0.6037	-0.182
Mof_O 	O 	0.8682	0.6854	0.4699	-0.168
Mof_O 	O 	0.047	0.738	0.7986	-0.236
Mof_O 	O 	0.0521	0.7911	0.6388	-0.449
Mof_O 	O 	0.0739	0.5776	0.3578	-0.203
Mof_O 	O 	0.1305	0.6749	0.469	-0.419
Mof_O 	O 	0.0697	0.8872	0.1037	-0.185
Mof_O 	O 	0.1318	0.8146	0.9699	-0.166
Mof_O 	O 	0.953	0.762	0.2986	-0.235
Mof_O 	O 	0.9479	0.7089	0.1388	-0.45
Mof_O 	O 	0.4261	0.0776	0.1422	-0.202
Mof_O 	O 	0.3695	0.1749	0.031	-0.416
Mof_O 	O 	0.4303	0.3872	0.3963	-0.183
Mof_O 	O 	0.3682	0.3146	0.5301	-0.169
Mof_O 	O 	0.547	0.262	0.2014	-0.235
Mof_O 	O 	0.5521	0.2089	0.3612	-0.45
Mof_O 	O 	0.5739	0.4224	0.6422	-0.202
Mof_O 	O 	0.6305	0.3251	0.531	-0.418
Mof_O 	O 	0.5697	0.1128	0.8963	-0.186
Mof_O 	O 	0.6318	0.1854	0.0301	-0.167
Mof_O 	O 	0.453	0.238	0.7014	-0.236
Mof_O 	O 	0.4479	0.2911	0.8612	-0.449
Mof_O 	O 	0.0739	0.0776	0.1422	-0.202
Mof_O 	O 	0.1305	0.1749	0.031	-0.415
Mof_O 	O 	0.0697	0.3872	0.3963	-0.183
Mof_O 	O 	0.1318	0.3146	0.5301	-0.169
Mof_O 	O 	0.953	0.262	0.2014	-0.236
Mof_O 	O 	0.9479	0.2089	0.3612	-0.45
Mof_O 	O 	0.9261	0.4224	0.6422	-0.201
Mof_O 	O 	0.8695	0.3251	0.531	-0.418
Mof_O 	O 	0.9303	0.1128	0.8963	-0.185
Mof_O 	O 	0.8682	0.1854	0.0301	-0.169
Mof_O 	O 	0.047	0.238	0.7014	-0.236
Mof_O 	O 	0.0521	0.2911	0.8612	-0.45
Mof_O 	O 	0.5739	0.9224	0.8578	-0.199
Mof_O 	O 	0.6305	0.8251	0.969	-0.413
Mof_O 	O 	0.5697	0.6128	0.6037	-0.183
Mof_O 	O 	0.6318	0.6854	0.4699	-0.169
Mof_O 	O 	0.453	0.738	0.7986	-0.235
Mof_O 	O 	0.4479	0.7911	0.6388	-0.449
Mof_O 	O 	0.4261	0.5776	0.3578	-0.203
Mof_O 	O 	0.3695	0.6749	0.469	-0.418
Mof_O 	O 	0.4303	0.8872	0.1037	-0.184
Mof_O 	O 	0.3682	0.8146	0.9699	-0.163
Mof_O 	O 	0.547	0.762	0.2986	-0.235
Mof_O 	O 	0.5521	0.7089	0.1388	-0.449
Mof_O 	O 	0.75	0.6597	0.2637	-0.2
Mof_O 	O 	0.75	0.8226	0.1884	-0.294
Mof_O 	O 	0.25	0.8403	0.7637	-0.201
Mof_O 	O 	0.25	0.6774	0.6884	-0.293
Mof_O 	O 	0.25	0.3403	0.7363	-0.201
Mof_O 	O 	0.25	0.1774	0.8116	-0.295
Mof_O 	O 	0.75	0.1597	0.2363	-0.201
Mof_O 	O 	0.75	0.3226	0.3116	-0.293
_end
