data_functionalizedCrystal
_audit_creation_method	'EQeq! by Chris Wilmer'
_symmetry_space_group_name_H-M	'P1'
_symmetry_Int_Tables_number	1
_symmetry_cell_setting	triclinic
loop_
_symmetry_equiv_pos_as_xyz
  x,y,z
_cell_length_a	13.701
_cell_length_b	14.3441
_cell_length_c	24.5347
_cell_angle_alpha	78.3686
_cell_angle_beta	73.7865
_cell_angle_gamma	61.4722
loop_
_atom_site_label
_atom_site_type_symbol
_atom_site_fract_x
_atom_site_fract_y
_atom_site_fract_z
_atom_site_charge
Mof_Zn	Zn	0.69125	0.08307	0.95633	1.235
Mof_Zn	Zn	0.73065	0.41693	0.54367	1.234
Mof_Zn	Zn	0.30875	0.91693	0.04367	1.232
Mof_Zn	Zn	0.26935	0.58307	0.45633	1.234
Mof_Zn	Zn	0.5	0	-0	1.218
Mof_Zn	Zn	0.5	0.5	0.5	1.235
Mof_Si	Si	0.0708	0.44863	0.82721	0.755
Mof_Si	Si	0.34664	0.05137	0.67279	0.712
Mof_Si	Si	0.9292	0.55137	0.17279	0.762
Mof_Si	Si	0.65336	0.94863	0.32721	0.81
Mof_H 	H 	0.0532	0.6635	0.8101	-0.008
Mof_H 	H 	0.9312	0.8242	0.852	0.085
Mof_H 	H 	0.7336	0.6901	0.9523	0.09
Mof_H 	H 	0.8555	0.5295	0.9103	0.002
Mof_H 	H 	0.8685	0.4773	0.7951	-0.006
Mof_H 	H 	0.757	0.3868	0.8154	0.081
Mof_H 	H 	0.9799	0.15	0.9042	0.075
Mof_H 	H 	0.0913	0.2405	0.8839	-0.003
Mof_H 	H 	0.2707	0.2394	0.8298	-0.01
Mof_H 	H 	0.4198	0.1562	0.877	0.073
Mof_H 	H 	0.3054	0.4275	0.9519	0.084
Mof_H 	H 	0.1498	0.5055	0.9089	-0.004
Mof_H 	H 	0.2579	0.4918	0.7628	-0.006
Mof_H 	H 	0.332	0.5257	0.6683	0.078
Mof_H 	H 	0.0842	0.5016	0.622	0.075
Mof_H 	H 	0.0166	0.4594	0.7168	-0.009
Mof_H 	H 	0.5268	0.8365	0.6899	0.008
Mof_H 	H 	0.6074	0.6758	0.648	0.073
Mof_H 	H 	0.376	0.8099	0.5477	0.075
Mof_H 	H 	0.2953	0.9705	0.5897	0.013
Mof_H 	H 	0.1409	0.0227	0.7049	-0.012
Mof_H 	H 	0.9592	0.1132	0.6846	0.08
Mof_H 	H 	0.0341	0.35	0.5958	0.077
Mof_H 	H 	0.2157	0.2595	0.6161	-0.006
Mof_H 	H 	0.3399	0.2606	0.6702	-0.001
Mof_H 	H 	0.453	0.3438	0.623	0.072
Mof_H 	H 	0.6848	0.0725	0.5481	0.059
Mof_H 	H 	0.5642	0.9945	0.5911	0.032
Mof_H 	H 	0.5125	0.0082	0.7372	-0.005
Mof_H 	H 	0.526	0.9743	0.8317	0.08
Mof_H 	H 	0.2078	0.9984	0.878	0.125
Mof_H 	H 	0.1928	0.0406	0.7832	-0.023
Mof_H 	H 	0.9468	0.3365	0.1899	-0.006
Mof_H 	H 	0.0688	0.1758	0.148	0.071
Mof_H 	H 	0.2664	0.3099	0.0477	0.069
Mof_H 	H 	0.1445	0.4705	0.0897	-0.005
Mof_H 	H 	0.1315	0.5227	0.2049	-0.012
Mof_H 	H 	0.243	0.6132	0.1846	0.081
Mof_H 	H 	0.0201	0.85	0.0958	0.08
Mof_H 	H 	0.9087	0.7595	0.1161	-0.01
Mof_H 	H 	0.7293	0.7606	0.1702	-0.009
Mof_H 	H 	0.5802	0.8438	0.123	0.085
Mof_H 	H 	0.6946	0.5725	0.0481	0.07
Mof_H 	H 	0.8502	0.4945	0.0911	-0.013
Mof_H 	H 	0.7421	0.5082	0.2372	-0.008
Mof_H 	H 	0.668	0.4743	0.3317	0.077
Mof_H 	H 	0.9158	0.4984	0.378	0.074
Mof_H 	H 	0.9834	0.5406	0.2832	-0.009
Mof_H 	H 	0.4732	0.1635	0.3101	-0.018
Mof_H 	H 	0.3926	0.3242	0.352	0.08
Mof_H 	H 	0.624	0.1901	0.4523	0.082
Mof_H 	H 	0.7047	0.0295	0.4103	-0.016
Mof_H 	H 	0.8591	0.9773	0.2951	-0.006
Mof_H 	H 	0.0408	0.8868	0.3154	0.082
Mof_H 	H 	0.9659	0.65	0.4042	0.078
Mof_H 	H 	0.7843	0.7405	0.3839	-0.009
Mof_H 	H 	0.6601	0.7394	0.3298	-0.019
Mof_H 	H 	0.547	0.6562	0.377	0.086
Mof_H 	H 	0.3152	0.9275	0.4519	0.095
Mof_H 	H 	0.4358	0.0055	0.4089	-0.046
Mof_H 	H 	0.4875	0.9918	0.2628	-0.009
Mof_H 	H 	0.474	0.0257	0.1683	0.076
Mof_H 	H 	0.7922	0.0016	0.122	0.029
Mof_H 	H 	0.8072	0.9594	0.2168	0.005
Mof_C 	C 	0.96576	0.58144	0.85624	-0.259
Mof_C 	C 	0.98827	0.66896	0.8389	0.092
Mof_C 	C 	0.91592	0.76436	0.8638	-0.092
Mof_C 	C 	0.82096	0.77218	0.9061	-0.011
Mof_C 	C 	0.79844	0.68472	0.9234	-0.088
Mof_C 	C 	0.87089	0.58932	0.8985	0.085
Mof_C 	C 	0.74685	0.87753	0.93477	0.362
Mof_C 	C 	0.99037	0.36749	0.83757	-0.256
Mof_C 	C 	0.891	0.41098	0.81722	0.085
Mof_C 	C 	0.8249	0.3571	0.8293	-0.093
Mof_C 	C 	0.85801	0.25991	0.86167	-0.002
Mof_C 	C 	0.9573	0.2164	0.882	-0.088
Mof_C 	C 	0.0235	0.2702	0.87	0.076
Mof_C 	C 	0.7843	0.204	0.8776	0.291
Mof_C 	C 	0.19304	0.38167	0.86505	-0.266
Mof_C 	C 	0.276	0.2772	0.8556	0.087
Mof_C 	C 	0.36586	0.22798	0.8833	-0.09
Mof_C 	C 	0.37868	0.28126	0.91998	-0.009
Mof_C 	C 	0.2974	0.3878	0.9282	-0.091
Mof_C 	C 	0.2057	0.4345	0.9017	0.093
Mof_C 	C 	0.47651	0.22931	0.94867	0.314
Mof_C 	C 	0.12861	0.4736	0.75018	-0.273
Mof_C 	C 	0.2225	0.49292	0.73428	0.089
Mof_C 	C 	0.2664	0.51386	0.67794	-0.091
Mof_C 	C 	0.21632	0.51781	0.63555	-0.025
Mof_C 	C 	0.1207	0.4985	0.6505	-0.091
Mof_C 	C 	0.0797	0.4751	0.7071	0.088
Mof_C 	C 	0.26766	0.53477	0.57431	0.355
Mof_C 	C 	0.40344	0.91856	0.64376	-0.221
Mof_C 	C 	0.49613	0.83104	0.6611	0.061
Mof_C 	C 	0.54408	0.73564	0.6362	-0.071
Mof_C 	C 	0.49924	0.72782	0.5939	-0.032
Mof_C 	C 	0.40656	0.81528	0.5766	-0.069
Mof_C 	C 	0.35871	0.91068	0.6015	0.059
Mof_C 	C 	0.55915	0.62247	0.56523	0.371
Mof_C 	C 	0.19543	0.13251	0.66243	-0.256
Mof_C 	C 	0.1192	0.08902	0.68278	0.084
Mof_C 	C 	0.0113	0.1429	0.6707	-0.102
Mof_C 	C 	0.97959	0.24009	0.63833	0.002
Mof_C 	C 	0.0557	0.2836	0.618	-0.098
Mof_C 	C 	0.1637	0.2298	0.63	0.08
Mof_C 	C 	0.8659	0.296	0.6224	0.291
Mof_C 	C 	0.43976	0.11833	0.63495	-0.233
Mof_C 	C 	0.4088	0.2228	0.6444	0.063
Mof_C 	C 	0.47714	0.27202	0.6167	-0.071
Mof_C 	C 	0.57992	0.21874	0.58002	-0.034
Mof_C 	C 	0.6134	0.1122	0.5718	-0.055
Mof_C 	C 	0.5419	0.0655	0.5983	0.021
Mof_C 	C 	0.65449	0.27069	0.55133	0.319
Mof_C 	C 	0.35239	0.0264	0.74982	-0.274
Mof_C 	C 	0.4497	0.00708	0.76572	0.065
Mof_C 	C 	0.4582	0.98614	0.82206	-0.078
Mof_C 	C 	0.36968	0.98219	0.86445	0.025
Mof_C 	C 	0.2697	0.0015	0.8495	-0.184
Mof_C 	C 	0.2619	0.0249	0.7929	0.123
Mof_C 	C 	0.37674	0.96523	0.92569	0.34
Mof_C 	C 	0.03424	0.41856	0.14376	-0.259
Mof_C 	C 	0.01173	0.33104	0.1611	0.076
Mof_C 	C 	0.08408	0.23564	0.1362	-0.085
Mof_C 	C 	0.17904	0.22782	0.0939	-0.031
Mof_C 	C 	0.20156	0.31528	0.0766	-0.083
Mof_C 	C 	0.12911	0.41068	0.1015	0.073
Mof_C 	C 	0.25315	0.12247	0.06523	0.369
Mof_C 	C 	0.00963	0.63251	0.16243	-0.271
Mof_C 	C 	0.109	0.58902	0.18278	0.092
Mof_C 	C 	0.1751	0.6429	0.1707	-0.102
Mof_C 	C 	0.14199	0.74009	0.13833	0.002
Mof_C 	C 	0.0427	0.7836	0.118	-0.104
Mof_C 	C 	0.9765	0.7298	0.13	0.092
Mof_C 	C 	0.2157	0.796	0.1224	0.292
Mof_C 	C 	0.80696	0.61833	0.13495	-0.271
Mof_C 	C 	0.724	0.7228	0.1444	0.092
Mof_C 	C 	0.63414	0.77202	0.1167	-0.097
Mof_C 	C 	0.62132	0.71874	0.08002	-0.014
Mof_C 	C 	0.7026	0.6122	0.0718	-0.098
Mof_C 	C 	0.7943	0.5655	0.0983	0.09
Mof_C 	C 	0.52349	0.77069	0.05133	0.307
Mof_C 	C 	0.87139	0.5264	0.24982	-0.274
Mof_C 	C 	0.7775	0.50708	0.26572	0.09
Mof_C 	C 	0.7336	0.48614	0.32206	-0.093
Mof_C 	C 	0.78368	0.48219	0.36445	-0.026
Mof_C 	C 	0.8793	0.5015	0.3495	-0.092
Mof_C 	C 	0.9203	0.5249	0.2929	0.088
Mof_C 	C 	0.73234	0.46523	0.42569	0.355
Mof_C 	C 	0.59656	0.08144	0.35624	-0.295
Mof_C 	C 	0.50387	0.16896	0.3389	0.101
Mof_C 	C 	0.45592	0.26436	0.3638	-0.102
Mof_C 	C 	0.50076	0.27218	0.4061	-0.013
Mof_C 	C 	0.59344	0.18472	0.4234	-0.1
Mof_C 	C 	0.64129	0.08932	0.3985	0.097
Mof_C 	C 	0.44085	0.37753	0.43477	0.363
Mof_C 	C 	0.80457	0.86749	0.33757	-0.274
Mof_C 	C 	0.8808	0.91098	0.31722	0.095
Mof_C 	C 	0.9887	0.8571	0.3293	-0.093
Mof_C 	C 	0.02041	0.75991	0.36167	-0.001
Mof_C 	C 	0.9443	0.7164	0.382	-0.096
Mof_C 	C 	0.8363	0.7702	0.37	0.092
Mof_C 	C 	0.1341	0.704	0.3776	0.292
Mof_C 	C 	0.56024	0.88167	0.36505	-0.304
Mof_C 	C 	0.5912	0.7772	0.3556	0.116
Mof_C 	C 	0.52286	0.72798	0.3833	-0.115
Mof_C 	C 	0.42008	0.78126	0.41998	0.011
Mof_C 	C 	0.3866	0.8878	0.4282	-0.132
Mof_C 	C 	0.4581	0.9345	0.4017	0.16
Mof_C 	C 	0.34551	0.72931	0.44867	0.303
Mof_C 	C 	0.64761	0.9736	0.25018	-0.275
Mof_C 	C 	0.5503	0.99292	0.23428	0.113
Mof_C 	C 	0.5418	0.01386	0.17794	-0.105
Mof_C 	C 	0.63032	0.01781	0.13555	-0.071
Mof_C 	C 	0.7303	0.9985	0.1505	-0.008
Mof_C 	C 	0.7381	0.9751	0.2071	0.058
Mof_C 	C 	0.62326	0.03477	0.07431	0.367
Mof_O 	O 	0.77669	0.94942	0.9182	-0.441
Mof_O 	O 	0.6613	0.8826	0.9722	-0.422
Mof_O 	O 	0.7072	0.2252	0.8534	-0.273
Mof_O 	O 	0.7898	0.151	0.927	-0.416
Mof_O 	O 	0.53926	0.12706	0.94422	-0.532
Mof_O 	O 	0.49789	0.28136	0.97366	-0.281
Mof_O 	O 	0.36475	0.53153	0.56517	-0.452
Mof_O 	O 	0.21261	0.55021	0.53737	-0.455
Mof_O 	O 	0.64431	0.55058	0.5818	-0.461
Mof_O 	O 	0.5161	0.6174	0.5278	-0.449
Mof_O 	O 	0.7858	0.2748	0.6466	-0.272
Mof_O 	O 	0.8678	0.349	0.573	-0.42
Mof_O 	O 	0.61054	0.37294	0.55578	-0.536
Mof_O 	O 	0.75291	0.21864	0.52634	-0.299
Mof_O 	O 	0.46145	0.96847	0.93483	-0.428
Mof_O 	O 	0.30019	0.94979	0.96263	-0.427
Mof_O 	O 	0.22331	0.05058	0.0818	-0.477
Mof_O 	O 	0.3387	0.1174	0.0278	-0.467
Mof_O 	O 	0.2928	0.7748	0.1466	-0.27
Mof_O 	O 	0.2102	0.849	0.073	-0.424
Mof_O 	O 	0.46074	0.87294	0.05578	-0.533
Mof_O 	O 	0.50211	0.71864	0.02634	-0.305
Mof_O 	O 	0.63525	0.46847	0.43483	-0.453
Mof_O 	O 	0.78739	0.44979	0.46263	-0.456
Mof_O 	O 	0.35569	0.44942	0.4182	-0.46
Mof_O 	O 	0.4839	0.3826	0.4722	-0.448
Mof_O 	O 	0.2142	0.7252	0.3534	-0.27
Mof_O 	O 	0.1322	0.651	0.427	-0.419
Mof_O 	O 	0.38946	0.62706	0.44422	-0.532
Mof_O 	O 	0.24709	0.78136	0.47366	-0.288
Mof_O 	O 	0.53855	0.03153	0.06517	-0.469
Mof_O 	O 	0.69981	0.05021	0.03737	-0.481
_end
