# CIF file generated by openbabel 3.1.0, see https://openbabel.org
data_I
_chemical_name_common 'image0'
_cell_length_a 20.096
_cell_length_b 23.088
_cell_length_c 14.616
_cell_angle_alpha 90
_cell_angle_beta 90
_cell_angle_gamma 90
_space_group_name_H-M_alt 'P 1'
_space_group_name_Hall 'P 1'
loop_
    _symmetry_equiv_pos_as_xyz
    x,y,z
loop_
    _atom_site_label
    _atom_site_type_symbol
    _atom_site_fract_x
    _atom_site_fract_y
    _atom_site_fract_z
    _atom_site_occupancy
    Co1      Co       0.41631    0.09138    0.32661    1.000
    Co2      Co       0.41196    0.09195    0.08505    1.000
    O1       O        0.47085    0.07050    0.87740    1.000
    O2       O        0.38163    0.10222    0.95109    1.000
    O3       O        0.47555    0.07649    0.54530    1.000
    O4       O        0.38797    0.10428    0.46406    1.000
    O5       O        0.17282    0.12829    0.78197    1.000
    O6       O        0.17454    0.13106    0.62845    1.000
    O7       O        0.45632    0.07003    0.20365    1.000
    N1       N        0.33817    0.91649    0.34820    1.000
    N2       N        0.36568    0.00771    0.33350    1.000
    N3       N        0.46357    0.74194    0.42310    1.000
    N4       N        0.53789    0.67206    0.42600    1.000
    N5       N        0.53770    0.24471    0.32810    1.000
    N6       N        0.46284    0.17472    0.32230    1.000
    N7       N        0.66457    0.41709    0.41190    1.000
    N8       N        0.63745    0.50892    0.42250    1.000
    C1       C        0.28180    0.76655    0.39540    1.000
    C2       C        0.28157    0.82536    0.37530    1.000
    H1       H        0.24150    0.84410    0.36400    1.000
    C3       C        0.34057    0.85618    0.37190    1.000
    C4       C        0.40132    0.82958    0.38770    1.000
    H2       H        0.44090    0.85040    0.38470    1.000
    C5       C        0.40134    0.77071    0.40810    1.000
    C6       C        0.34257    0.73946    0.41280    1.000
    H3       H        0.34360    0.70030    0.42770    1.000
    C7       C        0.71885    0.26740    0.35900    1.000
    C8       C        0.65795    0.24126    0.33880    1.000
    H4       H        0.65650    0.20260    0.32090    1.000
    C9       C        0.59996    0.27291    0.34570    1.000
    C10      C        0.60041    0.33117    0.37070    1.000
    H5       H        0.56100    0.35190    0.37670    1.000
    C11      C        0.66174    0.35721    0.38630    1.000
    C12      C        0.72043    0.32582    0.38110    1.000
    H6       H        0.76090    0.34400    0.39240    1.000
    C13      C        0.37737    0.10107    0.79050    1.000
    C14      C        0.41048    0.09363    0.70910    1.000
    H7       H        0.45490    0.08250    0.70970    1.000
    C15      C        0.37865    0.10251    0.62560    1.000
    C16      C        0.31146    0.11779    0.62460    1.000
    H8       H        0.28980    0.12410    0.56920    1.000
    C17      C        0.27679    0.12359    0.70670    1.000
    C18      C        0.31015    0.11693    0.78950    1.000
    H9       H        0.28770    0.12300    0.84430    1.000
    C19      C        0.41264    0.09046    0.88100    1.000
    C20      C        0.41601    0.09357    0.53730    1.000
    C21      C        0.20171    0.12916    0.70570    1.000
    C22      C        0.38439    0.95704    0.36270    1.000
    H10      H        0.42520    0.94990    0.39040    1.000
    C23      C        0.30287    0.99886    0.29730    1.000
    H11      H        0.27660    0.02750    0.27100    1.000
    C24      C        0.28544    0.94349    0.30540    1.000
    H12      H        0.24590    0.92650    0.28620    1.000
    C25      C        0.47638    0.68538    0.40550    1.000
    H13      H        0.44550    0.65940    0.38180    1.000
    C26      C        0.56610    0.72252    0.45840    1.000
    H14      H        0.60970    0.72610    0.47880    1.000
    C27      C        0.52120    0.76602    0.45630    1.000
    H15      H        0.52790    0.80430    0.47370    1.000
    C28      C        0.52491    0.18735    0.34170    1.000
    H16      H        0.55620    0.16060    0.36210    1.000
    C29      C        0.43435    0.22590    0.29470    1.000
    H17      H        0.39040    0.23010    0.27600    1.000
    C30      C        0.47961    0.26938    0.29880    1.000
    H18      H        0.47260    0.30820    0.28450    1.000
    C31      C        0.62008    0.45856    0.39090    1.000
    H19      H        0.58140    0.45190    0.35760    1.000
    C32      C        0.69740    0.50013    0.46570    1.000
    H20      H        0.72210    0.52870    0.49510    1.000
    C33      C        0.71510    0.44423    0.45930    1.000
    H21      H        0.75360    0.42720    0.48210    1.000
    O8       O        0.61300    0.06990    0.14310    1.000
    O9       O        0.52230    0.05040    0.17900    1.000
    O10      O        0.59510    0.07860    0.19340    1.000
    Co3      Co       0.08369    0.40862    0.32661    1.000
    Co4      Co       0.08804    0.40805    0.08505    1.000
    O11      O        0.02915    0.42950    0.87740    1.000
    O12      O        0.11837    0.39778    0.95109    1.000
    O13      O        0.02445    0.42351    0.54530    1.000
    O14      O        0.11203    0.39572    0.46406    1.000
    O15      O        0.32718    0.37171    0.78197    1.000
    O16      O        0.32546    0.36894    0.62845    1.000
    O17      O        0.04368    0.42997    0.20365    1.000
    N9       N        0.16183    0.58351    0.34820    1.000
    N10      N        0.13432    0.49229    0.33350    1.000
    N11      N        0.03643    0.75806    0.42310    1.000
    N12      N        0.96211    0.82794    0.42600    1.000
    N13      N        0.96230    0.25529    0.32810    1.000
    N14      N        0.03716    0.32528    0.32230    1.000
    N15      N        0.83543    0.08291    0.41190    1.000
    N16      N        0.86255    0.99108    0.42250    1.000
    C34      C        0.21820    0.73345    0.39540    1.000
    C35      C        0.21843    0.67464    0.37530    1.000
    H22      H        0.25850    0.65590    0.36400    1.000
    C36      C        0.15943    0.64382    0.37190    1.000
    C37      C        0.09868    0.67042    0.38770    1.000
    H23      H        0.05910    0.64960    0.38470    1.000
    C38      C        0.09866    0.72929    0.40810    1.000
    C39      C        0.15743    0.76054    0.41280    1.000
    H24      H        0.15640    0.79970    0.42770    1.000
    C40      C        0.78115    0.23260    0.35900    1.000
    C41      C        0.84205    0.25874    0.33880    1.000
    H25      H        0.84350    0.29740    0.32090    1.000
    C42      C        0.90004    0.22709    0.34570    1.000
    C43      C        0.89959    0.16883    0.37070    1.000
    H26      H        0.93900    0.14810    0.37670    1.000
    C44      C        0.83826    0.14279    0.38630    1.000
    C45      C        0.77957    0.17418    0.38110    1.000
    H27      H        0.73910    0.15600    0.39240    1.000
    C46      C        0.12263    0.39893    0.79050    1.000
    C47      C        0.08952    0.40637    0.70910    1.000
    H28      H        0.04510    0.41750    0.70970    1.000
    C48      C        0.12135    0.39749    0.62560    1.000
    C49      C        0.18854    0.38221    0.62460    1.000
    H29      H        0.21020    0.37590    0.56920    1.000
    C50      C        0.22321    0.37641    0.70670    1.000
    C51      C        0.18985    0.38307    0.78950    1.000
    H30      H        0.21230    0.37700    0.84430    1.000
    C52      C        0.08736    0.40954    0.88100    1.000
    C53      C        0.08399    0.40643    0.53730    1.000
    C54      C        0.29829    0.37084    0.70570    1.000
    C55      C        0.11561    0.54296    0.36270    1.000
    H31      H        0.07480    0.55010    0.39040    1.000
    C56      C        0.19713    0.50114    0.29730    1.000
    H32      H        0.22340    0.47250    0.27100    1.000
    C57      C        0.21456    0.55651    0.30540    1.000
    H33      H        0.25410    0.57350    0.28620    1.000
    C58      C        0.02362    0.81462    0.40550    1.000
    H34      H        0.05450    0.84060    0.38180    1.000
    C59      C        0.93390    0.77748    0.45840    1.000
    H35      H        0.89030    0.77390    0.47880    1.000
    C60      C        0.97880    0.73398    0.45630    1.000
    H36      H        0.97210    0.69570    0.47370    1.000
    C61      C        0.97509    0.31265    0.34170    1.000
    H37      H        0.94380    0.33940    0.36210    1.000
    C62      C        0.06565    0.27410    0.29470    1.000
    H38      H        0.10960    0.26990    0.27600    1.000
    C63      C        0.02039    0.23062    0.29880    1.000
    H39      H        0.02740    0.19180    0.28450    1.000
    C64      C        0.87992    0.04144    0.39090    1.000
    H40      H        0.91860    0.04810    0.35760    1.000
    C65      C        0.80260    0.99987    0.46570    1.000
    H41      H        0.77790    0.97130    0.49510    1.000
    C66      C        0.78490    0.05577    0.45930    1.000
    H42      H        0.74640    0.07280    0.48210    1.000
    O18      O        0.88700    0.43010    0.14310    1.000
    O19      O        0.97770    0.44960    0.17900    1.000
    O20      O        0.90490    0.42140    0.19340    1.000
    Co5      Co       0.58369    0.59138    0.17339    1.000
    Co6      Co       0.58804    0.59195    0.41495    1.000
    O21      O        0.52915    0.57050    0.62260    1.000
    O22      O        0.61837    0.60222    0.54891    1.000
    O23      O        0.52445    0.57649    0.95470    1.000
    O24      O        0.61203    0.60428    0.03594    1.000
    O25      O        0.82718    0.62829    0.71803    1.000
    O26      O        0.82546    0.63106    0.87155    1.000
    O27      O        0.54368    0.57003    0.29635    1.000
    N17      N        0.66183    0.41649    0.15180    1.000
    N18      N        0.63432    0.50771    0.16650    1.000
    N19      N        0.53643    0.24194    0.07690    1.000
    N20      N        0.46211    0.17206    0.07400    1.000
    N21      N        0.46230    0.74471    0.17190    1.000
    N22      N        0.53716    0.67472    0.17770    1.000
    N23      N        0.33543    0.91709    0.08810    1.000
    N24      N        0.36255    0.00892    0.07750    1.000
    C67      C        0.71820    0.26655    0.10460    1.000
    C68      C        0.71843    0.32536    0.12470    1.000
    H43      H        0.75850    0.34410    0.13600    1.000
    C69      C        0.65943    0.35618    0.12810    1.000
    C70      C        0.59868    0.32958    0.11230    1.000
    H44      H        0.55910    0.35040    0.11530    1.000
    C71      C        0.59866    0.27071    0.09190    1.000
    C72      C        0.65743    0.23946    0.08720    1.000
    H45      H        0.65640    0.20030    0.07230    1.000
    C73      C        0.28115    0.76740    0.14100    1.000
    C74      C        0.34205    0.74126    0.16120    1.000
    H46      H        0.34350    0.70260    0.17910    1.000
    C75      C        0.40004    0.77291    0.15430    1.000
    C76      C        0.39959    0.83117    0.12930    1.000
    H47      H        0.43900    0.85190    0.12330    1.000
    C77      C        0.33826    0.85721    0.11370    1.000
    C78      C        0.27957    0.82582    0.11890    1.000
    H48      H        0.23910    0.84400    0.10760    1.000
    C79      C        0.62263    0.60107    0.70950    1.000
    C80      C        0.58952    0.59363    0.79090    1.000
    H49      H        0.54510    0.58250    0.79030    1.000
    C81      C        0.62135    0.60251    0.87440    1.000
    C82      C        0.68854    0.61779    0.87540    1.000
    H50      H        0.71020    0.62410    0.93080    1.000
    C83      C        0.72321    0.62359    0.79330    1.000
    C84      C        0.68985    0.61693    0.71050    1.000
    H51      H        0.71230    0.62300    0.65570    1.000
    C85      C        0.58736    0.59046    0.61900    1.000
    C86      C        0.58399    0.59357    0.96270    1.000
    C87      C        0.79829    0.62916    0.79430    1.000
    C88      C        0.61561    0.45704    0.13730    1.000
    H52      H        0.57480    0.44990    0.10960    1.000
    C89      C        0.69713    0.49886    0.20270    1.000
    H53      H        0.72340    0.52750    0.22900    1.000
    C90      C        0.71456    0.44349    0.19460    1.000
    H54      H        0.75410    0.42650    0.21380    1.000
    C91      C        0.52362    0.18538    0.09450    1.000
    H55      H        0.55450    0.15940    0.11820    1.000
    C92      C        0.43390    0.22252    0.04160    1.000
    H56      H        0.39030    0.22610    0.02120    1.000
    C93      C        0.47880    0.26602    0.04370    1.000
    H57      H        0.47210    0.30430    0.02630    1.000
    C94      C        0.47509    0.68735    0.15830    1.000
    H58      H        0.44380    0.66060    0.13790    1.000
    C95      C        0.56565    0.72590    0.20530    1.000
    H59      H        0.60960    0.73010    0.22400    1.000
    C96      C        0.52039    0.76938    0.20120    1.000
    H60      H        0.52740    0.80820    0.21550    1.000
    C97      C        0.37992    0.95856    0.10910    1.000
    H61      H        0.41860    0.95190    0.14240    1.000
    C98      C        0.30260    0.00013    0.03430    1.000
    H62      H        0.27790    0.02870    0.00490    1.000
    C99      C        0.28490    0.94423    0.04070    1.000
    H63      H        0.24640    0.92720    0.01790    1.000
    O28      O        0.38700    0.56990    0.35690    1.000
    O29      O        0.47770    0.55040    0.32100    1.000
    O30      O        0.40490    0.57860    0.30660    1.000
    Co7      Co       0.91631    0.90862    0.17339    1.000
    Co8      Co       0.91196    0.90805    0.41495    1.000
    O31      O        0.97085    0.92950    0.62260    1.000
    O32      O        0.88163    0.89778    0.54891    1.000
    O33      O        0.97555    0.92351    0.95470    1.000
    O34      O        0.88797    0.89572    0.03594    1.000
    O35      O        0.67282    0.87171    0.71803    1.000
    O36      O        0.67454    0.86894    0.87155    1.000
    O37      O        0.95632    0.92997    0.29635    1.000
    N25      N        0.83817    0.08351    0.15180    1.000
    N26      N        0.86568    0.99229    0.16650    1.000
    N27      N        0.96357    0.25806    0.07690    1.000
    N28      N        0.03789    0.32794    0.07400    1.000
    N29      N        0.03770    0.75529    0.17190    1.000
    N30      N        0.96284    0.82528    0.17770    1.000
    N31      N        0.16457    0.58291    0.08810    1.000
    N32      N        0.13745    0.49108    0.07750    1.000
    C100     C        0.78180    0.23345    0.10460    1.000
    C101     C        0.78157    0.17464    0.12470    1.000
    H64      H        0.74150    0.15590    0.13600    1.000
    C102     C        0.84057    0.14382    0.12810    1.000
    C103     C        0.90132    0.17042    0.11230    1.000
    H65      H        0.94090    0.14960    0.11530    1.000
    C104     C        0.90134    0.22929    0.09190    1.000
    C105     C        0.84257    0.26054    0.08720    1.000
    H66      H        0.84360    0.29970    0.07230    1.000
    C106     C        0.21885    0.73260    0.14100    1.000
    C107     C        0.15795    0.75874    0.16120    1.000
    H67      H        0.15650    0.79740    0.17910    1.000
    C108     C        0.09996    0.72709    0.15430    1.000
    C109     C        0.10041    0.66883    0.12930    1.000
    H68      H        0.06100    0.64810    0.12330    1.000
    C110     C        0.16174    0.64279    0.11370    1.000
    C111     C        0.22043    0.67418    0.11890    1.000
    H69      H        0.26090    0.65600    0.10760    1.000
    C112     C        0.87737    0.89893    0.70950    1.000
    C113     C        0.91048    0.90637    0.79090    1.000
    H70      H        0.95490    0.91750    0.79030    1.000
    C114     C        0.87865    0.89749    0.87440    1.000
    C115     C        0.81146    0.88221    0.87540    1.000
    H71      H        0.78980    0.87590    0.93080    1.000
    C116     C        0.77679    0.87641    0.79330    1.000
    C117     C        0.81015    0.88307    0.71050    1.000
    H72      H        0.78770    0.87700    0.65570    1.000
    C118     C        0.91264    0.90954    0.61900    1.000
    C119     C        0.91601    0.90643    0.96270    1.000
    C120     C        0.70171    0.87084    0.79430    1.000
    C121     C        0.88439    0.04296    0.13730    1.000
    H73      H        0.92520    0.05010    0.10960    1.000
    C122     C        0.80287    0.00114    0.20270    1.000
    H74      H        0.77660    0.97250    0.22900    1.000
    C123     C        0.78544    0.05651    0.19460    1.000
    H75      H        0.74590    0.07350    0.21380    1.000
    C124     C        0.97638    0.31462    0.09450    1.000
    H76      H        0.94550    0.34060    0.11820    1.000
    C125     C        0.06610    0.27748    0.04160    1.000
    H77      H        0.10970    0.27390    0.02120    1.000
    C126     C        0.02120    0.23398    0.04370    1.000
    H78      H        0.02790    0.19570    0.02630    1.000
    C127     C        0.02491    0.81265    0.15830    1.000
    H79      H        0.05620    0.83940    0.13790    1.000
    C128     C        0.93435    0.77410    0.20530    1.000
    H80      H        0.89040    0.76990    0.22400    1.000
    C129     C        0.97961    0.73062    0.20120    1.000
    H81      H        0.97260    0.69180    0.21550    1.000
    C130     C        0.12008    0.54144    0.10910    1.000
    H82      H        0.08140    0.54810    0.14240    1.000
    C131     C        0.19740    0.49987    0.03430    1.000
    H83      H        0.22210    0.47130    0.00490    1.000
    C132     C        0.21510    0.55577    0.04070    1.000
    H84      H        0.25360    0.57280    0.01790    1.000
    O38      O        0.11300    0.93010    0.35690    1.000
    O39      O        0.02230    0.94960    0.32100    1.000
    O40      O        0.09510    0.92140    0.30660    1.000
    Co9      Co       0.58369    0.90862    0.67339    1.000
    Co10     Co       0.58804    0.90805    0.91495    1.000
    O41      O        0.52915    0.92950    0.12260    1.000
    O42      O        0.61837    0.89778    0.04891    1.000
    O43      O        0.52445    0.92351    0.45470    1.000
    O44      O        0.61203    0.89572    0.53594    1.000
    O45      O        0.82718    0.87171    0.21803    1.000
    O46      O        0.82546    0.86894    0.37155    1.000
    O47      O        0.54368    0.92997    0.79635    1.000
    N33      N        0.66183    0.08351    0.65180    1.000
    N34      N        0.63432    0.99229    0.66650    1.000
    N35      N        0.53643    0.25806    0.57690    1.000
    N36      N        0.46211    0.32794    0.57400    1.000
    N37      N        0.46230    0.75529    0.67190    1.000
    N38      N        0.53716    0.82528    0.67770    1.000
    N39      N        0.33543    0.58291    0.58810    1.000
    N40      N        0.36255    0.49108    0.57750    1.000
    C133     C        0.71820    0.23345    0.60460    1.000
    C134     C        0.71843    0.17464    0.62470    1.000
    H85      H        0.75850    0.15590    0.63600    1.000
    C135     C        0.65943    0.14382    0.62810    1.000
    C136     C        0.59868    0.17042    0.61230    1.000
    H86      H        0.55910    0.14960    0.61530    1.000
    C137     C        0.59866    0.22929    0.59190    1.000
    C138     C        0.65743    0.26054    0.58720    1.000
    H87      H        0.65640    0.29970    0.57230    1.000
    C139     C        0.28115    0.73260    0.64100    1.000
    C140     C        0.34205    0.75874    0.66120    1.000
    H88      H        0.34350    0.79740    0.67910    1.000
    C141     C        0.40004    0.72709    0.65430    1.000
    C142     C        0.39959    0.66883    0.62930    1.000
    H89      H        0.43900    0.64810    0.62330    1.000
    C143     C        0.33826    0.64279    0.61370    1.000
    C144     C        0.27957    0.67418    0.61890    1.000
    H90      H        0.23910    0.65600    0.60760    1.000
    C145     C        0.62263    0.89893    0.20950    1.000
    C146     C        0.58952    0.90637    0.29090    1.000
    H91      H        0.54510    0.91750    0.29030    1.000
    C147     C        0.62135    0.89749    0.37440    1.000
    C148     C        0.68854    0.88221    0.37540    1.000
    H92      H        0.71020    0.87590    0.43080    1.000
    C149     C        0.72321    0.87641    0.29330    1.000
    C150     C        0.68985    0.88307    0.21050    1.000
    H93      H        0.71230    0.87700    0.15570    1.000
    C151     C        0.58736    0.90954    0.11900    1.000
    C152     C        0.58399    0.90643    0.46270    1.000
    C153     C        0.79829    0.87084    0.29430    1.000
    C154     C        0.61561    0.04296    0.63730    1.000
    H94      H        0.57480    0.05010    0.60960    1.000
    C155     C        0.69713    0.00114    0.70270    1.000
    H95      H        0.72340    0.97250    0.72900    1.000
    C156     C        0.71456    0.05651    0.69460    1.000
    H96      H        0.75410    0.07350    0.71380    1.000
    C157     C        0.52362    0.31462    0.59450    1.000
    H97      H        0.55450    0.34060    0.61820    1.000
    C158     C        0.43390    0.27748    0.54160    1.000
    H98      H        0.39030    0.27390    0.52120    1.000
    C159     C        0.47880    0.23398    0.54370    1.000
    H99      H        0.47210    0.19570    0.52630    1.000
    C160     C        0.47509    0.81265    0.65830    1.000
    H100     H        0.44380    0.83940    0.63790    1.000
    C161     C        0.56565    0.77410    0.70530    1.000
    H101     H        0.60960    0.76990    0.72400    1.000
    C162     C        0.52039    0.73062    0.70120    1.000
    H102     H        0.52740    0.69180    0.71550    1.000
    C163     C        0.37992    0.54144    0.60910    1.000
    H103     H        0.41860    0.54810    0.64240    1.000
    C164     C        0.30260    0.49987    0.53430    1.000
    H104     H        0.27790    0.47130    0.50490    1.000
    C165     C        0.28490    0.55577    0.54070    1.000
    H105     H        0.24640    0.57280    0.51790    1.000
    O48      O        0.38700    0.93010    0.85690    1.000
    O49      O        0.47770    0.94960    0.82100    1.000
    O50      O        0.40490    0.92140    0.80660    1.000
    Co11     Co       0.91631    0.59138    0.67339    1.000
    Co12     Co       0.91196    0.59195    0.91495    1.000
    O51      O        0.97085    0.57050    0.12260    1.000
    O52      O        0.88163    0.60222    0.04891    1.000
    O53      O        0.97555    0.57649    0.45470    1.000
    O54      O        0.88797    0.60428    0.53594    1.000
    O55      O        0.67282    0.62829    0.21803    1.000
    O56      O        0.67454    0.63106    0.37155    1.000
    O57      O        0.95632    0.57003    0.79635    1.000
    N41      N        0.83817    0.41649    0.65180    1.000
    N42      N        0.86568    0.50771    0.66650    1.000
    N43      N        0.96357    0.24194    0.57690    1.000
    N44      N        0.03789    0.17206    0.57400    1.000
    N45      N        0.03770    0.74471    0.67190    1.000
    N46      N        0.96284    0.67472    0.67770    1.000
    N47      N        0.16457    0.91709    0.58810    1.000
    N48      N        0.13745    0.00892    0.57750    1.000
    C166     C        0.78180    0.26655    0.60460    1.000
    C167     C        0.78157    0.32536    0.62470    1.000
    H106     H        0.74150    0.34410    0.63600    1.000
    C168     C        0.84057    0.35618    0.62810    1.000
    C169     C        0.90132    0.32958    0.61230    1.000
    H107     H        0.94090    0.35040    0.61530    1.000
    C170     C        0.90134    0.27071    0.59190    1.000
    C171     C        0.84257    0.23946    0.58720    1.000
    H108     H        0.84360    0.20030    0.57230    1.000
    C172     C        0.21885    0.76740    0.64100    1.000
    C173     C        0.15795    0.74126    0.66120    1.000
    H109     H        0.15650    0.70260    0.67910    1.000
    C174     C        0.09996    0.77291    0.65430    1.000
    C175     C        0.10041    0.83117    0.62930    1.000
    H110     H        0.06100    0.85190    0.62330    1.000
    C176     C        0.16174    0.85721    0.61370    1.000
    C177     C        0.22043    0.82582    0.61890    1.000
    H111     H        0.26090    0.84400    0.60760    1.000
    C178     C        0.87737    0.60107    0.20950    1.000
    C179     C        0.91048    0.59363    0.29090    1.000
    H112     H        0.95490    0.58250    0.29030    1.000
    C180     C        0.87865    0.60251    0.37440    1.000
    C181     C        0.81146    0.61779    0.37540    1.000
    H113     H        0.78980    0.62410    0.43080    1.000
    C182     C        0.77679    0.62359    0.29330    1.000
    C183     C        0.81015    0.61693    0.21050    1.000
    H114     H        0.78770    0.62300    0.15570    1.000
    C184     C        0.91264    0.59046    0.11900    1.000
    C185     C        0.91601    0.59357    0.46270    1.000
    C186     C        0.70171    0.62916    0.29430    1.000
    C187     C        0.88439    0.45704    0.63730    1.000
    H115     H        0.92520    0.44990    0.60960    1.000
    C188     C        0.80287    0.49886    0.70270    1.000
    H116     H        0.77660    0.52750    0.72900    1.000
    C189     C        0.78544    0.44349    0.69460    1.000
    H117     H        0.74590    0.42650    0.71380    1.000
    C190     C        0.97638    0.18538    0.59450    1.000
    H118     H        0.94550    0.15940    0.61820    1.000
    C191     C        0.06610    0.22252    0.54160    1.000
    H119     H        0.10970    0.22610    0.52120    1.000
    C192     C        0.02120    0.26602    0.54370    1.000
    H120     H        0.02790    0.30430    0.52630    1.000
    C193     C        0.02491    0.68735    0.65830    1.000
    H121     H        0.05620    0.66060    0.63790    1.000
    C194     C        0.93435    0.72590    0.70530    1.000
    H122     H        0.89040    0.73010    0.72400    1.000
    C195     C        0.97961    0.76938    0.70120    1.000
    H123     H        0.97260    0.80820    0.71550    1.000
    C196     C        0.12008    0.95856    0.60910    1.000
    H124     H        0.08140    0.95190    0.64240    1.000
    C197     C        0.19740    0.00013    0.53430    1.000
    H125     H        0.22210    0.02870    0.50490    1.000
    C198     C        0.21510    0.94423    0.54070    1.000
    H126     H        0.25360    0.92720    0.51790    1.000
    O58      O        0.11300    0.56990    0.85690    1.000
    O59      O        0.02230    0.55040    0.82100    1.000
    O60      O        0.09510    0.57860    0.80660    1.000
    Co13     Co       0.41631    0.40862    0.82661    1.000
    Co14     Co       0.41196    0.40805    0.58505    1.000
    O61      O        0.47085    0.42950    0.37740    1.000
    O62      O        0.38163    0.39778    0.45109    1.000
    O63      O        0.47555    0.42351    0.04530    1.000
    O64      O        0.38797    0.39572    0.96406    1.000
    O65      O        0.17282    0.37171    0.28197    1.000
    O66      O        0.17454    0.36894    0.12845    1.000
    O67      O        0.45632    0.42997    0.70365    1.000
    N49      N        0.33817    0.58351    0.84820    1.000
    N50      N        0.36568    0.49229    0.83350    1.000
    N51      N        0.46357    0.75806    0.92310    1.000
    N52      N        0.53789    0.82794    0.92600    1.000
    N53      N        0.53770    0.25529    0.82810    1.000
    N54      N        0.46284    0.32528    0.82230    1.000
    N55      N        0.66457    0.08291    0.91190    1.000
    N56      N        0.63745    0.99108    0.92250    1.000
    C199     C        0.28180    0.73345    0.89540    1.000
    C200     C        0.28157    0.67464    0.87530    1.000
    H127     H        0.24150    0.65590    0.86400    1.000
    C201     C        0.34057    0.64382    0.87190    1.000
    C202     C        0.40132    0.67042    0.88770    1.000
    H128     H        0.44090    0.64960    0.88470    1.000
    C203     C        0.40134    0.72929    0.90810    1.000
    C204     C        0.34257    0.76054    0.91280    1.000
    H129     H        0.34360    0.79970    0.92770    1.000
    C205     C        0.71885    0.23260    0.85900    1.000
    C206     C        0.65795    0.25874    0.83880    1.000
    H130     H        0.65650    0.29740    0.82090    1.000
    C207     C        0.59996    0.22709    0.84570    1.000
    C208     C        0.60041    0.16883    0.87070    1.000
    H131     H        0.56100    0.14810    0.87670    1.000
    C209     C        0.66174    0.14279    0.88630    1.000
    C210     C        0.72043    0.17418    0.88110    1.000
    H132     H        0.76090    0.15600    0.89240    1.000
    C211     C        0.37737    0.39893    0.29050    1.000
    C212     C        0.41048    0.40637    0.20910    1.000
    H133     H        0.45490    0.41750    0.20970    1.000
    C213     C        0.37865    0.39749    0.12560    1.000
    C214     C        0.31146    0.38221    0.12460    1.000
    H134     H        0.28980    0.37590    0.06920    1.000
    C215     C        0.27679    0.37641    0.20670    1.000
    C216     C        0.31015    0.38307    0.28950    1.000
    H135     H        0.28770    0.37700    0.34430    1.000
    C217     C        0.41264    0.40954    0.38100    1.000
    C218     C        0.41601    0.40643    0.03730    1.000
    C219     C        0.20171    0.37084    0.20570    1.000
    C220     C        0.38439    0.54296    0.86270    1.000
    H136     H        0.42520    0.55010    0.89040    1.000
    C221     C        0.30287    0.50114    0.79730    1.000
    H137     H        0.27660    0.47250    0.77100    1.000
    C222     C        0.28544    0.55651    0.80540    1.000
    H138     H        0.24590    0.57350    0.78620    1.000
    C223     C        0.47638    0.81462    0.90550    1.000
    H139     H        0.44550    0.84060    0.88180    1.000
    C224     C        0.56610    0.77748    0.95840    1.000
    H140     H        0.60970    0.77390    0.97880    1.000
    C225     C        0.52120    0.73398    0.95630    1.000
    H141     H        0.52790    0.69570    0.97370    1.000
    C226     C        0.52491    0.31265    0.84170    1.000
    H142     H        0.55620    0.33940    0.86210    1.000
    C227     C        0.43435    0.27410    0.79470    1.000
    H143     H        0.39040    0.26990    0.77600    1.000
    C228     C        0.47961    0.23062    0.79880    1.000
    H144     H        0.47260    0.19180    0.78450    1.000
    C229     C        0.62008    0.04144    0.89090    1.000
    H145     H        0.58140    0.04810    0.85760    1.000
    C230     C        0.69740    0.99987    0.96570    1.000
    H146     H        0.72210    0.97130    0.99510    1.000
    C231     C        0.71510    0.05577    0.95930    1.000
    H147     H        0.75360    0.07280    0.98210    1.000
    O68      O        0.61300    0.43010    0.64310    1.000
    O69      O        0.52230    0.44960    0.67900    1.000
    O70      O        0.59510    0.42140    0.69340    1.000
    Co15     Co       0.08369    0.09138    0.82661    1.000
    Co16     Co       0.08804    0.09195    0.58505    1.000
    O71      O        0.02915    0.07050    0.37740    1.000
    O72      O        0.11837    0.10222    0.45109    1.000
    O73      O        0.02445    0.07649    0.04530    1.000
    O74      O        0.11203    0.10428    0.96406    1.000
    O75      O        0.32718    0.12829    0.28197    1.000
    O76      O        0.32546    0.13106    0.12845    1.000
    O77      O        0.04368    0.07003    0.70365    1.000
    N57      N        0.16183    0.91649    0.84820    1.000
    N58      N        0.13432    0.00771    0.83350    1.000
    N59      N        0.03643    0.74194    0.92310    1.000
    N60      N        0.96211    0.67206    0.92600    1.000
    N61      N        0.96230    0.24471    0.82810    1.000
    N62      N        0.03716    0.17472    0.82230    1.000
    N63      N        0.83543    0.41709    0.91190    1.000
    N64      N        0.86255    0.50892    0.92250    1.000
    C232     C        0.21820    0.76655    0.89540    1.000
    C233     C        0.21843    0.82536    0.87530    1.000
    H148     H        0.25850    0.84410    0.86400    1.000
    C234     C        0.15943    0.85618    0.87190    1.000
    C235     C        0.09868    0.82958    0.88770    1.000
    H149     H        0.05910    0.85040    0.88470    1.000
    C236     C        0.09866    0.77071    0.90810    1.000
    C237     C        0.15743    0.73946    0.91280    1.000
    H150     H        0.15640    0.70030    0.92770    1.000
    C238     C        0.78115    0.26740    0.85900    1.000
    C239     C        0.84205    0.24126    0.83880    1.000
    H151     H        0.84350    0.20260    0.82090    1.000
    C240     C        0.90004    0.27291    0.84570    1.000
    C241     C        0.89959    0.33117    0.87070    1.000
    H152     H        0.93900    0.35190    0.87670    1.000
    C242     C        0.83826    0.35721    0.88630    1.000
    C243     C        0.77957    0.32582    0.88110    1.000
    H153     H        0.73910    0.34400    0.89240    1.000
    C244     C        0.12263    0.10107    0.29050    1.000
    C245     C        0.08952    0.09363    0.20910    1.000
    H154     H        0.04510    0.08250    0.20970    1.000
    C246     C        0.12135    0.10251    0.12560    1.000
    C247     C        0.18854    0.11779    0.12460    1.000
    H155     H        0.21020    0.12410    0.06920    1.000
    C248     C        0.22321    0.12359    0.20670    1.000
    C249     C        0.18985    0.11693    0.28950    1.000
    H156     H        0.21230    0.12300    0.34430    1.000
    C250     C        0.08736    0.09046    0.38100    1.000
    C251     C        0.08399    0.09357    0.03730    1.000
    C252     C        0.29829    0.12916    0.20570    1.000
    C253     C        0.11561    0.95704    0.86270    1.000
    H157     H        0.07480    0.94990    0.89040    1.000
    C254     C        0.19713    0.99886    0.79730    1.000
    H158     H        0.22340    0.02750    0.77100    1.000
    C255     C        0.21456    0.94349    0.80540    1.000
    H159     H        0.25410    0.92650    0.78620    1.000
    C256     C        0.02362    0.68538    0.90550    1.000
    H160     H        0.05450    0.65940    0.88180    1.000
    C257     C        0.93390    0.72252    0.95840    1.000
    H161     H        0.89030    0.72610    0.97880    1.000
    C258     C        0.97880    0.76602    0.95630    1.000
    H162     H        0.97210    0.80430    0.97370    1.000
    C259     C        0.97509    0.18735    0.84170    1.000
    H163     H        0.94380    0.16060    0.86210    1.000
    C260     C        0.06565    0.22590    0.79470    1.000
    H164     H        0.10960    0.23010    0.77600    1.000
    C261     C        0.02039    0.26938    0.79880    1.000
    H165     H        0.02740    0.30820    0.78450    1.000
    C262     C        0.87992    0.45856    0.89090    1.000
    H166     H        0.91860    0.45190    0.85760    1.000
    C263     C        0.80260    0.50013    0.96570    1.000
    H167     H        0.77790    0.52870    0.99510    1.000
    C264     C        0.78490    0.44423    0.95930    1.000
    H168     H        0.74640    0.42720    0.98210    1.000
    O78      O        0.88700    0.06990    0.64310    1.000
    O79      O        0.97770    0.05040    0.67900    1.000
    O80      O        0.90490    0.07860    0.69340    1.000
