data_functionalizedCrystal
_audit_creation_method	'EQeq! by Chris Wilmer'
_symmetry_space_group_name_H-M	'P1'
_symmetry_Int_Tables_number	1
_symmetry_cell_setting	triclinic
loop_
_symmetry_equiv_pos_as_xyz
  x,y,z
_cell_length_a	24.972
_cell_length_b	24.972
_cell_length_c	9.858
_cell_angle_alpha	90
_cell_angle_beta	90
_cell_angle_gamma	120
loop_
_atom_site_label
_atom_site_type_symbol
_atom_site_fract_x
_atom_site_fract_y
_atom_site_fract_z
_atom_site_charge
Mof_O 	O 	0.4308	0.7692	0.4877	-0.584
Mof_O 	O 	0.4453	0.688	0.3937	-0.025
Mof_O 	O 	0.5532	0.4262	0.8745	-0.36
Mof_O 	O 	0.6132	0.4722	0.683	-0.396
Mof_C 	C 	0.4508	0.7047	0.6252	-0.281
Mof_C 	C 	0.4736	0.6628	0.6227	0.118
Mof_C 	C 	0.4367	0.7246	0.4919	0.704
Mof_C 	C 	0.5128	0.6024	0.777	0.025
Mof_C 	C 	0.4876	0.5538	0.8691	-0.002
Mof_C 	C 	0.5095	0.5125	0.8748	0.039
Mof_C 	C 	0.5566	0.5197	0.7882	-0.101
Mof_C 	C 	0.5818	0.5683	0.6958	0.063
Mof_C 	C 	0.5599	0.6096	0.69	-0.034
Mof_C 	C 	0.5754	0.473	0.787	0.304
Mof_O 	O 	0.4208	0.6984	0.3921	-0.727
Mof_O 	O 	0.2308	0.6616	0.4877	-0.585
Mof_O 	O 	0.312	0.7573	0.3937	-0.026
Mof_O 	O 	0.5738	0.127	0.8745	-0.362
Mof_O 	O 	0.5278	0.141	0.683	-0.397
Mof_C 	C 	0.2953	0.7461	0.6252	-0.282
Mof_C 	C 	0.3372	0.8108	0.6227	0.117
Mof_C 	C 	0.2754	0.7121	0.4919	0.703
Mof_C 	C 	0.3976	0.9104	0.777	0.024
Mof_C 	C 	0.4462	0.9338	0.8691	-0.003
Mof_C 	C 	0.4875	0.997	0.8748	0.038
Mof_C 	C 	0.4803	0.0369	0.7882	-0.102
Mof_C 	C 	0.4317	0.0135	0.6958	0.062
Mof_C 	C 	0.3904	0.9503	0.69	-0.035
Mof_C 	C 	0.527	0.1024	0.787	0.302
Mof_O 	O 	0.3016	0.7224	0.3921	-0.727
Mof_O 	O 	0.3384	0.5692	0.4877	-0.585
Mof_O 	O 	0.2427	0.5547	0.3937	-0.026
Mof_O 	O 	0.873	0.4468	0.8745	-0.362
Mof_O 	O 	0.859	0.3868	0.683	-0.397
Mof_C 	C 	0.2539	0.5492	0.6252	-0.282
Mof_C 	C 	0.1892	0.5264	0.6227	0.117
Mof_C 	C 	0.2879	0.5633	0.4919	0.703
Mof_C 	C 	0.0896	0.4872	0.777	0.024
Mof_C 	C 	0.0662	0.5124	0.8691	-0.003
Mof_C 	C 	0.003	0.4905	0.8748	0.038
Mof_C 	C 	0.9631	0.4434	0.7882	-0.102
Mof_C 	C 	0.9865	0.4182	0.6958	0.062
Mof_C 	C 	0.0497	0.4401	0.69	-0.035
Mof_C 	C 	0.8976	0.4246	0.787	0.302
Mof_O 	O 	0.2776	0.5792	0.3921	-0.727
Mof_O 	O 	0.4308	0.7692	0.0123	-0.585
Mof_O 	O 	0.4453	0.688	0.1063	-0.026
Mof_O 	O 	0.5532	0.4262	0.6255	-0.361
Mof_O 	O 	0.6132	0.4722	0.817	-0.397
Mof_C 	C 	0.4508	0.7047	0.8748	-0.282
Mof_C 	C 	0.4736	0.6628	0.8773	0.117
Mof_C 	C 	0.4367	0.7246	0.0081	0.702
Mof_C 	C 	0.5128	0.6024	0.723	0.024
Mof_C 	C 	0.4876	0.5538	0.6309	-0.003
Mof_C 	C 	0.5095	0.5125	0.6252	0.038
Mof_C 	C 	0.5566	0.5197	0.7118	-0.102
Mof_C 	C 	0.5818	0.5683	0.8042	0.062
Mof_C 	C 	0.5599	0.6096	0.81	-0.035
Mof_C 	C 	0.5754	0.473	0.713	0.303
Mof_O 	O 	0.4208	0.6984	0.1079	-0.727
Mof_O 	O 	0.2308	0.6616	0.0123	-0.585
Mof_O 	O 	0.312	0.7573	0.1063	-0.027
Mof_O 	O 	0.5738	0.127	0.6255	-0.361
Mof_O 	O 	0.5278	0.141	0.817	-0.397
Mof_C 	C 	0.2953	0.7461	0.8748	-0.281
Mof_C 	C 	0.3372	0.8108	0.8773	0.117
Mof_C 	C 	0.2754	0.7121	0.0081	0.702
Mof_C 	C 	0.3976	0.9104	0.723	0.024
Mof_C 	C 	0.4462	0.9338	0.6309	-0.003
Mof_C 	C 	0.4875	0.997	0.6252	0.038
Mof_C 	C 	0.4803	0.0369	0.7118	-0.102
Mof_C 	C 	0.4317	0.0135	0.8042	0.062
Mof_C 	C 	0.3904	0.9503	0.81	-0.035
Mof_C 	C 	0.527	0.1024	0.713	0.303
Mof_O 	O 	0.3016	0.7224	0.1079	-0.727
Mof_O 	O 	0.3384	0.5692	0.0123	-0.585
Mof_O 	O 	0.2427	0.5547	0.1063	-0.027
Mof_O 	O 	0.873	0.4468	0.6255	-0.361
Mof_O 	O 	0.859	0.3868	0.817	-0.397
Mof_C 	C 	0.2539	0.5492	0.8748	-0.282
Mof_C 	C 	0.1892	0.5264	0.8773	0.117
Mof_C 	C 	0.2879	0.5633	0.0081	0.702
Mof_C 	C 	0.0896	0.4872	0.723	0.024
Mof_C 	C 	0.0662	0.5124	0.6309	-0.003
Mof_C 	C 	0.003	0.4905	0.6252	0.038
Mof_C 	C 	0.9631	0.4434	0.7118	-0.102
Mof_C 	C 	0.9865	0.4182	0.8042	0.062
Mof_C 	C 	0.0497	0.4401	0.81	-0.035
Mof_C 	C 	0.8976	0.4246	0.713	0.303
Mof_O 	O 	0.2776	0.5792	0.1079	-0.727
Mof_O 	O 	0.7692	0.4308	0.5123	-0.585
Mof_O 	O 	0.688	0.4453	0.6063	-0.026
Mof_O 	O 	0.4262	0.5532	0.1255	-0.361
Mof_O 	O 	0.4722	0.6132	0.317	-0.397
Mof_C 	C 	0.7047	0.4508	0.3748	-0.282
Mof_C 	C 	0.6628	0.4736	0.3773	0.117
Mof_C 	C 	0.7246	0.4367	0.5081	0.703
Mof_C 	C 	0.6024	0.5128	0.223	0.024
Mof_C 	C 	0.5538	0.4876	0.1309	-0.003
Mof_C 	C 	0.5125	0.5095	0.1252	0.038
Mof_C 	C 	0.5197	0.5566	0.2118	-0.102
Mof_C 	C 	0.5683	0.5818	0.3042	0.062
Mof_C 	C 	0.6096	0.5599	0.31	-0.035
Mof_C 	C 	0.473	0.5754	0.213	0.303
Mof_O 	O 	0.6984	0.4208	0.6079	-0.727
Mof_O 	O 	0.6616	0.2308	0.5123	-0.585
Mof_O 	O 	0.7573	0.312	0.6063	-0.026
Mof_O 	O 	0.127	0.5738	0.1255	-0.362
Mof_O 	O 	0.141	0.5278	0.317	-0.397
Mof_C 	C 	0.7461	0.2953	0.3748	-0.282
Mof_C 	C 	0.8108	0.3372	0.3773	0.117
Mof_C 	C 	0.7121	0.2754	0.5081	0.703
Mof_C 	C 	0.9104	0.3976	0.223	0.024
Mof_C 	C 	0.9338	0.4462	0.1309	-0.003
Mof_C 	C 	0.997	0.4875	0.1252	0.038
Mof_C 	C 	0.0369	0.4803	0.2118	-0.102
Mof_C 	C 	0.0135	0.4317	0.3042	0.062
Mof_C 	C 	0.9503	0.3904	0.31	-0.035
Mof_C 	C 	0.1024	0.527	0.213	0.302
Mof_O 	O 	0.7224	0.3016	0.6079	-0.727
Mof_O 	O 	0.5692	0.3384	0.5123	-0.585
Mof_O 	O 	0.5547	0.2427	0.6063	-0.026
Mof_O 	O 	0.4468	0.873	0.1255	-0.362
Mof_O 	O 	0.3868	0.859	0.317	-0.397
Mof_C 	C 	0.5492	0.2539	0.3748	-0.282
Mof_C 	C 	0.5264	0.1892	0.3773	0.117
Mof_C 	C 	0.5633	0.2879	0.5081	0.703
Mof_C 	C 	0.4872	0.0896	0.223	0.024
Mof_C 	C 	0.5124	0.0662	0.1309	-0.003
Mof_C 	C 	0.4905	0.003	0.1252	0.038
Mof_C 	C 	0.4434	0.9631	0.2118	-0.102
Mof_C 	C 	0.4182	0.9865	0.3042	0.062
Mof_C 	C 	0.4401	0.0497	0.31	-0.035
Mof_C 	C 	0.4246	0.8976	0.213	0.302
Mof_O 	O 	0.5792	0.2776	0.6079	-0.727
Mof_O 	O 	0.7692	0.4308	0.9877	-0.585
Mof_O 	O 	0.688	0.4453	0.8937	-0.026
Mof_O 	O 	0.4262	0.5532	0.3745	-0.361
Mof_O 	O 	0.4722	0.6132	0.183	-0.397
Mof_C 	C 	0.7047	0.4508	0.1252	-0.282
Mof_C 	C 	0.6628	0.4736	0.1227	0.117
Mof_C 	C 	0.7246	0.4367	0.9919	0.702
Mof_C 	C 	0.6024	0.5128	0.277	0.024
Mof_C 	C 	0.5538	0.4876	0.3691	-0.003
Mof_C 	C 	0.5125	0.5095	0.3748	0.038
Mof_C 	C 	0.5197	0.5566	0.2882	-0.102
Mof_C 	C 	0.5683	0.5818	0.1958	0.062
Mof_C 	C 	0.6096	0.5599	0.19	-0.035
Mof_C 	C 	0.473	0.5754	0.287	0.303
Mof_O 	O 	0.6984	0.4208	0.8921	-0.727
Mof_O 	O 	0.6616	0.2308	0.9877	-0.585
Mof_O 	O 	0.7573	0.312	0.8937	-0.027
Mof_O 	O 	0.127	0.5738	0.3745	-0.361
Mof_O 	O 	0.141	0.5278	0.183	-0.397
Mof_C 	C 	0.7461	0.2953	0.1252	-0.281
Mof_C 	C 	0.8108	0.3372	0.1227	0.117
Mof_C 	C 	0.7121	0.2754	0.9919	0.702
Mof_C 	C 	0.9104	0.3976	0.277	0.024
Mof_C 	C 	0.9338	0.4462	0.3691	-0.003
Mof_C 	C 	0.997	0.4875	0.3748	0.038
Mof_C 	C 	0.0369	0.4803	0.2882	-0.102
Mof_C 	C 	0.0135	0.4317	0.1958	0.062
Mof_C 	C 	0.9503	0.3904	0.19	-0.035
Mof_C 	C 	0.1024	0.527	0.287	0.303
Mof_O 	O 	0.7224	0.3016	0.8921	-0.727
Mof_O 	O 	0.5692	0.3384	0.9877	-0.585
Mof_O 	O 	0.5547	0.2427	0.8937	-0.027
Mof_O 	O 	0.4468	0.873	0.3745	-0.361
Mof_O 	O 	0.3868	0.859	0.183	-0.397
Mof_C 	C 	0.5492	0.2539	0.1252	-0.282
Mof_C 	C 	0.5264	0.1892	0.1227	0.117
Mof_C 	C 	0.5633	0.2879	0.9919	0.702
Mof_C 	C 	0.4872	0.0896	0.277	0.024
Mof_C 	C 	0.5124	0.0662	0.3691	-0.003
Mof_C 	C 	0.4905	0.003	0.3748	0.038
Mof_C 	C 	0.4434	0.9631	0.2882	-0.102
Mof_C 	C 	0.4182	0.9865	0.1958	0.062
Mof_C 	C 	0.4401	0.0497	0.19	-0.035
Mof_C 	C 	0.4246	0.8976	0.287	0.303
Mof_O 	O 	0.5792	0.2776	0.8921	-0.727
Mof_Sm	Sm	0.39828	0.77145	0.25	2.799
Mof_Sm	Sm	0.22855	0.62683	0.25	2.799
Mof_Sm	Sm	0.37317	0.60172	0.25	2.799
Mof_Sm	Sm	0.77145	0.39828	0.75	2.799
Mof_Sm	Sm	0.62683	0.22855	0.75	2.799
Mof_Sm	Sm	0.60172	0.37317	0.75	2.799
Mof_O 	O 	0.33333	0.66667	0.188	-0.548
Mof_O 	O 	0.33333	0.66667	0.312	-0.548
Mof_O 	O 	0.66667	0.33333	0.812	-0.548
Mof_O 	O 	0.66667	0.33333	0.688	-0.548
Mof_C 	C 	0.4393	0.7238	0.75	0.186
Mof_C 	C 	0.4882	0.6449	0.75	-0.078
Mof_C 	C 	0.2762	0.7155	0.75	0.186
Mof_C 	C 	0.3551	0.8433	0.75	-0.077
Mof_C 	C 	0.2845	0.5607	0.75	0.186
Mof_C 	C 	0.1567	0.5118	0.75	-0.077
Mof_C 	C 	0.7238	0.4393	0.25	0.186
Mof_C 	C 	0.6449	0.4882	0.25	-0.078
Mof_C 	C 	0.7155	0.2762	0.25	0.186
Mof_C 	C 	0.8433	0.3551	0.25	-0.077
Mof_C 	C 	0.5607	0.2845	0.25	0.186
Mof_C 	C 	0.5118	0.1567	0.25	-0.077
_end
