# CIF file generated by openbabel 3.1.0, see https://openbabel.org
data_I
_chemical_name_common 'image0'
_cell_length_a 8.262
_cell_length_b 8.262
_cell_length_c 15.495
_cell_angle_alpha 90
_cell_angle_beta 90
_cell_angle_gamma 90
_space_group_name_H-M_alt 'P 1'
_space_group_name_Hall 'P 1'
loop_
    _symmetry_equiv_pos_as_xyz
    x,y,z
loop_
    _atom_site_label
    _atom_site_type_symbol
    _atom_site_fract_x
    _atom_site_fract_y
    _atom_site_fract_z
    _atom_site_occupancy
    Cd1      Cd       0.50000    0.50000    0.25000    1.000
    Cd2      Cd       0.50000    0.50000    0.75000    1.000
    Cd3      Cd       0.50000    0.00000    0.00000    1.000
    Cd4      Cd       0.00000    0.50000    0.50000    1.000
    C1       C        0.50000    0.28100    0.16100    1.000
    N1       N        0.50000    0.19600    0.10900    1.000
    C2       C        0.50000    0.71900    0.16100    1.000
    N2       N        0.50000    0.80400    0.10900    1.000
    C3       C        0.71900    0.50000    0.66100    1.000
    N3       N        0.80400    0.50000    0.60900    1.000
    C4       C        0.28100    0.50000    0.66100    1.000
    N4       N        0.19600    0.50000    0.60900    1.000
    C5       C        0.50000    0.28100    0.83900    1.000
    N5       N        0.50000    0.19600    0.89100    1.000
    C6       C        0.50000    0.71900    0.83900    1.000
    N6       N        0.50000    0.80400    0.89100    1.000
    C7       C        0.28100    0.50000    0.33900    1.000
    N7       N        0.19600    0.50000    0.39100    1.000
    C8       C        0.71900    0.50000    0.33900    1.000
    N8       N        0.80400    0.50000    0.39100    1.000
    C9       C        0.10100    0.03200    0.00000    1.000
    N9       N        0.21500    0.05900    0.00000    1.000
    C10      C        0.89900    0.96800    0.00000    1.000
    N10      N        0.78500    0.94100    0.00000    1.000
    C11      C        0.96800    0.10100    0.50000    1.000
    N11      N        0.94100    0.21500    0.50000    1.000
    C12      C        0.03200    0.89900    0.50000    1.000
    N12      N        0.05900    0.78500    0.50000    1.000
    C13      C        0.89900    0.03200    0.00000    1.000
    N13      N        0.78500    0.05900    0.00000    1.000
    C14      C        0.10100    0.96800    0.00000    1.000
    N14      N        0.21500    0.94100    0.00000    1.000
    C15      C        0.03200    0.10100    0.50000    1.000
    N15      N        0.05900    0.21500    0.50000    1.000
    C16      C        0.96800    0.89900    0.50000    1.000
    N16      N        0.94100    0.78500    0.50000    1.000
