data_functionalizedCrystal
_audit_creation_method	'EQeq! by Chris Wilmer'
_symmetry_space_group_name_H-M	'P1'
_symmetry_Int_Tables_number	1
_symmetry_cell_setting	triclinic
loop_
_symmetry_equiv_pos_as_xyz
  x,y,z
_cell_length_a	15.5338
_cell_length_b	16.0601
_cell_length_c	17.2227
_cell_angle_alpha	90
_cell_angle_beta	90
_cell_angle_gamma	90
loop_
_atom_site_label
_atom_site_type_symbol
_atom_site_fract_x
_atom_site_fract_y
_atom_site_fract_z
_atom_site_charge
Mof_Ag	Ag	0.71893	0.297	0.98184	1.019
Mof_Ag	Ag	0.75869	0.45332	0.9026	0.524
Mof_Ag	Ag	0.68826	0.3157	0.81691	-0.227
Mof_Ag	Ag	0.80979	0.17569	0.85841	-0.286
Mof_C 	C 	0.9817	0.2977	0.871	-0.364
Mof_C 	C 	0.0259	0.3111	0.8034	0.057
Mof_H 	H 	0.996	0.3309	0.7605	-0.17
Mof_C 	C 	0.1501	0.2687	0.8595	0.303
Mof_H 	H 	0.2088	0.2584	0.8554	-0.179
Mof_C 	C 	0.0299	0.2675	0.9346	0.265
Mof_H 	H 	0.0022	0.2571	0.9815	-0.138
Mof_C 	C 	0.8894	0.3118	0.8779	0.002
Mof_C 	C 	0.8138	0.3294	0.8793	-0.351
Mof_C 	C 	0.5724	0.4926	0.865	-10.079
Mof_C 	C 	0.4895	0.5438	0.8844	19.889
Mof_F 	F 	0.4218	0.4934	0.8809	-1.425
Mof_F 	F 	0.4776	0.6031	0.8301	-71.509
Mof_F 	F 	0.4924	0.5809	0.9536	-0.212
Mof_C 	C 	0.4863	0.539	0.8462	6.707
Mof_F 	F 	0.4511	0.5501	0.9163	-7.837
Mof_F 	F 	0.4338	0.495	0.801	-0.891
Mof_F 	F 	0.501	0.6127	0.8134	65.038
Mof_N 	N 	0.1137	0.2536	0.9287	-0.176
Mof_N 	N 	0.1109	0.2967	0.7966	-0.261
Mof_O 	O 	0.5661	0.4167	0.8571	2.309
Mof_O 	O 	0.6379	0.5354	0.8713	1.194
Mof_Ag	Ag	0.78107	0.703	0.48184	0.974
Mof_Ag	Ag	0.74131	0.54668	0.4026	0.219
Mof_Ag	Ag	0.81174	0.6843	0.31691	0.281
Mof_Ag	Ag	0.69021	0.82431	0.35841	-2.979
Mof_C 	C 	0.5183	0.7023	0.371	-0.788
Mof_C 	C 	0.4741	0.6889	0.3034	-0.374
Mof_H 	H 	0.504	0.6691	0.2605	-0.387
Mof_C 	C 	0.3499	0.7313	0.3595	0.708
Mof_H 	H 	0.2912	0.7416	0.3554	-0.042
Mof_C 	C 	0.4701	0.7325	0.4346	0.591
Mof_H 	H 	0.4978	0.7429	0.4815	-0.269
Mof_C 	C 	0.6106	0.6882	0.3779	-0.218
Mof_C 	C 	0.6862	0.6706	0.3793	-0.216
Mof_C 	C 	0.9276	0.5074	0.365	-6.494
Mof_C 	C 	0.0105	0.4562	0.3844	12.903
Mof_F 	F 	0.0782	0.5066	0.3809	-1.043
Mof_F 	F 	0.0224	0.3969	0.3301	-46.311
Mof_F 	F 	0.0076	0.4191	0.4536	-0.197
Mof_C 	C 	0.0137	0.461	0.3462	4.695
Mof_F 	F 	0.0489	0.4499	0.4163	-5.207
Mof_F 	F 	0.0662	0.505	0.301	-0.741
Mof_F 	F 	0.999	0.3873	0.3134	41.899
Mof_N 	N 	0.3863	0.7464	0.4287	0.017
Mof_N 	N 	0.3891	0.7033	0.2966	-0.301
Mof_O 	O 	0.9339	0.5833	0.3571	1.477
Mof_O 	O 	0.8621	0.4646	0.3713	0.703
Mof_Ag	Ag	0.28107	0.797	0.51816	1.222
Mof_Ag	Ag	0.24131	0.95332	0.5974	0.482
Mof_Ag	Ag	0.31174	0.8157	0.68309	-0.194
Mof_Ag	Ag	0.19021	0.67569	0.64159	-1.905
Mof_C 	C 	0.0183	0.7977	0.629	-0.886
Mof_C 	C 	0.9741	0.8111	0.6966	0.253
Mof_H 	H 	0.004	0.8309	0.7395	-0.393
Mof_C 	C 	0.8499	0.7687	0.6405	0.663
Mof_H 	H 	0.7912	0.7584	0.6446	-0.191
Mof_C 	C 	0.9701	0.7675	0.5654	0.707
Mof_H 	H 	0.9978	0.7571	0.5185	-0.154
Mof_C 	C 	0.1106	0.8118	0.6221	0.04
Mof_C 	C 	0.1862	0.8294	0.6207	-0.314
Mof_C 	C 	0.4276	0.9926	0.635	-9.177
Mof_C 	C 	0.5105	0.0438	0.6156	18.048
Mof_F 	F 	0.5782	0.9934	0.6191	-1.292
Mof_F 	F 	0.5224	0.1031	0.6699	-65.073
Mof_F 	F 	0.5076	0.0809	0.5464	-0.208
Mof_C 	C 	0.5137	0.039	0.6538	6.206
Mof_F 	F 	0.5489	0.0501	0.5837	-7.144
Mof_F 	F 	0.5662	0.995	0.699	-0.841
Mof_F 	F 	0.499	0.1127	0.6866	59.12
Mof_N 	N 	0.8863	0.7536	0.5713	-0.074
Mof_N 	N 	0.8891	0.7967	0.7034	-0.335
Mof_O 	O 	0.4339	0.9167	0.6429	2.066
Mof_O 	O 	0.3621	0.0354	0.6287	1.073
Mof_Ag	Ag	0.21893	0.203	0.01816	0.567
Mof_Ag	Ag	0.25869	0.04668	0.0974	0.259
Mof_Ag	Ag	0.18826	0.1843	0.18309	0.473
Mof_Ag	Ag	0.30979	0.32431	0.14159	-3.269
Mof_C 	C 	0.4817	0.2023	0.129	-0.838
Mof_C 	C 	0.5259	0.1889	0.1966	-0.413
Mof_H 	H 	0.496	0.1691	0.2395	-0.388
Mof_C 	C 	0.6501	0.2313	0.1405	0.766
Mof_H 	H 	0.7088	0.2416	0.1446	-0.121
Mof_C 	C 	0.5299	0.2325	0.0654	0.627
Mof_H 	H 	0.5022	0.2429	0.0185	-0.269
Mof_C 	C 	0.3894	0.1882	0.1221	-0.235
Mof_C 	C 	0.3138	0.1706	0.1207	-0.188
Mof_C 	C 	0.0724	0.0074	0.135	-1.751
Mof_C 	C 	0.9895	0.9562	0.1156	4.331
Mof_F 	F 	0.9218	0.0066	0.1191	-0.665
Mof_F 	F 	0.9776	0.8969	0.1699	-14.992
Mof_F 	F 	0.9924	0.9191	0.0464	-0.251
Mof_C 	C 	0.9863	0.961	0.1538	2.044
Mof_F 	F 	0.9511	0.9499	0.0837	-1.918
Mof_F 	F 	0.9338	0.005	0.199	-0.619
Mof_F 	F 	0.001	0.8873	0.1866	13.179
Mof_N 	N 	0.6137	0.2464	0.0713	0.038
Mof_N 	N 	0.6109	0.2033	0.2034	-0.317
Mof_O 	O 	0.0661	0.0833	0.1429	0.276
Mof_O 	O 	0.1379	0.9646	0.1287	-0.128
Mof_Ag	Ag	0.28107	0.703	0.01816	1.02
Mof_Ag	Ag	0.24131	0.54668	0.0974	0.525
Mof_Ag	Ag	0.31174	0.6843	0.18309	-0.227
Mof_Ag	Ag	0.19021	0.82431	0.14159	-0.286
Mof_C 	C 	0.0183	0.7023	0.129	-0.364
Mof_C 	C 	0.9741	0.6889	0.1966	0.057
Mof_H 	H 	0.004	0.6691	0.2395	-0.17
Mof_C 	C 	0.8499	0.7313	0.1405	0.303
Mof_H 	H 	0.7912	0.7416	0.1446	-0.179
Mof_C 	C 	0.9701	0.7325	0.0654	0.265
Mof_H 	H 	0.9978	0.7429	0.0185	-0.138
Mof_C 	C 	0.1106	0.6882	0.1221	0.002
Mof_C 	C 	0.1862	0.6706	0.1207	-0.351
Mof_C 	C 	0.4276	0.5074	0.135	-10.079
Mof_C 	C 	0.5105	0.4562	0.1156	19.889
Mof_F 	F 	0.5782	0.5066	0.1191	-1.425
Mof_F 	F 	0.5224	0.3969	0.1699	-71.509
Mof_F 	F 	0.5076	0.4191	0.0464	-0.212
Mof_C 	C 	0.5137	0.461	0.1538	6.707
Mof_F 	F 	0.5489	0.4499	0.0837	-7.837
Mof_F 	F 	0.5662	0.505	0.199	-0.891
Mof_F 	F 	0.499	0.3873	0.1866	65.038
Mof_N 	N 	0.8863	0.7464	0.0713	-0.176
Mof_N 	N 	0.8891	0.7033	0.2034	-0.261
Mof_O 	O 	0.4339	0.5833	0.1429	2.309
Mof_O 	O 	0.3621	0.4646	0.1287	1.194
Mof_Ag	Ag	0.21893	0.297	0.51816	0.974
Mof_Ag	Ag	0.25869	0.45332	0.5974	0.219
Mof_Ag	Ag	0.18826	0.3157	0.68309	0.281
Mof_Ag	Ag	0.30979	0.17569	0.64159	-2.979
Mof_C 	C 	0.4817	0.2977	0.629	-0.788
Mof_C 	C 	0.5259	0.3111	0.6966	-0.374
Mof_H 	H 	0.496	0.3309	0.7395	-0.387
Mof_C 	C 	0.6501	0.2687	0.6405	0.708
Mof_H 	H 	0.7088	0.2584	0.6446	-0.042
Mof_C 	C 	0.5299	0.2675	0.5654	0.591
Mof_H 	H 	0.5022	0.2571	0.5185	-0.269
Mof_C 	C 	0.3894	0.3118	0.6221	-0.218
Mof_C 	C 	0.3138	0.3294	0.6207	-0.216
Mof_C 	C 	0.0724	0.4926	0.635	-6.494
Mof_C 	C 	0.9895	0.5438	0.6156	12.903
Mof_F 	F 	0.9218	0.4934	0.6191	-1.043
Mof_F 	F 	0.9776	0.6031	0.6699	-46.311
Mof_F 	F 	0.9924	0.5809	0.5464	-0.197
Mof_C 	C 	0.9863	0.539	0.6538	4.695
Mof_F 	F 	0.9511	0.5501	0.5837	-5.207
Mof_F 	F 	0.9338	0.495	0.699	-0.741
Mof_F 	F 	0.001	0.6127	0.6866	41.899
Mof_N 	N 	0.6137	0.2536	0.5713	0.017
Mof_N 	N 	0.6109	0.2967	0.7034	-0.301
Mof_O 	O 	0.0661	0.4167	0.6429	1.477
Mof_O 	O 	0.1379	0.5354	0.6287	0.703
Mof_Ag	Ag	0.71893	0.203	0.48184	1.222
Mof_Ag	Ag	0.75869	0.04668	0.4026	0.482
Mof_Ag	Ag	0.68826	0.1843	0.31691	-0.194
Mof_Ag	Ag	0.80979	0.32431	0.35841	-1.905
Mof_C 	C 	0.9817	0.2023	0.371	-0.886
Mof_C 	C 	0.0259	0.1889	0.3034	0.253
Mof_H 	H 	0.996	0.1691	0.2605	-0.393
Mof_C 	C 	0.1501	0.2313	0.3595	0.663
Mof_H 	H 	0.2088	0.2416	0.3554	-0.191
Mof_C 	C 	0.0299	0.2325	0.4346	0.707
Mof_H 	H 	0.0022	0.2429	0.4815	-0.154
Mof_C 	C 	0.8894	0.1882	0.3779	0.04
Mof_C 	C 	0.8138	0.1706	0.3793	-0.314
Mof_C 	C 	0.5724	0.0074	0.365	-9.177
Mof_C 	C 	0.4895	0.9562	0.3844	18.048
Mof_F 	F 	0.4218	0.0066	0.3809	-1.292
Mof_F 	F 	0.4776	0.8969	0.3301	-65.073
Mof_F 	F 	0.4924	0.9191	0.4536	-0.208
Mof_C 	C 	0.4863	0.961	0.3462	6.206
Mof_F 	F 	0.4511	0.9499	0.4163	-7.144
Mof_F 	F 	0.4338	0.005	0.301	-0.841
Mof_F 	F 	0.501	0.8873	0.3134	59.12
Mof_N 	N 	0.1137	0.2464	0.4287	-0.074
Mof_N 	N 	0.1109	0.2033	0.2966	-0.335
Mof_O 	O 	0.5661	0.0833	0.3571	2.066
Mof_O 	O 	0.6379	0.9646	0.3713	1.073
Mof_Ag	Ag	0.78107	0.797	0.98184	0.567
Mof_Ag	Ag	0.74131	0.95332	0.9026	0.259
Mof_Ag	Ag	0.81174	0.8157	0.81691	0.473
Mof_Ag	Ag	0.69021	0.67569	0.85841	-3.269
Mof_C 	C 	0.5183	0.7977	0.871	-0.838
Mof_C 	C 	0.4741	0.8111	0.8034	-0.413
Mof_H 	H 	0.504	0.8309	0.7605	-0.388
Mof_C 	C 	0.3499	0.7687	0.8595	0.766
Mof_H 	H 	0.2912	0.7584	0.8554	-0.121
Mof_C 	C 	0.4701	0.7675	0.9346	0.627
Mof_H 	H 	0.4978	0.7571	0.9815	-0.269
Mof_C 	C 	0.6106	0.8118	0.8779	-0.235
Mof_C 	C 	0.6862	0.8294	0.8793	-0.188
Mof_C 	C 	0.9276	0.9926	0.865	-1.751
Mof_C 	C 	0.0105	0.0438	0.8844	4.331
Mof_F 	F 	0.0782	0.9934	0.8809	-0.665
Mof_F 	F 	0.0224	0.1031	0.8301	-14.992
Mof_F 	F 	0.0076	0.0809	0.9536	-0.251
Mof_C 	C 	0.0137	0.039	0.8462	2.044
Mof_F 	F 	0.0489	0.0501	0.9163	-1.918
Mof_F 	F 	0.0662	0.995	0.801	-0.619
Mof_F 	F 	0.999	0.1127	0.8134	13.179
Mof_N 	N 	0.3863	0.7536	0.9287	0.038
Mof_N 	N 	0.3891	0.7967	0.7966	-0.317
Mof_O 	O 	0.9339	0.9167	0.8571	0.276
Mof_O 	O 	0.8621	0.0354	0.8713	-0.128
_end
