data_functionalizedCrystal
_audit_creation_method	'EQeq! by Chris Wilmer'
_symmetry_space_group_name_H-M	'P1'
_symmetry_Int_Tables_number	1
_symmetry_cell_setting	triclinic
loop_
_symmetry_equiv_pos_as_xyz
  x,y,z
_cell_length_a	29.5467
_cell_length_b	12.9685
_cell_length_c	14.2361
_cell_angle_alpha	90
_cell_angle_beta	94.61
_cell_angle_gamma	90
loop_
_atom_site_label
_atom_site_type_symbol
_atom_site_fract_x
_atom_site_fract_y
_atom_site_fract_z
_atom_site_charge
Mof_Eu	Eu	0.18659	0.70005	0.96755	2.102
Mof_C 	C 	0.1023	0.7447	0.0406	0.327
Mof_C 	C 	0.0573	0.7682	0.0776	-0.118
Mof_C 	C 	0.031	0.6894	0.1084	0.044
Mof_H 	H 	0.0428	0.6229	0.1131	0.018
Mof_C 	C 	0.9869	0.7075	0.1328	-0.135
Mof_H 	H 	0.9688	0.6532	0.1505	0.068
Mof_C 	C 	0.9702	0.8072	0.1302	0.079
Mof_C 	C 	0.9975	0.8873	0.102	-0.131
Mof_H 	H 	0.9865	0.9546	0.1006	0.081
Mof_C 	C 	0.0406	0.8674	0.0762	0.048
Mof_H 	H 	0.0586	0.9214	0.0576	0.025
Mof_C 	C 	0.9229	0.8233	0.1507	-0.018
Mof_C 	C 	0.7548	0.0656	0.0651	0.435
Mof_C 	C 	0.78444	0.9939	0.1245	-0.154
Mof_C 	C 	0.8305	0.9882	0.112	-0.024
Mof_H 	H 	0.8432	0.0308	0.0687	0.039
Mof_C 	C 	0.8573	0.9184	0.1648	0.04
Mof_C 	C 	0.8383	0.8596	0.2332	-0.011
Mof_H 	H 	0.8564	0.8139	0.2699	0.049
Mof_C 	C 	0.79241	0.8683	0.2473	-0.158
Mof_C 	C 	0.7654	0.9345	0.1916	0.082
Mof_H 	H 	0.7345	0.9391	0.1992	0.008
Mof_C 	C 	0.7727	0.8089	0.3251	0.497
Mof_N 	N 	0.90395	0.9119	0.1479	-0.113
Mof_O 	O 	0.12504	0.8168	0.0087	-0.453
Mof_O 	O 	0.11669	0.6532	0.0431	-0.454
Mof_O 	O 	0.71319	0.0449	0.0503	-0.491
Mof_O 	O 	0.77096	0.1461	0.0296	-0.629
Mof_O 	O 	0.79815	0.746	0.3701	-0.513
Mof_O 	O 	0.73256	0.8288	0.3408	-0.575
Mof_H 	H 	0.911	0.756	0.163	0.033
Mof_Eu	Eu	0.68659	0.20005	0.96755	2.1
Mof_C 	C 	0.6023	0.2447	0.0406	0.327
Mof_C 	C 	0.5573	0.2682	0.0776	-0.115
Mof_C 	C 	0.531	0.1894	0.1084	0.042
Mof_H 	H 	0.5428	0.1229	0.1131	0.019
Mof_C 	C 	0.4869	0.2075	0.1328	-0.132
Mof_H 	H 	0.4688	0.1532	0.1505	0.067
Mof_C 	C 	0.4702	0.3072	0.1302	0.077
Mof_C 	C 	0.4975	0.3873	0.102	-0.128
Mof_H 	H 	0.4865	0.4546	0.1006	0.08
Mof_C 	C 	0.5406	0.3674	0.0762	0.045
Mof_H 	H 	0.5586	0.4214	0.0576	0.026
Mof_C 	C 	0.4229	0.3233	0.1507	-0.017
Mof_C 	C 	0.2548	0.5656	0.0651	0.434
Mof_C 	C 	0.28444	0.4939	0.1245	-0.153
Mof_C 	C 	0.3305	0.4882	0.112	-0.021
Mof_H 	H 	0.3432	0.5308	0.0687	0.037
Mof_C 	C 	0.3573	0.4184	0.1648	0.04
Mof_C 	C 	0.3383	0.3596	0.2332	-0.011
Mof_H 	H 	0.3564	0.3139	0.2699	0.049
Mof_C 	C 	0.29241	0.3683	0.2473	-0.158
Mof_C 	C 	0.2654	0.4345	0.1916	0.082
Mof_H 	H 	0.2345	0.4391	0.1992	0.008
Mof_C 	C 	0.2727	0.3089	0.3251	0.497
Mof_N 	N 	0.40395	0.4119	0.1479	-0.113
Mof_O 	O 	0.62504	0.3168	0.0087	-0.452
Mof_O 	O 	0.61669	0.1532	0.0431	-0.453
Mof_O 	O 	0.21319	0.5449	0.0503	-0.492
Mof_O 	O 	0.27096	0.6461	0.0296	-0.629
Mof_O 	O 	0.29815	0.246	0.3701	-0.513
Mof_O 	O 	0.23256	0.3288	0.3408	-0.575
Mof_H 	H 	0.411	0.256	0.163	0.033
Mof_Eu	Eu	0.81341	0.70005	0.53245	2.102
Mof_C 	C 	0.8977	0.7447	0.4594	0.327
Mof_C 	C 	0.9427	0.7682	0.4224	-0.114
Mof_C 	C 	0.969	0.6894	0.3916	0.041
Mof_H 	H 	0.9572	0.6229	0.3869	0.019
Mof_C 	C 	0.0131	0.7075	0.3672	-0.132
Mof_H 	H 	0.0312	0.6532	0.3495	0.067
Mof_C 	C 	0.0298	0.8072	0.3698	0.077
Mof_C 	C 	0.0025	0.8873	0.398	-0.128
Mof_H 	H 	0.0135	0.9546	0.3994	0.08
Mof_C 	C 	0.9594	0.8674	0.4238	0.044
Mof_H 	H 	0.9414	0.9214	0.4424	0.026
Mof_C 	C 	0.0771	0.8233	0.3493	-0.017
Mof_C 	C 	0.2452	0.0656	0.4349	0.434
Mof_C 	C 	0.21556	0.9939	0.3755	-0.154
Mof_C 	C 	0.1695	0.9882	0.388	-0.021
Mof_H 	H 	0.1568	0.0308	0.4313	0.037
Mof_C 	C 	0.1427	0.9184	0.3352	0.04
Mof_C 	C 	0.1617	0.8596	0.2668	-0.011
Mof_H 	H 	0.1436	0.8139	0.2301	0.049
Mof_C 	C 	0.20759	0.8683	0.2527	-0.159
Mof_C 	C 	0.2346	0.9345	0.3084	0.082
Mof_H 	H 	0.2655	0.9391	0.3008	0.008
Mof_C 	C 	0.2273	0.8089	0.1749	0.497
Mof_N 	N 	0.09605	0.9119	0.3521	-0.113
Mof_O 	O 	0.87496	0.8168	0.4913	-0.453
Mof_O 	O 	0.88331	0.6532	0.4569	-0.454
Mof_O 	O 	0.28681	0.0449	0.4497	-0.492
Mof_O 	O 	0.22904	0.1461	0.4704	-0.629
Mof_O 	O 	0.20185	0.746	0.1299	-0.513
Mof_O 	O 	0.26744	0.8288	0.1592	-0.575
Mof_H 	H 	0.089	0.756	0.337	0.033
Mof_Eu	Eu	0.31341	0.20005	0.53245	2.102
Mof_C 	C 	0.3977	0.2447	0.4594	0.327
Mof_C 	C 	0.4427	0.2682	0.4224	-0.115
Mof_C 	C 	0.469	0.1894	0.3916	0.042
Mof_H 	H 	0.4572	0.1229	0.3869	0.019
Mof_C 	C 	0.5131	0.2075	0.3672	-0.132
Mof_H 	H 	0.5312	0.1532	0.3495	0.067
Mof_C 	C 	0.5298	0.3072	0.3698	0.077
Mof_C 	C 	0.5025	0.3873	0.398	-0.128
Mof_H 	H 	0.5135	0.4546	0.3994	0.08
Mof_C 	C 	0.4594	0.3674	0.4238	0.045
Mof_H 	H 	0.4414	0.4214	0.4424	0.026
Mof_C 	C 	0.5771	0.3233	0.3493	-0.017
Mof_C 	C 	0.7452	0.5656	0.4349	0.434
Mof_C 	C 	0.71556	0.4939	0.3755	-0.153
Mof_C 	C 	0.6695	0.4882	0.388	-0.021
Mof_H 	H 	0.6568	0.5308	0.4313	0.037
Mof_C 	C 	0.6427	0.4184	0.3352	0.04
Mof_C 	C 	0.6617	0.3596	0.2668	-0.011
Mof_H 	H 	0.6436	0.3139	0.2301	0.049
Mof_C 	C 	0.70759	0.3683	0.2527	-0.158
Mof_C 	C 	0.7346	0.4345	0.3084	0.082
Mof_H 	H 	0.7655	0.4391	0.3008	0.008
Mof_C 	C 	0.7273	0.3089	0.1749	0.497
Mof_N 	N 	0.59605	0.4119	0.3521	-0.113
Mof_O 	O 	0.37496	0.3168	0.4913	-0.453
Mof_O 	O 	0.38331	0.1532	0.4569	-0.454
Mof_O 	O 	0.78681	0.5449	0.4497	-0.492
Mof_O 	O 	0.72904	0.6461	0.4704	-0.629
Mof_O 	O 	0.70185	0.246	0.1299	-0.513
Mof_O 	O 	0.76744	0.3288	0.1592	-0.575
Mof_H 	H 	0.589	0.256	0.337	0.033
Mof_Eu	Eu	0.81341	0.29995	0.03245	2.103
Mof_C 	C 	0.8977	0.2553	0.9594	0.328
Mof_C 	C 	0.9427	0.2318	0.9224	-0.117
Mof_C 	C 	0.969	0.3106	0.8916	0.045
Mof_H 	H 	0.9572	0.3771	0.8869	0.018
Mof_C 	C 	0.0131	0.2925	0.8672	-0.135
Mof_H 	H 	0.0312	0.3468	0.8495	0.068
Mof_C 	C 	0.0298	0.1928	0.8698	0.079
Mof_C 	C 	0.0025	0.1127	0.898	-0.131
Mof_H 	H 	0.0135	0.0454	0.8994	0.081
Mof_C 	C 	0.9594	0.1326	0.9238	0.048
Mof_H 	H 	0.9414	0.0786	0.9424	0.025
Mof_C 	C 	0.0771	0.1767	0.8493	-0.018
Mof_C 	C 	0.2452	0.9344	0.9349	0.435
Mof_C 	C 	0.21556	0.0061	0.8755	-0.154
Mof_C 	C 	0.1695	0.0118	0.888	-0.024
Mof_H 	H 	0.1568	0.9692	0.9313	0.039
Mof_C 	C 	0.1427	0.0816	0.8352	0.04
Mof_C 	C 	0.1617	0.1404	0.7668	-0.011
Mof_H 	H 	0.1436	0.1861	0.7301	0.049
Mof_C 	C 	0.20759	0.1317	0.7527	-0.158
Mof_C 	C 	0.2346	0.0655	0.8084	0.082
Mof_H 	H 	0.2655	0.0609	0.8008	0.008
Mof_C 	C 	0.2273	0.1911	0.6749	0.497
Mof_N 	N 	0.09605	0.0881	0.8521	-0.113
Mof_O 	O 	0.87496	0.1832	0.9913	-0.453
Mof_O 	O 	0.88331	0.3468	0.9569	-0.454
Mof_O 	O 	0.28681	0.9551	0.9497	-0.491
Mof_O 	O 	0.22904	0.8539	0.9704	-0.629
Mof_O 	O 	0.20185	0.254	0.6299	-0.513
Mof_O 	O 	0.26744	0.1712	0.6592	-0.575
Mof_H 	H 	0.089	0.244	0.837	0.033
Mof_Eu	Eu	0.31341	0.79995	0.03245	2.1
Mof_C 	C 	0.3977	0.7553	0.9594	0.327
Mof_C 	C 	0.4427	0.7318	0.9224	-0.115
Mof_C 	C 	0.469	0.8106	0.8916	0.042
Mof_H 	H 	0.4572	0.8771	0.8869	0.019
Mof_C 	C 	0.5131	0.7925	0.8672	-0.132
Mof_H 	H 	0.5312	0.8468	0.8495	0.067
Mof_C 	C 	0.5298	0.6928	0.8698	0.077
Mof_C 	C 	0.5025	0.6127	0.898	-0.128
Mof_H 	H 	0.5135	0.5454	0.8994	0.08
Mof_C 	C 	0.4594	0.6326	0.9238	0.045
Mof_H 	H 	0.4414	0.5786	0.9424	0.026
Mof_C 	C 	0.5771	0.6767	0.8493	-0.017
Mof_C 	C 	0.7452	0.4344	0.9349	0.434
Mof_C 	C 	0.71556	0.5061	0.8755	-0.153
Mof_C 	C 	0.6695	0.5118	0.888	-0.021
Mof_H 	H 	0.6568	0.4692	0.9313	0.037
Mof_C 	C 	0.6427	0.5816	0.8352	0.04
Mof_C 	C 	0.6617	0.6404	0.7668	-0.011
Mof_H 	H 	0.6436	0.6861	0.7301	0.049
Mof_C 	C 	0.70759	0.6317	0.7527	-0.158
Mof_C 	C 	0.7346	0.5655	0.8084	0.082
Mof_H 	H 	0.7655	0.5609	0.8008	0.008
Mof_C 	C 	0.7273	0.6911	0.6749	0.497
Mof_N 	N 	0.59605	0.5881	0.8521	-0.113
Mof_O 	O 	0.37496	0.6832	0.9913	-0.452
Mof_O 	O 	0.38331	0.8468	0.9569	-0.453
Mof_O 	O 	0.78681	0.4551	0.9497	-0.492
Mof_O 	O 	0.72904	0.3539	0.9704	-0.629
Mof_O 	O 	0.70185	0.754	0.6299	-0.513
Mof_O 	O 	0.76744	0.6712	0.6592	-0.575
Mof_H 	H 	0.589	0.744	0.837	0.033
Mof_Eu	Eu	0.18659	0.29995	0.46755	2.102
Mof_C 	C 	0.1023	0.2553	0.5406	0.327
Mof_C 	C 	0.0573	0.2318	0.5776	-0.114
Mof_C 	C 	0.031	0.3106	0.6084	0.041
Mof_H 	H 	0.0428	0.3771	0.6131	0.019
Mof_C 	C 	0.9869	0.2925	0.6328	-0.132
Mof_H 	H 	0.9688	0.3468	0.6505	0.067
Mof_C 	C 	0.9702	0.1928	0.6302	0.077
Mof_C 	C 	0.9975	0.1127	0.602	-0.128
Mof_H 	H 	0.9865	0.0454	0.6006	0.08
Mof_C 	C 	0.0406	0.1326	0.5762	0.044
Mof_H 	H 	0.0586	0.0786	0.5576	0.026
Mof_C 	C 	0.9229	0.1767	0.6507	-0.017
Mof_C 	C 	0.7548	0.9344	0.5651	0.434
Mof_C 	C 	0.78444	0.0061	0.6245	-0.154
Mof_C 	C 	0.8305	0.0118	0.612	-0.021
Mof_H 	H 	0.8432	0.9692	0.5687	0.037
Mof_C 	C 	0.8573	0.0816	0.6648	0.04
Mof_C 	C 	0.8383	0.1404	0.7332	-0.011
Mof_H 	H 	0.8564	0.1861	0.7699	0.049
Mof_C 	C 	0.79241	0.1317	0.7473	-0.159
Mof_C 	C 	0.7654	0.0655	0.6916	0.082
Mof_H 	H 	0.7345	0.0609	0.6992	0.008
Mof_C 	C 	0.7727	0.1911	0.8251	0.497
Mof_N 	N 	0.90395	0.0881	0.6479	-0.113
Mof_O 	O 	0.12504	0.1832	0.5087	-0.453
Mof_O 	O 	0.11669	0.3468	0.5431	-0.454
Mof_O 	O 	0.71319	0.9551	0.5503	-0.492
Mof_O 	O 	0.77096	0.8539	0.5296	-0.629
Mof_O 	O 	0.79815	0.254	0.8701	-0.513
Mof_O 	O 	0.73256	0.1712	0.8408	-0.575
Mof_H 	H 	0.911	0.244	0.663	0.033
Mof_Eu	Eu	0.68659	0.79995	0.46755	2.102
Mof_C 	C 	0.6023	0.7553	0.5406	0.327
Mof_C 	C 	0.5573	0.7318	0.5776	-0.115
Mof_C 	C 	0.531	0.8106	0.6084	0.042
Mof_H 	H 	0.5428	0.8771	0.6131	0.019
Mof_C 	C 	0.4869	0.7925	0.6328	-0.132
Mof_H 	H 	0.4688	0.8468	0.6505	0.067
Mof_C 	C 	0.4702	0.6928	0.6302	0.077
Mof_C 	C 	0.4975	0.6127	0.602	-0.128
Mof_H 	H 	0.4865	0.5454	0.6006	0.08
Mof_C 	C 	0.5406	0.6326	0.5762	0.045
Mof_H 	H 	0.5586	0.5786	0.5576	0.026
Mof_C 	C 	0.4229	0.6767	0.6507	-0.017
Mof_C 	C 	0.2548	0.4344	0.5651	0.434
Mof_C 	C 	0.28444	0.5061	0.6245	-0.153
Mof_C 	C 	0.3305	0.5118	0.612	-0.021
Mof_H 	H 	0.3432	0.4692	0.5687	0.037
Mof_C 	C 	0.3573	0.5816	0.6648	0.04
Mof_C 	C 	0.3383	0.6404	0.7332	-0.011
Mof_H 	H 	0.3564	0.6861	0.7699	0.049
Mof_C 	C 	0.29241	0.6317	0.7473	-0.158
Mof_C 	C 	0.2654	0.5655	0.6916	0.082
Mof_H 	H 	0.2345	0.5609	0.6992	0.008
Mof_C 	C 	0.2727	0.6911	0.8251	0.497
Mof_N 	N 	0.40395	0.5881	0.6479	-0.113
Mof_O 	O 	0.62504	0.6832	0.5087	-0.453
Mof_O 	O 	0.61669	0.8468	0.5431	-0.454
Mof_O 	O 	0.21319	0.4551	0.5503	-0.492
Mof_O 	O 	0.27096	0.3539	0.5296	-0.629
Mof_O 	O 	0.29815	0.754	0.8701	-0.513
Mof_O 	O 	0.23256	0.6712	0.8408	-0.575
Mof_H 	H 	0.411	0.744	0.663	0.033
_end
