# CIF file generated by openbabel 3.1.0, see https://openbabel.org
data_I
_chemical_name_common 'image0'
_cell_length_a 9.8139
_cell_length_b 23.6796
_cell_length_c 21.3151
_cell_angle_alpha 90
_cell_angle_beta 98.069
_cell_angle_gamma 90
_space_group_name_H-M_alt 'P 1'
_space_group_name_Hall 'P 1'
loop_
    _symmetry_equiv_pos_as_xyz
    x,y,z
loop_
    _atom_site_label
    _atom_site_type_symbol
    _atom_site_fract_x
    _atom_site_fract_y
    _atom_site_fract_z
    _atom_site_occupancy
    Cu1      Cu       0.46604    0.01485    0.89772    1.000
    O1       O        0.59940    0.96492    0.94648    1.000
    N1       N        0.67110    0.01214    0.69721    1.000
    C1       C        0.61770    0.96440    0.67000    1.000
    H1       H        0.57760    0.93880    0.69490    1.000
    O2       O        0.31270    0.96657    0.91142    1.000
    H2       H        0.31560    0.93340    0.92700    1.000
    H3       H        0.36240    0.96520    0.88190    1.000
    Cu2      Cu       0.62304    0.13650    0.91205    1.000
    O3       O        0.47510    0.90335    0.99447    1.000
    N2       N        0.87810    0.71766    0.55560    1.000
    C2       C        0.61910    0.95160    0.60730    1.000
    H4       H        0.58090    0.91790    0.59060    1.000
    Cu3      Cu       0.65442    0.03480    0.78833    1.000
    N3       N        0.75310    0.00104    0.46602    1.000
    H5       H        0.80810    0.02600    0.48480    1.000
    C3       C        0.67750    0.98880    0.56910    1.000
    O4       O        0.69620    0.71220    0.99250    1.000
    N4       N        0.85720    0.89604    0.42200    1.000
    H6       H        0.79710    0.87230    0.40470    1.000
    C4       C        0.73100    0.03830    0.59650    1.000
    H7       H        0.76930    0.06510    0.57230    1.000
    O5       O        0.91130    0.70552    0.02650    1.000
    O6       O        0.19850    0.86812    0.03859    1.000
    N5       N        0.80810    0.73297    0.00880    1.000
    C5       C        0.72740    0.04770    0.65960    1.000
    H8       H        0.76650    0.08080    0.67740    1.000
    O7       O        0.11430    0.95427    0.04956    1.000
    N6       N        0.10430    0.30656    0.82810    1.000
    C6       C        0.66870    0.97380    0.49980    1.000
    O8       O        0.32590    0.06901    0.86252    1.000
    C7       C        0.75600    0.99030    0.39850    1.000
    H9       H        0.66850    0.97290    0.38070    1.000
    O9       O        0.44200    0.15110    0.86674    1.000
    C8       C        0.77220    0.04560    0.36360    1.000
    H10      H        0.69450    0.07000    0.36770    1.000
    H11      H        0.85520    0.06460    0.38280    1.000
    C9       C        0.78030    0.03540    0.29360    1.000
    H12      H        0.69390    0.01970    0.27340    1.000
    H13      H        0.79490    0.07110    0.27320    1.000
    O10      O        0.21960    0.32679    0.83090    1.000
    O11      O        0.99980    0.33446    0.82390    1.000
    C10      C        0.89670    0.99520    0.28520    1.000
    H14      H        0.98390    0.01240    0.30190    1.000
    H15      H        0.89710    0.98810    0.24040    1.000
    O12      O        0.71280    0.16408    0.81275    1.000
    C11      C        0.88050    0.93940    0.31930    1.000
    H16      H        0.79730    0.92050    0.30000    1.000
    H17      H        0.95810    0.91500    0.31500    1.000
    O13      O        0.81450    0.08303    0.79305    1.000
    C12      C        0.87290    0.94958    0.38940    1.000
    H18      H        0.95980    0.96680    0.40830    1.000
    C13      C        0.93140    0.88240    0.47690    1.000
    C14      C        0.90190    0.82547    0.50480    1.000
    C15      C        0.94770    0.81390    0.56730    1.000
    H19      H        0.98880    0.84210    0.59390    1.000
    C16      C        0.93240    0.76040    0.59020    1.000
    H20      H        0.96230    0.75380    0.63290    1.000
    C17      C        0.82820    0.72910    0.49550    1.000
    H21      H        0.78570    0.70010    0.47050    1.000
    C18      C        0.83620    0.78180    0.46840    1.000
    H22      H        0.79840    0.78810    0.42640    1.000
    O14      O        0.58600    0.93767    0.47728    1.000
    C19      C        0.58410    0.92000    0.97670    1.000
    O15      O        0.02250    0.91171    0.50511    1.000
    C20      C        0.71280    0.88506    0.99220    1.000
    O16      O        0.62580    0.05804    0.87875    1.000
    C21      C        0.84210    0.91037    0.00220    1.000
    H23      H        0.84970    0.94940    0.99880    1.000
    C22      C        0.96020    0.87763    0.01710    1.000
    C23      C        0.94820    0.81920    0.01790    1.000
    H24      H        0.02640    0.79660    0.02550    1.000
    C24      C        0.82020    0.79500    0.00720    1.000
    C25      C        0.70130    0.82654    0.99580    1.000
    H25      H        0.61550    0.80920    0.99050    1.000
    C26      C        0.10090    0.90390    0.03610    1.000
    C27      C        0.33390    0.12170    0.85690    1.000
    C28      C        0.20360    0.15494    0.83890    1.000
    C29      C        0.21170    0.21338    0.83750    1.000
    H26      H        0.29700    0.23120    0.84320    1.000
    C30      C        0.09240    0.24474    0.82770    1.000
    C31      C        0.96460    0.22028    0.81900    1.000
    H27      H        0.88550    0.24230    0.81400    1.000
    C32      C        0.95630    0.16202    0.81790    1.000
    C33      C        0.07530    0.12946    0.82770    1.000
    H28      H        0.06880    0.09030    0.82670    1.000
    C34      C        0.81580    0.13480    0.80690    1.000
    Cu4      Cu       0.03396    0.51485    0.60228    1.000
    O17      O        0.90060    0.46492    0.55352    1.000
    N7       N        0.82890    0.51214    0.80279    1.000
    C35      C        0.88230    0.46440    0.83000    1.000
    H29      H        0.92240    0.43880    0.80510    1.000
    O18      O        0.18730    0.46657    0.58858    1.000
    H30      H        0.18440    0.43340    0.57300    1.000
    H31      H        0.13760    0.46520    0.61810    1.000
    Cu5      Cu       0.87696    0.63650    0.58795    1.000
    O19      O        0.02490    0.40335    0.50553    1.000
    N8       N        0.62190    0.21766    0.94440    1.000
    C36      C        0.88090    0.45160    0.89270    1.000
    H32      H        0.91910    0.41790    0.90940    1.000
    Cu6      Cu       0.84558    0.53480    0.71167    1.000
    N9       N        0.74690    0.50104    0.03398    1.000
    H33      H        0.69190    0.52600    0.01520    1.000
    C37      C        0.82250    0.48880    0.93090    1.000
    O20      O        0.80380    0.21220    0.50750    1.000
    N10      N        0.64280    0.39604    0.07800    1.000
    H34      H        0.70290    0.37230    0.09530    1.000
    C38      C        0.76900    0.53830    0.90350    1.000
    H35      H        0.73070    0.56510    0.92770    1.000
    O21      O        0.58870    0.20552    0.47350    1.000
    O22      O        0.30150    0.36812    0.46141    1.000
    N11      N        0.69190    0.23297    0.49120    1.000
    C39      C        0.77260    0.54770    0.84040    1.000
    H36      H        0.73350    0.58080    0.82260    1.000
    O23      O        0.38570    0.45427    0.45044    1.000
    N12      N        0.39570    0.80656    0.67190    1.000
    C40      C        0.83130    0.47380    0.00020    1.000
    O24      O        0.17410    0.56901    0.63748    1.000
    C41      C        0.74400    0.49030    0.10150    1.000
    H37      H        0.83150    0.47290    0.11930    1.000
    O25      O        0.05800    0.65110    0.63326    1.000
    C42      C        0.72780    0.54560    0.13640    1.000
    H38      H        0.80550    0.57000    0.13230    1.000
    H39      H        0.64480    0.56460    0.11720    1.000
    C43      C        0.71970    0.53540    0.20640    1.000
    H40      H        0.80610    0.51970    0.22660    1.000
    H41      H        0.70510    0.57110    0.22680    1.000
    O26      O        0.28040    0.82679    0.66910    1.000
    O27      O        0.50020    0.83446    0.67610    1.000
    C44      C        0.60330    0.49520    0.21480    1.000
    H42      H        0.51610    0.51240    0.19810    1.000
    H43      H        0.60290    0.48810    0.25960    1.000
    O28      O        0.78720    0.66408    0.68725    1.000
    C45      C        0.61950    0.43940    0.18070    1.000
    H44      H        0.70270    0.42050    0.20000    1.000
    H45      H        0.54190    0.41500    0.18500    1.000
    O29      O        0.68550    0.58303    0.70695    1.000
    C46      C        0.62710    0.44958    0.11060    1.000
    H46      H        0.54020    0.46680    0.09170    1.000
    C47      C        0.56860    0.38240    0.02310    1.000
    C48      C        0.59810    0.32547    0.99520    1.000
    C49      C        0.55230    0.31390    0.93270    1.000
    H47      H        0.51120    0.34210    0.90610    1.000
    C50      C        0.56760    0.26040    0.90980    1.000
    H48      H        0.53770    0.25380    0.86710    1.000
    C51      C        0.67180    0.22910    0.00450    1.000
    H49      H        0.71430    0.20010    0.02950    1.000
    C52      C        0.66380    0.28180    0.03160    1.000
    H50      H        0.70160    0.28810    0.07360    1.000
    O30      O        0.91400    0.43767    0.02272    1.000
    C53      C        0.91590    0.42000    0.52330    1.000
    O31      O        0.47750    0.41171    0.99489    1.000
    C54      C        0.78720    0.38506    0.50780    1.000
    O32      O        0.87420    0.55804    0.62125    1.000
    C55      C        0.65790    0.41037    0.49780    1.000
    H51      H        0.65030    0.44940    0.50120    1.000
    C56      C        0.53980    0.37763    0.48290    1.000
    C57      C        0.55180    0.31920    0.48210    1.000
    H52      H        0.47360    0.29660    0.47450    1.000
    C58      C        0.67980    0.29500    0.49280    1.000
    C59      C        0.79870    0.32654    0.50420    1.000
    H53      H        0.88450    0.30920    0.50950    1.000
    C60      C        0.39910    0.40390    0.46390    1.000
    C61      C        0.16610    0.62170    0.64310    1.000
    C62      C        0.29640    0.65494    0.66110    1.000
    C63      C        0.28830    0.71338    0.66250    1.000
    H54      H        0.20300    0.73120    0.65680    1.000
    C64      C        0.40760    0.74474    0.67230    1.000
    C65      C        0.53540    0.72028    0.68100    1.000
    H55      H        0.61450    0.74230    0.68600    1.000
    C66      C        0.54370    0.66202    0.68210    1.000
    C67      C        0.42470    0.62946    0.67230    1.000
    H56      H        0.43120    0.59030    0.67330    1.000
    C68      C        0.68420    0.63480    0.69310    1.000
    Cu7      Cu       0.53396    0.98515    0.10228    1.000
    O33      O        0.40060    0.03508    0.05352    1.000
    N13      N        0.32890    0.98786    0.30279    1.000
    C69      C        0.38230    0.03560    0.33000    1.000
    H57      H        0.42240    0.06120    0.30510    1.000
    O34      O        0.68730    0.03343    0.08858    1.000
    H58      H        0.68440    0.06660    0.07300    1.000
    H59      H        0.63760    0.03480    0.11810    1.000
    Cu8      Cu       0.37696    0.86350    0.08795    1.000
    O35      O        0.52490    0.09665    0.00553    1.000
    N14      N        0.12190    0.28234    0.44440    1.000
    C70      C        0.38090    0.04840    0.39270    1.000
    H60      H        0.41910    0.08210    0.40940    1.000
    Cu9      Cu       0.34558    0.96520    0.21167    1.000
    N15      N        0.24690    0.99896    0.53398    1.000
    H61      H        0.19190    0.97400    0.51520    1.000
    C71      C        0.32250    0.01120    0.43090    1.000
    O36      O        0.30380    0.28780    0.00750    1.000
    N16      N        0.14280    0.10396    0.57800    1.000
    H62      H        0.20290    0.12770    0.59530    1.000
    C72      C        0.26900    0.96170    0.40350    1.000
    H63      H        0.23070    0.93490    0.42770    1.000
    O37      O        0.08870    0.29448    0.97350    1.000
    O38      O        0.80150    0.13188    0.96141    1.000
    N17      N        0.19190    0.26703    0.99120    1.000
    C73      C        0.27260    0.95230    0.34040    1.000
    H64      H        0.23350    0.91920    0.32260    1.000
    O39      O        0.88570    0.04573    0.95044    1.000
    N18      N        0.89570    0.69344    0.17190    1.000
    C74      C        0.33130    0.02620    0.50020    1.000
    O40      O        0.67410    0.93099    0.13748    1.000
    C75      C        0.24400    0.00970    0.60150    1.000
    H65      H        0.33150    0.02710    0.61930    1.000
    O41      O        0.55800    0.84890    0.13326    1.000
    C76      C        0.22780    0.95440    0.63640    1.000
    H66      H        0.30550    0.93000    0.63230    1.000
    H67      H        0.14480    0.93540    0.61720    1.000
    C77      C        0.21970    0.96460    0.70640    1.000
    H68      H        0.30610    0.98030    0.72660    1.000
    H69      H        0.20510    0.92890    0.72680    1.000
    O42      O        0.78040    0.67321    0.16910    1.000
    O43      O        0.00020    0.66554    0.17610    1.000
    C78      C        0.10330    0.00480    0.71480    1.000
    H70      H        0.01610    0.98760    0.69810    1.000
    H71      H        0.10290    0.01190    0.75960    1.000
    O44      O        0.28720    0.83592    0.18725    1.000
    C79      C        0.11950    0.06060    0.68070    1.000
    H72      H        0.20270    0.07950    0.70000    1.000
    H73      H        0.04190    0.08500    0.68500    1.000
    O45      O        0.18550    0.91697    0.20695    1.000
    C80      C        0.12710    0.05042    0.61060    1.000
    H74      H        0.04020    0.03320    0.59170    1.000
    C81      C        0.06860    0.11760    0.52310    1.000
    C82      C        0.09810    0.17453    0.49520    1.000
    C83      C        0.05230    0.18610    0.43270    1.000
    H75      H        0.01120    0.15790    0.40610    1.000
    C84      C        0.06760    0.23960    0.40980    1.000
    H76      H        0.03770    0.24620    0.36710    1.000
    C85      C        0.17180    0.27090    0.50450    1.000
    H77      H        0.21430    0.29990    0.52950    1.000
    C86      C        0.16380    0.21820    0.53160    1.000
    H78      H        0.20160    0.21190    0.57360    1.000
    O46      O        0.41400    0.06233    0.52272    1.000
    C87      C        0.41590    0.08000    0.02330    1.000
    O47      O        0.97750    0.08829    0.49489    1.000
    C88      C        0.28720    0.11494    0.00780    1.000
    O48      O        0.37420    0.94196    0.12125    1.000
    C89      C        0.15790    0.08963    0.99780    1.000
    H79      H        0.15030    0.05060    0.00120    1.000
    C90      C        0.03980    0.12237    0.98290    1.000
    C91      C        0.05180    0.18080    0.98210    1.000
    H80      H        0.97360    0.20340    0.97450    1.000
    C92      C        0.17980    0.20500    0.99280    1.000
    C93      C        0.29870    0.17346    0.00420    1.000
    H81      H        0.38450    0.19080    0.00950    1.000
    C94      C        0.89910    0.09610    0.96390    1.000
    C95      C        0.66610    0.87830    0.14310    1.000
    C96      C        0.79640    0.84506    0.16110    1.000
    C97      C        0.78830    0.78662    0.16250    1.000
    H82      H        0.70300    0.76880    0.15680    1.000
    C98      C        0.90760    0.75526    0.17230    1.000
    C99      C        0.03540    0.77972    0.18100    1.000
    H83      H        0.11450    0.75770    0.18600    1.000
    C100     C        0.04370    0.83798    0.18210    1.000
    C101     C        0.92470    0.87054    0.17230    1.000
    H84      H        0.93120    0.90970    0.17330    1.000
    C102     C        0.18420    0.86520    0.19310    1.000
    Cu10     Cu       0.96604    0.48515    0.39772    1.000
    O49      O        0.09940    0.53508    0.44648    1.000
    N19      N        0.17110    0.48786    0.19721    1.000
    C103     C        0.11770    0.53560    0.17000    1.000
    H85      H        0.07760    0.56120    0.19490    1.000
    O50      O        0.81270    0.53343    0.41142    1.000
    H86      H        0.81560    0.56660    0.42700    1.000
    H87      H        0.86240    0.53480    0.38190    1.000
    Cu11     Cu       0.12304    0.36350    0.41205    1.000
    O51      O        0.97510    0.59665    0.49447    1.000
    N20      N        0.37810    0.78234    0.05560    1.000
    C104     C        0.11910    0.54840    0.10730    1.000
    H88      H        0.08090    0.58210    0.09060    1.000
    Cu12     Cu       0.15442    0.46520    0.28833    1.000
    N21      N        0.25310    0.49896    0.96602    1.000
    H89      H        0.30810    0.47400    0.98480    1.000
    C105     C        0.17750    0.51120    0.06910    1.000
    O52      O        0.19620    0.78780    0.49250    1.000
    N22      N        0.35720    0.60396    0.92200    1.000
    H90      H        0.29710    0.62770    0.90470    1.000
    C106     C        0.23100    0.46170    0.09650    1.000
    H91      H        0.26930    0.43490    0.07230    1.000
    O53      O        0.41130    0.79448    0.52650    1.000
    O54      O        0.69850    0.63188    0.53859    1.000
    N23      N        0.30810    0.76703    0.50880    1.000
    C107     C        0.22740    0.45230    0.15960    1.000
    H92      H        0.26650    0.41920    0.17740    1.000
    O55      O        0.61430    0.54573    0.54956    1.000
    N24      N        0.60430    0.19344    0.32810    1.000
    C108     C        0.16870    0.52620    0.99980    1.000
    O56      O        0.82590    0.43099    0.36252    1.000
    C109     C        0.25600    0.50970    0.89850    1.000
    H93      H        0.16850    0.52710    0.88070    1.000
    O57      O        0.94200    0.34890    0.36674    1.000
    C110     C        0.27220    0.45440    0.86360    1.000
    H94      H        0.19450    0.43000    0.86770    1.000
    H95      H        0.35520    0.43540    0.88280    1.000
    C111     C        0.28030    0.46460    0.79360    1.000
    H96      H        0.19390    0.48030    0.77340    1.000
    H97      H        0.29490    0.42890    0.77320    1.000
    O58      O        0.71960    0.17321    0.33090    1.000
    O59      O        0.49980    0.16554    0.32390    1.000
    C112     C        0.39670    0.50480    0.78520    1.000
    H98      H        0.48390    0.48760    0.80190    1.000
    H99      H        0.39710    0.51190    0.74040    1.000
    O60      O        0.21280    0.33592    0.31275    1.000
    C113     C        0.38050    0.56060    0.81930    1.000
    H100     H        0.29730    0.57950    0.80000    1.000
    H101     H        0.45810    0.58500    0.81500    1.000
    O61      O        0.31450    0.41697    0.29305    1.000
    C114     C        0.37290    0.55042    0.88940    1.000
    H102     H        0.45980    0.53320    0.90830    1.000
    C115     C        0.43140    0.61760    0.97690    1.000
    C116     C        0.40190    0.67453    0.00480    1.000
    C117     C        0.44770    0.68610    0.06730    1.000
    H103     H        0.48880    0.65790    0.09390    1.000
    C118     C        0.43240    0.73960    0.09020    1.000
    H104     H        0.46230    0.74620    0.13290    1.000
    C119     C        0.32820    0.77090    0.99550    1.000
    H105     H        0.28570    0.79990    0.97050    1.000
    C120     C        0.33620    0.71820    0.96840    1.000
    H106     H        0.29840    0.71190    0.92640    1.000
    O62      O        0.08600    0.56233    0.97728    1.000
    C121     C        0.08410    0.58000    0.47670    1.000
    O63      O        0.52250    0.58829    0.00511    1.000
    C122     C        0.21280    0.61494    0.49220    1.000
    O64      O        0.12580    0.44196    0.37875    1.000
    C123     C        0.34210    0.58963    0.50220    1.000
    H107     H        0.34970    0.55060    0.49880    1.000
    C124     C        0.46020    0.62237    0.51710    1.000
    C125     C        0.44820    0.68080    0.51790    1.000
    H108     H        0.52640    0.70340    0.52550    1.000
    C126     C        0.32020    0.70500    0.50720    1.000
    C127     C        0.20130    0.67346    0.49580    1.000
    H109     H        0.11550    0.69080    0.49050    1.000
    C128     C        0.60090    0.59610    0.53610    1.000
    C129     C        0.83390    0.37830    0.35690    1.000
    C130     C        0.70360    0.34506    0.33890    1.000
    C131     C        0.71170    0.28662    0.33750    1.000
    H110     H        0.79700    0.26880    0.34320    1.000
    C132     C        0.59240    0.25526    0.32770    1.000
    C133     C        0.46460    0.27972    0.31900    1.000
    H111     H        0.38550    0.25770    0.31400    1.000
    C134     C        0.45630    0.33798    0.31790    1.000
    C135     C        0.57530    0.37054    0.32770    1.000
    H112     H        0.56880    0.40970    0.32670    1.000
    C136     C        0.31580    0.36520    0.30690    1.000
