data_functionalizedCrystal
_audit_creation_method	'EQeq! by Chris Wilmer'
_symmetry_space_group_name_H-M	'P1'
_symmetry_Int_Tables_number	1
_symmetry_cell_setting	triclinic
loop_
_symmetry_equiv_pos_as_xyz
  x,y,z
_cell_length_a	12.886
_cell_length_b	16.4783
_cell_length_c	18.2541
_cell_angle_alpha	80.202
_cell_angle_beta	86.039
_cell_angle_gamma	81.673
loop_
_atom_site_label
_atom_site_type_symbol
_atom_site_fract_x
_atom_site_fract_y
_atom_site_fract_z
_atom_site_charge
Mof_Zn	Zn	0.83226	0.70857	0.32595	1.191
Mof_Zn	Zn	0.75666	0.23695	0.98774	1.209
Mof_Zn	Zn	0.4866	0.27513	0.26392	1.191
Mof_C 	C 	0.9342	0.5883	0.4266	0.351
Mof_C 	C 	0.9524	0.5303	0.4997	-0.224
Mof_H 	H 	0.9558	0.5635	0.5383	0.101
Mof_H 	H 	0.8923	0.5004	0.5122	0.106
Mof_C 	C 	0.9015	0.1025	0.9874	0.355
Mof_C 	C 	0.9457	0.0101	0.9948	-0.215
Mof_H 	H 	0.9087	0.9801	0.0365	0.104
Mof_H 	H 	0.9302	0.9901	0.9503	0.103
Mof_C 	C 	0.5346	0.2859	0.0001	0.379
Mof_C 	C 	0.4261	0.2615	0.016	-0.217
Mof_H 	H 	0.4014	0.2493	0.9705	0.092
Mof_H 	H 	0.3793	0.3085	0.0299	0.106
Mof_C 	C 	0.4185	0.1867	0.077	-0.24
Mof_H 	H 	0.4665	0.1397	0.064	0.119
Mof_H 	H 	0.3479	0.172	0.0797	0.102
Mof_C 	C 	0.4441	0.2024	0.1536	0.394
Mof_C 	C 	0.9477	0.8469	0.2393	0.015
Mof_H 	H 	0.8951	0.8673	0.2058	0.003
Mof_C 	C 	0.0391	0.8758	0.2381	-0.017
Mof_H 	H 	0.0615	0.9194	0.2043	0.034
Mof_C 	C 	0.0329	0.7752	0.3292	0.092
Mof_H 	H 	0.0514	0.7361	0.3709	-0.009
Mof_C 	C 	0.5066	0.4435	0.1755	-0.017
Mof_H 	H 	0.4914	0.4218	0.1342	0.041
Mof_C 	C 	0.5229	0.5197	0.1723	-0
Mof_H 	H 	0.5212	0.5616	0.131	0.048
Mof_C 	C 	0.5321	0.4483	0.2855	0.114
Mof_H 	H 	0.5378	0.4367	0.3368	-0.031
Mof_C 	C 	0.2005	0.8386	0.3176	-0.138
Mof_H 	H 	0.217	0.8933	0.2953	0.071
Mof_H 	H 	0.1989	0.8355	0.3712	0.069
Mof_C 	C 	0.2851	0.7755	0.2958	0.077
Mof_C 	C 	0.3544	0.793	0.2352	-0.088
Mof_H 	H 	0.3442	0.8446	0.2048	0.059
Mof_C 	C 	0.4376	0.7356	0.2194	-0.057
Mof_H 	H 	0.4798	0.7448	0.1761	0.046
Mof_C 	C 	0.4566	0.6609	0.2725	0.049
Mof_C 	C 	0.3848	0.6431	0.3242	-0.059
Mof_H 	H 	0.3915	0.5902	0.3525	0.049
Mof_C 	C 	0.3003	0.699	0.3386	-0.085
Mof_H 	H 	0.2528	0.6848	0.3777	0.06
Mof_C 	C 	0.5583	0.602	0.2685	-0.111
Mof_H 	H 	0.6083	0.6295	0.2344	0.061
Mof_H 	H 	0.5877	0.589	0.3173	0.054
Mof_C 	C 	0.8868	0.3032	0.8519	0.007
Mof_H 	H 	0.9389	0.2575	0.8578	0.023
Mof_C 	C 	0.8859	0.3693	0.7969	-0.001
Mof_H 	H 	0.9362	0.3777	0.7583	0.04
Mof_C 	C 	0.7472	0.3861	0.8697	0.09
Mof_H 	H 	0.6839	0.4097	0.8897	-0.001
Mof_C 	C 	0.2691	0.6799	0.8741	-0.001
Mof_H 	H 	0.3353	0.6526	0.887	0.02
Mof_C 	C 	0.2242	0.6751	0.8121	-0.015
Mof_H 	H 	0.2507	0.6442	0.7751	0.031
Mof_C 	C 	0.122	0.7573	0.8784	0.083
Mof_H 	H 	0.0649	0.7932	0.8932	-0.002
Mof_C 	C 	0.7621	0.5026	0.7643	-0.129
Mof_H 	H 	0.6938	0.5247	0.7838	0.066
Mof_H 	H 	0.7545	0.4954	0.7134	0.074
Mof_C 	C 	0.8376	0.5638	0.7649	0.071
Mof_C 	C 	0.8325	0.6132	0.8215	-0.081
Mof_H 	H 	0.7819	0.6075	0.8602	0.057
Mof_C 	C 	0.9013	0.6691	0.8197	-0.058
Mof_H 	H 	0.8969	0.701	0.8575	0.051
Mof_C 	C 	0.9771	0.6796	0.7631	0.05
Mof_C 	C 	0.9829	0.631	0.7095	-0.057
Mof_H 	H 	0.0347	0.6359	0.6715	0.045
Mof_C 	C 	0.9138	0.5746	0.7102	-0.085
Mof_H 	H 	0.9193	0.5429	0.6722	0.071
Mof_C 	C 	0.0504	0.7443	0.758	-0.116
Mof_H 	H 	0.0858	0.7498	0.7091	0.065
Mof_H 	H 	0.009	0.7974	0.7626	0.063
Mof_C 	C 	0.3322	0.3129	0.3914	0.005
Mof_H 	H 	0.3693	0.3524	0.4042	0.003
Mof_C 	C 	0.243	0.2903	0.4253	-0.02
Mof_H 	H 	0.2082	0.3103	0.4663	0.046
Mof_C 	C 	0.2851	0.2207	0.3344	0.089
Mof_H 	H 	0.2832	0.1842	0.301	-0.007
Mof_C 	C 	0.3309	0.7751	0.6363	-0.01
Mof_H 	H 	0.3509	0.7321	0.609	0.005
Mof_C 	C 	0.2447	0.8318	0.627	0.001
Mof_H 	H 	0.1957	0.8353	0.5912	0.027
Mof_C 	C 	0.3302	0.8551	0.7169	0.096
Mof_H 	H 	0.3485	0.8795	0.7557	-0.011
Mof_C 	C 	0.1198	0.1881	0.4086	-0.121
Mof_H 	H 	0.1096	0.158	0.369	0.065
Mof_H 	H 	0.0578	0.2284	0.4132	0.064
Mof_C 	C 	0.1323	0.1277	0.4809	0.051
Mof_C 	C 	0.2286	0.1006	0.5136	-0.069
Mof_H 	H 	0.2886	0.1199	0.4899	0.063
Mof_C 	C 	0.2379	0.0455	0.5808	-0.08
Mof_H 	H 	0.3029	0.03	0.6019	0.067
Mof_C 	C 	0.1509	0.0143	0.6156	0.061
Mof_C 	C 	0.0562	0.0459	0.5874	-0.079
Mof_H 	H 	0.996	0.0275	0.6117	0.056
Mof_C 	C 	0.0464	0.1046	0.5237	-0.072
Mof_H 	H 	0.9797	0.1292	0.5093	0.05
Mof_C 	C 	0.1617	0.9515	0.6871	-0.118
Mof_H 	H 	0.1809	0.9781	0.7267	0.065
Mof_H 	H 	0.0948	0.9316	0.7017	0.064
Mof_C 	C 	0.8368	0.5569	0.2541	0.011
Mof_H 	H 	0.843	0.5215	0.2995	0.013
Mof_C 	C 	0.8373	0.5327	0.1864	-0.008
Mof_H 	H 	0.844	0.4784	0.1769	0.044
Mof_C 	C 	0.8197	0.6669	0.172	0.089
Mof_H 	H 	0.8118	0.7223	0.1495	-0.021
Mof_C 	C 	0.8234	0.6072	0.0538	-0.125
Mof_H 	H 	0.8252	0.6641	0.0292	0.067
Mof_H 	H 	0.7584	0.59	0.0422	0.068
Mof_C 	C 	0.9143	0.5524	0.025	0.062
Mof_C 	C 	0.0148	0.5762	0.0169	-0.064
Mof_H 	H 	0.0251	0.6271	0.0285	0.052
Mof_C 	C 	0.657	0.8438	0.2761	0.005
Mof_H 	H 	0.6902	0.8564	0.2296	0.003
Mof_C 	C 	0.5673	0.8823	0.2983	-0.016
Mof_H 	H 	0.5261	0.9262	0.2705	0.042
Mof_C 	C 	0.6248	0.7867	0.3856	0.108
Mof_H 	H 	0.6301	0.7515	0.4312	-0.021
Mof_C 	C 	0.4551	0.8752	0.4159	-0.117
Mof_H 	H 	0.4326	0.8282	0.4496	0.063
Mof_H 	H 	0.3976	0.8994	0.3841	0.066
Mof_N 	N 	0.9427	0.7832	0.2966	-0.276
Mof_N 	N 	0.0932	0.8297	0.2953	-0.106
Mof_N 	N 	0.5139	0.3965	0.2473	-0.271
Mof_N 	N 	0.5429	0.5242	0.2437	-0.114
Mof_N 	N 	0.7987	0.314	0.8979	-0.269
Mof_N 	N 	0.7972	0.4207	0.8092	-0.103
Mof_N 	N 	0.2065	0.7301	0.9173	-0.262
Mof_N 	N 	0.1297	0.7259	0.8143	-0.104
Mof_N 	N 	0.3598	0.2676	0.3341	-0.274
Mof_N 	N 	0.2124	0.2323	0.3888	-0.106
Mof_N 	N 	0.3845	0.7924	0.694	-0.279
Mof_N 	N 	0.2403	0.8822	0.677	-0.108
Mof_N 	N 	0.8258	0.6418	0.2445	-0.275
Mof_N 	N 	0.8261	0.6035	0.1354	-0.107
Mof_N 	N 	0.6946	0.782	0.3321	-0.281
Mof_N 	N 	0.5448	0.846	0.3703	-0.111
Mof_O 	O 	0.8441	0.6353	0.42185	-0.479
Mof_O 	O 	0.001	0.591	0.37611	-0.344
Mof_O 	O 	0.8041	0.1187	0.9869	-0.466
Mof_O 	O 	0.961	0.1566	0.9825	-0.339
Mof_O 	O 	0.6071	0.2244	0.0006	-0.461
Mof_O 	O 	0.552	0.3587	0.9866	-0.322
Mof_O 	O 	0.459	0.2739	0.1598	-0.483
Mof_O 	O 	0.4476	0.1469	0.2071	-0.372
Mof_C 	C 	0.9023	0.4749	0.0079	-0.068
Mof_H 	H 	0.8361	0.4578	0.0135	0.051
Mof_C 	C 	0.4787	0.9391	0.4607	0.058
Mof_C 	C 	0.4768	0.0213	0.4273	-0.075
Mof_H 	H 	0.4606	0.0363	0.3775	0.057
Mof_C 	C 	0.5016	0.9181	0.5338	-0.068
Mof_H 	H 	0.5028	0.8634	0.5576	0.042
Mof_Zn	Zn	0.16774	0.29143	0.67405	1.192
Mof_Zn	Zn	0.24334	0.76305	0.01226	1.21
Mof_Zn	Zn	0.5134	0.72487	0.73608	1.192
Mof_C 	C 	0.0658	0.4117	0.5734	0.352
Mof_C 	C 	0.0476	0.4697	0.5003	-0.223
Mof_H 	H 	0.0442	0.4365	0.4617	0.102
Mof_H 	H 	0.1077	0.4996	0.4878	0.107
Mof_C 	C 	0.0985	0.8975	0.0126	0.356
Mof_C 	C 	0.0543	0.9899	0.0052	-0.214
Mof_H 	H 	0.0913	0.0199	0.9635	0.105
Mof_H 	H 	0.0698	0.0099	0.0497	0.103
Mof_C 	C 	0.4654	0.7141	0.9999	0.379
Mof_C 	C 	0.5739	0.7385	0.984	-0.217
Mof_H 	H 	0.5986	0.7507	0.0295	0.092
Mof_H 	H 	0.6207	0.6915	0.9701	0.106
Mof_C 	C 	0.5815	0.8133	0.923	-0.24
Mof_H 	H 	0.5335	0.8603	0.936	0.119
Mof_H 	H 	0.6521	0.828	0.9203	0.102
Mof_C 	C 	0.5559	0.7976	0.8464	0.394
Mof_C 	C 	0.0523	0.1531	0.7607	0.015
Mof_H 	H 	0.1049	0.1327	0.7942	0.003
Mof_C 	C 	0.9609	0.1242	0.7619	-0.017
Mof_H 	H 	0.9385	0.0806	0.7957	0.034
Mof_C 	C 	0.9671	0.2248	0.6708	0.092
Mof_H 	H 	0.9486	0.2639	0.6291	-0.009
Mof_C 	C 	0.4934	0.5565	0.8245	-0.017
Mof_H 	H 	0.5086	0.5782	0.8658	0.041
Mof_C 	C 	0.4771	0.4803	0.8277	-0
Mof_H 	H 	0.4788	0.4384	0.869	0.048
Mof_C 	C 	0.4679	0.5517	0.7145	0.114
Mof_H 	H 	0.4622	0.5633	0.6632	-0.031
Mof_C 	C 	0.7995	0.1614	0.6824	-0.138
Mof_H 	H 	0.783	0.1067	0.7047	0.071
Mof_H 	H 	0.8011	0.1645	0.6288	0.069
Mof_C 	C 	0.7149	0.2245	0.7042	0.077
Mof_C 	C 	0.6456	0.207	0.7648	-0.088
Mof_H 	H 	0.6558	0.1554	0.7952	0.059
Mof_C 	C 	0.5624	0.2644	0.7806	-0.057
Mof_H 	H 	0.5202	0.2552	0.8239	0.046
Mof_C 	C 	0.5434	0.3391	0.7275	0.049
Mof_C 	C 	0.6152	0.3569	0.6758	-0.059
Mof_H 	H 	0.6085	0.4098	0.6475	0.049
Mof_C 	C 	0.6997	0.301	0.6614	-0.085
Mof_H 	H 	0.7472	0.3152	0.6223	0.06
Mof_C 	C 	0.4417	0.398	0.7315	-0.111
Mof_H 	H 	0.3917	0.3705	0.7656	0.061
Mof_H 	H 	0.4123	0.411	0.6827	0.054
Mof_C 	C 	0.1132	0.6968	0.1481	0.007
Mof_H 	H 	0.0611	0.7425	0.1422	0.023
Mof_C 	C 	0.1141	0.6307	0.2031	-0.001
Mof_H 	H 	0.0638	0.6223	0.2417	0.04
Mof_C 	C 	0.2528	0.6139	0.1303	0.09
Mof_H 	H 	0.3161	0.5903	0.1103	-0.001
Mof_C 	C 	0.7309	0.3201	0.1259	-0.001
Mof_H 	H 	0.6647	0.3474	0.113	0.02
Mof_C 	C 	0.7758	0.3249	0.1879	-0.015
Mof_H 	H 	0.7493	0.3558	0.2249	0.031
Mof_C 	C 	0.878	0.2427	0.1216	0.083
Mof_H 	H 	0.9351	0.2068	0.1068	-0.002
Mof_C 	C 	0.2379	0.4974	0.2357	-0.129
Mof_H 	H 	0.3062	0.4753	0.2162	0.066
Mof_H 	H 	0.2455	0.5046	0.2866	0.074
Mof_C 	C 	0.1624	0.4362	0.2351	0.071
Mof_C 	C 	0.1675	0.3868	0.1785	-0.081
Mof_H 	H 	0.2181	0.3925	0.1398	0.057
Mof_C 	C 	0.0987	0.3309	0.1803	-0.058
Mof_H 	H 	0.1031	0.299	0.1425	0.051
Mof_C 	C 	0.0229	0.3204	0.2369	0.05
Mof_C 	C 	0.0171	0.369	0.2905	-0.057
Mof_H 	H 	0.9653	0.3641	0.3285	0.045
Mof_C 	C 	0.0862	0.4254	0.2898	-0.085
Mof_H 	H 	0.0807	0.4571	0.3278	0.071
Mof_C 	C 	0.9496	0.2557	0.242	-0.116
Mof_H 	H 	0.9142	0.2502	0.2909	0.065
Mof_H 	H 	0.991	0.2026	0.2374	0.063
Mof_C 	C 	0.6678	0.6871	0.6086	0.005
Mof_H 	H 	0.6307	0.6476	0.5958	0.003
Mof_C 	C 	0.757	0.7097	0.5747	-0.02
Mof_H 	H 	0.7918	0.6897	0.5337	0.046
Mof_C 	C 	0.7149	0.7793	0.6656	0.089
Mof_H 	H 	0.7168	0.8158	0.699	-0.007
Mof_C 	C 	0.6691	0.2249	0.3637	-0.01
Mof_H 	H 	0.6491	0.2679	0.391	0.005
Mof_C 	C 	0.7553	0.1682	0.373	0.001
Mof_H 	H 	0.8043	0.1647	0.4088	0.027
Mof_C 	C 	0.6698	0.1449	0.2831	0.096
Mof_H 	H 	0.6515	0.1205	0.2443	-0.011
Mof_C 	C 	0.8802	0.8119	0.5914	-0.121
Mof_H 	H 	0.8904	0.842	0.631	0.065
Mof_H 	H 	0.9422	0.7716	0.5868	0.064
Mof_C 	C 	0.8677	0.8723	0.5191	0.051
Mof_C 	C 	0.7714	0.8994	0.4864	-0.069
Mof_H 	H 	0.7114	0.8801	0.5101	0.063
Mof_C 	C 	0.7621	0.9545	0.4192	-0.08
Mof_H 	H 	0.6971	0.97	0.3981	0.067
Mof_C 	C 	0.8491	0.9857	0.3844	0.061
Mof_C 	C 	0.9438	0.9541	0.4126	-0.079
Mof_H 	H 	0.004	0.9725	0.3883	0.056
Mof_C 	C 	0.9536	0.8954	0.4763	-0.072
Mof_H 	H 	0.0203	0.8708	0.4907	0.05
Mof_C 	C 	0.8383	0.0485	0.3129	-0.118
Mof_H 	H 	0.8191	0.0219	0.2733	0.065
Mof_H 	H 	0.9052	0.0684	0.2983	0.064
Mof_C 	C 	0.1632	0.4431	0.7459	0.011
Mof_H 	H 	0.157	0.4785	0.7005	0.013
Mof_C 	C 	0.1627	0.4673	0.8136	-0.008
Mof_H 	H 	0.156	0.5216	0.8231	0.044
Mof_C 	C 	0.1803	0.3331	0.828	0.089
Mof_H 	H 	0.1882	0.2777	0.8505	-0.021
Mof_C 	C 	0.1766	0.3928	0.9462	-0.125
Mof_H 	H 	0.1748	0.3359	0.9708	0.067
Mof_H 	H 	0.2416	0.41	0.9578	0.068
Mof_C 	C 	0.0857	0.4476	0.975	0.062
Mof_C 	C 	0.9852	0.4238	0.9831	-0.064
Mof_H 	H 	0.9749	0.3729	0.9715	0.052
Mof_C 	C 	0.343	0.1562	0.7239	0.005
Mof_H 	H 	0.3098	0.1436	0.7704	0.003
Mof_C 	C 	0.4327	0.1177	0.7017	-0.016
Mof_H 	H 	0.4739	0.0738	0.7295	0.042
Mof_C 	C 	0.3752	0.2133	0.6144	0.108
Mof_H 	H 	0.3699	0.2485	0.5688	-0.021
Mof_C 	C 	0.5449	0.1248	0.5841	-0.117
Mof_H 	H 	0.5674	0.1718	0.5504	0.063
Mof_H 	H 	0.6024	0.1006	0.6159	0.066
Mof_N 	N 	0.0573	0.2168	0.7034	-0.276
Mof_N 	N 	0.9068	0.1703	0.7047	-0.106
Mof_N 	N 	0.4861	0.6035	0.7527	-0.271
Mof_N 	N 	0.4571	0.4758	0.7563	-0.114
Mof_N 	N 	0.2013	0.686	0.1021	-0.269
Mof_N 	N 	0.2028	0.5793	0.1908	-0.103
Mof_N 	N 	0.7935	0.2699	0.0827	-0.262
Mof_N 	N 	0.8703	0.2741	0.1857	-0.104
Mof_N 	N 	0.6402	0.7324	0.6659	-0.274
Mof_N 	N 	0.7876	0.7677	0.6112	-0.106
Mof_N 	N 	0.6155	0.2076	0.306	-0.279
Mof_N 	N 	0.7597	0.1178	0.323	-0.108
Mof_N 	N 	0.1742	0.3582	0.7555	-0.275
Mof_N 	N 	0.1739	0.3965	0.8646	-0.107
Mof_N 	N 	0.3054	0.218	0.6679	-0.281
Mof_N 	N 	0.4552	0.154	0.6297	-0.111
Mof_O 	O 	0.1559	0.3647	0.57815	-0.479
Mof_O 	O 	0.999	0.409	0.62389	-0.344
Mof_O 	O 	0.1959	0.8813	0.0131	-0.466
Mof_O 	O 	0.039	0.8434	0.0175	-0.339
Mof_O 	O 	0.3929	0.7756	0.9994	-0.461
Mof_O 	O 	0.448	0.6413	0.0134	-0.322
Mof_O 	O 	0.541	0.7261	0.8402	-0.483
Mof_O 	O 	0.5524	0.8531	0.7929	-0.372
Mof_C 	C 	0.0977	0.5251	0.9921	-0.068
Mof_H 	H 	0.1639	0.5422	0.9865	0.051
Mof_C 	C 	0.5213	0.0609	0.5393	0.058
Mof_C 	C 	0.5232	0.9787	0.5727	-0.075
Mof_H 	H 	0.5394	0.9637	0.6225	0.057
Mof_C 	C 	0.4984	0.0819	0.4662	-0.068
Mof_H 	H 	0.4972	0.1366	0.4424	0.042
_end
