data_functionalizedCrystal
_audit_creation_method	'EQeq! by Chris Wilmer'
_symmetry_space_group_name_H-M	'P1'
_symmetry_Int_Tables_number	1
_symmetry_cell_setting	triclinic
loop_
_symmetry_equiv_pos_as_xyz
  x,y,z
_cell_length_a	8.3562
_cell_length_b	12.8437
_cell_length_c	25.59
_cell_angle_alpha	90.944
_cell_angle_beta	90
_cell_angle_gamma	90
loop_
_atom_site_label
_atom_site_type_symbol
_atom_site_fract_x
_atom_site_fract_y
_atom_site_fract_z
_atom_site_charge
Mof_Ag	Ag	0.15995	0.0076	0.51703	0.25
Mof_Ag	Ag	0.15995	0.9924	0.98297	0.329
Mof_Ag	Ag	0.84005	0.9924	0.48297	0.316
Mof_Ag	Ag	0.84005	0.0076	0.01703	0.241
Mof_Ag	Ag	0.5	2.5875e-18	0.5	0.347
Mof_Ag	Ag	0.5	0	-0	0.335
Mof_Ag	Ag	0.89452	0.5	0.75	0.68
Mof_Ag	Ag	0.10548	0.5	0.25	0.68
Mof_H 	H 	0.4405	0.2437	0.486	0.016
Mof_H 	H 	0.4091	0.3961	0.5329	0.062
Mof_H 	H 	0.5416	0.0987	0.6134	0.015
Mof_H 	H 	0.2564	0.4073	0.7207	0.048
Mof_H 	H 	0.8552	0.2555	0.7361	0.036
Mof_H 	H 	0.9796	0.1046	0.7155	0.03
Mof_H 	H 	0.2587	0.0233	0.6351	0.003
Mof_H 	H 	0.3484	0.9241	0.7044	0.068
Mof_H 	H 	0.2434	0.7699	0.5482	0.025
Mof_H 	H 	0.5442	0.5586	0.6995	0.048
Mof_H 	H 	0.9578	0.5521	0.6311	0.033
Mof_H 	H 	0.8409	0.6013	0.5554	0.04
Mof_H 	H 	0.4405	0.7563	0.014	0.009
Mof_H 	H 	0.4091	0.6039	0.9671	0.066
Mof_H 	H 	0.5416	0.9013	0.8866	0.024
Mof_H 	H 	0.2564	0.5927	0.7793	0.048
Mof_H 	H 	0.8552	0.7445	0.7639	0.037
Mof_H 	H 	0.9796	0.8954	0.7845	0.038
Mof_H 	H 	0.2587	0.9767	0.8649	0.047
Mof_H 	H 	0.3484	0.0759	0.7956	0.048
Mof_H 	H 	0.2434	0.2301	0.9518	0.025
Mof_H 	H 	0.5442	0.4414	0.8005	0.048
Mof_H 	H 	0.9578	0.4479	0.8689	0.033
Mof_H 	H 	0.8409	0.3987	0.9446	0.042
Mof_H 	H 	0.5595	0.7563	0.514	0.018
Mof_H 	H 	0.5909	0.6039	0.4671	0.062
Mof_H 	H 	0.4584	0.9013	0.3866	0.024
Mof_H 	H 	0.7436	0.5927	0.2793	0.048
Mof_H 	H 	0.1448	0.7445	0.2639	0.037
Mof_H 	H 	0.0204	0.8954	0.2845	0.037
Mof_H 	H 	0.7413	0.9767	0.3649	0.048
Mof_H 	H 	0.6516	0.0759	0.2956	0.047
Mof_H 	H 	0.7566	0.2301	0.4518	0.023
Mof_H 	H 	0.4558	0.4414	0.3005	0.048
Mof_H 	H 	0.0422	0.4479	0.3689	0.033
Mof_H 	H 	0.1591	0.3987	0.4446	0.04
Mof_H 	H 	0.5595	0.2437	0.986	0.028
Mof_H 	H 	0.5909	0.3961	0.0329	0.057
Mof_H 	H 	0.4584	0.0987	0.1134	0.016
Mof_H 	H 	0.7436	0.4073	0.2207	0.048
Mof_H 	H 	0.1448	0.2555	0.2361	0.036
Mof_H 	H 	0.0204	0.1046	0.2155	0.028
Mof_H 	H 	0.7413	0.0233	0.1351	0.002
Mof_H 	H 	0.6516	0.9241	0.2044	0.069
Mof_H 	H 	0.7566	0.7699	0.0482	0.024
Mof_H 	H 	0.4558	0.5586	0.1995	0.048
Mof_H 	H 	0.0422	0.5521	0.1311	0.033
Mof_H 	H 	0.1591	0.6013	0.0554	0.039
Mof_C 	C 	0.454	0.243	0.5221	0.009
Mof_C 	C 	0.4326	0.3353	0.5506	-0.005
Mof_C 	C 	0.4801	0.2483	0.6239	-0.006
Mof_C 	C 	0.5095	0.158	0.5959	0.012
Mof_C 	C 	0.2712	0.253	0.7079	0.008
Mof_C 	C 	0.1974	0.3459	0.7199	0.025
Mof_C 	C 	0.9641	0.2569	0.7287	0.003
Mof_C 	C 	0.0388	0.1659	0.7165	0.011
Mof_C 	C 	0.2733	0.952	0.6304	0.039
Mof_C 	C 	0.3248	0.891	0.6727	-0.009
Mof_C 	C 	0.3082	0.7485	0.623	0
Mof_C 	C 	0.2625	0.8041	0.5799	0.006
Mof_C 	C 	0.5406	0.5916	0.6235	0.012
Mof_C 	C 	0.6085	0.5655	0.6701	0.03
Mof_C 	C 	0.8478	0.5628	0.6304	0.015
Mof_C 	C 	0.7767	0.5915	0.5846	0.002
Mof_C 	C 	0.454	0.757	0.9779	0.024
Mof_C 	C 	0.4326	0.6647	0.9494	-0.01
Mof_C 	C 	0.4801	0.7517	0.8761	-0.004
Mof_C 	C 	0.5095	0.842	0.9041	0.011
Mof_C 	C 	0.2712	0.747	0.7921	0.009
Mof_C 	C 	0.1974	0.6541	0.7801	0.026
Mof_C 	C 	0.9641	0.7431	0.7713	0.005
Mof_C 	C 	0.0388	0.8341	0.7835	0.011
Mof_C 	C 	0.2733	0.048	0.8696	-0.035
Mof_C 	C 	0.3248	0.109	0.8273	0.022
Mof_C 	C 	0.3082	0.2515	0.877	0.003
Mof_C 	C 	0.2625	0.1959	0.9201	0.002
Mof_C 	C 	0.5406	0.4084	0.8765	0.012
Mof_C 	C 	0.6085	0.4345	0.8299	0.03
Mof_C 	C 	0.8478	0.4372	0.8696	0.015
Mof_C 	C 	0.7767	0.4085	0.9154	0.002
Mof_C 	C 	0.546	0.757	0.4779	0.009
Mof_C 	C 	0.5674	0.6647	0.4494	-0.004
Mof_C 	C 	0.5199	0.7517	0.3761	-0.004
Mof_C 	C 	0.4905	0.842	0.4041	0.01
Mof_C 	C 	0.7288	0.747	0.2921	0.009
Mof_C 	C 	0.8026	0.6541	0.2801	0.026
Mof_C 	C 	0.0359	0.7431	0.2713	0.004
Mof_C 	C 	0.9612	0.8341	0.2835	0.013
Mof_C 	C 	0.7267	0.048	0.3696	-0.038
Mof_C 	C 	0.6752	0.109	0.3273	0.023
Mof_C 	C 	0.6918	0.2515	0.377	0.002
Mof_C 	C 	0.7375	0.1959	0.4201	0.001
Mof_C 	C 	0.4594	0.4084	0.3765	0.012
Mof_C 	C 	0.3915	0.4345	0.3299	0.029
Mof_C 	C 	0.1522	0.4372	0.3696	0.014
Mof_C 	C 	0.2233	0.4085	0.4154	0.002
Mof_C 	C 	0.546	0.243	0.0221	-0.008
Mof_C 	C 	0.5674	0.3353	0.0506	0.003
Mof_C 	C 	0.5199	0.2483	0.1239	-0.005
Mof_C 	C 	0.4905	0.158	0.0959	0.011
Mof_C 	C 	0.7288	0.253	0.2079	0.009
Mof_C 	C 	0.8026	0.3459	0.2199	0.025
Mof_C 	C 	0.0359	0.2569	0.2287	0.001
Mof_C 	C 	0.9612	0.1659	0.2165	0.014
Mof_C 	C 	0.7267	0.952	0.1304	0.041
Mof_C 	C 	0.6752	0.891	0.1727	-0.009
Mof_C 	C 	0.6918	0.7485	0.123	0
Mof_C 	C 	0.7375	0.8041	0.0799	0.006
Mof_C 	C 	0.4594	0.5916	0.1235	0.012
Mof_C 	C 	0.3915	0.5655	0.1701	0.03
Mof_C 	C 	0.1522	0.5628	0.1304	0.014
Mof_C 	C 	0.2233	0.5915	0.0846	0.002
Mof_S 	S 	0.48	0.24866	0.6937	0.301
Mof_S 	S 	0.32734	0.61083	0.61872	0.294
Mof_S 	S 	0.48	0.75134	0.8063	0.299
Mof_S 	S 	0.32734	0.38917	0.88128	0.293
Mof_S 	S 	0.52	0.75134	0.3063	0.299
Mof_S 	S 	0.67266	0.38917	0.38128	0.293
Mof_S 	S 	0.52	0.24866	0.1937	0.3
Mof_S 	S 	0.67266	0.61083	0.11872	0.294
Mof_N 	N 	0.4929	0.1543	0.54445	-0.178
Mof_N 	N 	0.4447	0.3388	0.60205	-0.09
Mof_N 	N 	0.0397	0.3479	0.73053	-0.157
Mof_N 	N 	0.1957	0.1623	0.7059	-0.105
Mof_N 	N 	0.2456	0.9078	0.584	-0.167
Mof_N 	N 	0.3404	0.7911	0.6691	-0.09
Mof_N 	N 	0.6205	0.6059	0.5801	-0.102
Mof_N 	N 	0.7641	0.55	0.6738	-0.163
Mof_N 	N 	0.4929	0.8457	0.95555	-0.173
Mof_N 	N 	0.4447	0.6612	0.89795	-0.089
Mof_N 	N 	0.0397	0.6521	0.76947	-0.157
Mof_N 	N 	0.1957	0.8377	0.7941	-0.102
Mof_N 	N 	0.2456	0.0922	0.916	-0.168
Mof_N 	N 	0.3404	0.2089	0.8309	-0.098
Mof_N 	N 	0.6205	0.3941	0.9199	-0.102
Mof_N 	N 	0.7641	0.45	0.8262	-0.163
Mof_N 	N 	0.5071	0.8457	0.45555	-0.173
Mof_N 	N 	0.5553	0.6612	0.39795	-0.09
Mof_N 	N 	0.9603	0.6521	0.26947	-0.156
Mof_N 	N 	0.8043	0.8377	0.2941	-0.103
Mof_N 	N 	0.7544	0.0922	0.416	-0.168
Mof_N 	N 	0.6596	0.2089	0.3309	-0.098
Mof_N 	N 	0.3795	0.3941	0.4199	-0.103
Mof_N 	N 	0.2359	0.45	0.3262	-0.163
Mof_N 	N 	0.5071	0.1543	0.04445	-0.175
Mof_N 	N 	0.5553	0.3388	0.10205	-0.091
Mof_N 	N 	0.9603	0.3479	0.23053	-0.156
Mof_N 	N 	0.8043	0.1623	0.2059	-0.106
Mof_N 	N 	0.7544	0.9078	0.084	-0.167
Mof_N 	N 	0.6596	0.7911	0.1691	-0.09
Mof_N 	N 	0.3795	0.6059	0.0801	-0.103
Mof_N 	N 	0.2359	0.55	0.1738	-0.163
Mof_O 	O 	0.5431	0.1511	0.70956	-0.229
Mof_O 	O 	0.5481	0.344	0.71283	-0.236
Mof_O 	O 	0.2583	0.5674	0.66459	-0.23
Mof_O 	O 	0.2736	0.5784	0.56772	-0.222
Mof_O 	O 	0.5431	0.8489	0.79044	-0.222
Mof_O 	O 	0.5481	0.656	0.78717	-0.235
Mof_O 	O 	0.2583	0.4326	0.83541	-0.23
Mof_O 	O 	0.2736	0.4216	0.93228	-0.221
Mof_O 	O 	0.4569	0.8489	0.29044	-0.222
Mof_O 	O 	0.4519	0.656	0.28717	-0.235
Mof_O 	O 	0.7417	0.4326	0.33541	-0.23
Mof_O 	O 	0.7264	0.4216	0.43228	-0.222
Mof_O 	O 	0.4569	0.1511	0.20956	-0.229
Mof_O 	O 	0.4519	0.344	0.21283	-0.236
Mof_O 	O 	0.7417	0.5674	0.16459	-0.23
Mof_O 	O 	0.7264	0.5784	0.06772	-0.224
_end
