# CIF file generated by openbabel 3.1.0, see https://openbabel.org
data_I
_chemical_name_common 'image0'
_cell_length_a 15.903
_cell_length_b 15.903
_cell_length_c 21.615
_cell_angle_alpha 90
_cell_angle_beta 90
_cell_angle_gamma 90
_space_group_name_H-M_alt 'P 1'
_space_group_name_Hall 'P 1'
loop_
    _symmetry_equiv_pos_as_xyz
    x,y,z
loop_
    _atom_site_label
    _atom_site_type_symbol
    _atom_site_fract_x
    _atom_site_fract_y
    _atom_site_fract_z
    _atom_site_occupancy
    C1       C        0.96240    0.24470    0.03510    1.000
    H1       H        0.99340    0.24050    0.07150    1.000
    C2       C        0.90570    0.31060    0.02970    1.000
    H2       H        0.89990    0.34930    0.06170    1.000
    C3       C        0.85790    0.31870    0.97672    1.000
    C4       C        0.87380    0.26000    0.92998    1.000
    H3       H        0.84540    0.26360    0.89250    1.000
    C5       C        0.93140    0.19700    0.93950    1.000
    H4       H        0.94040    0.15890    0.90760    1.000
    C6       C        0.79160    0.38420    0.97066    1.000
    C7       C        0.79140    0.45570    0.00770    1.000
    H5       H        0.83430    0.46360    0.03640    1.000
    C8       C        0.72890    0.51490    0.00260    1.000
    H6       H        0.73090    0.56310    0.02690    1.000
    C9       C        0.66310    0.50350    0.96180    1.000
    H7       H        0.62070    0.54360    0.95870    1.000
    C10      C        0.66090    0.43170    0.92540    1.000
    C11      C        0.72510    0.37210    0.92928    1.000
    H8       H        0.72370    0.32440    0.90440    1.000
    C12      C        0.59090    0.42370    0.88096    1.000
    C13      C        0.49480    0.37270    0.81911    1.000
    C14      C        0.43920    0.31070    0.78887    1.000
    C15      C        0.45630    0.28050    0.73017    1.000
    H9       H        0.50350    0.29860    0.70860    1.000
    C16      C        0.40070    0.22200    0.70400    1.000
    H10      H        0.41000    0.20260    0.66400    1.000
    C17      C        0.33260    0.19310    0.73690    1.000
    H11      H        0.29690    0.15360    0.71900    1.000
    C18      C        0.31630    0.22190    0.79645    1.000
    C19      C        0.37020    0.28180    0.82144    1.000
    H12      H        0.35970    0.30280    0.86080    1.000
    C20      C        0.24460    0.19120    0.83356    1.000
    C21      C        0.20170    0.11620    0.82003    1.000
    H13      H        0.21370    0.08680    0.78390    1.000
    C22      C        0.14200    0.08670    0.86027    1.000
    H14      H        0.11500    0.03660    0.85040    1.000
    C23      C        0.15700    0.19950    0.92333    1.000
    H15      H        0.14100    0.22930    0.95840    1.000
    C24      C        0.21660    0.23400    0.88561    1.000
    H16      H        0.23860    0.28670    0.89490    1.000
    N1       N        0.55380    0.48733    0.85469    1.000
    N2       N        0.49271    0.45517    0.81577    1.000
    N3       N        0.55570    0.35061    0.85993    1.000
    N4       N        0.57520    0.26880    0.88073    1.000
    N5       N        0.97525    0.18710    0.99143    1.000
    N6       N        0.12030    0.12510    0.91255    1.000
    H17      H        0.59960    0.24400    0.84770    1.000
    H18      H        0.52390    0.24440    0.88670    1.000
    C25      C        0.03760    0.75530    0.53510    1.000
    H19      H        0.00660    0.75950    0.57150    1.000
    C26      C        0.09430    0.68940    0.52970    1.000
    H20      H        0.10010    0.65070    0.56170    1.000
    C27      C        0.14210    0.68130    0.47672    1.000
    C28      C        0.12620    0.74000    0.42998    1.000
    H21      H        0.15460    0.73640    0.39250    1.000
    C29      C        0.06860    0.80300    0.43950    1.000
    H22      H        0.05960    0.84110    0.40760    1.000
    C30      C        0.20840    0.61580    0.47066    1.000
    C31      C        0.20860    0.54430    0.50770    1.000
    H23      H        0.16570    0.53640    0.53640    1.000
    C32      C        0.27110    0.48510    0.50260    1.000
    H24      H        0.26910    0.43690    0.52690    1.000
    C33      C        0.33690    0.49650    0.46180    1.000
    H25      H        0.37930    0.45640    0.45870    1.000
    C34      C        0.33910    0.56830    0.42540    1.000
    C35      C        0.27490    0.62790    0.42928    1.000
    H26      H        0.27630    0.67560    0.40440    1.000
    C36      C        0.40910    0.57630    0.38096    1.000
    C37      C        0.50520    0.62730    0.31911    1.000
    C38      C        0.56080    0.68930    0.28887    1.000
    C39      C        0.54370    0.71950    0.23017    1.000
    H27      H        0.49650    0.70140    0.20860    1.000
    C40      C        0.59930    0.77800    0.20400    1.000
    H28      H        0.59000    0.79740    0.16400    1.000
    C41      C        0.66740    0.80690    0.23690    1.000
    H29      H        0.70310    0.84640    0.21900    1.000
    C42      C        0.68370    0.77810    0.29645    1.000
    C43      C        0.62980    0.71820    0.32144    1.000
    H30      H        0.64030    0.69720    0.36080    1.000
    C44      C        0.75540    0.80880    0.33356    1.000
    C45      C        0.79830    0.88380    0.32003    1.000
    H31      H        0.78630    0.91320    0.28390    1.000
    C46      C        0.85800    0.91330    0.36027    1.000
    H32      H        0.88500    0.96340    0.35040    1.000
    C47      C        0.84300    0.80050    0.42333    1.000
    H33      H        0.85900    0.77070    0.45840    1.000
    C48      C        0.78340    0.76600    0.38561    1.000
    H34      H        0.76140    0.71330    0.39490    1.000
    N7       N        0.44620    0.51267    0.35469    1.000
    N8       N        0.50729    0.54483    0.31577    1.000
    N9       N        0.44430    0.64939    0.35993    1.000
    N10      N        0.42480    0.73120    0.38073    1.000
    N11      N        0.02475    0.81290    0.49143    1.000
    N12      N        0.87970    0.87490    0.41255    1.000
    H35      H        0.40040    0.75600    0.34770    1.000
    H36      H        0.47610    0.75560    0.38670    1.000
    C49      C        0.25530    0.46240    0.78510    1.000
    H37      H        0.25950    0.49340    0.82150    1.000
    C50      C        0.18940    0.40570    0.77970    1.000
    H38      H        0.15070    0.39990    0.81170    1.000
    C51      C        0.18130    0.35790    0.72672    1.000
    C52      C        0.24000    0.37380    0.67998    1.000
    H39      H        0.23640    0.34540    0.64250    1.000
    C53      C        0.30300    0.43140    0.68950    1.000
    H40      H        0.34110    0.44040    0.65760    1.000
    C54      C        0.11580    0.29160    0.72066    1.000
    C55      C        0.04430    0.29140    0.75770    1.000
    H41      H        0.03640    0.33430    0.78640    1.000
    C56      C        0.98510    0.22890    0.75260    1.000
    H42      H        0.93690    0.23090    0.77690    1.000
    C57      C        0.99650    0.16310    0.71180    1.000
    H43      H        0.95640    0.12070    0.70870    1.000
    C58      C        0.06830    0.16090    0.67540    1.000
    C59      C        0.12790    0.22510    0.67928    1.000
    H44      H        0.17560    0.22370    0.65440    1.000
    C60      C        0.07630    0.09090    0.63096    1.000
    C61      C        0.12730    0.99480    0.56911    1.000
    C62      C        0.18930    0.93920    0.53887    1.000
    C63      C        0.21950    0.95630    0.48017    1.000
    H45      H        0.20140    0.00350    0.45860    1.000
    C64      C        0.27800    0.90070    0.45400    1.000
    H46      H        0.29740    0.91000    0.41400    1.000
    C65      C        0.30690    0.83260    0.48690    1.000
    H47      H        0.34640    0.79690    0.46900    1.000
    C66      C        0.27810    0.81630    0.54645    1.000
    C67      C        0.21820    0.87020    0.57144    1.000
    H48      H        0.19720    0.85970    0.61080    1.000
    C68      C        0.30880    0.74460    0.58356    1.000
    C69      C        0.38380    0.70170    0.57003    1.000
    H49      H        0.41320    0.71370    0.53390    1.000
    C70      C        0.41330    0.64200    0.61027    1.000
    H50      H        0.46340    0.61500    0.60040    1.000
    C71      C        0.30050    0.65700    0.67333    1.000
    H51      H        0.27070    0.64100    0.70840    1.000
    C72      C        0.26600    0.71660    0.63561    1.000
    H52      H        0.21330    0.73860    0.64490    1.000
    N13      N        0.01267    0.05380    0.60469    1.000
    N14      N        0.04483    0.99271    0.56577    1.000
    N15      N        0.14939    0.05570    0.60993    1.000
    N16      N        0.23120    0.07520    0.63073    1.000
    N17      N        0.31290    0.47525    0.74143    1.000
    N18      N        0.37490    0.62030    0.66255    1.000
    H53      H        0.25600    0.09960    0.59770    1.000
    H54      H        0.25560    0.02390    0.63670    1.000
    C73      C        0.74470    0.53760    0.28510    1.000
    H55      H        0.74050    0.50660    0.32150    1.000
    C74      C        0.81060    0.59430    0.27970    1.000
    H56      H        0.84930    0.60010    0.31170    1.000
    C75      C        0.81870    0.64210    0.22672    1.000
    C76      C        0.76000    0.62620    0.17998    1.000
    H57      H        0.76360    0.65460    0.14250    1.000
    C77      C        0.69700    0.56860    0.18950    1.000
    H58      H        0.65890    0.55960    0.15760    1.000
    C78      C        0.88420    0.70840    0.22066    1.000
    C79      C        0.95570    0.70860    0.25770    1.000
    H59      H        0.96360    0.66570    0.28640    1.000
    C80      C        0.01490    0.77110    0.25260    1.000
    H60      H        0.06310    0.76910    0.27690    1.000
    C81      C        0.00350    0.83690    0.21180    1.000
    H61      H        0.04360    0.87930    0.20870    1.000
    C82      C        0.93170    0.83910    0.17540    1.000
    C83      C        0.87210    0.77490    0.17928    1.000
    H62      H        0.82440    0.77630    0.15440    1.000
    C84      C        0.92370    0.90910    0.13096    1.000
    C85      C        0.87270    0.00520    0.06911    1.000
    C86      C        0.81070    0.06080    0.03887    1.000
    C87      C        0.78050    0.04370    0.98017    1.000
    H63      H        0.79860    0.99650    0.95860    1.000
    C88      C        0.72200    0.09930    0.95400    1.000
    H64      H        0.70260    0.09000    0.91400    1.000
    C89      C        0.69310    0.16740    0.98690    1.000
    H65      H        0.65360    0.20310    0.96900    1.000
    C90      C        0.72190    0.18370    0.04645    1.000
    C91      C        0.78180    0.12980    0.07144    1.000
    H66      H        0.80280    0.14030    0.11080    1.000
    C92      C        0.69120    0.25540    0.08356    1.000
    C93      C        0.61620    0.29830    0.07003    1.000
    H67      H        0.58680    0.28630    0.03390    1.000
    C94      C        0.58670    0.35800    0.11027    1.000
    H68      H        0.53660    0.38500    0.10040    1.000
    C95      C        0.69950    0.34300    0.17333    1.000
    H69      H        0.72930    0.35900    0.20840    1.000
    C96      C        0.73400    0.28340    0.13561    1.000
    H70      H        0.78670    0.26140    0.14490    1.000
    N19      N        0.98733    0.94620    0.10469    1.000
    N20      N        0.95517    0.00729    0.06577    1.000
    N21      N        0.85061    0.94430    0.10993    1.000
    N22      N        0.76880    0.92480    0.13073    1.000
    N23      N        0.68710    0.52475    0.24143    1.000
    N24      N        0.62510    0.37970    0.16255    1.000
    H71      H        0.74400    0.90040    0.09770    1.000
    H72      H        0.74440    0.97610    0.13670    1.000
    C97      C        0.53760    0.74470    0.71490    1.000
    H73      H        0.50660    0.74050    0.67850    1.000
    C98      C        0.59430    0.81060    0.72030    1.000
    H74      H        0.60010    0.84930    0.68830    1.000
    C99      C        0.64210    0.81870    0.77328    1.000
    C100     C        0.62620    0.76000    0.82002    1.000
    H75      H        0.65460    0.76360    0.85750    1.000
    C101     C        0.56860    0.69700    0.81050    1.000
    H76      H        0.55960    0.65890    0.84240    1.000
    C102     C        0.70840    0.88420    0.77934    1.000
    C103     C        0.70860    0.95570    0.74230    1.000
    H77      H        0.66570    0.96360    0.71360    1.000
    C104     C        0.77110    0.01490    0.74740    1.000
    H78      H        0.76910    0.06310    0.72310    1.000
    C105     C        0.83690    0.00350    0.78820    1.000
    H79      H        0.87930    0.04360    0.79130    1.000
    C106     C        0.83910    0.93170    0.82460    1.000
    C107     C        0.77490    0.87210    0.82072    1.000
    H80      H        0.77630    0.82440    0.84560    1.000
    C108     C        0.90910    0.92370    0.86904    1.000
    C109     C        0.00520    0.87270    0.93089    1.000
    C110     C        0.06080    0.81070    0.96113    1.000
    C111     C        0.04370    0.78050    0.01983    1.000
    H81      H        0.99650    0.79860    0.04140    1.000
    C112     C        0.09930    0.72200    0.04600    1.000
    H82      H        0.09000    0.70260    0.08600    1.000
    C113     C        0.16740    0.69310    0.01310    1.000
    H83      H        0.20310    0.65360    0.03100    1.000
    C114     C        0.18370    0.72190    0.95355    1.000
    C115     C        0.12980    0.78180    0.92856    1.000
    H84      H        0.14030    0.80280    0.88920    1.000
    C116     C        0.25540    0.69120    0.91644    1.000
    C117     C        0.29830    0.61620    0.92997    1.000
    H85      H        0.28630    0.58680    0.96610    1.000
    C118     C        0.35800    0.58670    0.88973    1.000
    H86      H        0.38500    0.53660    0.89960    1.000
    C119     C        0.34300    0.69950    0.82667    1.000
    H87      H        0.35900    0.72930    0.79160    1.000
    C120     C        0.28340    0.73400    0.86439    1.000
    H88      H        0.26140    0.78670    0.85510    1.000
    N25      N        0.94620    0.98733    0.89531    1.000
    N26      N        0.00729    0.95517    0.93423    1.000
    N27      N        0.94430    0.85061    0.89007    1.000
    N28      N        0.92480    0.76880    0.86927    1.000
    N29      N        0.52475    0.68710    0.75857    1.000
    N30      N        0.37970    0.62510    0.83745    1.000
    H89      H        0.90040    0.74400    0.90230    1.000
    H90      H        0.97610    0.74440    0.86330    1.000
    C121     C        0.46240    0.25530    0.21490    1.000
    H91      H        0.49340    0.25950    0.17850    1.000
    C122     C        0.40570    0.18940    0.22030    1.000
    H92      H        0.39990    0.15070    0.18830    1.000
    C123     C        0.35790    0.18130    0.27328    1.000
    C124     C        0.37380    0.24000    0.32002    1.000
    H93      H        0.34540    0.23640    0.35750    1.000
    C125     C        0.43140    0.30300    0.31050    1.000
    H94      H        0.44040    0.34110    0.34240    1.000
    C126     C        0.29160    0.11580    0.27934    1.000
    C127     C        0.29140    0.04430    0.24230    1.000
    H95      H        0.33430    0.03640    0.21360    1.000
    C128     C        0.22890    0.98510    0.24740    1.000
    H96      H        0.23090    0.93690    0.22310    1.000
    C129     C        0.16310    0.99650    0.28820    1.000
    H97      H        0.12070    0.95640    0.29130    1.000
    C130     C        0.16090    0.06830    0.32460    1.000
    C131     C        0.22510    0.12790    0.32072    1.000
    H98      H        0.22370    0.17560    0.34560    1.000
    C132     C        0.09090    0.07630    0.36904    1.000
    C133     C        0.99480    0.12730    0.43089    1.000
    C134     C        0.93920    0.18930    0.46113    1.000
    C135     C        0.95630    0.21950    0.51983    1.000
    H99      H        0.00350    0.20140    0.54140    1.000
    C136     C        0.90070    0.27800    0.54600    1.000
    H100     H        0.91000    0.29740    0.58600    1.000
    C137     C        0.83260    0.30690    0.51310    1.000
    H101     H        0.79690    0.34640    0.53100    1.000
    C138     C        0.81630    0.27810    0.45355    1.000
    C139     C        0.87020    0.21820    0.42856    1.000
    H102     H        0.85970    0.19720    0.38920    1.000
    C140     C        0.74460    0.30880    0.41644    1.000
    C141     C        0.70170    0.38380    0.42997    1.000
    H103     H        0.71370    0.41320    0.46610    1.000
    C142     C        0.64200    0.41330    0.38973    1.000
    H104     H        0.61500    0.46340    0.39960    1.000
    C143     C        0.65700    0.30050    0.32667    1.000
    H105     H        0.64100    0.27070    0.29160    1.000
    C144     C        0.71660    0.26600    0.36439    1.000
    H106     H        0.73860    0.21330    0.35510    1.000
    N31      N        0.05380    0.01267    0.39531    1.000
    N32      N        0.99271    0.04483    0.43423    1.000
    N33      N        0.05570    0.14939    0.39007    1.000
    N34      N        0.07520    0.23120    0.36927    1.000
    N35      N        0.47525    0.31290    0.25857    1.000
    N36      N        0.62030    0.37490    0.33745    1.000
    H107     H        0.09960    0.25600    0.40230    1.000
    H108     H        0.02390    0.25560    0.36330    1.000
    C145     C        0.24470    0.96240    0.96490    1.000
    H109     H        0.24050    0.99340    0.92850    1.000
    C146     C        0.31060    0.90570    0.97030    1.000
    H110     H        0.34930    0.89990    0.93830    1.000
    C147     C        0.31870    0.85790    0.02328    1.000
    C148     C        0.26000    0.87380    0.07002    1.000
    H111     H        0.26360    0.84540    0.10750    1.000
    C149     C        0.19700    0.93140    0.06050    1.000
    H112     H        0.15890    0.94040    0.09240    1.000
    C150     C        0.38420    0.79160    0.02934    1.000
    C151     C        0.45570    0.79140    0.99230    1.000
    H113     H        0.46360    0.83430    0.96360    1.000
    C152     C        0.51490    0.72890    0.99740    1.000
    H114     H        0.56310    0.73090    0.97310    1.000
    C153     C        0.50350    0.66310    0.03820    1.000
    H115     H        0.54360    0.62070    0.04130    1.000
    C154     C        0.43170    0.66090    0.07460    1.000
    C155     C        0.37210    0.72510    0.07072    1.000
    H116     H        0.32440    0.72370    0.09560    1.000
    C156     C        0.42370    0.59090    0.11904    1.000
    C157     C        0.37270    0.49480    0.18089    1.000
    C158     C        0.31070    0.43920    0.21113    1.000
    C159     C        0.28050    0.45630    0.26983    1.000
    H117     H        0.29860    0.50350    0.29140    1.000
    C160     C        0.22200    0.40070    0.29600    1.000
    H118     H        0.20260    0.41000    0.33600    1.000
    C161     C        0.19310    0.33260    0.26310    1.000
    H119     H        0.15360    0.29690    0.28100    1.000
    C162     C        0.22190    0.31630    0.20355    1.000
    C163     C        0.28180    0.37020    0.17856    1.000
    H120     H        0.30280    0.35970    0.13920    1.000
    C164     C        0.19120    0.24460    0.16644    1.000
    C165     C        0.11620    0.20170    0.17997    1.000
    H121     H        0.08680    0.21370    0.21610    1.000
    C166     C        0.08670    0.14200    0.13973    1.000
    H122     H        0.03660    0.11500    0.14960    1.000
    C167     C        0.19950    0.15700    0.07667    1.000
    H123     H        0.22930    0.14100    0.04160    1.000
    C168     C        0.23400    0.21660    0.11439    1.000
    H124     H        0.28670    0.23860    0.10510    1.000
    N37      N        0.48733    0.55380    0.14531    1.000
    N38      N        0.45517    0.49271    0.18423    1.000
    N39      N        0.35061    0.55570    0.14007    1.000
    N40      N        0.26880    0.57520    0.11927    1.000
    N41      N        0.18710    0.97525    0.00857    1.000
    N42      N        0.12510    0.12030    0.08745    1.000
    H125     H        0.24400    0.59960    0.15230    1.000
    H126     H        0.24440    0.52390    0.11330    1.000
    C169     C        0.75530    0.03760    0.46490    1.000
    H127     H        0.75950    0.00660    0.42850    1.000
    C170     C        0.68940    0.09430    0.47030    1.000
    H128     H        0.65070    0.10010    0.43830    1.000
    C171     C        0.68130    0.14210    0.52328    1.000
    C172     C        0.74000    0.12620    0.57002    1.000
    H129     H        0.73640    0.15460    0.60750    1.000
    C173     C        0.80300    0.06860    0.56050    1.000
    H130     H        0.84110    0.05960    0.59240    1.000
    C174     C        0.61580    0.20840    0.52934    1.000
    C175     C        0.54430    0.20860    0.49230    1.000
    H131     H        0.53640    0.16570    0.46360    1.000
    C176     C        0.48510    0.27110    0.49740    1.000
    H132     H        0.43690    0.26910    0.47310    1.000
    C177     C        0.49650    0.33690    0.53820    1.000
    H133     H        0.45640    0.37930    0.54130    1.000
    C178     C        0.56830    0.33910    0.57460    1.000
    C179     C        0.62790    0.27490    0.57072    1.000
    H134     H        0.67560    0.27630    0.59560    1.000
    C180     C        0.57630    0.40910    0.61904    1.000
    C181     C        0.62730    0.50520    0.68089    1.000
    C182     C        0.68930    0.56080    0.71113    1.000
    C183     C        0.71950    0.54370    0.76983    1.000
    H135     H        0.70140    0.49650    0.79140    1.000
    C184     C        0.77800    0.59930    0.79600    1.000
    H136     H        0.79740    0.59000    0.83600    1.000
    C185     C        0.80690    0.66740    0.76310    1.000
    H137     H        0.84640    0.70310    0.78100    1.000
    C186     C        0.77810    0.68370    0.70355    1.000
    C187     C        0.71820    0.62980    0.67856    1.000
    H138     H        0.69720    0.64030    0.63920    1.000
    C188     C        0.80880    0.75540    0.66644    1.000
    C189     C        0.88380    0.79830    0.67997    1.000
    H139     H        0.91320    0.78630    0.71610    1.000
    C190     C        0.91330    0.85800    0.63973    1.000
    H140     H        0.96340    0.88500    0.64960    1.000
    C191     C        0.80050    0.84300    0.57667    1.000
    H141     H        0.77070    0.85900    0.54160    1.000
    C192     C        0.76600    0.78340    0.61439    1.000
    H142     H        0.71330    0.76140    0.60510    1.000
    N43      N        0.51267    0.44620    0.64531    1.000
    N44      N        0.54483    0.50729    0.68423    1.000
    N45      N        0.64939    0.44430    0.64007    1.000
    N46      N        0.73120    0.42480    0.61927    1.000
    N47      N        0.81290    0.02475    0.50857    1.000
    N48      N        0.87490    0.87970    0.58745    1.000
    H143     H        0.75600    0.40040    0.65230    1.000
    H144     H        0.75560    0.47610    0.61330    1.000
    Cd1      Cd       0.44103    0.55897    0.75000    1.000
    Cd2      Cd       0.55897    0.44103    0.25000    1.000
    Cd3      Cd       0.94103    0.94103    0.50000    1.000
    Cd4      Cd       0.05897    0.05897    0.00000    1.000
