data_functionalizedCrystal
_audit_creation_method	'EQeq! by Chris Wilmer'
_symmetry_space_group_name_H-M	'P1'
_symmetry_Int_Tables_number	1
_symmetry_cell_setting	triclinic
loop_
_symmetry_equiv_pos_as_xyz
  x,y,z
_cell_length_a	16.89
_cell_length_b	21.43
_cell_length_c	21.43
_cell_angle_alpha	120
_cell_angle_beta	90
_cell_angle_gamma	90
loop_
_atom_site_label
_atom_site_type_symbol
_atom_site_fract_x
_atom_site_fract_y
_atom_site_fract_z
_atom_site_charge
Mof_Zr	Zr	-5.16712e-33	0.9335	0.0677	2.439
Mof_Zr	Zr	-1.12737e-32	0.9323	0.8658	2.438
Mof_Zr	Zr	7.51581e-33	0.0665	0.9323	2.439
Mof_Zr	Zr	0.8954	0.9223	0.9226	2.368
Mof_Zr	Zr	1.87895e-33	0.1342	0.0665	2.436
Mof_Zr	Zr	0.8954	0.0774	0.9997	2.367
Mof_Zr	Zr	7.51581e-33	0.8658	0.9335	2.437
Mof_Zr	Zr	0.1046	0.0003	0.0777	2.334
Mof_Zr	Zr	0.1046	0.9223	0.9226	2.335
Mof_Zr	Zr	0.8954	0.0777	0.0774	2.366
Mof_Zr	Zr	0.1046	0.0774	0.9997	2.337
Mof_Zr	Zr	-9.39476e-34	0.0677	0.1342	2.437
Mof_Zr	Zr	0.1046	0.0777	0.0774	2.334
Mof_Zr	Zr	0.8954	0.0003	0.0777	2.366
Mof_Zr	Zr	0.1046	0.9226	0.0003	2.336
Mof_Zr	Zr	0.8954	0.9226	0.0003	2.367
Mof_Zr	Zr	0.8954	0.9997	0.9223	2.367
Mof_Zr	Zr	0.1046	0.9997	0.9223	2.335
Mof_Fe	Fe	0.5	0.5	-0	0.645
Mof_Fe	Fe	0.5	0.5	0.5	0.644
Mof_Fe	Fe	0.5	0	0.5	0.644
Mof_H 	H 	0.7043	0.7225	0.6013	0.117
Mof_H 	H 	0.7043	0.2775	0.3987	0.117
Mof_H 	H 	0.7043	0.1212	0.7225	0.117
Mof_H 	H 	0.8234	0.7945	0.0796	-0.005
Mof_H 	H 	0.2957	0.8788	0.2775	0.103
Mof_H 	H 	0.1766	0.2055	0.9204	-0.078
Mof_H 	H 	0.2019	0.4444	0.4407	0.012
Mof_H 	H 	0.7946	0.3249	0.1369	-0.032
Mof_H 	H 	0.2669	0.7207	0.0952	0.098
Mof_H 	H 	0.5717	0.2741	0.2595	-0.006
Mof_H 	H 	0.7043	0.8788	0.2775	0.117
Mof_H 	H 	0.2054	0.1369	0.812	-0.097
Mof_H 	H 	0.7331	0.0952	0.3745	0.118
Mof_H 	H 	0.5717	0.7259	0.7405	-0.006
Mof_H 	H 	0.8234	0.9204	0.7149	-0.005
Mof_H 	H 	0.5717	0.0146	0.2741	-0.007
Mof_H 	H 	0.4283	0.7405	0.0146	-0.001
Mof_H 	H 	0.2669	0.0952	0.3745	0.098
Mof_H 	H 	0.7946	0.1369	0.812	-0.031
Mof_H 	H 	0.2957	0.7225	0.6013	0.103
Mof_H 	H 	0.2669	0.9048	0.6255	0.098
Mof_H 	H 	0.2957	0.2775	0.3987	0.103
Mof_H 	H 	0.7946	0.8631	0.188	-0.03
Mof_H 	H 	0.2054	0.3249	0.1369	-0.098
Mof_H 	H 	0.5717	0.9854	0.7259	-0.005
Mof_H 	H 	0.1766	0.7945	0.0796	-0.076
Mof_H 	H 	0.2054	0.8631	0.188	-0.096
Mof_H 	H 	0.7981	0.9963	0.5556	0.111
Mof_H 	H 	0.7331	0.3745	0.2793	0.117
Mof_H 	H 	0.7331	0.2793	0.9048	0.117
Mof_H 	H 	0.7043	0.3987	0.1212	0.117
Mof_H 	H 	0.2019	0.0037	0.4444	0.012
Mof_H 	H 	0.2957	0.6013	0.8788	0.103
Mof_H 	H 	0.4283	0.2595	0.9854	0.001
Mof_H 	H 	0.2019	0.5556	0.5593	0.012
Mof_H 	H 	0.7946	0.188	0.3249	-0.031
Mof_H 	H 	0.7946	0.6751	0.8631	-0.031
Mof_H 	H 	0.2669	0.3745	0.2793	0.098
Mof_H 	H 	0.1766	0.9204	0.7149	-0.076
Mof_H 	H 	0.5717	0.7405	0.0146	-0.005
Mof_H 	H 	0.2669	0.2793	0.9048	0.098
Mof_H 	H 	0.8234	0.7149	0.7945	-0.005
Mof_H 	H 	0.7946	0.812	0.6751	-0.031
Mof_H 	H 	0.2669	0.6255	0.7207	0.098
Mof_H 	H 	0.2054	0.6751	0.8631	-0.097
Mof_H 	H 	0.8234	0.2055	0.9204	-0.006
Mof_H 	H 	0.2054	0.188	0.3249	-0.098
Mof_H 	H 	0.2019	0.4407	0.9963	0.015
Mof_H 	H 	0.7331	0.9048	0.6255	0.117
Mof_H 	H 	0.1766	0.0796	0.2851	-0.074
Mof_H 	H 	0.7981	0.0037	0.4444	0.11
Mof_H 	H 	0.7981	0.5556	0.5593	0.111
Mof_H 	H 	0.7981	0.4444	0.4407	0.111
Mof_H 	H 	0.8234	0.2851	0.2055	-0.005
Mof_H 	H 	0.7981	0.4407	0.9963	0.112
Mof_H 	H 	0.2019	0.9963	0.5556	0.014
Mof_H 	H 	0.4283	0.0146	0.2741	-0.004
Mof_H 	H 	0.7331	0.7207	0.0952	0.118
Mof_H 	H 	0.1766	0.7149	0.7945	-0.076
Mof_H 	H 	0.2957	0.1212	0.7225	0.103
Mof_H 	H 	0.7331	0.6255	0.7207	0.117
Mof_H 	H 	0.2957	0.3987	0.1212	0.103
Mof_H 	H 	0.4283	0.7259	0.7405	-0.002
Mof_H 	H 	0.2054	0.812	0.6751	-0.097
Mof_H 	H 	0.4283	0.9854	0.7259	-0.001
Mof_H 	H 	0.8234	0.0796	0.2851	-0.004
Mof_H 	H 	0.5717	0.2595	0.9854	-0.003
Mof_H 	H 	0.4283	0.2741	0.2595	-0.003
Mof_H 	H 	0.7043	0.6013	0.8788	0.117
Mof_H 	H 	0.1766	0.2851	0.2055	-0.076
Mof_H 	H 	0.7981	0.5593	0.0037	0.11
Mof_H 	H 	0.2019	0.5593	0.0037	0.014
Mof_C 	C 	0.54008	0.2975	0.9883	-0.089
Mof_C 	C 	0.2899	0.9885	0.3345	0.191
Mof_C 	C 	0.8176	0.0301	0.7719	-0.389
Mof_C 	C 	0.7285	0.3595	0.0804	-0.253
Mof_C 	C 	0.7101	0.6655	0.654	0.176
Mof_C 	C 	0.2008	0.2447	0.9612	0.23
Mof_C 	C 	0.8176	0.2582	0.0301	-0.395
Mof_C 	C 	0.7285	0.9196	0.2791	-0.25
Mof_C 	C 	0.6764	0.5503	0.5529	0.102
Mof_C 	C 	0.7101	0.654	0.9885	0.178
Mof_C 	C 	0.7101	0.0115	0.6655	0.177
Mof_C 	C 	0.2179	0.3157	0.0897	0.237
Mof_C 	C 	0.7992	0.7165	0.7553	0.194
Mof_C 	C 	0.3542	0.3881	0.0012	-0.157
Mof_C 	C 	0.2715	0.2791	0.3595	-0.311
Mof_C 	C 	0.6764	0.5529	0.0026	0.099
Mof_C 	C 	0.7524	0.4694	0.4675	-0.072
Mof_C 	C 	0.6764	0.4471	0.9974	0.11
Mof_C 	C 	0.2899	0.6655	0.654	0.186
Mof_C 	C 	0.2008	0.9612	0.7165	0.22
Mof_C 	C 	0.2545	0.6633	0.7114	-0.304
Mof_C 	C 	0.2179	0.774	0.6843	0.236
Mof_C 	C 	0.6458	0.0012	0.6131	-0.137
Mof_C 	C 	0.2179	0.226	0.3157	0.236
Mof_C 	C 	0.7524	0.9981	0.5306	-0.07
Mof_C 	C 	0.7821	0.774	0.6843	0.215
Mof_C 	C 	0.7285	0.2791	0.3595	-0.251
Mof_C 	C 	0.45992	0.6908	0.7025	-0.094
Mof_C 	C 	0.6458	0.3881	0.0012	-0.142
Mof_C 	C 	0.7992	0.2447	0.9612	0.201
Mof_C 	C 	0.4304	0.3585	0.9931	0.088
Mof_C 	C 	0.3542	0.3869	0.3881	-0.148
Mof_C 	C 	0.8654	0.2045	0.0394	0.827
Mof_C 	C 	0.2179	0.9103	0.226	0.234
Mof_C 	C 	0.1346	0.7955	0.9606	0.897
Mof_C 	C 	0.2008	0.7553	0.0388	0.223
Mof_C 	C 	0.3236	0.0026	0.4497	0.075
Mof_C 	C 	0.3542	0.6119	0.9988	-0.143
Mof_C 	C 	0.2545	0.2886	0.9519	-0.302
Mof_C 	C 	0.2476	0.5325	0.0019	-0.103
Mof_C 	C 	0.54008	0.0117	0.3092	-0.086
Mof_C 	C 	0.54008	0.6908	0.7025	-0.088
Mof_C 	C 	0.2899	0.346	0.0115	0.185
Mof_C 	C 	0.7455	0.7114	0.0481	-0.243
Mof_C 	C 	0.2545	0.9519	0.6633	-0.304
Mof_C 	C 	0.45992	0.0117	0.3092	-0.092
Mof_C 	C 	0.7285	0.0804	0.7209	-0.252
Mof_C 	C 	0.2715	0.0804	0.7209	-0.311
Mof_C 	C 	0.2008	0.2835	0.2447	0.22
Mof_C 	C 	0.7992	0.0388	0.2835	0.189
Mof_C 	C 	0.7524	0.0019	0.4694	-0.072
Mof_C 	C 	0.4304	0.6346	0.6415	0.078
Mof_C 	C 	0.1346	0.1651	0.2045	0.901
Mof_C 	C 	0.54008	0.3092	0.2975	-0.088
Mof_C 	C 	0.4304	0.0069	0.3654	0.07
Mof_C 	C 	0.4304	0.3654	0.3585	0.078
Mof_C 	C 	0.5696	0.0069	0.3654	0.068
Mof_C 	C 	0.45992	0.3092	0.2975	-0.094
Mof_C 	C 	0.1824	0.7418	0.9699	-0.516
Mof_C 	C 	0.2476	0.4694	0.4675	-0.102
Mof_C 	C 	0.5696	0.3585	0.9931	0.084
Mof_C 	C 	0.3236	0.4497	0.4471	0.081
Mof_C 	C 	0.7821	0.3157	0.0897	0.217
Mof_C 	C 	0.4304	0.9931	0.6346	0.082
Mof_C 	C 	0.3236	0.5529	0.0026	0.08
Mof_C 	C 	0.8176	0.7719	0.7418	-0.389
Mof_C 	C 	0.8654	0.7955	0.9606	0.832
Mof_C 	C 	0.3542	0.6131	0.6119	-0.148
Mof_C 	C 	0.2008	0.7165	0.7553	0.22
Mof_C 	C 	0.7992	0.2835	0.2447	0.194
Mof_C 	C 	0.2715	0.6405	0.9196	-0.311
Mof_C 	C 	0.8654	0.0394	0.8349	0.831
Mof_C 	C 	0.6764	0.4497	0.4471	0.102
Mof_C 	C 	0.1824	0.0301	0.7719	-0.514
Mof_C 	C 	0.1346	0.8349	0.7955	0.9
Mof_C 	C 	0.2476	0.4675	0.9981	-0.102
Mof_C 	C 	0.3236	0.4471	0.9974	0.09
Mof_C 	C 	0.7455	0.0481	0.3367	-0.245
Mof_C 	C 	0.2715	0.3595	0.0804	-0.313
Mof_C 	C 	0.7524	0.5306	0.5325	-0.072
Mof_C 	C 	0.2715	0.7209	0.6405	-0.311
Mof_C 	C 	0.2899	0.3345	0.346	0.186
Mof_C 	C 	0.2545	0.0481	0.3367	-0.307
Mof_C 	C 	0.7524	0.4675	0.9981	-0.072
Mof_C 	C 	0.8176	0.2281	0.2582	-0.389
Mof_C 	C 	0.7821	0.0897	0.774	0.216
Mof_C 	C 	0.7285	0.6405	0.9196	-0.251
Mof_C 	C 	0.3542	0.0012	0.6131	-0.151
Mof_C 	C 	0.4304	0.6415	0.0069	0.076
Mof_C 	C 	0.7455	0.2886	0.9519	-0.241
Mof_C 	C 	0.6458	0.3869	0.3881	-0.132
Mof_C 	C 	0.2179	0.6843	0.9103	0.236
Mof_C 	C 	0.54008	0.9883	0.6908	-0.089
Mof_C 	C 	0.6764	0.9974	0.5503	0.107
Mof_C 	C 	0.2476	0.9981	0.5306	-0.1
Mof_C 	C 	0.8654	0.9606	0.1651	0.836
Mof_C 	C 	0.2179	0.0897	0.774	0.236
Mof_C 	C 	0.1346	0.2045	0.0394	0.892
Mof_C 	C 	0.6764	0.0026	0.4497	0.096
Mof_C 	C 	0.6458	0.6119	0.9988	-0.128
Mof_C 	C 	0.7992	0.9612	0.7165	0.196
Mof_C 	C 	0.5696	0.6415	0.0069	0.072
Mof_C 	C 	0.1824	0.9699	0.2281	-0.508
Mof_C 	C 	0.1824	0.7719	0.7418	-0.517
Mof_C 	C 	0.7285	0.7209	0.6405	-0.251
Mof_C 	C 	0.7101	0.346	0.0115	0.175
Mof_C 	C 	0.7101	0.3345	0.346	0.176
Mof_C 	C 	0.7455	0.6633	0.7114	-0.242
Mof_C 	C 	0.3236	0.5503	0.5529	0.081
Mof_C 	C 	0.2008	0.0388	0.2835	0.213
Mof_C 	C 	0.6458	0.9988	0.3869	-0.123
Mof_C 	C 	0.5696	0.3654	0.3585	0.075
Mof_C 	C 	0.7821	0.226	0.3157	0.215
Mof_C 	C 	0.8176	0.7418	0.9699	-0.388
Mof_C 	C 	0.1824	0.2582	0.0301	-0.522
Mof_C 	C 	0.7524	0.5325	0.0019	-0.073
Mof_C 	C 	0.3542	0.9988	0.3869	-0.137
Mof_C 	C 	0.54008	0.7025	0.0117	-0.086
Mof_C 	C 	0.2545	0.3367	0.2886	-0.305
Mof_C 	C 	0.1346	0.0394	0.8349	0.902
Mof_C 	C 	0.6458	0.6131	0.6119	-0.132
Mof_C 	C 	0.1346	0.9606	0.1651	0.907
Mof_C 	C 	0.7992	0.7553	0.0388	0.195
Mof_C 	C 	0.45992	0.7025	0.0117	-0.093
Mof_C 	C 	0.8654	0.8349	0.7955	0.831
Mof_C 	C 	0.7455	0.9519	0.6633	-0.242
Mof_C 	C 	0.2899	0.0115	0.6655	0.189
Mof_C 	C 	0.45992	0.9883	0.6908	-0.094
Mof_C 	C 	0.45992	0.2975	0.9883	-0.096
Mof_C 	C 	0.8176	0.9699	0.2281	-0.384
Mof_C 	C 	0.2899	0.654	0.9885	0.188
Mof_C 	C 	0.7455	0.3367	0.2886	-0.242
Mof_C 	C 	0.2545	0.7114	0.0481	-0.305
Mof_C 	C 	0.7101	0.9885	0.3345	0.18
Mof_C 	C 	0.2476	0.5306	0.5325	-0.102
Mof_C 	C 	0.3236	0.9974	0.5503	0.086
Mof_C 	C 	0.8654	0.1651	0.2045	0.831
Mof_C 	C 	0.5696	0.9931	0.6346	0.08
Mof_C 	C 	0.2715	0.9196	0.2791	-0.309
Mof_C 	C 	0.7821	0.6843	0.9103	0.215
Mof_C 	C 	0.2476	0.0019	0.4694	-0.101
Mof_C 	C 	0.1824	0.2281	0.2582	-0.518
Mof_C 	C 	0.5696	0.6346	0.6415	0.075
Mof_C 	C 	0.7821	0.9103	0.226	0.214
Mof_N 	N 	0.5	0.5892	0.995	-0.195
Mof_N 	N 	0.5	0.4108	0.005	-0.202
Mof_N 	N 	0.5	0.5942	0.5892	-0.198
Mof_N 	N 	0.6133	0.5	0.5	-0.206
Mof_N 	N 	0.3867	0.5	-0	-0.212
Mof_N 	N 	0.5	0.4058	0.4108	-0.198
Mof_N 	N 	0.5	0.995	0.4058	-0.192
Mof_N 	N 	0.5	0.005	0.5942	-0.199
Mof_N 	N 	0.3867	0.5	0.5	-0.21
Mof_N 	N 	0.6133	0	0.5	-0.206
Mof_N 	N 	0.3867	0	0.5	-0.21
Mof_N 	N 	0.6133	0.5	-0	-0.207
Mof_O 	O 	0.0759	0.9984	0.8152	-1.853
Mof_O 	O 	0.9241	0.1832	0.9984	-1.51
Mof_O 	O 	0.0759	0.8152	0.8168	-1.855
Mof_O 	O 	0.1376	0.0979	0.1751	-2.401
Mof_O 	O 	0.8624	0.0979	0.1751	-2.289
Mof_O 	O 	0.0759	0.8168	0.0016	-1.847
Mof_O 	O 	0.8624	0.9228	0.0979	-2.287
Mof_O 	O 	0.1376	0.1751	0.0772	-2.399
Mof_O 	O 	0.9241	0.1848	0.1832	-1.514
Mof_O 	O 	0.8624	0.9021	0.8249	-2.287
Mof_O 	O 	0.0759	0.0016	0.1848	-1.858
Mof_O 	O 	0.9241	0.9984	0.8152	-1.513
Mof_O 	O 	0.9241	0.0016	0.1848	-1.519
Mof_O 	O 	0.9241	0.8152	0.8168	-1.513
Mof_O 	O 	0.0759	0.1832	0.9984	-1.843
Mof_O 	O 	0.1376	0.8249	0.9228	-2.398
Mof_O 	O 	0.9241	0.8168	0.0016	-1.515
Mof_O 	O 	0.1376	0.0772	0.9021	-2.396
Mof_O 	O 	0.8624	0.0772	0.9021	-2.287
Mof_O 	O 	0.8624	0.8249	0.9228	-2.288
Mof_O 	O 	0.0759	0.1848	0.1832	-1.856
Mof_O 	O 	0.1376	0.9021	0.8249	-2.399
Mof_O 	O 	0.1376	0.9228	0.0979	-2.397
Mof_O 	O 	0.8624	0.1751	0.0772	-2.289
_end
