# CIF file generated by openbabel 3.1.0, see https://openbabel.org
data_I
_chemical_name_common 'image0'
_cell_length_a 11.6012
_cell_length_b 11.6012
_cell_length_c 11.6012
_cell_angle_alpha 90
_cell_angle_beta 90
_cell_angle_gamma 90
_space_group_name_H-M_alt 'P 1'
_space_group_name_Hall 'P 1'
loop_
    _symmetry_equiv_pos_as_xyz
    x,y,z
loop_
    _atom_site_label
    _atom_site_type_symbol
    _atom_site_fract_x
    _atom_site_fract_y
    _atom_site_fract_z
    _atom_site_occupancy
    N1       N        0.14970    0.64310    0.32140    1.000
    C1       C        0.08690    0.59500    0.37880    1.000
    N2       N        0.35030    0.35690    0.82140    1.000
    C2       C        0.41310    0.40500    0.87880    1.000
    N3       N        0.85030    0.14310    0.17860    1.000
    C3       C        0.91310    0.09500    0.12120    1.000
    N4       N        0.64970    0.85690    0.67860    1.000
    C4       C        0.58690    0.90500    0.62120    1.000
    N5       N        0.32140    0.14970    0.64310    1.000
    C5       C        0.37880    0.08690    0.59500    1.000
    N6       N        0.82140    0.35030    0.35690    1.000
    C6       C        0.87880    0.41310    0.40500    1.000
    N7       N        0.17860    0.85030    0.14310    1.000
    C7       C        0.12120    0.91310    0.09500    1.000
    N8       N        0.67860    0.64970    0.85690    1.000
    C8       C        0.62120    0.58690    0.90500    1.000
    N9       N        0.64310    0.32140    0.14970    1.000
    C9       C        0.59500    0.37880    0.08690    1.000
    N10      N        0.35690    0.82140    0.35030    1.000
    C10      C        0.40500    0.87880    0.41310    1.000
    N11      N        0.14310    0.17860    0.85030    1.000
    C11      C        0.09500    0.12120    0.91310    1.000
    N12      N        0.85690    0.67860    0.64970    1.000
    C12      C        0.90500    0.62120    0.58690    1.000
    C13      C        0.41620    0.58380    0.08380    1.000
    Cu1      Cu       0.51310    0.48690    0.98690    1.000
    Zn1      Zn       0.26113    0.73887    0.23887    1.000
    N13      N        0.35870    0.64130    0.14130    1.000
    C14      C        0.08380    0.41620    0.58380    1.000
    Cu2      Cu       0.98690    0.51310    0.48690    1.000
    Zn2      Zn       0.23887    0.26113    0.73887    1.000
    N14      N        0.14130    0.35870    0.64130    1.000
    C15      C        0.58380    0.08380    0.41620    1.000
    Cu3      Cu       0.48690    0.98690    0.51310    1.000
    Zn3      Zn       0.73887    0.23887    0.26113    1.000
    N15      N        0.64130    0.14130    0.35870    1.000
    C16      C        0.91620    0.91620    0.91620    1.000
    Cu4      Cu       0.01310    0.01310    0.01310    1.000
    Zn4      Zn       0.76113    0.76113    0.76113    1.000
    N16      N        0.85870    0.85870    0.85870    1.000
