# CIF file generated by openbabel 3.1.0, see https://openbabel.org
data_I
_chemical_name_common 'image0'
_cell_length_a 10.399
_cell_length_b 10.606
_cell_length_c 11.3
_cell_angle_alpha 83.5
_cell_angle_beta 75.15
_cell_angle_gamma 69.62
_space_group_name_H-M_alt 'P 1'
_space_group_name_Hall 'P 1'
loop_
    _symmetry_equiv_pos_as_xyz
    x,y,z
loop_
    _atom_site_label
    _atom_site_type_symbol
    _atom_site_fract_x
    _atom_site_fract_y
    _atom_site_fract_z
    _atom_site_occupancy
    Er1      Er       0.58641    0.59630    0.63277    1.000
    O1       O        0.39550    0.61550    0.40590    1.000
    O2       O        0.47170    0.73960    0.49910    1.000
    O3       O        0.28670    0.24830    0.43680    1.000
    O4       O        0.05400    0.31810    0.45450    1.000
    O5       O        0.87070    0.06270    0.26290    1.000
    O6       O        0.94960    0.84860    0.27350    1.000
    O7       O        0.00110    0.44270    0.67060    1.000
    O8       O        0.76890    0.49770    0.72000    1.000
    O9       O        0.52770    0.48320    0.16460    1.000
    O10      O        0.65710    0.39400    0.29870    1.000
    O11      O        0.17510    0.24620    0.16000    1.000
    O12      O        0.27150    0.23310    0.96820    1.000
    N1       N        0.95770    0.95690    0.28570    1.000
    N2       N        0.16880    0.26170    0.05280    1.000
    C1       C        0.28180    0.85100    0.40710    1.000
    C2       C        0.28380    0.97650    0.43160    1.000
    H1       H        0.35670    0.98150    0.46220    1.000
    C3       C        0.17700    0.09440    0.41070    1.000
    C4       C        0.06920    0.08610    0.36450    1.000
    H2       H        0.99560    0.16330    0.35280    1.000
    C5       C        0.07280    0.96180    0.33610    1.000
    C6       C        0.17650    0.84390    0.35700    1.000
    H3       H        0.17550    0.76130    0.33780    1.000
    C7       C        0.39130    0.72560    0.43870    1.000
    C8       C        0.17490    0.23060    0.43580    1.000
    C9       C        0.89270    0.41950    0.87730    1.000
    C10      C        0.76990    0.44580    0.96990    1.000
    H4       H        0.68250    0.48650    0.95080    1.000
    C11      C        0.77770    0.41150    0.09100    1.000
    C12      C        0.90930    0.35040    0.11950    1.000
    H5       H        0.91620    0.32750    0.20000    1.000
    C13      C        0.02900    0.32490    0.02470    1.000
    C14      C        0.02440    0.35750    0.90510    1.000
    H6       H        0.10680    0.33900    0.84360    1.000
    C15      C        0.88610    0.45630    0.74630    1.000
    C16      C        0.64620    0.43310    0.19060    1.000
    Er2      Er       0.41359    0.40370    0.36723    1.000
    O13      O        0.60450    0.38450    0.59410    1.000
    O14      O        0.52830    0.26040    0.50090    1.000
    O15      O        0.71330    0.75170    0.56320    1.000
    O16      O        0.94600    0.68190    0.54550    1.000
    O17      O        0.12930    0.93730    0.73710    1.000
    O18      O        0.05040    0.15140    0.72650    1.000
    O19      O        0.99890    0.55730    0.32940    1.000
    O20      O        0.23110    0.50230    0.28000    1.000
    O21      O        0.47230    0.51680    0.83540    1.000
    O22      O        0.34290    0.60600    0.70130    1.000
    O23      O        0.82490    0.75380    0.84000    1.000
    O24      O        0.72850    0.76690    0.03180    1.000
    N3       N        0.04230    0.04310    0.71430    1.000
    N4       N        0.83120    0.73830    0.94720    1.000
    C17      C        0.71820    0.14900    0.59290    1.000
    C18      C        0.71620    0.02350    0.56840    1.000
    H7       H        0.64330    0.01850    0.53780    1.000
    C19      C        0.82300    0.90560    0.58930    1.000
    C20      C        0.93080    0.91390    0.63550    1.000
    H8       H        0.00440    0.83670    0.64720    1.000
    C21      C        0.92720    0.03820    0.66390    1.000
    C22      C        0.82350    0.15610    0.64300    1.000
    H9       H        0.82450    0.23870    0.66220    1.000
    C23      C        0.60870    0.27440    0.56130    1.000
    C24      C        0.82510    0.76940    0.56420    1.000
    C25      C        0.10730    0.58050    0.12270    1.000
    C26      C        0.23010    0.55420    0.03010    1.000
    H10      H        0.31750    0.51350    0.04920    1.000
    C27      C        0.22230    0.58850    0.90900    1.000
    C28      C        0.09070    0.64960    0.88050    1.000
    H11      H        0.08380    0.67250    0.80000    1.000
    C29      C        0.97100    0.67510    0.97530    1.000
    C30      C        0.97560    0.64250    0.09490    1.000
    H12      H        0.89320    0.66100    0.15640    1.000
    C31      C        0.11390    0.54370    0.25370    1.000
    C32      C        0.35380    0.56690    0.80940    1.000
    Cu1      Cu       0.00000    0.50000    0.50000    1.000
