# CIF file generated by openbabel 3.1.0, see https://openbabel.org
data_I
_chemical_name_common 'LIXMIQ_clean'
_cell_length_a 9.4071
_cell_length_b 15.6672
_cell_length_c 16.056
_cell_angle_alpha 111.237
_cell_angle_beta 90
_cell_angle_gamma 107.471
_space_group_name_H-M_alt 'P 1'
_space_group_name_Hall 'P 1'
loop_
    _symmetry_equiv_pos_as_xyz
    x,y,z
loop_
    _atom_site_label
    _atom_site_type_symbol
    _atom_site_fract_x
    _atom_site_fract_y
    _atom_site_fract_z
    _atom_site_occupancy
    Gd1      Gd       0.66205    0.00650    0.59808    1.000
    Gd2      Gd       0.65555    0.99350    0.90192    1.000
    Gd3      Gd       0.34445    0.00650    0.09808    1.000
    Gd4      Gd       0.33795    0.99350    0.40192    1.000
    H1       H        0.65810    0.71660    0.89790    1.000
    H2       H        0.64910    0.69200    0.73810    1.000
    H3       H        0.39350    0.71240    0.55360    1.000
    H4       H        0.64630    0.56380    0.26600    1.000
    H5       H        0.96130    0.23640    0.97940    1.000
    H6       H        0.39890    0.46440    0.90680    1.000
    H7       H        0.33850    0.75400    0.28490    1.000
    H8       H        0.04290    0.69200    0.23810    1.000
    H9       H        0.74740    0.41060    0.80580    1.000
    H10      H        0.35090    0.30800    0.26190    1.000
    H11      H        0.25260    0.58940    0.19420    1.000
    H12      H        0.88280    0.61000    0.93720    1.000
    H13      H        0.11720    0.39000    0.06280    1.000
    H14      H        0.31890    0.71240    0.05360    1.000
    H15      H        0.93450    0.53560    0.59320    1.000
    H16      H        0.35370    0.43620    0.73400    1.000
    H17      H        0.34940    0.46380    0.34700    1.000
    H18      H        0.94150    0.28340    0.60210    1.000
    H19      H        0.27280    0.39000    0.56280    1.000
    H20      H        0.72690    0.72780    0.35770    1.000
    H21      H        0.66320    0.41060    0.30580    1.000
    H22      H        0.95710    0.30800    0.76190    1.000
    H23      H        0.88560    0.53620    0.15300    1.000
    H24      H        0.72720    0.61000    0.43720    1.000
    H25      H        0.00090    0.72780    0.85770    1.000
    H26      H        0.03870    0.76360    0.02060    1.000
    H27      H        0.33680    0.58940    0.69420    1.000
    H28      H        0.34190    0.28340    0.10210    1.000
    H29      H        0.27310    0.27220    0.64230    1.000
    H30      H        0.41550    0.75400    0.78490    1.000
    H31      H        0.60110    0.53560    0.09320    1.000
    H32      H        0.60650    0.28760    0.44640    1.000
    H33      H        0.72490    0.76360    0.52060    1.000
    H34      H        0.05850    0.71660    0.39790    1.000
    H35      H        0.66150    0.24600    0.71510    1.000
    H36      H        0.08250    0.43620    0.23400    1.000
    H37      H        0.91750    0.56380    0.76600    1.000
    H38      H        0.27510    0.23640    0.47940    1.000
    H39      H        0.65060    0.53620    0.65300    1.000
    H40      H        0.68110    0.28760    0.94640    1.000
    H41      H        0.06550    0.46440    0.40680    1.000
    H42      H        0.58450    0.24600    0.21510    1.000
    H43      H        0.99910    0.27220    0.14230    1.000
    H44      H        0.11440    0.46380    0.84700    1.000
    C1       C        0.24150    0.58040    0.48360    1.000
    C2       C        0.91490    0.62700    0.99750    1.000
    C3       C        0.23410    0.73020    0.48130    1.000
    C4       C        0.06810    0.69980    0.82510    1.000
    C5       C        0.65280    0.38260    0.77260    1.000
    C6       C        0.47460    0.16120    0.99220    1.000
    C7       C        0.10420    0.68220    0.41910    1.000
    C8       C        0.12030    0.56200    0.72370    1.000
    C9       C        0.95510    0.41800    0.61040    1.000
    C10      C        0.10940    0.53080    0.42360    1.000
    C11      C        0.69430    0.32000    0.48650    1.000
    C12      C        0.04490    0.58200    0.38960    1.000
    C13      C        0.39870    0.71580    0.28190    1.000
    C14      C        0.33400    0.41760    0.37250    1.000
    C15      C        0.54180    0.75700    0.33230    1.000
    C16      C        0.57800    0.68220    0.91910    1.000
    C17      C        0.08510    0.37300    0.00250    1.000
    C18      C        0.91640    0.58240    0.12750    1.000
    C19      C        0.62570    0.32000    0.98650    1.000
    C20      C        0.66110    0.41960    0.01640    1.000
    C21      C        0.31340    0.83880    0.50780    1.000
    C22      C        0.66510    0.67560    0.67800    1.000
    C23      C        0.58780    0.86120    0.39810    1.000
    C24      C        0.45820    0.24300    0.66770    1.000
    C25      C        0.57860    0.46920    0.07640    1.000
    C26      C        0.41220    0.13880    0.60190    1.000
    C27      C        0.93190    0.30020    0.17490    1.000
    C28      C        0.13040    0.43960    0.96280    1.000
    C29      C        0.44170    0.56200    0.22370    1.000
    C30      C        0.33890    0.58040    0.98360    1.000
    C31      C        0.34720    0.61740    0.22740    1.000
    C32      C        0.98950    0.32440    0.82200    1.000
    C33      C        0.46290    0.41800    0.11040    1.000
    C34      C        0.94250    0.25440    0.86120    1.000
    C35      C        0.31710    0.71580    0.78190    1.000
    C36      C        0.75850    0.41960    0.51640    1.000
    C37      C        0.72660    0.13880    0.10190    1.000
    C38      C        0.27020    0.61740    0.72740    1.000
    C39      C        0.50390    0.26980    0.01870    1.000
    C40      C        0.01700    0.60140    0.77060    1.000
    C41      C        0.99190    0.28120    0.95250    1.000
    C42      C        0.21520    0.75700    0.83230    1.000
    C43      C        0.71070    0.71880    0.54750    1.000
    C44      C        0.58440    0.60140    0.27060    1.000
    C45      C        0.33490    0.32440    0.32200    1.000
    C46      C        0.15780    0.84600    0.19240    1.000
    C47      C        0.68290    0.28420    0.21810    1.000
    C48      C        0.36830    0.30020    0.67490    1.000
    C49      C        0.30920    0.43960    0.46280    1.000
    C50      C        0.78480    0.24300    0.16770    1.000
    C51      C        0.98300    0.39860    0.22940    1.000
    C52      C        0.89060    0.46920    0.57640    1.000
    C53      C        0.53710    0.58200    0.88960    1.000
    C54      C        0.08360    0.41760    0.87250    1.000
    C55      C        0.76590    0.26980    0.51870    1.000
    C56      C        0.01050    0.67560    0.17800    1.000
    C57      C        0.84220    0.15400    0.80760    1.000
    C58      C        0.31180    0.15400    0.30760    1.000
    C59      C        0.66600    0.58240    0.62750    1.000
    C60      C        0.89580    0.31780    0.58090    1.000
    C61      C        0.30570    0.68000    0.51350    1.000
    C62      C        0.71210    0.62700    0.49750    1.000
    C63      C        0.55830    0.43800    0.77630    1.000
    C64      C        0.60130    0.28420    0.71810    1.000
    C65      C        0.68810    0.74560    0.63880    1.000
    C66      C        0.28790    0.37300    0.50250    1.000
    C67      C        0.63170    0.69980    0.32510    1.000
    C68      C        0.86960    0.56040    0.03720    1.000
    C69      C        0.87970    0.43800    0.27630    1.000
    C70      C        0.68820    0.84600    0.69240    1.000
    C71      C        0.49610    0.73020    0.98130    1.000
    C72      C        0.42140    0.53080    0.92360    1.000
    C73      C        0.42200    0.31780    0.08090    1.000
    C74      C        0.00810    0.71880    0.04750    1.000
    C75      C        0.72980    0.38260    0.27260    1.000
    C76      C        0.27340    0.86120    0.89810    1.000
    C77      C        0.37430    0.68000    0.01350    1.000
    C78      C        0.52540    0.83880    0.00780    1.000
    C79      C        0.05750    0.74560    0.13880    1.000
    C80      C        0.41560    0.39860    0.72940    1.000
    C81      C        0.28930    0.28120    0.45250    1.000
    C82      C        0.68660    0.16120    0.49220    1.000
    C83      C        0.31190    0.25440    0.36120    1.000
    C84      C        0.69080    0.56040    0.53720    1.000
    O1       O        0.80790    0.11020    0.04130    1.000
    O2       O        0.91670    0.53780    0.32860    1.000
    O3       O        0.82400    0.09260    0.84300    1.000
    O4       O        0.25100    0.88260    0.47470    1.000
    O5       O        0.31180    0.53300    0.51810    1.000
    O6       O        0.22120    0.53300    0.01810    1.000
    O7       O        0.55460    0.12280    0.93880    1.000
    O8       O        0.17600    0.90740    0.15700    1.000
    O9       O        0.73140    0.90740    0.65700    1.000
    O10      O        0.65030    0.86260    0.77220    1.000
    O11      O        0.40010    0.91420    0.89250    1.000
    O12      O        0.36840    0.11740    0.02530    1.000
    O13      O        0.59990    0.08580    0.10750    1.000
    O14      O        0.19210    0.88980    0.95870    1.000
    O15      O        0.30230    0.11020    0.54130    1.000
    O16      O        0.51410    0.91420    0.39250    1.000
    O17      O        0.51070    0.00000    0.75000    1.000
    O18      O        0.63160    0.88260    0.97470    1.000
    O19      O        0.08330    0.46220    0.67140    1.000
    O20      O        0.43180    0.87720    0.56120    1.000
    O21      O        0.26860    0.09260    0.34300    1.000
    O22      O        0.44540    0.87720    0.06120    1.000
    O23      O        0.74900    0.11740    0.52530    1.000
    O24      O        0.68820    0.46700    0.48190    1.000
    O25      O        0.56820    0.12280    0.43880    1.000
    O26      O        0.77880    0.46700    0.98190    1.000
    O27      O        0.37890    0.46220    0.17140    1.000
    O28      O        0.62110    0.53780    0.82860    1.000
    O29      O        0.34970    0.13740    0.22780    1.000
    O30      O        0.48590    0.08580    0.60750    1.000
    O31      O        0.21230    0.86260    0.27220    1.000
    O32      O        0.48930    0.00000    0.25000    1.000
    O33      O        0.78770    0.13740    0.72780    1.000
    O34      O        0.69770    0.88980    0.45870    1.000
