data_functionalizedCrystal
_audit_creation_method	'EQeq! by Chris Wilmer'
_symmetry_space_group_name_H-M	'P1'
_symmetry_Int_Tables_number	1
_symmetry_cell_setting	triclinic
loop_
_symmetry_equiv_pos_as_xyz
  x,y,z
_cell_length_a	4.9213
_cell_length_b	10.8011
_cell_length_c	12.8097
_cell_angle_alpha	91.3262
_cell_angle_beta	101.075
_cell_angle_gamma	83.0799
loop_
_atom_site_label
_atom_site_type_symbol
_atom_site_fract_x
_atom_site_fract_y
_atom_site_fract_z
_atom_site_charge
Mof_Cu	Cu	0.05619	0.78433	0.22658	0.91
Mof_Cu	Cu	0.82961	0.28433	0.77342	0.922
Mof_H 	H 	0.8475	0.5266	0.6606	0.023
Mof_H 	H 	0.6274	0.6293	0.5066	0.075
Mof_H 	H 	0.0988	0.3664	0.4544	0.071
Mof_H 	H 	0.3333	0.2717	0.6104	0.015
Mof_H 	H 	0.3227	0.0948	0.8064	0.031
Mof_H 	H 	0.5862	0.9627	0.9356	0.059
Mof_H 	H 	0.0787	0.0918	0.1356	0.073
Mof_H 	H 	0.8391	0.2271	0.0038	0.013
Mof_H 	H 	0.1869	0.0266	0.3394	0.046
Mof_H 	H 	0.1208	0.1293	0.4934	0.065
Mof_H 	H 	0.6444	0.8664	0.5456	0.075
Mof_H 	H 	0.7229	0.7717	0.3896	0.018
Mof_H 	H 	0.5163	0.5948	0.1936	0.026
Mof_H 	H 	0.6506	0.4627	0.0644	0.081
Mof_H 	H 	0.9431	0.5918	0.8644	0.099
Mof_H 	H 	0.8353	0.7271	0.9962	0.002
Mof_C 	C 	0.69595	0.4936	0.6177	0.057
Mof_C 	C 	0.56513	0.5557	0.52586	-0.077
Mof_C 	C 	0.33979	0.5086	0.46178	-0.005
Mof_C 	C 	0.25239	0.4003	0.49498	-0.082
Mof_C 	C 	0.39444	0.3441	0.58808	0.056
Mof_C 	C 	0.18296	0.576	0.36032	0.275
Mof_C 	C 	0.27307	0.0943	0.87374	0.03
Mof_C 	C 	0.43059	0.0144	0.95058	-0.042
Mof_C 	C 	0.35982	0.0101	0.05024	-0.029
Mof_C 	C 	0.13316	0.0911	0.06912	-0.096
Mof_C 	C 	0.98827	0.1708	0.98914	0.09
Mof_C 	C 	0.52255	0.9213	0.1357	0.322
Mof_C 	C 	0.07825	0.9936	0.3823	-0.005
Mof_C 	C 	0.03927	0.0557	0.47414	-0.06
Mof_C 	C 	0.87801	0.0086	0.53822	0.007
Mof_C 	C 	0.75741	0.9003	0.50502	-0.087
Mof_C 	C 	0.80636	0.8441	0.41192	0.06
Mof_C 	C 	0.82264	0.076	0.63968	0.299
Mof_C 	C 	0.39933	0.5943	0.12626	0.049
Mof_C 	C 	0.48001	0.5144	0.04942	-0.083
Mof_C 	C 	0.30958	0.5101	0.94976	-0.007
Mof_C 	C 	0.06404	0.5911	0.93088	-0.142
Mof_C 	C 	0.99913	0.6708	0.01086	0.117
Mof_C 	C 	0.38685	0.4213	0.8643	0.32
Mof_N 	N 	0.6165	0.3879	0.6486	-0.198
Mof_N 	N 	0.04971	0.1719	0.89142	-0.213
Mof_N 	N 	0.9679	0.8879	0.3514	-0.178
Mof_N 	N 	0.15829	0.6719	0.10858	-0.222
Mof_O 	O 	0.28557	0.6718	0.33794	-0.37
Mof_O 	O 	0.97327	0.5355	0.31014	-0.256
Mof_O 	O 	0.76875	0.8822	0.1235	-0.381
Mof_O 	O 	0.41212	0.8939	0.20964	-0.363
Mof_O 	O 	0.94763	0.1718	0.66206	-0.365
Mof_O 	O 	0.66313	0.0355	0.68986	-0.275
Mof_O 	O 	0.64525	0.3822	0.8765	-0.385
Mof_O 	O 	0.20248	0.3939	0.79036	-0.365
_end
