data_functionalizedCrystal
_audit_creation_method	'EQeq! by Chris Wilmer'
_symmetry_space_group_name_H-M	'P1'
_symmetry_Int_Tables_number	1
_symmetry_cell_setting	triclinic
loop_
_symmetry_equiv_pos_as_xyz
  x,y,z
_cell_length_a	10.815
_cell_length_b	16.413
_cell_length_c	22.7861
_cell_angle_alpha	90
_cell_angle_beta	90
_cell_angle_gamma	90
loop_
_atom_site_label
_atom_site_type_symbol
_atom_site_fract_x
_atom_site_fract_y
_atom_site_fract_z
_atom_site_charge
Mof_Cu	Cu	0.5	0.97576	0.25	0.858
Mof_Cu	Cu	0.5	0.52424	0.75	0.858
Mof_Cu	Cu	0.5	0.02424	0.75	0.857
Mof_Cu	Cu	0.5	0.47576	0.25	0.857
Mof_H 	H 	0.8359	0.3418	0.0165	0.039
Mof_H 	H 	0.9521	0.3377	0.0703	0.041
Mof_H 	H 	0.7678	0.2279	0.2435	0.066
Mof_H 	H 	0.6582	0.1141	0.2892	0.022
Mof_H 	H 	0.5633	0.022	0.1248	0.013
Mof_H 	H 	0.6788	0.1301	0.0754	0.058
Mof_H 	H 	0.1184	0.3417	0.9938	0.044
Mof_H 	H 	0.9995	0.3527	0.9419	0.044
Mof_H 	H 	0.4667	0.2784	0.8737	0.052
Mof_H 	H 	0.5698	0.1744	0.8161	0.02
Mof_H 	H 	0.2342	0.0602	0.7811	0.024
Mof_H 	H 	0.1222	0.1585	0.8419	0.07
Mof_H 	H 	0.1641	0.3418	0.4835	0.041
Mof_H 	H 	0.0479	0.3377	0.4297	0.046
Mof_H 	H 	0.2322	0.2279	0.2565	0.067
Mof_H 	H 	0.3418	0.1141	0.2108	0.022
Mof_H 	H 	0.4367	0.022	0.3752	0.013
Mof_H 	H 	0.3212	0.1301	0.4246	0.057
Mof_H 	H 	0.8816	0.3417	0.5062	0.049
Mof_H 	H 	0.0005	0.3527	0.5581	0.056
Mof_H 	H 	0.5333	0.2784	0.6263	0.052
Mof_H 	H 	0.4302	0.1744	0.6839	0.02
Mof_H 	H 	0.7658	0.0602	0.7189	0.023
Mof_H 	H 	0.8778	0.1585	0.6581	0.068
Mof_H 	H 	0.8359	0.1582	0.9835	0.038
Mof_H 	H 	0.9521	0.1623	0.9297	0.04
Mof_H 	H 	0.7678	0.2721	0.7565	0.066
Mof_H 	H 	0.6582	0.3859	0.7108	0.022
Mof_H 	H 	0.5633	0.478	0.8752	0.012
Mof_H 	H 	0.6788	0.3699	0.9246	0.057
Mof_H 	H 	0.1184	0.1583	0.0062	0.045
Mof_H 	H 	0.9995	0.1473	0.0581	0.044
Mof_H 	H 	0.4667	0.2216	0.1263	0.053
Mof_H 	H 	0.5698	0.3256	0.1839	0.02
Mof_H 	H 	0.2342	0.4398	0.2189	0.024
Mof_H 	H 	0.1222	0.3415	0.1581	0.07
Mof_H 	H 	0.1641	0.1582	0.5165	0.041
Mof_H 	H 	0.0479	0.1623	0.5703	0.046
Mof_H 	H 	0.2322	0.2721	0.7435	0.067
Mof_H 	H 	0.3418	0.3859	0.7892	0.022
Mof_H 	H 	0.4367	0.478	0.6248	0.013
Mof_H 	H 	0.3212	0.3699	0.5754	0.057
Mof_H 	H 	0.8816	0.1583	0.4938	0.049
Mof_H 	H 	0.0005	0.1473	0.4419	0.056
Mof_H 	H 	0.5333	0.2216	0.3737	0.052
Mof_H 	H 	0.4302	0.3256	0.3161	0.02
Mof_H 	H 	0.7658	0.4398	0.2811	0.023
Mof_H 	H 	0.8778	0.3415	0.3419	0.068
Mof_H 	H 	0.1641	0.6582	0.9835	0.041
Mof_H 	H 	0.0479	0.6623	0.9297	0.046
Mof_H 	H 	0.2322	0.7721	0.7565	0.067
Mof_H 	H 	0.3418	0.8859	0.7108	0.022
Mof_H 	H 	0.4367	0.978	0.8752	0.013
Mof_H 	H 	0.3212	0.8699	0.9246	0.057
Mof_H 	H 	0.8816	0.6583	0.0062	0.049
Mof_H 	H 	0.0005	0.6473	0.0581	0.056
Mof_H 	H 	0.5333	0.7216	0.1263	0.052
Mof_H 	H 	0.4302	0.8256	0.1839	0.02
Mof_H 	H 	0.7658	0.9398	0.2189	0.023
Mof_H 	H 	0.8778	0.8415	0.1581	0.068
Mof_H 	H 	0.8359	0.6582	0.5165	0.038
Mof_H 	H 	0.9521	0.6623	0.5703	0.04
Mof_H 	H 	0.7678	0.7721	0.7435	0.066
Mof_H 	H 	0.6582	0.8859	0.7892	0.022
Mof_H 	H 	0.5633	0.978	0.6248	0.013
Mof_H 	H 	0.6788	0.8699	0.5754	0.057
Mof_H 	H 	0.1184	0.6583	0.4938	0.044
Mof_H 	H 	0.9995	0.6473	0.4419	0.043
Mof_H 	H 	0.4667	0.7216	0.3737	0.052
Mof_H 	H 	0.5698	0.8256	0.3161	0.02
Mof_H 	H 	0.2342	0.9398	0.2811	0.024
Mof_H 	H 	0.1222	0.8415	0.3419	0.07
Mof_H 	H 	0.1641	0.8418	0.0165	0.041
Mof_H 	H 	0.0479	0.8377	0.0703	0.046
Mof_H 	H 	0.2322	0.7279	0.2435	0.067
Mof_H 	H 	0.3418	0.6141	0.2892	0.022
Mof_H 	H 	0.4367	0.522	0.1248	0.013
Mof_H 	H 	0.3212	0.6301	0.0754	0.058
Mof_H 	H 	0.8816	0.8417	0.9938	0.049
Mof_H 	H 	0.0005	0.8527	0.9419	0.056
Mof_H 	H 	0.5333	0.7784	0.8737	0.052
Mof_H 	H 	0.4302	0.6744	0.8161	0.02
Mof_H 	H 	0.7658	0.5602	0.7811	0.023
Mof_H 	H 	0.8778	0.6585	0.8419	0.068
Mof_H 	H 	0.8359	0.8418	0.4835	0.038
Mof_H 	H 	0.9521	0.8377	0.4297	0.04
Mof_H 	H 	0.7678	0.7279	0.2565	0.066
Mof_H 	H 	0.6582	0.6141	0.2108	0.022
Mof_H 	H 	0.5633	0.522	0.3752	0.013
Mof_H 	H 	0.6788	0.6301	0.4246	0.057
Mof_H 	H 	0.1184	0.8417	0.5062	0.044
Mof_H 	H 	0.9995	0.8527	0.5581	0.043
Mof_H 	H 	0.4667	0.7784	0.6263	0.052
Mof_H 	H 	0.5698	0.6744	0.6839	0.02
Mof_H 	H 	0.2342	0.5602	0.7189	0.024
Mof_H 	H 	0.1222	0.6585	0.6581	0.07
Mof_C 	C 	0.8952	0.3016	0.0413	0.08
Mof_C 	C 	0.805	0.253	0.1233	0.35
Mof_C 	C 	0.7333	0.1867	0.1563	-0.045
Mof_C 	C 	0.7243	0.1822	0.2164	-0.018
Mof_C 	C 	0.6599	0.1194	0.242	0.028
Mof_C 	C 	0.6085	0.0681	0.1509	0.035
Mof_C 	C 	0.6739	0.1284	0.1227	-0.033
Mof_C 	C 	0.0562	0.3092	0.965	0.065
Mof_C 	C 	0.2243	0.2871	0.901	0.307
Mof_C 	C 	0.2873	0.2247	0.8638	-0.043
Mof_C 	C 	0.4138	0.2292	0.8547	-0.035
Mof_C 	C 	0.4707	0.1716	0.8217	0.029
Mof_C 	C 	0.285	0.1081	0.8029	0.032
Mof_C 	C 	0.2212	0.1631	0.8367	-0.028
Mof_C 	C 	0.1048	0.3016	0.4587	0.072
Mof_C 	C 	0.195	0.253	0.3767	0.35
Mof_C 	C 	0.2667	0.1867	0.3437	-0.044
Mof_C 	C 	0.2757	0.1822	0.2836	-0.018
Mof_C 	C 	0.3401	0.1194	0.258	0.028
Mof_C 	C 	0.3915	0.0681	0.3491	0.035
Mof_C 	C 	0.3261	0.1284	0.3773	-0.033
Mof_C 	C 	0.9438	0.3092	0.535	0.041
Mof_C 	C 	0.7757	0.2871	0.599	0.306
Mof_C 	C 	0.7127	0.2247	0.6362	-0.043
Mof_C 	C 	0.5862	0.2292	0.6453	-0.035
Mof_C 	C 	0.5293	0.1716	0.6783	0.029
Mof_C 	C 	0.715	0.1081	0.6971	0.032
Mof_C 	C 	0.7788	0.1631	0.6633	-0.028
Mof_C 	C 	0.8952	0.1984	0.9587	0.078
Mof_C 	C 	0.805	0.247	0.8767	0.35
Mof_C 	C 	0.7333	0.3133	0.8437	-0.046
Mof_C 	C 	0.7243	0.3178	0.7836	-0.018
Mof_C 	C 	0.6599	0.3806	0.758	0.028
Mof_C 	C 	0.6085	0.4319	0.8491	0.035
Mof_C 	C 	0.6739	0.3716	0.8773	-0.033
Mof_C 	C 	0.0562	0.1908	0.035	0.067
Mof_C 	C 	0.2243	0.2129	0.099	0.307
Mof_C 	C 	0.2873	0.2753	0.1362	-0.043
Mof_C 	C 	0.4138	0.2708	0.1453	-0.035
Mof_C 	C 	0.4707	0.3284	0.1783	0.029
Mof_C 	C 	0.285	0.3919	0.1971	0.033
Mof_C 	C 	0.2212	0.3369	0.1633	-0.028
Mof_C 	C 	0.1048	0.1984	0.5413	0.072
Mof_C 	C 	0.195	0.247	0.6233	0.35
Mof_C 	C 	0.2667	0.3133	0.6563	-0.045
Mof_C 	C 	0.2757	0.3178	0.7164	-0.018
Mof_C 	C 	0.3401	0.3806	0.742	0.028
Mof_C 	C 	0.3915	0.4319	0.6509	0.035
Mof_C 	C 	0.3261	0.3716	0.6227	-0.033
Mof_C 	C 	0.9438	0.1908	0.465	0.041
Mof_C 	C 	0.7757	0.2129	0.401	0.306
Mof_C 	C 	0.7127	0.2753	0.3638	-0.043
Mof_C 	C 	0.5862	0.2708	0.3547	-0.035
Mof_C 	C 	0.5293	0.3284	0.3217	0.029
Mof_C 	C 	0.715	0.3919	0.3029	0.032
Mof_C 	C 	0.7788	0.3369	0.3367	-0.028
Mof_C 	C 	0.1048	0.6984	0.9587	0.071
Mof_C 	C 	0.195	0.747	0.8767	0.35
Mof_C 	C 	0.2667	0.8133	0.8437	-0.045
Mof_C 	C 	0.2757	0.8178	0.7836	-0.018
Mof_C 	C 	0.3401	0.8806	0.758	0.028
Mof_C 	C 	0.3915	0.9319	0.8491	0.035
Mof_C 	C 	0.3261	0.8716	0.8773	-0.033
Mof_C 	C 	0.9438	0.6908	0.035	0.04
Mof_C 	C 	0.7757	0.7129	0.099	0.306
Mof_C 	C 	0.7127	0.7753	0.1362	-0.043
Mof_C 	C 	0.5862	0.7708	0.1453	-0.035
Mof_C 	C 	0.5293	0.8284	0.1783	0.029
Mof_C 	C 	0.715	0.8919	0.1971	0.032
Mof_C 	C 	0.7788	0.8369	0.1633	-0.028
Mof_C 	C 	0.8952	0.6984	0.5413	0.081
Mof_C 	C 	0.805	0.747	0.6233	0.35
Mof_C 	C 	0.7333	0.8133	0.6563	-0.045
Mof_C 	C 	0.7243	0.8178	0.7164	-0.018
Mof_C 	C 	0.6599	0.8806	0.742	0.028
Mof_C 	C 	0.6085	0.9319	0.6509	0.035
Mof_C 	C 	0.6739	0.8716	0.6227	-0.033
Mof_C 	C 	0.0562	0.6908	0.465	0.068
Mof_C 	C 	0.2243	0.7129	0.401	0.307
Mof_C 	C 	0.2873	0.7753	0.3638	-0.043
Mof_C 	C 	0.4138	0.7708	0.3547	-0.035
Mof_C 	C 	0.4707	0.8284	0.3217	0.029
Mof_C 	C 	0.285	0.8919	0.3029	0.033
Mof_C 	C 	0.2212	0.8369	0.3367	-0.028
Mof_C 	C 	0.1048	0.8016	0.0413	0.072
Mof_C 	C 	0.195	0.753	0.1233	0.35
Mof_C 	C 	0.2667	0.6867	0.1563	-0.044
Mof_C 	C 	0.2757	0.6822	0.2164	-0.018
Mof_C 	C 	0.3401	0.6194	0.242	0.028
Mof_C 	C 	0.3915	0.5681	0.1509	0.035
Mof_C 	C 	0.3261	0.6284	0.1227	-0.033
Mof_C 	C 	0.9438	0.8092	0.965	0.04
Mof_C 	C 	0.7757	0.7871	0.901	0.306
Mof_C 	C 	0.7127	0.7247	0.8638	-0.043
Mof_C 	C 	0.5862	0.7292	0.8547	-0.035
Mof_C 	C 	0.5293	0.6716	0.8217	0.029
Mof_C 	C 	0.715	0.6081	0.8029	0.032
Mof_C 	C 	0.7788	0.6631	0.8367	-0.028
Mof_C 	C 	0.8952	0.8016	0.4587	0.081
Mof_C 	C 	0.805	0.753	0.3767	0.35
Mof_C 	C 	0.7333	0.6867	0.3437	-0.045
Mof_C 	C 	0.7243	0.6822	0.2836	-0.018
Mof_C 	C 	0.6599	0.6194	0.258	0.028
Mof_C 	C 	0.6085	0.5681	0.3491	0.035
Mof_C 	C 	0.6739	0.6284	0.3773	-0.033
Mof_C 	C 	0.0562	0.8092	0.535	0.068
Mof_C 	C 	0.2243	0.7871	0.599	0.307
Mof_C 	C 	0.2873	0.7247	0.6362	-0.043
Mof_C 	C 	0.4138	0.7292	0.6453	-0.035
Mof_C 	C 	0.4707	0.6716	0.6783	0.029
Mof_C 	C 	0.285	0.6081	0.6971	0.033
Mof_C 	C 	0.2212	0.6631	0.6633	-0.028
Mof_C 	C 	0.976	0.25	-0	-0.034
Mof_C 	C 	0.024	0.25	0.5	-0.012
Mof_C 	C 	0.024	0.75	-0	-0.011
Mof_C 	C 	0.976	0.75	0.5	-0.038
Mof_N 	N 	0.5987	0.0642	0.209	-0.215
Mof_N 	N 	0.408	0.1115	0.796	-0.216
Mof_N 	N 	0.4013	0.0642	0.291	-0.215
Mof_N 	N 	0.592	0.1115	0.704	-0.216
Mof_N 	N 	0.5987	0.4358	0.791	-0.216
Mof_N 	N 	0.408	0.3885	0.204	-0.216
Mof_N 	N 	0.4013	0.4358	0.709	-0.216
Mof_N 	N 	0.592	0.3885	0.296	-0.216
Mof_N 	N 	0.4013	0.9358	0.791	-0.215
Mof_N 	N 	0.592	0.8885	0.204	-0.216
Mof_N 	N 	0.5987	0.9358	0.709	-0.215
Mof_N 	N 	0.408	0.8885	0.296	-0.216
Mof_N 	N 	0.4013	0.5642	0.209	-0.216
Mof_N 	N 	0.592	0.6115	0.796	-0.216
Mof_N 	N 	0.5987	0.5642	0.291	-0.216
Mof_N 	N 	0.408	0.6115	0.704	-0.216
Mof_O 	O 	0.7984	0.3223	0.1492	-0.248
Mof_O 	O 	0.8233	0.2438	0.07404	-0.304
Mof_O 	O 	0.1249	0.2591	0.92408	-0.253
Mof_O 	O 	0.2606	0.3567	0.9052	-0.248
Mof_O 	O 	0.2016	0.3223	0.3508	-0.247
Mof_O 	O 	0.1767	0.2438	0.42596	-0.303
Mof_O 	O 	0.8751	0.2591	0.57592	-0.251
Mof_O 	O 	0.7394	0.3567	0.5948	-0.248
Mof_O 	O 	0.7984	0.1777	0.8508	-0.249
Mof_O 	O 	0.8233	0.2562	0.92596	-0.305
Mof_O 	O 	0.1249	0.2409	0.07592	-0.253
Mof_O 	O 	0.2606	0.1433	0.0948	-0.247
Mof_O 	O 	0.2016	0.1777	0.6492	-0.247
Mof_O 	O 	0.1767	0.2562	0.57404	-0.303
Mof_O 	O 	0.8751	0.2409	0.42408	-0.251
Mof_O 	O 	0.7394	0.1433	0.4052	-0.248
Mof_O 	O 	0.2016	0.6777	0.8508	-0.247
Mof_O 	O 	0.1767	0.7562	0.92596	-0.303
Mof_O 	O 	0.8751	0.7409	0.07592	-0.25
Mof_O 	O 	0.7394	0.6433	0.0948	-0.248
Mof_O 	O 	0.7984	0.6777	0.6492	-0.249
Mof_O 	O 	0.8233	0.7562	0.57404	-0.305
Mof_O 	O 	0.1249	0.7409	0.42408	-0.253
Mof_O 	O 	0.2606	0.6433	0.4052	-0.248
Mof_O 	O 	0.2016	0.8223	0.1492	-0.247
Mof_O 	O 	0.1767	0.7438	0.07404	-0.302
Mof_O 	O 	0.8751	0.7591	0.92408	-0.251
Mof_O 	O 	0.7394	0.8567	0.9052	-0.248
Mof_O 	O 	0.7984	0.8223	0.3508	-0.249
Mof_O 	O 	0.8233	0.7438	0.42596	-0.305
Mof_O 	O 	0.1249	0.7591	0.57592	-0.253
Mof_O 	O 	0.2606	0.8567	0.5948	-0.248
Mof_N 	N 	1.9749e-33	0.188	0.25	0.016
Mof_O 	O 	0.0202	0.1944	0.1918	-0.104
Mof_O 	O 	0.9798	0.1944	0.3082	-0.11
Mof_O 	O 	8.21607e-33	0.094	0.25	-0.092
Mof_N 	N 	5.9247e-33	0.312	0.75	0.016
Mof_O 	O 	0.0202	0.3056	0.8082	-0.104
Mof_O 	O 	0.9798	0.3056	0.6918	-0.11
Mof_O 	O 	1.8407e-32	0.406	0.75	-0.092
Mof_N 	N 	1.8407e-32	0.812	0.75	0.016
Mof_O 	O 	0.9798	0.8056	0.8082	-0.11
Mof_O 	O 	0.0202	0.8056	0.6918	-0.104
Mof_O 	O 	5.9247e-33	0.906	0.75	-0.092
Mof_N 	N 	1.44572e-32	0.688	0.25	0.016
Mof_O 	O 	0.9798	0.6944	0.1918	-0.11
Mof_O 	O 	0.0202	0.6944	0.3082	-0.104
Mof_O 	O 	1.44572e-32	0.594	0.25	-0.092
_end
