data_functionalizedCrystal
_audit_creation_method	'EQeq! by Chris Wilmer'
_symmetry_space_group_name_H-M	'P1'
_symmetry_Int_Tables_number	1
_symmetry_cell_setting	triclinic
loop_
_symmetry_equiv_pos_as_xyz
  x,y,z
_cell_length_a	7.4407
_cell_length_b	9.766
_cell_length_c	9.85
_cell_angle_alpha	118.297
_cell_angle_beta	102.247
_cell_angle_gamma	91.434
loop_
_atom_site_label
_atom_site_type_symbol
_atom_site_fract_x
_atom_site_fract_y
_atom_site_fract_z
_atom_site_charge
Mof_Cd	Cd	0.7379	0.97328	0.48397	0.455
Mof_O 	O 	0.7328	0.87	0.6718	-0.244
Mof_O 	O 	0.5706	0.0564	0.6703	-0.291
Mof_O 	O 	0.0225	0.106	0.6731	-0.282
Mof_O 	O 	0.2605	0.2721	0.7135	-0.264
Mof_C 	C 	0.6274	0.9675	0.7292	0.28
Mof_C 	C 	0.5631	0.9846	0.8702	-0.047
Mof_C 	C 	0.4603	0.1047	0.9435	-0.021
Mof_H 	H 	0.4345	0.1753	0.9062	0.059
Mof_C 	C 	0.3967	0.119	0.0715	-0.023
Mof_H 	H 	0.3269	0.1982	0.1185	0.063
Mof_C 	C 	0.115	0.2426	0.7463	0.286
Mof_C 	C 	0.0543	0.374	0.8782	-0.048
Mof_C 	C 	0.8653	0.3829	0.872	-0.023
Mof_H 	H 	0.7755	0.3045	0.7868	0.061
Mof_C 	C 	0.1873	0.4915	0.0073	-0.02
Mof_H 	H 	0.3129	0.4855	0.0123	0.058
Mof_Cd	Cd	0.2621	0.02672	0.51603	0.456
Mof_O 	O 	0.2672	0.13	0.3282	-0.243
Mof_O 	O 	0.4294	0.9436	0.3297	-0.291
Mof_O 	O 	0.9775	0.894	0.3269	-0.282
Mof_O 	O 	0.7395	0.7279	0.2865	-0.264
Mof_C 	C 	0.3726	0.0325	0.2708	0.28
Mof_C 	C 	0.4369	0.0154	0.1298	-0.047
Mof_C 	C 	0.5397	0.8953	0.0565	-0.021
Mof_H 	H 	0.5655	0.8247	0.0938	0.059
Mof_C 	C 	0.6033	0.881	0.9285	-0.023
Mof_H 	H 	0.6731	0.8018	0.8815	0.063
Mof_C 	C 	0.885	0.7574	0.2537	0.286
Mof_C 	C 	0.9457	0.626	0.1218	-0.048
Mof_C 	C 	0.1347	0.6171	0.128	-0.023
Mof_H 	H 	0.2245	0.6955	0.2132	0.061
Mof_C 	C 	0.8127	0.5085	0.9927	-0.02
Mof_H 	H 	0.6871	0.5145	0.9877	0.058
_end
