# CIF file generated by openbabel 3.1.0, see https://openbabel.org
data_I
_chemical_name_common 'AHOKIR01_clean'
_cell_length_a 4.3999
_cell_length_b 6.6708
_cell_length_c 10.5587
_cell_angle_alpha 108.415
_cell_angle_beta 91.1869
_cell_angle_gamma 90
_space_group_name_H-M_alt 'P 1'
_space_group_name_Hall 'P 1'
loop_
    _symmetry_equiv_pos_as_xyz
    x,y,z
loop_
    _atom_site_label
    _atom_site_type_symbol
    _atom_site_fract_x
    _atom_site_fract_y
    _atom_site_fract_z
    _atom_site_occupancy
    Cu1      Cu       0.50000    0.00000    0.50000    1.000
    Cu2      Cu       0.50000    0.50000    0.50000    1.000
    P1       P        0.98060    0.17422    0.34844    1.000
    P2       P        0.01940    0.82578    0.65156    1.000
    H1       H        0.23000    0.99700    0.18400    1.000
    H2       H        0.80300    0.96100    0.06400    1.000
    H3       H        0.77000    0.81300    0.81600    1.000
    H4       H        0.19700    0.89700    0.93600    1.000
    H5       H        0.77000    0.00300    0.81600    1.000
    H6       H        0.19700    0.03900    0.93600    1.000
    H7       H        0.23000    0.18700    0.18400    1.000
    H8       H        0.80300    0.10300    0.06400    1.000
    C1       C        0.13600    0.09130    0.18260    1.000
    C2       C        0.92400    0.03330    0.06660    1.000
    C3       C        0.86400    0.90870    0.81740    1.000
    C4       C        0.07600    0.96670    0.93340    1.000
    O1       O        0.79210    0.99110    0.36300    1.000
    O2       O        0.20790    0.62810    0.63700    1.000
    O3       O        0.20790    0.00890    0.63700    1.000
    O4       O        0.79210    0.37190    0.36300    1.000
    O5       O        0.25500    0.22450    0.44900    1.000
    O6       O        0.74500    0.77550    0.55100    1.000
