# CIF file generated by openbabel 3.1.0, see https://openbabel.org
data_I
_chemical_name_common 'image0'
_cell_length_a 17.037
_cell_length_b 19.255
_cell_length_c 29.997
_cell_angle_alpha 90
_cell_angle_beta 90.922
_cell_angle_gamma 90
_space_group_name_H-M_alt 'P 1'
_space_group_name_Hall 'P 1'
loop_
    _symmetry_equiv_pos_as_xyz
    x,y,z
loop_
    _atom_site_label
    _atom_site_type_symbol
    _atom_site_fract_x
    _atom_site_fract_y
    _atom_site_fract_z
    _atom_site_occupancy
    Cd1      Cd       0.12346    0.87077    0.12580    1.000
    Cd2      Cd       0.62858    0.61980    0.12421    1.000
    F1       F        0.79233    0.16675    0.18619    1.000
    F2       F        0.90762    0.18418    0.04536    1.000
    F3       F        0.83387    0.29779    0.20389    1.000
    F4       F        0.94892    0.31498    0.06290    1.000
    F5       F        0.42966    0.15439    0.05996    1.000
    F6       F        0.35996    0.19889    0.20849    1.000
    F7       F        0.39724    0.28592    0.03861    1.000
    F8       F        0.32787    0.33029    0.18723    1.000
    F9       F        0.24622    0.51107    0.15541    1.000
    F10      F        0.34569    0.57985    0.29608    1.000
    F11      F        0.16644    0.40932    0.19348    1.000
    F12      F        0.26615    0.47753    0.33398    1.000
    F13      F        0.91316    0.58988    0.95053    1.000
    F14      F        0.99497    0.49167    0.91013    1.000
    F15      F        0.51423    0.97366    0.08827    1.000
    F16      F        0.58897    0.08132    0.05414    1.000
    N1       N        0.02453    0.95770    0.11616    1.000
    N2       N        0.72400    0.53062    0.13423    1.000
    N3       N        0.22101    0.95509    0.13655    1.000
    N4       N        0.53406    0.53165    0.11100    1.000
    N5       N        0.20540    0.78009    0.15632    1.000
    N6       N        0.29481    0.20584    0.33843    1.000
    N7       N        0.04390    0.78090    0.09439    1.000
    N8       N        0.55053    0.70729    0.08866    1.000
    C1       C        0.00300    0.99791    0.14999    1.000
    H1       H        0.03260    0.99520    0.17710    1.000
    C2       C        0.98283    0.96447    0.07778    1.000
    H2       H        0.99780    0.93750    0.05280    1.000
    C3       C        0.94070    0.04305    0.14806    1.000
    H3       H        0.92820    0.07040    0.17330    1.000
    C4       C        0.91946    0.00874    0.07299    1.000
    H4       H        0.89210    0.01190    0.04520    1.000
    C5       C        0.89588    0.04869    0.10905    1.000
    C6       C        0.82569    0.09737    0.10492    1.000
    H5       H        0.80360    0.09470    0.07420    1.000
    H6       H        0.78460    0.08220    0.12570    1.000
    C7       C        0.84808    0.17095    0.11507    1.000
    C8       C        0.83082    0.20282    0.15503    1.000
    C9       C        0.88873    0.21157    0.08513    1.000
    C10      C        0.85213    0.27006    0.16385    1.000
    C11      C        0.90979    0.27870    0.09398    1.000
    C12      C        0.89247    0.31060    0.13421    1.000
    C13      C        0.91596    0.38429    0.14467    1.000
    H7       H        0.95710    0.39910    0.12380    1.000
    H8       H        0.93860    0.38630    0.17530    1.000
    C14      C        0.84695    0.43430    0.14115    1.000
    C15      C        0.82378    0.47303    0.17769    1.000
    H9       H        0.84920    0.46690    0.20580    1.000
    C16      C        0.80501    0.44324    0.10145    1.000
    H10      H        0.81780    0.41670    0.07590    1.000
    C17      C        0.76370    0.52047    0.17286    1.000
    H11      H        0.74960    0.54740    0.19800    1.000
    C18      C        0.74489    0.49080    0.09949    1.000
    H12      H        0.71660    0.49580    0.07210    1.000
    C19      C        0.23150    0.00520    0.10772    1.000
    H13      H        0.19450    0.00910    0.08380    1.000
    C20      C        0.27120    0.95530    0.17049    1.000
    H14      H        0.26450    0.92140    0.19310    1.000
    C21      C        0.33320    0.00160    0.17559    1.000
    H15      H        0.36640    0.99960    0.20130    1.000
    C22      C        0.29180    0.05260    0.10930    1.000
    H16      H        0.29570    0.08710    0.08680    1.000
    C23      C        0.34604    0.05001    0.14328    1.000
    C24      C        0.41606    0.09846    0.14749    1.000
    H17      H        0.43620    0.09740    0.17860    1.000
    H18      H        0.45830    0.08140    0.12800    1.000
    C25      C        0.39650    0.17230    0.13498    1.000
    C26      C        0.40402    0.19742    0.09203    1.000
    C27      C        0.36991    0.21898    0.16629    1.000
    C28      C        0.38816    0.26541    0.08082    1.000
    C29      C        0.35337    0.28690    0.15510    1.000
    C30      C        0.36189    0.31209    0.11219    1.000
    C31      C        0.34211    0.38651    0.09975    1.000
    H19      H        0.32140    0.38760    0.06870    1.000
    H20      H        0.30020    0.40350    0.11950    1.000
    C32      C        0.41182    0.43491    0.10349    1.000
    C33      C        0.45760    0.44010    0.14211    1.000
    H21      H        0.44780    0.41060    0.16680    1.000
    C34      C        0.43135    0.47811    0.06859    1.000
    H22      H        0.40320    0.47510    0.04110    1.000
    C35      C        0.51690    0.48795    0.14434    1.000
    H23      H        0.54780    0.49040    0.17100    1.000
    C36      C        0.49132    0.52545    0.07342    1.000
    H24      H        0.50290    0.55500    0.04900    1.000
    C37      C        0.23185    0.77564    0.19819    1.000
    H25      H        0.21900    0.81200    0.21820    1.000
    C38      C        0.22445    0.72833    0.12893    1.000
    H26      H        0.20640    0.73050    0.09880    1.000
    C39      C        0.27697    0.72122    0.21423    1.000
    H27      H        0.29450    0.72080    0.24440    1.000
    C40      C        0.26929    0.67145    0.14205    1.000
    H28      H        0.28120    0.63590    0.12120    1.000
    C41      C        0.29650    0.66689    0.18565    1.000
    C42      C        0.34590    0.60578    0.20156    1.000
    H29      H        0.38660    0.62290    0.22270    1.000
    H30      H        0.37300    0.58550    0.17570    1.000
    C43      C        0.29890    0.54907    0.22420    1.000
    C44      C        0.25230    0.50350    0.20001    1.000
    C45      C        0.30122    0.53852    0.26969    1.000
    C46      C        0.21110    0.45056    0.21978    1.000
    C47      C        0.26036    0.48534    0.28925    1.000
    C48      C        0.21336    0.43949    0.26512    1.000
    C49      C        0.16673    0.38254    0.28758    1.000
    H31      H        0.14000    0.40290    0.31360    1.000
    H32      H        0.12540    0.36640    0.26640    1.000
    C50      C        0.21318    0.32042    0.30323    1.000
    C51      C        0.17441    0.26601    0.32354    1.000
    H33      H        0.11880    0.26660    0.32550    1.000
    C52      C        0.29320    0.31434    0.29979    1.000
    H34      H        0.32230    0.34950    0.28520    1.000
    C53      C        0.21679    0.21112    0.34082    1.000
    H35      H        0.18900    0.17500    0.35520    1.000
    C54      C        0.33142    0.25707    0.31747    1.000
    H36      H        0.38670    0.25410    0.31450    1.000
    C55      C        0.01632    0.77861    0.05247    1.000
    H37      H        0.02760    0.81640    0.03320    1.000
    C56      C        0.02635    0.72708    0.12063    1.000
    H38      H        0.04440    0.72780    0.15080    1.000
    C57      C        0.97193    0.72374    0.03563    1.000
    H39      H        0.95330    0.72470    0.00560    1.000
    C58      C        0.98330    0.67058    0.10611    1.000
    H40      H        0.97300    0.63340    0.12600    1.000
    C59      C        0.95508    0.66799    0.06262    1.000
    C60      C        0.90738    0.60695    0.04568    1.000
    H41      H        0.86590    0.62420    0.02500    1.000
    H42      H        0.88120    0.58460    0.07120    1.000
    C61      C        0.95623    0.55287    0.02178    1.000
    C62      C        0.95620    0.54638    0.97598    1.000
    C63      C        0.99907    0.49495    0.95495    1.000
    C64      C        0.47215    0.70938    0.08986    1.000
    H43      H        0.44530    0.67160    0.10310    1.000
    C65      C        0.58533    0.76075    0.06907    1.000
    H44      H        0.64090    0.75990    0.06690    1.000
    C66      C        0.42851    0.76361    0.07287    1.000
    H45      H        0.37290    0.76230    0.07420    1.000
    C67      C        0.54583    0.81719    0.05168    1.000
    H46      H        0.57410    0.85400    0.03830    1.000
    C68      C        0.46530    0.82004    0.05382    1.000
    C69      C        0.41572    0.88163    0.03870    1.000
    H47      H        0.37640    0.86500    0.01660    1.000
    H48      H        0.38680    0.89930    0.06470    1.000
    C70      C        0.46010    0.94155    0.01838    1.000
    C71      C        0.50620    0.98572    0.04404    1.000
    C72      C        0.54515    0.04211    0.02644    1.000
    Cd3      Cd       0.87654    0.37077    0.37420    1.000
    Cd4      Cd       0.37142    0.11980    0.37579    1.000
    F17      F        0.20767    0.66675    0.31381    1.000
    F18      F        0.09238    0.68418    0.45464    1.000
    F19      F        0.16613    0.79779    0.29611    1.000
    F20      F        0.05108    0.81498    0.43710    1.000
    F21      F        0.57034    0.65439    0.44004    1.000
    F22      F        0.64004    0.69889    0.29151    1.000
    F23      F        0.60276    0.78592    0.46139    1.000
    F24      F        0.67213    0.83029    0.31277    1.000
    F25      F        0.75378    0.01107    0.34459    1.000
    F26      F        0.65431    0.07985    0.20392    1.000
    F27      F        0.83356    0.90932    0.30652    1.000
    F28      F        0.73385    0.97753    0.16602    1.000
    F29      F        0.08684    0.08988    0.54947    1.000
    F30      F        0.00503    0.99167    0.58987    1.000
    F31      F        0.48577    0.47366    0.41173    1.000
    F32      F        0.41103    0.58132    0.44586    1.000
    N9       N        0.97547    0.45770    0.38384    1.000
    N10      N        0.27600    0.03062    0.36577    1.000
    N11      N        0.77899    0.45509    0.36345    1.000
    N12      N        0.46594    0.03165    0.38900    1.000
    N13      N        0.79460    0.28009    0.34368    1.000
    N14      N        0.70519    0.70584    0.16157    1.000
    N15      N        0.95610    0.28090    0.40561    1.000
    N16      N        0.44947    0.20729    0.41134    1.000
    C73      C        0.99700    0.49791    0.35001    1.000
    H49      H        0.96740    0.49520    0.32290    1.000
    C74      C        0.01717    0.46447    0.42222    1.000
    H50      H        0.00220    0.43750    0.44720    1.000
    C75      C        0.05930    0.54305    0.35194    1.000
    H51      H        0.07180    0.57040    0.32670    1.000
    C76      C        0.08054    0.50874    0.42701    1.000
    H52      H        0.10790    0.51190    0.45480    1.000
    C77      C        0.10412    0.54869    0.39095    1.000
    C78      C        0.17431    0.59737    0.39508    1.000
    H53      H        0.19640    0.59470    0.42580    1.000
    H54      H        0.21540    0.58220    0.37430    1.000
    C79      C        0.15192    0.67095    0.38493    1.000
    C80      C        0.16918    0.70282    0.34497    1.000
    C81      C        0.11127    0.71157    0.41487    1.000
    C82      C        0.14787    0.77006    0.33615    1.000
    C83      C        0.09021    0.77870    0.40602    1.000
    C84      C        0.10753    0.81060    0.36579    1.000
    C85      C        0.08404    0.88429    0.35533    1.000
    H55      H        0.04290    0.89910    0.37620    1.000
    H56      H        0.06140    0.88630    0.32470    1.000
    C86      C        0.15305    0.93430    0.35885    1.000
    C87      C        0.17622    0.97303    0.32231    1.000
    H57      H        0.15080    0.96690    0.29420    1.000
    C88      C        0.19499    0.94324    0.39855    1.000
    H58      H        0.18220    0.91670    0.42410    1.000
    C89      C        0.23630    0.02047    0.32714    1.000
    H59      H        0.25040    0.04740    0.30200    1.000
    C90      C        0.25511    0.99080    0.40051    1.000
    H60      H        0.28340    0.99580    0.42790    1.000
    C91      C        0.76850    0.50520    0.39228    1.000
    H61      H        0.80550    0.50910    0.41620    1.000
    C92      C        0.72880    0.45530    0.32951    1.000
    H62      H        0.73550    0.42140    0.30690    1.000
    C93      C        0.66680    0.50160    0.32441    1.000
    H63      H        0.63360    0.49960    0.29870    1.000
    C94      C        0.70820    0.55260    0.39070    1.000
    H64      H        0.70430    0.58710    0.41320    1.000
    C95      C        0.65396    0.55001    0.35672    1.000
    C96      C        0.58394    0.59846    0.35251    1.000
    H65      H        0.56380    0.59740    0.32140    1.000
    H66      H        0.54170    0.58140    0.37200    1.000
    C97      C        0.60350    0.67230    0.36502    1.000
    C98      C        0.59598    0.69742    0.40797    1.000
    C99      C        0.63009    0.71898    0.33371    1.000
    C100     C        0.61184    0.76541    0.41918    1.000
    C101     C        0.64663    0.78690    0.34490    1.000
    C102     C        0.63811    0.81209    0.38781    1.000
    C103     C        0.65789    0.88651    0.40025    1.000
    H67      H        0.67860    0.88760    0.43130    1.000
    H68      H        0.69980    0.90350    0.38050    1.000
    C104     C        0.58818    0.93491    0.39651    1.000
    C105     C        0.54240    0.94010    0.35789    1.000
    H69      H        0.55220    0.91060    0.33320    1.000
    C106     C        0.56865    0.97811    0.43141    1.000
    H70      H        0.59680    0.97510    0.45890    1.000
    C107     C        0.48310    0.98795    0.35566    1.000
    H71      H        0.45220    0.99040    0.32900    1.000
    C108     C        0.50868    0.02545    0.42658    1.000
    H72      H        0.49710    0.05500    0.45100    1.000
    C109     C        0.76815    0.27564    0.30181    1.000
    H73      H        0.78100    0.31200    0.28180    1.000
    C110     C        0.77555    0.22833    0.37107    1.000
    H74      H        0.79360    0.23050    0.40120    1.000
    C111     C        0.72303    0.22122    0.28577    1.000
    H75      H        0.70550    0.22080    0.25560    1.000
    C112     C        0.73071    0.17145    0.35795    1.000
    H76      H        0.71880    0.13590    0.37880    1.000
    C113     C        0.70350    0.16689    0.31435    1.000
    C114     C        0.65410    0.10578    0.29844    1.000
    H77      H        0.61340    0.12290    0.27730    1.000
    H78      H        0.62700    0.08550    0.32430    1.000
    C115     C        0.70110    0.04907    0.27580    1.000
    C116     C        0.74770    0.00350    0.29999    1.000
    C117     C        0.69878    0.03852    0.23031    1.000
    C118     C        0.78890    0.95056    0.28022    1.000
    C119     C        0.73964    0.98534    0.21075    1.000
    C120     C        0.78664    0.93949    0.23488    1.000
    C121     C        0.83327    0.88254    0.21242    1.000
    H79      H        0.86000    0.90290    0.18640    1.000
    H80      H        0.87460    0.86640    0.23360    1.000
    C122     C        0.78682    0.82042    0.19677    1.000
    C123     C        0.82559    0.76601    0.17646    1.000
    H81      H        0.88120    0.76660    0.17450    1.000
    C124     C        0.70680    0.81434    0.20021    1.000
    H82      H        0.67770    0.84950    0.21480    1.000
    C125     C        0.78321    0.71112    0.15918    1.000
    H83      H        0.81100    0.67500    0.14480    1.000
    C126     C        0.66858    0.75707    0.18253    1.000
    H84      H        0.61330    0.75410    0.18550    1.000
    C127     C        0.98368    0.27861    0.44753    1.000
    H85      H        0.97240    0.31640    0.46680    1.000
    C128     C        0.97365    0.22708    0.37937    1.000
    H86      H        0.95560    0.22780    0.34920    1.000
    C129     C        0.02807    0.22374    0.46437    1.000
    H87      H        0.04670    0.22470    0.49440    1.000
    C130     C        0.01670    0.17058    0.39389    1.000
    H88      H        0.02700    0.13340    0.37400    1.000
    C131     C        0.04492    0.16799    0.43738    1.000
    C132     C        0.09262    0.10695    0.45432    1.000
    H89      H        0.13410    0.12420    0.47500    1.000
    H90      H        0.11880    0.08460    0.42880    1.000
    C133     C        0.04377    0.05287    0.47822    1.000
    C134     C        0.04380    0.04638    0.52402    1.000
    C135     C        0.00093    0.99495    0.54505    1.000
    C136     C        0.52785    0.20938    0.41014    1.000
    H91      H        0.55470    0.17160    0.39690    1.000
    C137     C        0.41467    0.26075    0.43093    1.000
    H92      H        0.35910    0.25990    0.43310    1.000
    C138     C        0.57149    0.26361    0.42713    1.000
    H93      H        0.62710    0.26230    0.42580    1.000
    C139     C        0.45417    0.31719    0.44832    1.000
    H94      H        0.42590    0.35400    0.46170    1.000
    C140     C        0.53470    0.32004    0.44618    1.000
    C141     C        0.58428    0.38163    0.46130    1.000
    H95      H        0.62360    0.36500    0.48340    1.000
    H96      H        0.61320    0.39930    0.43530    1.000
    C142     C        0.53990    0.44155    0.48162    1.000
    C143     C        0.49380    0.48572    0.45596    1.000
    C144     C        0.45485    0.54211    0.47356    1.000
    Cd5      Cd       0.87654    0.12923    0.87420    1.000
    Cd6      Cd       0.37142    0.38020    0.87579    1.000
    F33      F        0.20767    0.83325    0.81381    1.000
    F34      F        0.09238    0.81582    0.95464    1.000
    F35      F        0.16613    0.70221    0.79611    1.000
    F36      F        0.05108    0.68502    0.93710    1.000
    F37      F        0.57034    0.84561    0.94004    1.000
    F38      F        0.64004    0.80111    0.79151    1.000
    F39      F        0.60276    0.71408    0.96139    1.000
    F40      F        0.67213    0.66971    0.81277    1.000
    F41      F        0.75378    0.48893    0.84459    1.000
    F42      F        0.65431    0.42015    0.70392    1.000
    F43      F        0.83356    0.59068    0.80652    1.000
    F44      F        0.73385    0.52247    0.66602    1.000
    F45      F        0.08684    0.41012    0.04947    1.000
    F46      F        0.00503    0.50833    0.08987    1.000
    F47      F        0.48577    0.02634    0.91173    1.000
    F48      F        0.41103    0.91868    0.94586    1.000
    N17      N        0.97547    0.04230    0.88384    1.000
    N18      N        0.27600    0.46938    0.86577    1.000
    N19      N        0.77899    0.04491    0.86345    1.000
    N20      N        0.46594    0.46835    0.88900    1.000
    N21      N        0.79460    0.21991    0.84368    1.000
    N22      N        0.70519    0.79416    0.66157    1.000
    N23      N        0.95610    0.21910    0.90561    1.000
    N24      N        0.44947    0.29271    0.91134    1.000
    C145     C        0.99700    0.00209    0.85001    1.000
    H97      H        0.96740    0.00480    0.82290    1.000
    C146     C        0.01717    0.03553    0.92222    1.000
    H98      H        0.00220    0.06250    0.94720    1.000
    C147     C        0.05930    0.95695    0.85194    1.000
    H99      H        0.07180    0.92960    0.82670    1.000
    C148     C        0.08054    0.99126    0.92701    1.000
    H100     H        0.10790    0.98810    0.95480    1.000
    C149     C        0.10412    0.95131    0.89095    1.000
    C150     C        0.17431    0.90263    0.89508    1.000
    H101     H        0.19640    0.90530    0.92580    1.000
    H102     H        0.21540    0.91780    0.87430    1.000
    C151     C        0.15192    0.82905    0.88493    1.000
    C152     C        0.16918    0.79718    0.84497    1.000
    C153     C        0.11127    0.78843    0.91487    1.000
    C154     C        0.14787    0.72994    0.83615    1.000
    C155     C        0.09021    0.72130    0.90602    1.000
    C156     C        0.10753    0.68940    0.86579    1.000
    C157     C        0.08404    0.61571    0.85533    1.000
    H103     H        0.04290    0.60090    0.87620    1.000
    H104     H        0.06140    0.61370    0.82470    1.000
    C158     C        0.15305    0.56570    0.85885    1.000
    C159     C        0.17622    0.52697    0.82231    1.000
    H105     H        0.15080    0.53310    0.79420    1.000
    C160     C        0.19499    0.55676    0.89855    1.000
    H106     H        0.18220    0.58330    0.92410    1.000
    C161     C        0.23630    0.47953    0.82714    1.000
    H107     H        0.25040    0.45260    0.80200    1.000
    C162     C        0.25511    0.50920    0.90051    1.000
    H108     H        0.28340    0.50420    0.92790    1.000
    C163     C        0.76850    0.99480    0.89228    1.000
    H109     H        0.80550    0.99090    0.91620    1.000
    C164     C        0.72880    0.04470    0.82951    1.000
    H110     H        0.73550    0.07860    0.80690    1.000
    C165     C        0.66680    0.99840    0.82441    1.000
    H111     H        0.63360    0.00040    0.79870    1.000
    C166     C        0.70820    0.94740    0.89070    1.000
    H112     H        0.70430    0.91290    0.91320    1.000
    C167     C        0.65396    0.94999    0.85672    1.000
    C168     C        0.58394    0.90154    0.85251    1.000
    H113     H        0.56380    0.90260    0.82140    1.000
    H114     H        0.54170    0.91860    0.87200    1.000
    C169     C        0.60350    0.82770    0.86502    1.000
    C170     C        0.59598    0.80258    0.90797    1.000
    C171     C        0.63009    0.78102    0.83371    1.000
    C172     C        0.61184    0.73459    0.91918    1.000
    C173     C        0.64663    0.71310    0.84490    1.000
    C174     C        0.63811    0.68791    0.88781    1.000
    C175     C        0.65789    0.61349    0.90025    1.000
    H115     H        0.67860    0.61240    0.93130    1.000
    H116     H        0.69980    0.59650    0.88050    1.000
    C176     C        0.58818    0.56509    0.89651    1.000
    C177     C        0.54240    0.55990    0.85789    1.000
    H117     H        0.55220    0.58940    0.83320    1.000
    C178     C        0.56865    0.52189    0.93141    1.000
    H118     H        0.59680    0.52490    0.95890    1.000
    C179     C        0.48310    0.51205    0.85566    1.000
    H119     H        0.45220    0.50960    0.82900    1.000
    C180     C        0.50868    0.47455    0.92658    1.000
    H120     H        0.49710    0.44500    0.95100    1.000
    C181     C        0.76815    0.22436    0.80181    1.000
    H121     H        0.78100    0.18800    0.78180    1.000
    C182     C        0.77555    0.27167    0.87107    1.000
    H122     H        0.79360    0.26950    0.90120    1.000
    C183     C        0.72303    0.27878    0.78577    1.000
    H123     H        0.70550    0.27920    0.75560    1.000
    C184     C        0.73071    0.32855    0.85795    1.000
    H124     H        0.71880    0.36410    0.87880    1.000
    C185     C        0.70350    0.33311    0.81435    1.000
    C186     C        0.65410    0.39422    0.79844    1.000
    H125     H        0.61340    0.37710    0.77730    1.000
    H126     H        0.62700    0.41450    0.82430    1.000
    C187     C        0.70110    0.45093    0.77580    1.000
    C188     C        0.74770    0.49650    0.79999    1.000
    C189     C        0.69878    0.46148    0.73031    1.000
    C190     C        0.78890    0.54944    0.78022    1.000
    C191     C        0.73964    0.51466    0.71075    1.000
    C192     C        0.78664    0.56051    0.73488    1.000
    C193     C        0.83327    0.61746    0.71242    1.000
    H127     H        0.86000    0.59710    0.68640    1.000
    H128     H        0.87460    0.63360    0.73360    1.000
    C194     C        0.78682    0.67958    0.69677    1.000
    C195     C        0.82559    0.73399    0.67646    1.000
    H129     H        0.88120    0.73340    0.67450    1.000
    C196     C        0.70680    0.68566    0.70021    1.000
    H130     H        0.67770    0.65050    0.71480    1.000
    C197     C        0.78321    0.78888    0.65918    1.000
    H131     H        0.81100    0.82500    0.64480    1.000
    C198     C        0.66858    0.74293    0.68253    1.000
    H132     H        0.61330    0.74590    0.68550    1.000
    C199     C        0.98368    0.22139    0.94753    1.000
    H133     H        0.97240    0.18360    0.96680    1.000
    C200     C        0.97365    0.27292    0.87937    1.000
    H134     H        0.95560    0.27220    0.84920    1.000
    C201     C        0.02807    0.27626    0.96437    1.000
    H135     H        0.04670    0.27530    0.99440    1.000
    C202     C        0.01670    0.32942    0.89389    1.000
    H136     H        0.02700    0.36660    0.87400    1.000
    C203     C        0.04492    0.33201    0.93738    1.000
    C204     C        0.09262    0.39305    0.95432    1.000
    H137     H        0.13410    0.37580    0.97500    1.000
    H138     H        0.11880    0.41540    0.92880    1.000
    C205     C        0.04377    0.44713    0.97822    1.000
    C206     C        0.04380    0.45362    0.02402    1.000
    C207     C        0.00093    0.50505    0.04505    1.000
    C208     C        0.52785    0.29062    0.91014    1.000
    H139     H        0.55470    0.32840    0.89690    1.000
    C209     C        0.41467    0.23925    0.93093    1.000
    H140     H        0.35910    0.24010    0.93310    1.000
    C210     C        0.57149    0.23639    0.92713    1.000
    H141     H        0.62710    0.23770    0.92580    1.000
    C211     C        0.45417    0.18281    0.94832    1.000
    H142     H        0.42590    0.14600    0.96170    1.000
    C212     C        0.53470    0.17996    0.94618    1.000
    C213     C        0.58428    0.11837    0.96130    1.000
    H143     H        0.62360    0.13500    0.98340    1.000
    H144     H        0.61320    0.10070    0.93530    1.000
    C214     C        0.53990    0.05845    0.98162    1.000
    C215     C        0.49380    0.01428    0.95596    1.000
    C216     C        0.45485    0.95789    0.97356    1.000
    Cd7      Cd       0.12346    0.62923    0.62580    1.000
    Cd8      Cd       0.62858    0.88020    0.62421    1.000
    F49      F        0.79233    0.33325    0.68619    1.000
    F50      F        0.90762    0.31582    0.54536    1.000
    F51      F        0.83387    0.20221    0.70389    1.000
    F52      F        0.94892    0.18502    0.56290    1.000
    F53      F        0.42966    0.34561    0.55996    1.000
    F54      F        0.35996    0.30111    0.70849    1.000
    F55      F        0.39724    0.21408    0.53861    1.000
    F56      F        0.32787    0.16971    0.68723    1.000
    F57      F        0.24622    0.98893    0.65541    1.000
    F58      F        0.34569    0.92015    0.79608    1.000
    F59      F        0.16644    0.09068    0.69348    1.000
    F60      F        0.26615    0.02247    0.83398    1.000
    F61      F        0.91316    0.91012    0.45053    1.000
    F62      F        0.99497    0.00833    0.41013    1.000
    F63      F        0.51423    0.52634    0.58827    1.000
    F64      F        0.58897    0.41868    0.55414    1.000
    N25      N        0.02453    0.54230    0.61616    1.000
    N26      N        0.72400    0.96938    0.63423    1.000
    N27      N        0.22101    0.54491    0.63655    1.000
    N28      N        0.53406    0.96835    0.61100    1.000
    N29      N        0.20540    0.71991    0.65632    1.000
    N30      N        0.29481    0.29416    0.83843    1.000
    N31      N        0.04390    0.71910    0.59439    1.000
    N32      N        0.55053    0.79271    0.58866    1.000
    C217     C        0.00300    0.50209    0.64999    1.000
    H145     H        0.03260    0.50480    0.67710    1.000
    C218     C        0.98283    0.53553    0.57778    1.000
    H146     H        0.99780    0.56250    0.55280    1.000
    C219     C        0.94070    0.45695    0.64806    1.000
    H147     H        0.92820    0.42960    0.67330    1.000
    C220     C        0.91946    0.49126    0.57299    1.000
    H148     H        0.89210    0.48810    0.54520    1.000
    C221     C        0.89588    0.45131    0.60905    1.000
    C222     C        0.82569    0.40263    0.60492    1.000
    H149     H        0.80360    0.40530    0.57420    1.000
    H150     H        0.78460    0.41780    0.62570    1.000
    C223     C        0.84808    0.32905    0.61507    1.000
    C224     C        0.83082    0.29718    0.65503    1.000
    C225     C        0.88873    0.28843    0.58513    1.000
    C226     C        0.85213    0.22994    0.66385    1.000
    C227     C        0.90979    0.22130    0.59398    1.000
    C228     C        0.89247    0.18940    0.63421    1.000
    C229     C        0.91596    0.11571    0.64467    1.000
    H151     H        0.95710    0.10090    0.62380    1.000
    H152     H        0.93860    0.11370    0.67530    1.000
    C230     C        0.84695    0.06570    0.64115    1.000
    C231     C        0.82378    0.02697    0.67769    1.000
    H153     H        0.84920    0.03310    0.70580    1.000
    C232     C        0.80501    0.05676    0.60145    1.000
    H154     H        0.81780    0.08330    0.57590    1.000
    C233     C        0.76370    0.97953    0.67286    1.000
    H155     H        0.74960    0.95260    0.69800    1.000
    C234     C        0.74489    0.00920    0.59949    1.000
    H156     H        0.71660    0.00420    0.57210    1.000
    C235     C        0.23150    0.49480    0.60772    1.000
    H157     H        0.19450    0.49090    0.58380    1.000
    C236     C        0.27120    0.54470    0.67049    1.000
    H158     H        0.26450    0.57860    0.69310    1.000
    C237     C        0.33320    0.49840    0.67559    1.000
    H159     H        0.36640    0.50040    0.70130    1.000
    C238     C        0.29180    0.44740    0.60930    1.000
    H160     H        0.29570    0.41290    0.58680    1.000
    C239     C        0.34604    0.44999    0.64328    1.000
    C240     C        0.41606    0.40154    0.64749    1.000
    H161     H        0.43620    0.40260    0.67860    1.000
    H162     H        0.45830    0.41860    0.62800    1.000
    C241     C        0.39650    0.32770    0.63498    1.000
    C242     C        0.40402    0.30258    0.59203    1.000
    C243     C        0.36991    0.28102    0.66629    1.000
    C244     C        0.38816    0.23459    0.58082    1.000
    C245     C        0.35337    0.21310    0.65510    1.000
    C246     C        0.36189    0.18791    0.61219    1.000
    C247     C        0.34211    0.11349    0.59975    1.000
    H163     H        0.32140    0.11240    0.56870    1.000
    H164     H        0.30020    0.09650    0.61950    1.000
    C248     C        0.41182    0.06509    0.60349    1.000
    C249     C        0.45760    0.05990    0.64211    1.000
    H165     H        0.44780    0.08940    0.66680    1.000
    C250     C        0.43135    0.02189    0.56859    1.000
    H166     H        0.40320    0.02490    0.54110    1.000
    C251     C        0.51690    0.01205    0.64434    1.000
    H167     H        0.54780    0.00960    0.67100    1.000
    C252     C        0.49132    0.97455    0.57342    1.000
    H168     H        0.50290    0.94500    0.54900    1.000
    C253     C        0.23185    0.72436    0.69819    1.000
    H169     H        0.21900    0.68800    0.71820    1.000
    C254     C        0.22445    0.77167    0.62893    1.000
    H170     H        0.20640    0.76950    0.59880    1.000
    C255     C        0.27697    0.77878    0.71423    1.000
    H171     H        0.29450    0.77920    0.74440    1.000
    C256     C        0.26929    0.82855    0.64205    1.000
    H172     H        0.28120    0.86410    0.62120    1.000
    C257     C        0.29650    0.83311    0.68565    1.000
    C258     C        0.34590    0.89422    0.70156    1.000
    H173     H        0.38660    0.87710    0.72270    1.000
    H174     H        0.37300    0.91450    0.67570    1.000
    C259     C        0.29890    0.95093    0.72420    1.000
    C260     C        0.25230    0.99650    0.70001    1.000
    C261     C        0.30122    0.96148    0.76969    1.000
    C262     C        0.21110    0.04944    0.71978    1.000
    C263     C        0.26036    0.01466    0.78925    1.000
    C264     C        0.21336    0.06051    0.76512    1.000
    C265     C        0.16673    0.11746    0.78758    1.000
    H175     H        0.14000    0.09710    0.81360    1.000
    H176     H        0.12540    0.13360    0.76640    1.000
    C266     C        0.21318    0.17958    0.80323    1.000
    C267     C        0.17441    0.23399    0.82354    1.000
    H177     H        0.11880    0.23340    0.82550    1.000
    C268     C        0.29320    0.18566    0.79979    1.000
    H178     H        0.32230    0.15050    0.78520    1.000
    C269     C        0.21679    0.28888    0.84082    1.000
    H179     H        0.18900    0.32500    0.85520    1.000
    C270     C        0.33142    0.24293    0.81747    1.000
    H180     H        0.38670    0.24590    0.81450    1.000
    C271     C        0.01632    0.72139    0.55247    1.000
    H181     H        0.02760    0.68360    0.53320    1.000
    C272     C        0.02635    0.77292    0.62063    1.000
    H182     H        0.04440    0.77220    0.65080    1.000
    C273     C        0.97193    0.77626    0.53563    1.000
    H183     H        0.95330    0.77530    0.50560    1.000
    C274     C        0.98330    0.82942    0.60611    1.000
    H184     H        0.97300    0.86660    0.62600    1.000
    C275     C        0.95508    0.83201    0.56262    1.000
    C276     C        0.90738    0.89305    0.54568    1.000
    H185     H        0.86590    0.87580    0.52500    1.000
    H186     H        0.88120    0.91540    0.57120    1.000
    C277     C        0.95623    0.94713    0.52178    1.000
    C278     C        0.95620    0.95362    0.47598    1.000
    C279     C        0.99907    0.00505    0.45495    1.000
    C280     C        0.47215    0.79062    0.58986    1.000
    H187     H        0.44530    0.82840    0.60310    1.000
    C281     C        0.58533    0.73925    0.56907    1.000
    H188     H        0.64090    0.74010    0.56690    1.000
    C282     C        0.42851    0.73639    0.57287    1.000
    H189     H        0.37290    0.73770    0.57420    1.000
    C283     C        0.54583    0.68281    0.55168    1.000
    H190     H        0.57410    0.64600    0.53830    1.000
    C284     C        0.46530    0.67996    0.55382    1.000
    C285     C        0.41572    0.61837    0.53870    1.000
    H191     H        0.37640    0.63500    0.51660    1.000
    H192     H        0.38680    0.60070    0.56470    1.000
    C286     C        0.46010    0.55845    0.51838    1.000
    C287     C        0.50620    0.51428    0.54404    1.000
    C288     C        0.54515    0.45789    0.52644    1.000
