# CIF file generated by openbabel 3.1.0, see https://openbabel.org
data_I
_chemical_name_common 'image0'
_cell_length_a 13.795
_cell_length_b 12.83
_cell_length_c 18.815
_cell_angle_alpha 90
_cell_angle_beta 89.959
_cell_angle_gamma 90
_space_group_name_H-M_alt 'P 1'
_space_group_name_Hall 'P 1'
loop_
    _symmetry_equiv_pos_as_xyz
    x,y,z
loop_
    _atom_site_label
    _atom_site_type_symbol
    _atom_site_fract_x
    _atom_site_fract_y
    _atom_site_fract_z
    _atom_site_occupancy
    P1       P        0.77220    0.09630    0.05540    1.000
    P2       P        0.88870    0.76760    0.06180    1.000
    P3       P        0.11870    0.96430    0.16670    1.000
    Al1      Al       0.88950    0.95960    0.16550    1.000
    Al2      Al       0.11720    0.77460    0.06150    1.000
    Al3      Al       0.22670    0.09610    0.04950    1.000
    O1       O        0.18030    0.04740    0.13060    1.000
    O2       O        0.85950    0.82400    0.99390    1.000
    O3       O        0.99470    0.73850    0.05780    1.000
    O4       O        0.84660    0.16470    0.01780    1.000
    O5       O        0.81680    0.05380    0.12360    1.000
    O6       O        0.01240    0.99490    0.15820    1.000
    O7       O        0.13770    0.85830    0.13350    1.000
    O8       O        0.83190    0.66780    0.07020    1.000
    O9       O        0.14710    0.95900    0.24490    1.000
    O10      O        0.68370    0.16010    0.07580    1.000
    O11      O        0.87000    0.83640    0.12670    1.000
    O12      O        0.74000    0.00910    0.00710    1.000
    P4       P        0.27220    0.59630    0.05540    1.000
    P5       P        0.38870    0.26760    0.06180    1.000
    P6       P        0.61870    0.46430    0.16670    1.000
    Al4      Al       0.38950    0.45960    0.16550    1.000
    Al5      Al       0.61720    0.27460    0.06150    1.000
    Al6      Al       0.72670    0.59610    0.04950    1.000
    O13      O        0.68030    0.54740    0.13060    1.000
    O14      O        0.35950    0.32400    0.99390    1.000
    O15      O        0.49470    0.23850    0.05780    1.000
    O16      O        0.34660    0.66470    0.01780    1.000
    O17      O        0.31680    0.55380    0.12360    1.000
    O18      O        0.51240    0.49490    0.15820    1.000
    O19      O        0.63770    0.35830    0.13350    1.000
    O20      O        0.33190    0.16780    0.07020    1.000
    O21      O        0.64710    0.45900    0.24490    1.000
    O22      O        0.18370    0.66010    0.07580    1.000
    O23      O        0.37000    0.33640    0.12670    1.000
    O24      O        0.24000    0.50910    0.00710    1.000
    P7       P        0.22780    0.09630    0.44460    1.000
    P8       P        0.11130    0.76760    0.43820    1.000
    P9       P        0.88130    0.96430    0.33330    1.000
    Al7      Al       0.11050    0.95960    0.33450    1.000
    Al8      Al       0.88280    0.77460    0.43850    1.000
    Al9      Al       0.77330    0.09610    0.45050    1.000
    O25      O        0.81970    0.04740    0.36940    1.000
    O26      O        0.14050    0.82400    0.50610    1.000
    O27      O        0.00530    0.73850    0.44220    1.000
    O28      O        0.15340    0.16470    0.48220    1.000
    O29      O        0.18320    0.05380    0.37640    1.000
    O30      O        0.98760    0.99490    0.34180    1.000
    O31      O        0.86230    0.85830    0.36650    1.000
    O32      O        0.16810    0.66780    0.42980    1.000
    O33      O        0.85290    0.95900    0.25510    1.000
    O34      O        0.31630    0.16010    0.42420    1.000
    O35      O        0.13000    0.83640    0.37330    1.000
    O36      O        0.26000    0.00910    0.49290    1.000
    P10      P        0.72780    0.59630    0.44460    1.000
    P11      P        0.61130    0.26760    0.43820    1.000
    P12      P        0.38130    0.46430    0.33330    1.000
    Al10     Al       0.61050    0.45960    0.33450    1.000
    Al11     Al       0.38280    0.27460    0.43850    1.000
    Al12     Al       0.27330    0.59610    0.45050    1.000
    O37      O        0.31970    0.54740    0.36940    1.000
    O38      O        0.64050    0.32400    0.50610    1.000
    O39      O        0.50530    0.23850    0.44220    1.000
    O40      O        0.65340    0.66470    0.48220    1.000
    O41      O        0.68320    0.55380    0.37640    1.000
    O42      O        0.48760    0.49490    0.34180    1.000
    O43      O        0.36230    0.35830    0.36650    1.000
    O44      O        0.66810    0.16780    0.42980    1.000
    O45      O        0.35290    0.45900    0.25510    1.000
    O46      O        0.81630    0.66010    0.42420    1.000
    O47      O        0.63000    0.33640    0.37330    1.000
    O48      O        0.76000    0.50910    0.49290    1.000
    P13      P        0.22780    0.90370    0.94460    1.000
    P14      P        0.11130    0.23240    0.93820    1.000
    P15      P        0.88130    0.03570    0.83330    1.000
    Al13     Al       0.11050    0.04040    0.83450    1.000
    Al14     Al       0.88280    0.22540    0.93850    1.000
    Al15     Al       0.77330    0.90390    0.95050    1.000
    O49      O        0.81970    0.95260    0.86940    1.000
    O50      O        0.14050    0.17600    0.00610    1.000
    O51      O        0.00530    0.26150    0.94220    1.000
    O52      O        0.15340    0.83530    0.98220    1.000
    O53      O        0.18320    0.94620    0.87640    1.000
    O54      O        0.98760    0.00510    0.84180    1.000
    O55      O        0.86230    0.14170    0.86650    1.000
    O56      O        0.16810    0.33220    0.92980    1.000
    O57      O        0.85290    0.04100    0.75510    1.000
    O58      O        0.31630    0.83990    0.92420    1.000
    O59      O        0.13000    0.16360    0.87330    1.000
    O60      O        0.26000    0.99090    0.99290    1.000
    P16      P        0.72780    0.40370    0.94460    1.000
    P17      P        0.61130    0.73240    0.93820    1.000
    P18      P        0.38130    0.53570    0.83330    1.000
    Al16     Al       0.61050    0.54040    0.83450    1.000
    Al17     Al       0.38280    0.72540    0.93850    1.000
    Al18     Al       0.27330    0.40390    0.95050    1.000
    O61      O        0.31970    0.45260    0.86940    1.000
    O62      O        0.64050    0.67600    0.00610    1.000
    O63      O        0.50530    0.76150    0.94220    1.000
    O64      O        0.65340    0.33530    0.98220    1.000
    O65      O        0.68320    0.44620    0.87640    1.000
    O66      O        0.48760    0.50510    0.84180    1.000
    O67      O        0.36230    0.64170    0.86650    1.000
    O68      O        0.66810    0.83220    0.92980    1.000
    O69      O        0.35290    0.54100    0.75510    1.000
    O70      O        0.81630    0.33990    0.92420    1.000
    O71      O        0.63000    0.66360    0.87330    1.000
    O72      O        0.76000    0.49090    0.99290    1.000
    P19      P        0.77220    0.90370    0.55540    1.000
    P20      P        0.88870    0.23240    0.56180    1.000
    P21      P        0.11870    0.03570    0.66670    1.000
    Al19     Al       0.88950    0.04040    0.66550    1.000
    Al20     Al       0.11720    0.22540    0.56150    1.000
    Al21     Al       0.22670    0.90390    0.54950    1.000
    O73      O        0.18030    0.95260    0.63060    1.000
    O74      O        0.85950    0.17600    0.49390    1.000
    O75      O        0.99470    0.26150    0.55780    1.000
    O76      O        0.84660    0.83530    0.51780    1.000
    O77      O        0.81680    0.94620    0.62360    1.000
    O78      O        0.01240    0.00510    0.65820    1.000
    O79      O        0.13770    0.14170    0.63350    1.000
    O80      O        0.83190    0.33220    0.57020    1.000
    O81      O        0.14710    0.04100    0.74490    1.000
    O82      O        0.68370    0.83990    0.57580    1.000
    O83      O        0.87000    0.16360    0.62670    1.000
    O84      O        0.74000    0.99090    0.50710    1.000
    P22      P        0.27220    0.40370    0.55540    1.000
    P23      P        0.38870    0.73240    0.56180    1.000
    P24      P        0.61870    0.53570    0.66670    1.000
    Al22     Al       0.38950    0.54040    0.66550    1.000
    Al23     Al       0.61720    0.72540    0.56150    1.000
    Al24     Al       0.72670    0.40390    0.54950    1.000
    O85      O        0.68030    0.45260    0.63060    1.000
    O86      O        0.35950    0.67600    0.49390    1.000
    O87      O        0.49470    0.76150    0.55780    1.000
    O88      O        0.34660    0.33530    0.51780    1.000
    O89      O        0.31680    0.44620    0.62360    1.000
    O90      O        0.51240    0.50510    0.65820    1.000
    O91      O        0.63770    0.64170    0.63350    1.000
    O92      O        0.33190    0.83220    0.57020    1.000
    O93      O        0.64710    0.54100    0.74490    1.000
    O94      O        0.18370    0.33990    0.57580    1.000
    O95      O        0.37000    0.66360    0.62670    1.000
    O96      O        0.24000    0.49090    0.50710    1.000
