data_functionalizedCrystal
_audit_creation_method	'EQeq! by Chris Wilmer'
_symmetry_space_group_name_H-M	'P1'
_symmetry_Int_Tables_number	1
_symmetry_cell_setting	triclinic
loop_
_symmetry_equiv_pos_as_xyz
  x,y,z
_cell_length_a	13.705
_cell_length_b	10.7337
_cell_length_c	15.8778
_cell_angle_alpha	90
_cell_angle_beta	90
_cell_angle_gamma	90
loop_
_atom_site_label
_atom_site_type_symbol
_atom_site_fract_x
_atom_site_fract_y
_atom_site_fract_z
_atom_site_charge
Mof_Zn	Zn	0.66276	0.6586	0.42976	1.237
Mof_P 	P 	0.84021	0.86257	0.41648	0.493
Mof_H 	H 	0.9123	0.8607	0.4702	-0.03
Mof_O 	O 	0.7747	0.7637	0.4501	-0.41
Mof_O 	O 	0.8832	0.8283	0.3332	-0.4
Mof_O 	O 	0.7926	0.9879	0.4164	-0.445
Mof_O 	O 	0.5918	0.6769	0.5357	-0.446
Mof_O 	O 	0.591	0.7189	0.3334	-0.455
Mof_Zn	Zn	0.16276	0.1586	0.42976	1.231
Mof_P 	P 	0.34021	0.36257	0.41648	0.491
Mof_H 	H 	0.4123	0.3607	0.4702	-0.07
Mof_O 	O 	0.2747	0.2637	0.4501	-0.43
Mof_O 	O 	0.3832	0.3283	0.3332	-0.456
Mof_O 	O 	0.2926	0.4879	0.4164	-0.464
Mof_O 	O 	0.0918	0.1769	0.5357	-0.455
Mof_O 	O 	0.091	0.2189	0.3334	-0.465
Mof_Zn	Zn	0.33724	0.3414	0.92976	1.212
Mof_P 	P 	0.15979	0.13743	0.91648	0.49
Mof_H 	H 	0.0877	0.1393	0.9702	-0.122
Mof_O 	O 	0.2253	0.2363	0.9501	-0.472
Mof_O 	O 	0.1168	0.1717	0.8332	-0.485
Mof_O 	O 	0.2074	0.0121	0.9164	-0.485
Mof_O 	O 	0.4082	0.3231	0.0357	-0.375
Mof_O 	O 	0.409	0.2811	0.8334	-0.483
Mof_Zn	Zn	0.83724	0.8414	0.92976	1.217
Mof_P 	P 	0.65979	0.63743	0.91648	0.491
Mof_H 	H 	0.5877	0.6393	0.9702	-0.1
Mof_O 	O 	0.7253	0.7363	0.9501	-0.459
Mof_O 	O 	0.6168	0.6717	0.8332	-0.464
Mof_O 	O 	0.7074	0.5121	0.9164	-0.474
Mof_O 	O 	0.9082	0.8231	0.0357	-0.285
Mof_O 	O 	0.909	0.7811	0.8334	-0.393
Mof_Zn	Zn	0.66276	0.3414	0.92976	1.215
Mof_P 	P 	0.84021	0.13743	0.91648	0.491
Mof_H 	H 	0.9123	0.1393	0.9702	-0.06
Mof_O 	O 	0.7747	0.2363	0.9501	-0.45
Mof_O 	O 	0.8832	0.1717	0.8332	-0.412
Mof_O 	O 	0.7926	0.0121	0.9164	-0.467
Mof_O 	O 	0.5918	0.3231	0.0357	-0.368
Mof_O 	O 	0.591	0.2811	0.8334	-0.478
Mof_Zn	Zn	0.16276	0.8414	0.92976	1.207
Mof_P 	P 	0.34021	0.63743	0.91648	0.49
Mof_H 	H 	0.4123	0.6393	0.9702	-0.102
Mof_O 	O 	0.2747	0.7363	0.9501	-0.472
Mof_O 	O 	0.3832	0.6717	0.8332	-0.47
Mof_O 	O 	0.2926	0.5121	0.9164	-0.495
Mof_O 	O 	0.0918	0.8231	0.0357	-0.379
Mof_O 	O 	0.091	0.7811	0.8334	-0.49
Mof_Zn	Zn	0.33724	0.6586	0.42976	1.234
Mof_P 	P 	0.15979	0.86257	0.41648	0.49
Mof_H 	H 	0.0877	0.8607	0.4702	-0.095
Mof_O 	O 	0.2253	0.7637	0.4501	-0.434
Mof_O 	O 	0.1168	0.8283	0.3332	-0.475
Mof_O 	O 	0.2074	0.9879	0.4164	-0.463
Mof_O 	O 	0.4082	0.6769	0.5357	-0.453
Mof_O 	O 	0.409	0.7189	0.3334	-0.461
Mof_Zn	Zn	0.83724	0.1586	0.42976	1.241
Mof_P 	P 	0.65979	0.36257	0.41648	0.492
Mof_H 	H 	0.5877	0.3607	0.4702	-0.068
Mof_O 	O 	0.7253	0.2637	0.4501	-0.416
Mof_O 	O 	0.6168	0.3283	0.3332	-0.449
Mof_O 	O 	0.7074	0.4879	0.4164	-0.443
Mof_O 	O 	0.9082	0.1769	0.5357	-0.358
Mof_O 	O 	0.909	0.2189	0.3334	-0.367
Mof_Zn	Zn	0.5	0.38161	0.27572	1.232
Mof_P 	P 	0.5	0.6448	0.58089	0.477
Mof_H 	H 	0.5	0.5273	0.6011	-0.067
Mof_P 	P 	0.5	0.6832	0.28837	0.497
Mof_H 	H 	0.5	0.7476	0.2191	0.005
Mof_O 	O 	0.5	0.7083	0.6668	-0.4
Mof_O 	O 	0.5	0.5572	0.2514	-0.475
Mof_Zn	Zn	1.47073e-32	0.88161	0.27572	1.209
Mof_P 	P 	-2.88054e-33	0.1448	0.58089	0.387
Mof_H 	H 	-2.79275e-33	0.0273	0.6011	-0.077
Mof_P 	P 	1.25263e-33	0.1832	0.28837	0.405
Mof_H 	H 	3.65365e-33	0.2476	0.2191	-0.013
Mof_O 	O 	-2.50736e-33	0.2083	0.6668	-0.429
Mof_O 	O 	1.09204e-33	0.0572	0.2514	-0.493
Mof_Zn	Zn	0.5	0.61839	0.77572	1.229
Mof_P 	P 	0.5	0.3552	0.08089	0.477
Mof_H 	H 	0.5	0.4727	0.1011	-0.036
Mof_P 	P 	0.5	0.3168	0.78837	0.494
Mof_H 	H 	0.5	0.2524	0.7191	-0.015
Mof_O 	O 	0.5	0.2917	0.1668	-0.379
Mof_O 	O 	0.5	0.4428	0.7514	-0.49
Mof_Zn	Zn	-7.43806e-33	0.11839	0.77572	1.208
Mof_P 	P 	3.51373e-34	0.8552	0.08089	0.387
Mof_H 	H 	5.84299e-33	0.9727	0.1011	-0.052
Mof_P 	P 	3.42455e-33	0.8168	0.78837	0.404
Mof_H 	H 	-7.68401e-33	0.7524	0.7191	-0.035
Mof_O 	O 	2.07551e-33	0.7917	0.1668	-0.41
Mof_O 	O 	1.40716e-32	0.9428	0.7514	-0.514
_end
