data_functionalizedCrystal
_audit_creation_method	'EQeq! by Chris Wilmer'
_symmetry_space_group_name_H-M	'P1'
_symmetry_Int_Tables_number	1
_symmetry_cell_setting	triclinic
loop_
_symmetry_equiv_pos_as_xyz
  x,y,z
_cell_length_a	9.6047
_cell_length_b	10.0427
_cell_length_c	11.4589
_cell_angle_alpha	96.126
_cell_angle_beta	97.2065
_cell_angle_gamma	111.859
loop_
_atom_site_label
_atom_site_type_symbol
_atom_site_fract_x
_atom_site_fract_y
_atom_site_fract_z
_atom_site_charge
Mof_Ce	Ce	0.71324	0.95492	0.00822	2.393
Mof_Ce	Ce	0.28676	0.04508	0.99178	2.393
Mof_H 	H 	0.6823	0.5051	0.9737	0.004
Mof_H 	H 	0.804	0.2104	0.7881	0.013
Mof_H 	H 	0.0777	0.6384	0.8446	0.058
Mof_H 	H 	0.829	0.4096	0.5814	0.079
Mof_H 	H 	0.7458	0.2968	0.3822	0.015
Mof_H 	H 	0.0502	0.1072	0.4183	0.049
Mof_H 	H 	0.1678	0.1527	0.6815	0.137
Mof_H 	H 	0.2621	0.3038	0.6846	0.124
Mof_H 	H 	0.3177	0.4949	0.0263	0.003
Mof_H 	H 	0.196	0.7896	0.2119	0.012
Mof_H 	H 	0.9223	0.3616	0.1554	0.058
Mof_H 	H 	0.171	0.5904	0.4186	0.079
Mof_H 	H 	0.2542	0.7032	0.6178	0.015
Mof_H 	H 	0.9498	0.8928	0.5817	0.049
Mof_H 	H 	0.8322	0.8473	0.3185	0.137
Mof_H 	H 	0.7379	0.6962	0.3154	0.124
Mof_C 	C 	0.9218	0.747	0.9774	0.517
Mof_C 	C 	0.8869	0.5932	0.9205	-0.163
Mof_C 	C 	0.7525	0.483	0.932	0.075
Mof_C 	C 	0.7205	0.3397	0.8826	-0.151
Mof_C 	C 	0.422	0.7789	0.1012	0.412
Mof_C 	C 	0.8223	0.3082	0.8191	-0.034
Mof_C 	C 	0.9498	0.4211	0.802	0.11
Mof_C 	C 	0.9863	0.5629	0.854	-0.052
Mof_C 	C 	0.991	0.3263	0.6174	0.127
Mof_C 	C 	0.8743	0.3485	0.548	-0.147
Mof_C 	C 	0.8246	0.2811	0.4301	0.034
Mof_C 	C 	0.8896	0.1908	0.3818	-0.077
Mof_C 	C 	0.8296	0.1095	0.2573	0.314
Mof_C 	C 	0.0063	0.1695	0.4517	-0.066
Mof_C 	C 	0.0593	0.2381	0.5693	0.034
Mof_C 	C 	0.0782	0.253	0.0226	0.517
Mof_C 	C 	0.1131	0.4068	0.0795	-0.163
Mof_C 	C 	0.2475	0.517	0.068	0.075
Mof_C 	C 	0.2795	0.6603	0.1174	-0.151
Mof_C 	C 	0.578	0.2211	0.8988	0.412
Mof_C 	C 	0.1777	0.6918	0.1809	-0.034
Mof_C 	C 	0.0502	0.5789	0.198	0.11
Mof_C 	C 	0.0137	0.4371	0.146	-0.052
Mof_C 	C 	0.009	0.6737	0.3826	0.127
Mof_C 	C 	0.1257	0.6515	0.452	-0.147
Mof_C 	C 	0.1754	0.7189	0.5699	0.034
Mof_C 	C 	0.1104	0.8092	0.6182	-0.077
Mof_C 	C 	0.1704	0.8905	0.7427	0.314
Mof_C 	C 	0.9937	0.8305	0.5483	-0.066
Mof_C 	C 	0.9407	0.7619	0.4307	0.034
Mof_N 	N 	0.1821	0.2251	0.6403	-0.253
Mof_N 	N 	0.8179	0.7749	0.3597	-0.253
Mof_O 	O 	0.5437	0.7573	0.1099	-0.505
Mof_O 	O 	0.8818	0.0176	0.2177	-0.438
Mof_O 	O 	0.817	0.7735	0.0169	-0.62
Mof_O 	O 	0.9461	0.1594	0.0161	-0.607
Mof_O 	O 	0.4192	0.8997	0.0777	-0.672
Mof_O 	O 	0.0506	0.3922	0.7346	-0.238
Mof_O 	O 	0.7244	0.1297	0.1921	-0.471
Mof_O 	O 	0.4563	0.2427	0.8901	-0.505
Mof_O 	O 	0.1182	0.9824	0.7823	-0.438
Mof_O 	O 	0.183	0.2265	0.9831	-0.62
Mof_O 	O 	0.0539	0.8406	0.9839	-0.607
Mof_O 	O 	0.5808	0.1003	0.9223	-0.672
Mof_O 	O 	0.9494	0.6078	0.2654	-0.238
Mof_O 	O 	0.2756	0.8703	0.8079	-0.471
_end
