# CIF file generated by openbabel 3.1.0, see https://openbabel.org
data_I
_chemical_name_common 'image0'
_cell_length_a 28.6376
_cell_length_b 10.5812
_cell_length_c 22.7685
_cell_angle_alpha 90
_cell_angle_beta 90
_cell_angle_gamma 90
_space_group_name_H-M_alt 'P 1'
_space_group_name_Hall 'P 1'
loop_
    _symmetry_equiv_pos_as_xyz
    x,y,z
loop_
    _atom_site_label
    _atom_site_type_symbol
    _atom_site_fract_x
    _atom_site_fract_y
    _atom_site_fract_z
    _atom_site_occupancy
    C1       C        0.61471    0.11760    0.43960    1.000
    C2       C        0.65977    0.16890    0.41940    1.000
    C3       C        0.68433    0.24980    0.45490    1.000
    H1       H        0.67220    0.27260    0.49130    1.000
    C4       C        0.72693    0.29760    0.43700    1.000
    H2       H        0.74340    0.35220    0.46140    1.000
    C5       C        0.74523    0.26460    0.38290    1.000
    C6       C        0.72130    0.18140    0.34770    1.000
    H3       H        0.73380    0.15660    0.31180    1.000
    C7       C        0.67890    0.13480    0.36590    1.000
    H4       H        0.66270    0.07910    0.34170    1.000
    C8       C        0.82390    0.32780    0.40170    1.000
    C9       C        0.84576    0.44290    0.40560    1.000
    H5       H        0.83450    0.51180    0.38460    1.000
    C10      C        0.88468    0.45560    0.44109    1.000
    H6       H        0.89990    0.53300    0.44390    1.000
    C11      C        0.90109    0.35090    0.47283    1.000
    C12      C        0.87821    0.23590    0.46870    1.000
    H7       H        0.88900    0.16650    0.48980    1.000
    C13      C        0.83893    0.22440    0.43290    1.000
    H8       H        0.82310    0.14780    0.43030    1.000
    C14      C        0.94411    0.36060    0.50809    1.000
    C15      C        0.04130    0.91150    0.35070    1.000
    H9       H        0.01490    0.86670    0.36240    1.000
    C16      C        0.09210    0.06000    0.33990    1.000
    H10      H        0.10800    0.13630    0.34400    1.000
    C17      C        0.10420    0.96570    0.30280    1.000
    H11      H        0.12910    0.96610    0.27650    1.000
    N1       N        0.05330    0.02610    0.37030    1.000
    N2       N        0.07340    0.87050    0.31120    1.000
    C18      C        0.06894    0.74880    0.28063    1.000
    C19      C        0.06422    0.73880    0.21978    1.000
    H12      H        0.06230    0.81100    0.19660    1.000
    C20      C        0.06249    0.62010    0.19439    1.000
    H13      H        0.05980    0.61190    0.15390    1.000
    C21      C        0.06479    0.51430    0.22946    1.000
    C22      C        0.07050    0.52320    0.28998    1.000
    H14      H        0.07290    0.45100    0.31310    1.000
    C23      C        0.07254    0.64240    0.31490    1.000
    H15      H        0.07640    0.65060    0.35530    1.000
    C24      C        0.09440    0.30170    0.21010    1.000
    H16      H        0.11900    0.29860    0.23670    1.000
    C25      C        0.08060    0.20910    0.17290    1.000
    H17      H        0.09490    0.13050    0.16960    1.000
    C26      C        0.03300    0.36450    0.15950    1.000
    H18      H        0.00820    0.41370    0.14640    1.000
    N3       N        0.06470    0.40090    0.20050    1.000
    N4       N        0.04260    0.24740    0.14090    1.000
    N5       N        0.59881    0.13330    0.49440    1.000
    N6       N        0.55727    0.07080    0.49537    1.000
    N7       N        0.54983    0.02090    0.44303    1.000
    N8       N        0.58535    0.04930    0.40642    1.000
    N9       N        0.95343    0.45190    0.54643    1.000
    N10      N        0.99630    0.42160    0.56911    1.000
    N11      N        0.01106    0.31650    0.54555    1.000
    N12      N        0.97889    0.27600    0.50595    1.000
    O1       O        0.78628    0.31590    0.36160    1.000
    Cd1      Cd       0.00371    0.14397    0.43100    1.000
    N13      N        0.05880    0.87220    0.30120    1.000
    N14      N        0.03650    0.02830    0.35800    1.000
    C27      C        0.07220    0.98190    0.27520    1.000
    H19      H        0.08840    0.98990    0.24000    1.000
    C28      C        0.05770    0.07740    0.31010    1.000
    H20      H        0.06170    0.16300    0.30240    1.000
    C29      C        0.04130    0.90220    0.35470    1.000
    H21      H        0.03380    0.84490    0.38420    1.000
    C30      C        0.06790    0.26200    0.22810    1.000
    H22      H        0.08560    0.24840    0.26170    1.000
    C31      C        0.05140    0.17250    0.19120    1.000
    H23      H        0.05530    0.08590    0.19600    1.000
    C32      C        0.03290    0.35400    0.15410    1.000
    H24      H        0.02350    0.41590    0.12770    1.000
    N15      N        0.05360    0.37650    0.20680    1.000
    N16      N        0.02820    0.22850    0.14600    1.000
    C33      C        0.88529    0.88240    0.43960    1.000
    C34      C        0.84023    0.83110    0.41940    1.000
    C35      C        0.81567    0.75020    0.45490    1.000
    H25      H        0.82780    0.72740    0.49130    1.000
    C36      C        0.77307    0.70240    0.43700    1.000
    H26      H        0.75660    0.64780    0.46140    1.000
    C37      C        0.75477    0.73540    0.38290    1.000
    C38      C        0.77870    0.81860    0.34770    1.000
    H27      H        0.76620    0.84340    0.31180    1.000
    C39      C        0.82110    0.86520    0.36590    1.000
    H28      H        0.83730    0.92090    0.34170    1.000
    C40      C        0.67610    0.67220    0.40170    1.000
    C41      C        0.65424    0.55710    0.40560    1.000
    H29      H        0.66550    0.48820    0.38460    1.000
    C42      C        0.61532    0.54440    0.44109    1.000
    H30      H        0.60010    0.46700    0.44390    1.000
    C43      C        0.59891    0.64910    0.47283    1.000
    C44      C        0.62179    0.76410    0.46870    1.000
    H31      H        0.61100    0.83350    0.48980    1.000
    C45      C        0.66107    0.77560    0.43290    1.000
    H32      H        0.67690    0.85220    0.43030    1.000
    C46      C        0.55589    0.63940    0.50809    1.000
    C47      C        0.45870    0.08850    0.35070    1.000
    H33      H        0.48510    0.13330    0.36240    1.000
    C48      C        0.40790    0.94000    0.33990    1.000
    H34      H        0.39200    0.86370    0.34400    1.000
    C49      C        0.39580    0.03430    0.30280    1.000
    H35      H        0.37090    0.03390    0.27650    1.000
    N17      N        0.44670    0.97390    0.37030    1.000
    N18      N        0.42660    0.12950    0.31120    1.000
    C50      C        0.43106    0.25120    0.28063    1.000
    C51      C        0.43578    0.26120    0.21978    1.000
    H36      H        0.43770    0.18900    0.19660    1.000
    C52      C        0.43751    0.37990    0.19439    1.000
    H37      H        0.44020    0.38810    0.15390    1.000
    C53      C        0.43521    0.48570    0.22946    1.000
    C54      C        0.42950    0.47680    0.28998    1.000
    H38      H        0.42710    0.54900    0.31310    1.000
    C55      C        0.42746    0.35760    0.31490    1.000
    H39      H        0.42360    0.34940    0.35530    1.000
    C56      C        0.40560    0.69830    0.21010    1.000
    H40      H        0.38100    0.70140    0.23670    1.000
    C57      C        0.41940    0.79090    0.17290    1.000
    H41      H        0.40510    0.86950    0.16960    1.000
    C58      C        0.46700    0.63550    0.15950    1.000
    H42      H        0.49180    0.58630    0.14640    1.000
    N19      N        0.43530    0.59910    0.20050    1.000
    N20      N        0.45740    0.75260    0.14090    1.000
    N21      N        0.90119    0.86670    0.49440    1.000
    N22      N        0.94273    0.92920    0.49537    1.000
    N23      N        0.95017    0.97910    0.44303    1.000
    N24      N        0.91465    0.95070    0.40642    1.000
    N25      N        0.54657    0.54810    0.54643    1.000
    N26      N        0.50370    0.57840    0.56911    1.000
    N27      N        0.48894    0.68350    0.54555    1.000
    N28      N        0.52111    0.72400    0.50595    1.000
    O2       O        0.71372    0.68410    0.36160    1.000
    Cd2      Cd       0.49629    0.85603    0.43100    1.000
    N29      N        0.44120    0.12780    0.30120    1.000
    N30      N        0.46350    0.97170    0.35800    1.000
    C59      C        0.42780    0.01810    0.27520    1.000
    H43      H        0.41160    0.01010    0.24000    1.000
    C60      C        0.44230    0.92260    0.31010    1.000
    H44      H        0.43830    0.83700    0.30240    1.000
    C61      C        0.45870    0.09780    0.35470    1.000
    H45      H        0.46620    0.15510    0.38420    1.000
    C62      C        0.43210    0.73800    0.22810    1.000
    H46      H        0.41440    0.75160    0.26170    1.000
    C63      C        0.44860    0.82750    0.19120    1.000
    H47      H        0.44470    0.91410    0.19600    1.000
    C64      C        0.46710    0.64600    0.15410    1.000
    H48      H        0.47650    0.58410    0.12770    1.000
    N31      N        0.44640    0.62350    0.20680    1.000
    N32      N        0.47180    0.77150    0.14600    1.000
    C65      C        0.38529    0.11760    0.06040    1.000
    C66      C        0.34023    0.16890    0.08060    1.000
    C67      C        0.31567    0.24980    0.04510    1.000
    H49      H        0.32780    0.27260    0.00870    1.000
    C68      C        0.27307    0.29760    0.06300    1.000
    H50      H        0.25660    0.35220    0.03860    1.000
    C69      C        0.25477    0.26460    0.11710    1.000
    C70      C        0.27870    0.18140    0.15230    1.000
    H51      H        0.26620    0.15660    0.18820    1.000
    C71      C        0.32110    0.13480    0.13410    1.000
    H52      H        0.33730    0.07910    0.15830    1.000
    C72      C        0.17610    0.32780    0.09830    1.000
    C73      C        0.15424    0.44290    0.09440    1.000
    H53      H        0.16550    0.51180    0.11540    1.000
    C74      C        0.11532    0.45560    0.05891    1.000
    H54      H        0.10010    0.53300    0.05610    1.000
    C75      C        0.09891    0.35090    0.02717    1.000
    C76      C        0.12179    0.23590    0.03130    1.000
    H55      H        0.11100    0.16650    0.01020    1.000
    C77      C        0.16107    0.22440    0.06710    1.000
    H56      H        0.17690    0.14780    0.06970    1.000
    C78      C        0.05589    0.36060    0.99191    1.000
    C79      C        0.95870    0.91150    0.14930    1.000
    H57      H        0.98510    0.86670    0.13760    1.000
    C80      C        0.90790    0.06000    0.16010    1.000
    H58      H        0.89200    0.13630    0.15600    1.000
    C81      C        0.89580    0.96570    0.19720    1.000
    H59      H        0.87090    0.96610    0.22350    1.000
    N33      N        0.94670    0.02610    0.12970    1.000
    N34      N        0.92660    0.87050    0.18880    1.000
    C82      C        0.93106    0.74880    0.21937    1.000
    C83      C        0.93578    0.73880    0.28022    1.000
    H60      H        0.93770    0.81100    0.30340    1.000
    C84      C        0.93751    0.62010    0.30561    1.000
    H61      H        0.94020    0.61190    0.34610    1.000
    C85      C        0.93521    0.51430    0.27054    1.000
    C86      C        0.92950    0.52320    0.21002    1.000
    H62      H        0.92710    0.45100    0.18690    1.000
    C87      C        0.92746    0.64240    0.18510    1.000
    H63      H        0.92360    0.65060    0.14470    1.000
    C88      C        0.90560    0.30170    0.28990    1.000
    H64      H        0.88100    0.29860    0.26330    1.000
    C89      C        0.91940    0.20910    0.32710    1.000
    H65      H        0.90510    0.13050    0.33040    1.000
    C90      C        0.96700    0.36450    0.34050    1.000
    H66      H        0.99180    0.41370    0.35360    1.000
    N35      N        0.93530    0.40090    0.29950    1.000
    N36      N        0.95740    0.24740    0.35910    1.000
    N37      N        0.40119    0.13330    0.00560    1.000
    N38      N        0.44273    0.07080    0.00463    1.000
    N39      N        0.45017    0.02090    0.05697    1.000
    N40      N        0.41465    0.04930    0.09358    1.000
    N41      N        0.04657    0.45190    0.95357    1.000
    N42      N        0.00370    0.42160    0.93089    1.000
    N43      N        0.98894    0.31650    0.95445    1.000
    N44      N        0.02111    0.27600    0.99405    1.000
    O3       O        0.21372    0.31590    0.13840    1.000
    Cd3      Cd       0.99629    0.14397    0.06900    1.000
    N45      N        0.94120    0.87220    0.19880    1.000
    N46      N        0.96350    0.02830    0.14200    1.000
    C91      C        0.92780    0.98190    0.22480    1.000
    H67      H        0.91160    0.98990    0.26000    1.000
    C92      C        0.94230    0.07740    0.18990    1.000
    H68      H        0.93830    0.16300    0.19760    1.000
    C93      C        0.95870    0.90220    0.14530    1.000
    H69      H        0.96620    0.84490    0.11580    1.000
    C94      C        0.93210    0.26200    0.27190    1.000
    H70      H        0.91440    0.24840    0.23830    1.000
    C95      C        0.94860    0.17250    0.30880    1.000
    H71      H        0.94470    0.08590    0.30400    1.000
    C96      C        0.96710    0.35400    0.34590    1.000
    H72      H        0.97650    0.41590    0.37230    1.000
    N47      N        0.94640    0.37650    0.29320    1.000
    N48      N        0.97180    0.22850    0.35400    1.000
    C97      C        0.11471    0.88240    0.06040    1.000
    C98      C        0.15977    0.83110    0.08060    1.000
    C99      C        0.18433    0.75020    0.04510    1.000
    H73      H        0.17220    0.72740    0.00870    1.000
    C100     C        0.22693    0.70240    0.06300    1.000
    H74      H        0.24340    0.64780    0.03860    1.000
    C101     C        0.24523    0.73540    0.11710    1.000
    C102     C        0.22130    0.81860    0.15230    1.000
    H75      H        0.23380    0.84340    0.18820    1.000
    C103     C        0.17890    0.86520    0.13410    1.000
    H76      H        0.16270    0.92090    0.15830    1.000
    C104     C        0.32390    0.67220    0.09830    1.000
    C105     C        0.34576    0.55710    0.09440    1.000
    H77      H        0.33450    0.48820    0.11540    1.000
    C106     C        0.38468    0.54440    0.05891    1.000
    H78      H        0.39990    0.46700    0.05610    1.000
    C107     C        0.40109    0.64910    0.02717    1.000
    C108     C        0.37821    0.76410    0.03130    1.000
    H79      H        0.38900    0.83350    0.01020    1.000
    C109     C        0.33893    0.77560    0.06710    1.000
    H80      H        0.32310    0.85220    0.06970    1.000
    C110     C        0.44411    0.63940    0.99191    1.000
    C111     C        0.54130    0.08850    0.14930    1.000
    H81      H        0.51490    0.13330    0.13760    1.000
    C112     C        0.59210    0.94000    0.16010    1.000
    H82      H        0.60800    0.86370    0.15600    1.000
    C113     C        0.60420    0.03430    0.19720    1.000
    H83      H        0.62910    0.03390    0.22350    1.000
    N49      N        0.55330    0.97390    0.12970    1.000
    N50      N        0.57340    0.12950    0.18880    1.000
    C114     C        0.56894    0.25120    0.21937    1.000
    C115     C        0.56422    0.26120    0.28022    1.000
    H84      H        0.56230    0.18900    0.30340    1.000
    C116     C        0.56249    0.37990    0.30561    1.000
    H85      H        0.55980    0.38810    0.34610    1.000
    C117     C        0.56479    0.48570    0.27054    1.000
    C118     C        0.57050    0.47680    0.21002    1.000
    H86      H        0.57290    0.54900    0.18690    1.000
    C119     C        0.57254    0.35760    0.18510    1.000
    H87      H        0.57640    0.34940    0.14470    1.000
    C120     C        0.59440    0.69830    0.28990    1.000
    H88      H        0.61900    0.70140    0.26330    1.000
    C121     C        0.58060    0.79090    0.32710    1.000
    H89      H        0.59490    0.86950    0.33040    1.000
    C122     C        0.53300    0.63550    0.34050    1.000
    H90      H        0.50820    0.58630    0.35360    1.000
    N51      N        0.56470    0.59910    0.29950    1.000
    N52      N        0.54260    0.75260    0.35910    1.000
    N53      N        0.09881    0.86670    0.00560    1.000
    N54      N        0.05727    0.92920    0.00463    1.000
    N55      N        0.04983    0.97910    0.05697    1.000
    N56      N        0.08535    0.95070    0.09358    1.000
    N57      N        0.45343    0.54810    0.95357    1.000
    N58      N        0.49630    0.57840    0.93089    1.000
    N59      N        0.51106    0.68350    0.95445    1.000
    N60      N        0.47889    0.72400    0.99405    1.000
    O4       O        0.28628    0.68410    0.13840    1.000
    Cd4      Cd       0.50371    0.85603    0.06900    1.000
    N61      N        0.55880    0.12780    0.19880    1.000
    N62      N        0.53650    0.97170    0.14200    1.000
    C123     C        0.57220    0.01810    0.22480    1.000
    H91      H        0.58840    0.01010    0.26000    1.000
    C124     C        0.55770    0.92260    0.18990    1.000
    H92      H        0.56170    0.83700    0.19760    1.000
    C125     C        0.54130    0.09780    0.14530    1.000
    H93      H        0.53380    0.15510    0.11580    1.000
    C126     C        0.56790    0.73800    0.27190    1.000
    H94      H        0.58560    0.75160    0.23830    1.000
    C127     C        0.55140    0.82750    0.30880    1.000
    H95      H        0.55530    0.91410    0.30400    1.000
    C128     C        0.53290    0.64600    0.34590    1.000
    H96      H        0.52350    0.58410    0.37230    1.000
    N63      N        0.55360    0.62350    0.29320    1.000
    N64      N        0.52820    0.77150    0.35400    1.000
    C129     C        0.38529    0.88240    0.56040    1.000
    C130     C        0.34023    0.83110    0.58060    1.000
    C131     C        0.31567    0.75020    0.54510    1.000
    H97      H        0.32780    0.72740    0.50870    1.000
    C132     C        0.27307    0.70240    0.56300    1.000
    H98      H        0.25660    0.64780    0.53860    1.000
    C133     C        0.25477    0.73540    0.61710    1.000
    C134     C        0.27870    0.81860    0.65230    1.000
    H99      H        0.26620    0.84340    0.68820    1.000
    C135     C        0.32110    0.86520    0.63410    1.000
    H100     H        0.33730    0.92090    0.65830    1.000
    C136     C        0.17610    0.67220    0.59830    1.000
    C137     C        0.15424    0.55710    0.59440    1.000
    H101     H        0.16550    0.48820    0.61540    1.000
    C138     C        0.11532    0.54440    0.55891    1.000
    H102     H        0.10010    0.46700    0.55610    1.000
    C139     C        0.09891    0.64910    0.52717    1.000
    C140     C        0.12179    0.76410    0.53130    1.000
    H103     H        0.11100    0.83350    0.51020    1.000
    C141     C        0.16107    0.77560    0.56710    1.000
    H104     H        0.17690    0.85220    0.56970    1.000
    C142     C        0.05589    0.63940    0.49191    1.000
    C143     C        0.95870    0.08850    0.64930    1.000
    H105     H        0.98510    0.13330    0.63760    1.000
    C144     C        0.90790    0.94000    0.66010    1.000
    H106     H        0.89200    0.86370    0.65600    1.000
    C145     C        0.89580    0.03430    0.69720    1.000
    H107     H        0.87090    0.03390    0.72350    1.000
    N65      N        0.94670    0.97390    0.62970    1.000
    N66      N        0.92660    0.12950    0.68880    1.000
    C146     C        0.93106    0.25120    0.71937    1.000
    C147     C        0.93578    0.26120    0.78022    1.000
    H108     H        0.93770    0.18900    0.80340    1.000
    C148     C        0.93751    0.37990    0.80561    1.000
    H109     H        0.94020    0.38810    0.84610    1.000
    C149     C        0.93521    0.48570    0.77054    1.000
    C150     C        0.92950    0.47680    0.71002    1.000
    H110     H        0.92710    0.54900    0.68690    1.000
    C151     C        0.92746    0.35760    0.68510    1.000
    H111     H        0.92360    0.34940    0.64470    1.000
    C152     C        0.90560    0.69830    0.78990    1.000
    H112     H        0.88100    0.70140    0.76330    1.000
    C153     C        0.91940    0.79090    0.82710    1.000
    H113     H        0.90510    0.86950    0.83040    1.000
    C154     C        0.96700    0.63550    0.84050    1.000
    H114     H        0.99180    0.58630    0.85360    1.000
    N67      N        0.93530    0.59910    0.79950    1.000
    N68      N        0.95740    0.75260    0.85910    1.000
    N69      N        0.40119    0.86670    0.50560    1.000
    N70      N        0.44273    0.92920    0.50463    1.000
    N71      N        0.45017    0.97910    0.55697    1.000
    N72      N        0.41465    0.95070    0.59358    1.000
    N73      N        0.04657    0.54810    0.45357    1.000
    N74      N        0.00370    0.57840    0.43089    1.000
    N75      N        0.98894    0.68350    0.45445    1.000
    N76      N        0.02111    0.72400    0.49405    1.000
    O5       O        0.21372    0.68410    0.63840    1.000
    Cd5      Cd       0.99629    0.85603    0.56900    1.000
    N77      N        0.94120    0.12780    0.69880    1.000
    N78      N        0.96350    0.97170    0.64200    1.000
    C155     C        0.92780    0.01810    0.72480    1.000
    H115     H        0.91160    0.01010    0.76000    1.000
    C156     C        0.94230    0.92260    0.68990    1.000
    H116     H        0.93830    0.83700    0.69760    1.000
    C157     C        0.95870    0.09780    0.64530    1.000
    H117     H        0.96620    0.15510    0.61580    1.000
    C158     C        0.93210    0.73800    0.77190    1.000
    H118     H        0.91440    0.75160    0.73830    1.000
    C159     C        0.94860    0.82750    0.80880    1.000
    H119     H        0.94470    0.91410    0.80400    1.000
    C160     C        0.96710    0.64600    0.84590    1.000
    H120     H        0.97650    0.58410    0.87230    1.000
    N79      N        0.94640    0.62350    0.79320    1.000
    N80      N        0.97180    0.77150    0.85400    1.000
    C161     C        0.11471    0.11760    0.56040    1.000
    C162     C        0.15977    0.16890    0.58060    1.000
    C163     C        0.18433    0.24980    0.54510    1.000
    H121     H        0.17220    0.27260    0.50870    1.000
    C164     C        0.22693    0.29760    0.56300    1.000
    H122     H        0.24340    0.35220    0.53860    1.000
    C165     C        0.24523    0.26460    0.61710    1.000
    C166     C        0.22130    0.18140    0.65230    1.000
    H123     H        0.23380    0.15660    0.68820    1.000
    C167     C        0.17890    0.13480    0.63410    1.000
    H124     H        0.16270    0.07910    0.65830    1.000
    C168     C        0.32390    0.32780    0.59830    1.000
    C169     C        0.34576    0.44290    0.59440    1.000
    H125     H        0.33450    0.51180    0.61540    1.000
    C170     C        0.38468    0.45560    0.55891    1.000
    H126     H        0.39990    0.53300    0.55610    1.000
    C171     C        0.40109    0.35090    0.52717    1.000
    C172     C        0.37821    0.23590    0.53130    1.000
    H127     H        0.38900    0.16650    0.51020    1.000
    C173     C        0.33893    0.22440    0.56710    1.000
    H128     H        0.32310    0.14780    0.56970    1.000
    C174     C        0.44411    0.36060    0.49191    1.000
    C175     C        0.54130    0.91150    0.64930    1.000
    H129     H        0.51490    0.86670    0.63760    1.000
    C176     C        0.59210    0.06000    0.66010    1.000
    H130     H        0.60800    0.13630    0.65600    1.000
    C177     C        0.60420    0.96570    0.69720    1.000
    H131     H        0.62910    0.96610    0.72350    1.000
    N81      N        0.55330    0.02610    0.62970    1.000
    N82      N        0.57340    0.87050    0.68880    1.000
    C178     C        0.56894    0.74880    0.71937    1.000
    C179     C        0.56422    0.73880    0.78022    1.000
    H132     H        0.56230    0.81100    0.80340    1.000
    C180     C        0.56249    0.62010    0.80561    1.000
    H133     H        0.55980    0.61190    0.84610    1.000
    C181     C        0.56479    0.51430    0.77054    1.000
    C182     C        0.57050    0.52320    0.71002    1.000
    H134     H        0.57290    0.45100    0.68690    1.000
    C183     C        0.57254    0.64240    0.68510    1.000
    H135     H        0.57640    0.65060    0.64470    1.000
    C184     C        0.59440    0.30170    0.78990    1.000
    H136     H        0.61900    0.29860    0.76330    1.000
    C185     C        0.58060    0.20910    0.82710    1.000
    H137     H        0.59490    0.13050    0.83040    1.000
    C186     C        0.53300    0.36450    0.84050    1.000
    H138     H        0.50820    0.41370    0.85360    1.000
    N83      N        0.56470    0.40090    0.79950    1.000
    N84      N        0.54260    0.24740    0.85910    1.000
    N85      N        0.09881    0.13330    0.50560    1.000
    N86      N        0.05727    0.07080    0.50463    1.000
    N87      N        0.04983    0.02090    0.55697    1.000
    N88      N        0.08535    0.04930    0.59358    1.000
    N89      N        0.45343    0.45190    0.45357    1.000
    N90      N        0.49630    0.42160    0.43089    1.000
    N91      N        0.51106    0.31650    0.45445    1.000
    N92      N        0.47889    0.27600    0.49405    1.000
    O6       O        0.28628    0.31590    0.63840    1.000
    Cd6      Cd       0.50371    0.14397    0.56900    1.000
    N93      N        0.55880    0.87220    0.69880    1.000
    N94      N        0.53650    0.02830    0.64200    1.000
    C187     C        0.57220    0.98190    0.72480    1.000
    H139     H        0.58840    0.98990    0.76000    1.000
    C188     C        0.55770    0.07740    0.68990    1.000
    H140     H        0.56170    0.16300    0.69760    1.000
    C189     C        0.54130    0.90220    0.64530    1.000
    H141     H        0.53380    0.84490    0.61580    1.000
    C190     C        0.56790    0.26200    0.77190    1.000
    H142     H        0.58560    0.24840    0.73830    1.000
    C191     C        0.55140    0.17250    0.80880    1.000
    H143     H        0.55530    0.08590    0.80400    1.000
    C192     C        0.53290    0.35400    0.84590    1.000
    H144     H        0.52350    0.41590    0.87230    1.000
    N95      N        0.55360    0.37650    0.79320    1.000
    N96      N        0.52820    0.22850    0.85400    1.000
    C193     C        0.61471    0.88240    0.93960    1.000
    C194     C        0.65977    0.83110    0.91940    1.000
    C195     C        0.68433    0.75020    0.95490    1.000
    H145     H        0.67220    0.72740    0.99130    1.000
    C196     C        0.72693    0.70240    0.93700    1.000
    H146     H        0.74340    0.64780    0.96140    1.000
    C197     C        0.74523    0.73540    0.88290    1.000
    C198     C        0.72130    0.81860    0.84770    1.000
    H147     H        0.73380    0.84340    0.81180    1.000
    C199     C        0.67890    0.86520    0.86590    1.000
    H148     H        0.66270    0.92090    0.84170    1.000
    C200     C        0.82390    0.67220    0.90170    1.000
    C201     C        0.84576    0.55710    0.90560    1.000
    H149     H        0.83450    0.48820    0.88460    1.000
    C202     C        0.88468    0.54440    0.94109    1.000
    H150     H        0.89990    0.46700    0.94390    1.000
    C203     C        0.90109    0.64910    0.97283    1.000
    C204     C        0.87821    0.76410    0.96870    1.000
    H151     H        0.88900    0.83350    0.98980    1.000
    C205     C        0.83893    0.77560    0.93290    1.000
    H152     H        0.82310    0.85220    0.93030    1.000
    C206     C        0.94411    0.63940    0.00809    1.000
    C207     C        0.04130    0.08850    0.85070    1.000
    H153     H        0.01490    0.13330    0.86240    1.000
    C208     C        0.09210    0.94000    0.83990    1.000
    H154     H        0.10800    0.86370    0.84400    1.000
    C209     C        0.10420    0.03430    0.80280    1.000
    H155     H        0.12910    0.03390    0.77650    1.000
    N97      N        0.05330    0.97390    0.87030    1.000
    N98      N        0.07340    0.12950    0.81120    1.000
    C210     C        0.06894    0.25120    0.78063    1.000
    C211     C        0.06422    0.26120    0.71978    1.000
    H156     H        0.06230    0.18900    0.69660    1.000
    C212     C        0.06249    0.37990    0.69439    1.000
    H157     H        0.05980    0.38810    0.65390    1.000
    C213     C        0.06479    0.48570    0.72946    1.000
    C214     C        0.07050    0.47680    0.78998    1.000
    H158     H        0.07290    0.54900    0.81310    1.000
    C215     C        0.07254    0.35760    0.81490    1.000
    H159     H        0.07640    0.34940    0.85530    1.000
    C216     C        0.09440    0.69830    0.71010    1.000
    H160     H        0.11900    0.70140    0.73670    1.000
    C217     C        0.08060    0.79090    0.67290    1.000
    H161     H        0.09490    0.86950    0.66960    1.000
    C218     C        0.03300    0.63550    0.65950    1.000
    H162     H        0.00820    0.58630    0.64640    1.000
    N99      N        0.06470    0.59910    0.70050    1.000
    N100     N        0.04260    0.75260    0.64090    1.000
    N101     N        0.59881    0.86670    0.99440    1.000
    N102     N        0.55727    0.92920    0.99537    1.000
    N103     N        0.54983    0.97910    0.94303    1.000
    N104     N        0.58535    0.95070    0.90642    1.000
    N105     N        0.95343    0.54810    0.04643    1.000
    N106     N        0.99630    0.57840    0.06911    1.000
    N107     N        0.01106    0.68350    0.04555    1.000
    N108     N        0.97889    0.72400    0.00595    1.000
    O7       O        0.78628    0.68410    0.86160    1.000
    Cd7      Cd       0.00371    0.85603    0.93100    1.000
    N109     N        0.05880    0.12780    0.80120    1.000
    N110     N        0.03650    0.97170    0.85800    1.000
    C219     C        0.07220    0.01810    0.77520    1.000
    H163     H        0.08840    0.01010    0.74000    1.000
    C220     C        0.05770    0.92260    0.81010    1.000
    H164     H        0.06170    0.83700    0.80240    1.000
    C221     C        0.04130    0.09780    0.85470    1.000
    H165     H        0.03380    0.15510    0.88420    1.000
    C222     C        0.06790    0.73800    0.72810    1.000
    H166     H        0.08560    0.75160    0.76170    1.000
    C223     C        0.05140    0.82750    0.69120    1.000
    H167     H        0.05530    0.91410    0.69600    1.000
    C224     C        0.03290    0.64600    0.65410    1.000
    H168     H        0.02350    0.58410    0.62770    1.000
    N111     N        0.05360    0.62350    0.70680    1.000
    N112     N        0.02820    0.77150    0.64600    1.000
    C225     C        0.88529    0.11760    0.93960    1.000
    C226     C        0.84023    0.16890    0.91940    1.000
    C227     C        0.81567    0.24980    0.95490    1.000
    H169     H        0.82780    0.27260    0.99130    1.000
    C228     C        0.77307    0.29760    0.93700    1.000
    H170     H        0.75660    0.35220    0.96140    1.000
    C229     C        0.75477    0.26460    0.88290    1.000
    C230     C        0.77870    0.18140    0.84770    1.000
    H171     H        0.76620    0.15660    0.81180    1.000
    C231     C        0.82110    0.13480    0.86590    1.000
    H172     H        0.83730    0.07910    0.84170    1.000
    C232     C        0.67610    0.32780    0.90170    1.000
    C233     C        0.65424    0.44290    0.90560    1.000
    H173     H        0.66550    0.51180    0.88460    1.000
    C234     C        0.61532    0.45560    0.94109    1.000
    H174     H        0.60010    0.53300    0.94390    1.000
    C235     C        0.59891    0.35090    0.97283    1.000
    C236     C        0.62179    0.23590    0.96870    1.000
    H175     H        0.61100    0.16650    0.98980    1.000
    C237     C        0.66107    0.22440    0.93290    1.000
    H176     H        0.67690    0.14780    0.93030    1.000
    C238     C        0.55589    0.36060    0.00809    1.000
    C239     C        0.45870    0.91150    0.85070    1.000
    H177     H        0.48510    0.86670    0.86240    1.000
    C240     C        0.40790    0.06000    0.83990    1.000
    H178     H        0.39200    0.13630    0.84400    1.000
    C241     C        0.39580    0.96570    0.80280    1.000
    H179     H        0.37090    0.96610    0.77650    1.000
    N113     N        0.44670    0.02610    0.87030    1.000
    N114     N        0.42660    0.87050    0.81120    1.000
    C242     C        0.43106    0.74880    0.78063    1.000
    C243     C        0.43578    0.73880    0.71978    1.000
    H180     H        0.43770    0.81100    0.69660    1.000
    C244     C        0.43751    0.62010    0.69439    1.000
    H181     H        0.44020    0.61190    0.65390    1.000
    C245     C        0.43521    0.51430    0.72946    1.000
    C246     C        0.42950    0.52320    0.78998    1.000
    H182     H        0.42710    0.45100    0.81310    1.000
    C247     C        0.42746    0.64240    0.81490    1.000
    H183     H        0.42360    0.65060    0.85530    1.000
    C248     C        0.40560    0.30170    0.71010    1.000
    H184     H        0.38100    0.29860    0.73670    1.000
    C249     C        0.41940    0.20910    0.67290    1.000
    H185     H        0.40510    0.13050    0.66960    1.000
    C250     C        0.46700    0.36450    0.65950    1.000
    H186     H        0.49180    0.41370    0.64640    1.000
    N115     N        0.43530    0.40090    0.70050    1.000
    N116     N        0.45740    0.24740    0.64090    1.000
    N117     N        0.90119    0.13330    0.99440    1.000
    N118     N        0.94273    0.07080    0.99537    1.000
    N119     N        0.95017    0.02090    0.94303    1.000
    N120     N        0.91465    0.04930    0.90642    1.000
    N121     N        0.54657    0.45190    0.04643    1.000
    N122     N        0.50370    0.42160    0.06911    1.000
    N123     N        0.48894    0.31650    0.04555    1.000
    N124     N        0.52111    0.27600    0.00595    1.000
    O8       O        0.71372    0.31590    0.86160    1.000
    Cd8      Cd       0.49629    0.14397    0.93100    1.000
    N125     N        0.44120    0.87220    0.80120    1.000
    N126     N        0.46350    0.02830    0.85800    1.000
    C251     C        0.42780    0.98190    0.77520    1.000
    H187     H        0.41160    0.98990    0.74000    1.000
    C252     C        0.44230    0.07740    0.81010    1.000
    H188     H        0.43830    0.16300    0.80240    1.000
    C253     C        0.45870    0.90220    0.85470    1.000
    H189     H        0.46620    0.84490    0.88420    1.000
    C254     C        0.43210    0.26200    0.72810    1.000
    H190     H        0.41440    0.24840    0.76170    1.000
    C255     C        0.44860    0.17250    0.69120    1.000
    H191     H        0.44470    0.08590    0.69600    1.000
    C256     C        0.46710    0.35400    0.65410    1.000
    H192     H        0.47650    0.41590    0.62770    1.000
    N127     N        0.44640    0.37650    0.70680    1.000
    N128     N        0.47180    0.22850    0.64600    1.000
