data_functionalizedCrystal
_audit_creation_method	'EQeq! by Chris Wilmer'
_symmetry_space_group_name_H-M	'P1'
_symmetry_Int_Tables_number	1
_symmetry_cell_setting	triclinic
loop_
_symmetry_equiv_pos_as_xyz
  x,y,z
_cell_length_a	15.4839
_cell_length_b	16.3541
_cell_length_c	16.3541
_cell_angle_alpha	69.4761
_cell_angle_beta	71.6032
_cell_angle_gamma	108.397
loop_
_atom_site_label
_atom_site_type_symbol
_atom_site_fract_x
_atom_site_fract_y
_atom_site_fract_z
_atom_site_charge
Mof_Mn	Mn	0.59221	0.68442	0.65779	0.835
Mof_Mn	Mn	0.25	0.65779	0.65779	0.835
Mof_Mn	Mn	0.90779	0.65779	0.68442	0.836
Mof_Mn	Mn	0.40779	0.31558	0.34221	0.836
Mof_Mn	Mn	0.75	0.34221	0.34221	0.836
Mof_Mn	Mn	0.09221	0.34221	0.31558	0.836
Mof_Mn	Mn	0.75	0.59284	0.59284	0.636
Mof_Mn	Mn	0.34284	0.59284	0.81432	0.635
Mof_Mn	Mn	0.15716	0.81432	0.59284	0.634
Mof_Mn	Mn	0.25	0.40716	0.40716	0.636
Mof_Mn	Mn	0.65716	0.40716	0.18568	0.635
Mof_Mn	Mn	0.84284	0.18568	0.40716	0.634
Mof_H 	H 	0.6172	0.4393	0.9738	0.043
Mof_H 	H 	0.591	0.9738	0.5869	0.043
Mof_H 	H 	0.1779	0.5869	0.4393	0.043
Mof_H 	H 	0.909	0.5869	0.9738	0.042
Mof_H 	H 	0.3221	0.4393	0.5869	0.043
Mof_H 	H 	0.8828	0.9738	0.4393	0.043
Mof_H 	H 	0.3828	0.5607	0.0262	0.043
Mof_H 	H 	0.409	0.0262	0.4131	0.043
Mof_H 	H 	0.8221	0.4131	0.5607	0.043
Mof_H 	H 	0.091	0.4131	0.0262	0.042
Mof_H 	H 	0.6779	0.5607	0.4131	0.043
Mof_H 	H 	0.1172	0.0262	0.5607	0.043
Mof_C 	C 	0.57667	0.53798	0.90346	-0.112
Mof_C 	C 	0.66204	0.57259	0.80325	0.37
Mof_C 	C 	0.56895	0.46362	0.98492	-0.047
Mof_C 	C 	0.50726	0.57658	0.91752	0.055
Mof_C 	C 	0.48013	0.90346	0.55856	-0.112
Mof_C 	C 	0.46529	0.80325	0.62416	0.37
Mof_C 	C 	0.55387	0.98492	0.55146	-0.047
Mof_C 	C 	0.42478	0.91752	0.5059	0.055
Mof_C 	C 	0.03869	0.55856	0.53798	-0.112
Mof_C 	C 	0.08945	0.62416	0.57259	0.37
Mof_C 	C 	0.10533	0.55146	0.46362	-0.047
Mof_C 	C 	0.93068	0.5059	0.57658	0.056
Mof_C 	C 	0.01987	0.55856	0.90346	-0.114
Mof_C 	C 	0.03471	0.62416	0.80325	0.369
Mof_C 	C 	0.94613	0.55146	0.98492	-0.043
Mof_C 	C 	0.07522	0.5059	0.91752	0.054
Mof_C 	C 	0.46131	0.53798	0.55856	-0.112
Mof_C 	C 	0.41055	0.57259	0.62416	0.37
Mof_C 	C 	0.39467	0.46362	0.55146	-0.047
Mof_C 	C 	0.56932	0.57658	0.5059	0.056
Mof_C 	C 	0.92333	0.90346	0.53798	-0.112
Mof_C 	C 	0.83796	0.80325	0.57259	0.37
Mof_C 	C 	0.93105	0.98492	0.46362	-0.047
Mof_C 	C 	0.99274	0.91752	0.57658	0.056
Mof_C 	C 	0.42333	0.46202	0.09654	-0.112
Mof_C 	C 	0.33796	0.42741	0.19675	0.37
Mof_C 	C 	0.43105	0.53638	0.01508	-0.047
Mof_C 	C 	0.49274	0.42342	0.08248	0.055
Mof_C 	C 	0.51987	0.09654	0.44144	-0.112
Mof_C 	C 	0.53471	0.19675	0.37584	0.37
Mof_C 	C 	0.44613	0.01508	0.44854	-0.047
Mof_C 	C 	0.57522	0.08248	0.4941	0.055
Mof_C 	C 	0.96131	0.44144	0.46202	-0.112
Mof_C 	C 	0.91055	0.37584	0.42741	0.37
Mof_C 	C 	0.89467	0.44854	0.53638	-0.047
Mof_C 	C 	0.06932	0.4941	0.42342	0.056
Mof_C 	C 	0.98013	0.44144	0.09654	-0.114
Mof_C 	C 	0.96529	0.37584	0.19675	0.369
Mof_C 	C 	0.05387	0.44854	0.01508	-0.043
Mof_C 	C 	0.92478	0.4941	0.08248	0.054
Mof_C 	C 	0.53869	0.46202	0.44144	-0.112
Mof_C 	C 	0.58945	0.42741	0.37584	0.37
Mof_C 	C 	0.60533	0.53638	0.44854	-0.047
Mof_C 	C 	0.43068	0.42342	0.4941	0.056
Mof_C 	C 	0.07667	0.09654	0.46202	-0.112
Mof_C 	C 	0.16204	0.19675	0.42741	0.37
Mof_C 	C 	0.06895	0.01508	0.53638	-0.047
Mof_C 	C 	0.00726	0.08248	0.42342	0.056
Mof_S 	S 	0.51429	0.67601	0.82115	-0.227
Mof_S 	S 	0.33544	0.82116	0.50284	-0.227
Mof_S 	S 	0.83828	0.50284	0.67601	-0.227
Mof_S 	S 	0.16456	0.50284	0.82115	-0.227
Mof_S 	S 	0.66172	0.67601	0.50284	-0.227
Mof_S 	S 	0.98571	0.82115	0.67601	-0.226
Mof_S 	S 	0.48571	0.32399	0.17885	-0.227
Mof_S 	S 	0.66456	0.17885	0.49716	-0.227
Mof_S 	S 	0.16172	0.49716	0.32399	-0.227
Mof_S 	S 	0.83544	0.49716	0.17885	-0.227
Mof_S 	S 	0.33828	0.324	0.49716	-0.227
Mof_S 	S 	0.01428	0.17884	0.324	-0.226
Mof_O 	O 	0.63916	0.5734	0.73407	-0.435
Mof_O 	O 	0.75008	0.59465	0.79522	-0.383
Mof_O 	O 	0.37323	0.73407	0.69253	-0.435
Mof_O 	O 	0.5453	0.79522	0.61013	-0.383
Mof_O 	O 	0.06576	0.69253	0.5734	-0.435
Mof_O 	O 	0.15543	0.61013	0.59465	-0.383
Mof_O 	O 	0.12677	0.69253	0.73407	-0.435
Mof_O 	O 	0.9547	0.61013	0.79522	-0.382
Mof_O 	O 	0.43424	0.5734	0.69253	-0.435
Mof_O 	O 	0.34457	0.59465	0.61013	-0.383
Mof_O 	O 	0.86084	0.73407	0.5734	-0.435
Mof_O 	O 	0.74992	0.79522	0.59465	-0.383
Mof_O 	O 	0.36084	0.4266	0.26593	-0.435
Mof_O 	O 	0.24992	0.40535	0.20478	-0.383
Mof_O 	O 	0.62677	0.26593	0.30747	-0.435
Mof_O 	O 	0.4547	0.20478	0.38987	-0.383
Mof_O 	O 	0.93424	0.30747	0.4266	-0.435
Mof_O 	O 	0.84457	0.38987	0.40535	-0.383
Mof_O 	O 	0.87323	0.30747	0.26593	-0.435
Mof_O 	O 	0.0453	0.38987	0.20478	-0.382
Mof_O 	O 	0.56576	0.4266	0.30747	-0.435
Mof_O 	O 	0.65543	0.40535	0.38987	-0.383
Mof_O 	O 	0.13916	0.26593	0.4266	-0.435
Mof_O 	O 	0.25008	0.20478	0.40535	-0.383
_end
