data_functionalizedCrystal
_audit_creation_method	'EQeq! by Chris Wilmer'
_symmetry_space_group_name_H-M	'P1'
_symmetry_Int_Tables_number	1
_symmetry_cell_setting	triclinic
loop_
_symmetry_equiv_pos_as_xyz
  x,y,z
_cell_length_a	18.3652
_cell_length_b	18.3652
_cell_length_c	18.3652
_cell_angle_alpha	60
_cell_angle_beta	60
_cell_angle_gamma	60
loop_
_atom_site_label
_atom_site_type_symbol
_atom_site_fract_x
_atom_site_fract_y
_atom_site_fract_z
_atom_site_charge
Mof_Yb	Yb	0.25	0.25	0.25	1.918
Mof_Yb	Yb	0.75	0.75	0.25	1.929
Mof_Yb	Yb	0.25	0.75	0.75	1.928
Mof_Yb	Yb	0.75	0.75	0.75	1.934
Mof_Yb	Yb	0.25	0.75	0.25	1.924
Mof_Yb	Yb	0.25	0.25	0.75	1.924
Mof_Yb	Yb	0.75	0.25	0.75	1.93
Mof_Yb	Yb	0.75	0.25	0.25	1.924
Mof_Cd	Cd	-0	0.5	-0	0.398
Mof_Cd	Cd	0.5	0.5	0.5	0.523
Mof_Cd	Cd	1.2978e-17	0	0.5	0.398
Mof_Cd	Cd	-0	0	-0	0.335
Mof_Cd	Cd	1.2978e-17	0.5	0.5	0.461
Mof_Cd	Cd	0.5	0	-0	0.4
Mof_Cd	Cd	0.5	0	0.5	0.462
Mof_Cd	Cd	0.5	0.5	-0	0.462
Mof_H 	H 	0.4212	0.511	0.22	0.119
Mof_H 	H 	0.5788	0.489	0.78	0.12
Mof_H 	H 	0.4272	0.5198	0.3486	0.123
Mof_H 	H 	0.28	0.0788	0.489	0.099
Mof_H 	H 	0.9802	0.6514	0.0728	0.134
Mof_H 	H 	0.8486	0.5198	0.7044	0.134
Mof_H 	H 	0.2044	0.9272	0.3486	0.143
Mof_H 	H 	0.9212	0.011	0.3478	0.111
Mof_H 	H 	0.0198	0.7044	0.3486	0.098
Mof_H 	H 	0.8478	0.72	0.4212	0.13
Mof_H 	H 	0.7044	0.0198	0.8486	0.108
Mof_H 	H 	0.2956	0.5728	0.9802	0.15
Mof_H 	H 	0.511	0.4212	0.72	0.122
Mof_H 	H 	0.0788	0.6522	0.28	0.098
Mof_H 	H 	0.489	0.6522	0.5788	0.12
Mof_H 	H 	0.9802	0.2956	0.6514	0.15
Mof_H 	H 	0.22	0.4212	0.3478	0.119
Mof_H 	H 	0.9212	0.3478	0.72	0.141
Mof_H 	H 	0.3486	0.0198	0.4272	0.096
Mof_H 	H 	0.8478	0.011	0.72	0.103
Mof_H 	H 	0.3486	0.2044	0.0198	0.096
Mof_H 	H 	0.4802	0.5728	0.1514	0.117
Mof_H 	H 	0.3478	0.9212	0.22	0.139
Mof_H 	H 	0.7044	0.4272	0.0198	0.099
Mof_H 	H 	0.3478	0.22	0.511	0.119
Mof_H 	H 	0.78	0.5788	0.6522	0.121
Mof_H 	H 	0.1514	0.2956	0.0728	0.095
Mof_H 	H 	0.0788	0.28	0.989	0.127
Mof_H 	H 	0.3478	0.511	0.9212	0.138
Mof_H 	H 	0.9272	0.8486	0.0198	0.126
Mof_H 	H 	0.1522	0.989	0.28	0.138
Mof_H 	H 	0.6522	0.78	0.489	0.121
Mof_H 	H 	0.6514	0.5728	0.7956	0.126
Mof_H 	H 	0.011	0.8478	0.22	0.099
Mof_H 	H 	0.5788	0.78	0.1522	0.113
Mof_H 	H 	0.22	0.011	0.4212	0.091
Mof_H 	H 	0.489	0.5788	0.28	0.118
Mof_H 	H 	0.6522	0.0788	0.78	0.103
Mof_H 	H 	0.2956	0.1514	0.5728	0.115
Mof_H 	H 	0.8486	0.9272	0.5198	0.151
Mof_H 	H 	0.2044	0.5198	0.9272	0.144
Mof_H 	H 	0.5728	0.2956	0.4802	0.122
Mof_H 	H 	0.511	0.3478	0.4212	0.119
Mof_H 	H 	0.989	0.0788	0.1522	0.123
Mof_H 	H 	0.4802	0.7956	0.5728	0.125
Mof_H 	H 	0.5198	0.2044	0.4272	0.123
Mof_H 	H 	0.0728	0.1514	0.9802	0.126
Mof_H 	H 	0.78	0.989	0.5788	0.148
Mof_H 	H 	0.7956	0.4802	0.0728	0.107
Mof_H 	H 	0.7044	0.8486	0.4272	0.133
Mof_H 	H 	0.1522	0.28	0.5788	0.109
Mof_H 	H 	0.9802	0.0728	0.2956	0.132
Mof_H 	H 	0.5788	0.1522	0.489	0.112
Mof_H 	H 	0.9212	0.72	0.011	0.114
Mof_H 	H 	0.28	0.489	0.1522	0.109
Mof_H 	H 	0.7956	0.6514	0.4802	0.125
Mof_H 	H 	0.4272	0.3486	0.7044	0.125
Mof_H 	H 	0.4212	0.22	0.8478	0.128
Mof_H 	H 	0.28	0.1522	0.0788	0.09
Mof_H 	H 	0.4212	0.8478	0.511	0.128
Mof_H 	H 	0.3486	0.4272	0.2044	0.123
Mof_H 	H 	0.989	0.78	0.0788	0.131
Mof_H 	H 	0.511	0.72	0.3478	0.121
Mof_H 	H 	0.72	0.511	0.8478	0.13
Mof_H 	H 	0.6514	0.9802	0.5728	0.151
Mof_H 	H 	0.9272	0.2044	0.8486	0.151
Mof_H 	H 	0.0198	0.9272	0.7044	0.119
Mof_H 	H 	0.7956	0.0728	0.6514	0.108
Mof_H 	H 	0.9272	0.0198	0.2044	0.117
Mof_H 	H 	0.0728	0.7956	0.1514	0.099
Mof_H 	H 	0.78	0.6522	0.989	0.147
Mof_H 	H 	0.2044	0.3486	0.5198	0.123
Mof_H 	H 	0.4802	0.1514	0.7956	0.119
Mof_H 	H 	0.0728	0.9802	0.7956	0.134
Mof_H 	H 	0.1514	0.0728	0.4802	0.098
Mof_H 	H 	0.8478	0.4212	0.011	0.101
Mof_H 	H 	0.72	0.8478	0.9212	0.147
Mof_H 	H 	0.6514	0.7956	0.9802	0.151
Mof_H 	H 	0.8486	0.7044	0.9272	0.151
Mof_H 	H 	0.5728	0.4802	0.6514	0.124
Mof_H 	H 	0.011	0.22	0.9212	0.11
Mof_H 	H 	0.22	0.3478	0.011	0.09
Mof_H 	H 	0.5198	0.8486	0.2044	0.132
Mof_H 	H 	0.0198	0.3486	0.9272	0.116
Mof_H 	H 	0.1522	0.5788	0.989	0.141
Mof_H 	H 	0.5198	0.4272	0.8486	0.131
Mof_H 	H 	0.989	0.1522	0.78	0.141
Mof_H 	H 	0.011	0.9212	0.8478	0.118
Mof_H 	H 	0.4272	0.7044	0.5198	0.125
Mof_H 	H 	0.72	0.9212	0.511	0.14
Mof_H 	H 	0.1514	0.4802	0.2956	0.114
Mof_H 	H 	0.2956	0.9802	0.1514	0.143
Mof_H 	H 	0.6522	0.489	0.0788	0.102
Mof_H 	H 	0.489	0.28	0.6522	0.118
Mof_H 	H 	0.0788	0.989	0.6522	0.13
Mof_H 	H 	0.5728	0.6514	0.2956	0.122
Mof_C 	C 	0.5723	0.3199	0.4197	-0.243
Mof_C 	C 	0.8119	0.5803	0.6801	-0.243
Mof_C 	C 	0.0803	0.6801	0.3119	-0.22
Mof_C 	C 	0.3199	0.9197	0.1881	-0.261
Mof_C 	C 	0.3199	0.1881	0.5723	-0.241
Mof_C 	C 	0.138	0.3682	0.8796	0.435
Mof_C 	C 	0.9277	0.8119	0.0803	-0.239
Mof_C 	C 	0.8199	0.4197	0.0723	-0.219
Mof_C 	C 	0.8199	0.0723	0.6881	-0.221
Mof_C 	C 	0.6801	0.0803	0.8119	-0.221
Mof_C 	C 	0.3796	0.3682	0.6142	0.44
Mof_C 	C 	0.1204	0.1318	0.862	0.434
Mof_C 	C 	0.8858	0.362	0.1204	0.423
Mof_C 	C 	0.9277	0.0803	0.1801	-0.24
Mof_C 	C 	0.0803	0.3119	0.9277	-0.238
Mof_C 	C 	0.3858	0.1318	0.6204	0.438
Mof_C 	C 	0.362	0.6204	0.1318	0.439
Mof_C 	C 	0.1318	0.3858	0.1204	0.423
Mof_C 	C 	0.1142	0.638	0.8796	0.449
Mof_C 	C 	0.4277	0.5803	0.3119	-0.243
Mof_C 	C 	0.862	0.3858	0.6318	0.451
Mof_C 	C 	0.6318	0.6204	0.8858	0.439
Mof_C 	C 	0.5723	0.4197	0.6881	-0.246
Mof_C 	C 	0.1204	0.862	0.8858	0.433
Mof_C 	C 	0.9197	0.6881	0.0723	-0.243
Mof_C 	C 	0.6142	0.3796	0.138	0.427
Mof_C 	C 	0.8796	0.1142	0.8682	0.446
Mof_C 	C 	0.0723	0.8199	0.1881	-0.217
Mof_C 	C 	0.1318	0.1204	0.362	0.424
Mof_C 	C 	0.0723	0.1881	0.9197	-0.239
Mof_C 	C 	0.4277	0.3119	0.6801	-0.244
Mof_C 	C 	0.3796	0.638	0.3682	0.439
Mof_C 	C 	0.6318	0.862	0.6204	0.451
Mof_C 	C 	0.862	0.6318	0.1204	0.437
Mof_C 	C 	0.5803	0.8119	0.1801	-0.241
Mof_C 	C 	0.3858	0.862	0.1318	0.448
Mof_C 	C 	0.6204	0.6318	0.3858	0.441
Mof_C 	C 	0.6801	0.8119	0.4277	-0.243
Mof_C 	C 	0.4197	0.8199	0.5723	-0.242
Mof_C 	C 	0.8858	0.1204	0.6318	0.424
Mof_C 	C 	0.8682	0.6142	0.8796	0.448
Mof_C 	C 	0.862	0.1204	0.3858	0.436
Mof_C 	C 	0.6142	0.8682	0.3796	0.438
Mof_C 	C 	0.1318	0.362	0.3858	0.437
Mof_C 	C 	0.8796	0.8682	0.138	0.434
Mof_C 	C 	0.8858	0.6318	0.362	0.438
Mof_C 	C 	0.1801	0.3119	0.5803	-0.242
Mof_C 	C 	0.362	0.8858	0.6204	0.438
Mof_C 	C 	0.9197	0.0723	0.3199	-0.24
Mof_C 	C 	0.8796	0.138	0.1142	0.435
Mof_C 	C 	0.3858	0.6204	0.862	0.45
Mof_C 	C 	0.3682	0.1142	0.138	0.423
Mof_C 	C 	0.5803	0.1801	0.4277	-0.244
Mof_C 	C 	0.8199	0.6881	0.4197	-0.243
Mof_C 	C 	0.1142	0.3682	0.638	0.438
Mof_C 	C 	0.6142	0.138	0.8682	0.425
Mof_C 	C 	0.1881	0.4197	0.3199	-0.242
Mof_C 	C 	0.1801	0.9277	0.3119	-0.261
Mof_C 	C 	0.1142	0.8796	0.3682	0.448
Mof_C 	C 	0.3119	0.1801	0.0803	-0.218
Mof_C 	C 	0.6881	0.8199	0.9197	-0.261
Mof_C 	C 	0.3199	0.5723	0.9197	-0.262
Mof_C 	C 	0.9197	0.3199	0.6881	-0.264
Mof_C 	C 	0.0803	0.9277	0.6801	-0.241
Mof_C 	C 	0.4277	0.6801	0.5803	-0.246
Mof_C 	C 	0.9277	0.1801	0.8119	-0.26
Mof_C 	C 	0.3119	0.0803	0.4277	-0.219
Mof_C 	C 	0.6881	0.9197	0.5723	-0.264
Mof_C 	C 	0.4197	0.1881	0.8199	-0.241
Mof_C 	C 	0.6801	0.4277	0.0803	-0.223
Mof_C 	C 	0.4197	0.5723	0.1881	-0.243
Mof_C 	C 	0.3682	0.3796	0.1142	0.437
Mof_C 	C 	0.6318	0.8858	0.862	0.448
Mof_C 	C 	0.6204	0.362	0.6318	0.442
Mof_C 	C 	0.1881	0.0723	0.4197	-0.22
Mof_C 	C 	0.1881	0.3199	0.0723	-0.218
Mof_C 	C 	0.8682	0.8796	0.638	0.448
Mof_C 	C 	0.5723	0.6881	0.3199	-0.244
Mof_C 	C 	0.638	0.8682	0.1142	0.436
Mof_C 	C 	0.8682	0.638	0.6142	0.439
Mof_C 	C 	0.8119	0.6801	0.9277	-0.26
Mof_C 	C 	0.638	0.3796	0.8682	0.438
Mof_C 	C 	0.362	0.1318	0.8858	0.436
Mof_C 	C 	0.6204	0.3858	0.362	0.44
Mof_C 	C 	0.3119	0.4277	0.1801	-0.242
Mof_C 	C 	0.3682	0.138	0.3796	0.425
Mof_C 	C 	0.1204	0.8858	0.1318	0.421
Mof_C 	C 	0.3796	0.6142	0.638	0.441
Mof_C 	C 	0.638	0.1142	0.3796	0.439
Mof_C 	C 	0.1801	0.5803	0.9277	-0.263
Mof_C 	C 	0.138	0.6142	0.3682	0.426
Mof_C 	C 	0.5803	0.4277	0.8119	-0.242
Mof_C 	C 	0.0723	0.9197	0.8199	-0.238
Mof_C 	C 	0.8119	0.9277	0.5803	-0.26
Mof_C 	C 	0.6881	0.5723	0.8199	-0.243
Mof_C 	C 	0.138	0.8796	0.6142	0.437
Mof_O 	O 	0.6209	0.0453	0.4069	-0.329
Mof_O 	O 	0.5931	0.3791	0.5731	-0.307
Mof_O 	O 	0.25	0.8806	0.25	-0.211
Mof_O 	O 	0.8806	0.75	0.1194	-0.219
Mof_O 	O 	0.3791	0.9547	0.5931	-0.267
Mof_O 	O 	0.3736	0.146	0.6852	-0.437
Mof_O 	O 	0.1264	0.354	0.7048	-0.439
Mof_O 	O 	0.1264	0.7048	0.8148	-0.438
Mof_O 	O 	0.354	0.1264	0.2048	-0.438
Mof_O 	O 	0.0453	0.4269	0.6209	-0.328
Mof_O 	O 	0.0731	0.4547	0.0931	-0.331
Mof_O 	O 	0.854	0.7048	0.6264	-0.42
Mof_O 	O 	0.6852	0.646	0.3736	-0.43
Mof_O 	O 	0.5731	0.8791	0.5931	-0.287
Mof_O 	O 	0.9269	0.5453	0.9069	-0.249
Mof_O 	O 	0.7048	0.3148	0.854	-0.421
Mof_O 	O 	0.8148	0.2048	0.1264	-0.437
Mof_O 	O 	0.0931	0.9547	0.0731	-0.29
Mof_O 	O 	0.3791	0.5931	0.0731	-0.323
Mof_O 	O 	0.8806	0.25	0.75	-0.209
Mof_O 	O 	0.4069	0.6209	0.4269	-0.307
Mof_O 	O 	0.75	0.3806	0.1194	-0.23
Mof_O 	O 	0.0931	0.8791	0.9547	-0.256
Mof_O 	O 	0.354	0.2048	0.3148	-0.429
Mof_O 	O 	0.6264	0.854	0.3148	-0.422
Mof_O 	O 	0.3736	0.7952	0.146	-0.439
Mof_O 	O 	0.4547	0.5931	0.8791	-0.287
Mof_O 	O 	0.1209	0.5453	0.4269	-0.308
Mof_O 	O 	0.3791	0.0731	0.9547	-0.283
Mof_O 	O 	0.3148	0.7048	0.354	-0.431
Mof_O 	O 	0.6852	0.2952	0.646	-0.43
Mof_O 	O 	0.5453	0.4069	0.1209	-0.309
Mof_O 	O 	0.0453	0.6209	0.9069	-0.303
Mof_O 	O 	0.6194	0.3806	0.75	-0.218
Mof_O 	O 	0.25	0.25	0.6194	-0.223
Mof_O 	O 	0.1209	0.9069	0.5453	-0.283
Mof_O 	O 	0.7952	0.3736	0.646	-0.431
Mof_O 	O 	0.146	0.3736	0.1852	-0.439
Mof_O 	O 	0.75	0.75	0.8806	-0.207
Mof_O 	O 	0.6264	0.2048	0.854	-0.419
Mof_O 	O 	0.0731	0.0931	0.3791	-0.332
Mof_O 	O 	0.4069	0.4269	0.5453	-0.308
Mof_O 	O 	0.646	0.7952	0.6852	-0.43
Mof_O 	O 	0.25	0.6194	0.8806	-0.21
Mof_O 	O 	0.8791	0.0931	0.4547	-0.294
Mof_O 	O 	0.6264	0.3148	0.2048	-0.43
Mof_O 	O 	0.1194	0.75	0.25	-0.232
Mof_O 	O 	0.854	0.8148	0.7048	-0.419
Mof_O 	O 	0.4269	0.4069	0.0453	-0.33
Mof_O 	O 	0.6209	0.9269	0.0453	-0.293
Mof_O 	O 	0.25	0.1194	0.3806	-0.233
Mof_O 	O 	0.646	0.8736	0.7952	-0.42
Mof_O 	O 	0.9547	0.5731	0.3791	-0.267
Mof_O 	O 	0.1852	0.8736	0.146	-0.427
Mof_O 	O 	0.2048	0.8148	0.6264	-0.428
Mof_O 	O 	0.9547	0.0931	0.5731	-0.273
Mof_O 	O 	0.146	0.1852	0.2952	-0.44
Mof_O 	O 	0.75	0.1194	0.75	-0.229
Mof_O 	O 	0.3806	0.25	0.75	-0.219
Mof_O 	O 	0.8736	0.2952	0.1852	-0.419
Mof_O 	O 	0.3148	0.6264	0.7048	-0.432
Mof_O 	O 	0.354	0.3148	0.1264	-0.441
Mof_O 	O 	0.2048	0.6264	0.354	-0.428
Mof_O 	O 	0.5931	0.4547	0.3791	-0.306
Mof_O 	O 	0.8736	0.646	0.2952	-0.42
Mof_O 	O 	0.4547	0.0731	0.5931	-0.322
Mof_O 	O 	0.2952	0.6852	0.146	-0.438
Mof_O 	O 	0.5731	0.5931	0.9547	-0.267
Mof_O 	O 	0.7048	0.854	0.1264	-0.429
Mof_O 	O 	0.1852	0.7952	0.8736	-0.419
Mof_O 	O 	0.2048	0.354	0.8148	-0.427
Mof_O 	O 	0.7952	0.1852	0.3736	-0.43
Mof_O 	O 	0.1209	0.4269	0.9069	-0.282
Mof_O 	O 	0.9269	0.6209	0.5453	-0.272
Mof_O 	O 	0.854	0.6264	0.8148	-0.419
Mof_O 	O 	0.25	0.25	0.1194	-0.236
Mof_O 	O 	0.7048	0.1264	0.3148	-0.441
Mof_O 	O 	0.0931	0.0731	0.8791	-0.311
Mof_O 	O 	0.4269	0.0453	0.1209	-0.331
Mof_O 	O 	0.75	0.8806	0.6194	-0.208
Mof_O 	O 	0.0453	0.9069	0.4269	-0.303
Mof_O 	O 	0.1194	0.8806	0.75	-0.219
Mof_O 	O 	0.8791	0.5731	0.0931	-0.294
Mof_O 	O 	0.6209	0.4069	0.9269	-0.273
Mof_O 	O 	0.4069	0.5453	0.6209	-0.307
Mof_O 	O 	0.5931	0.5731	0.4547	-0.306
Mof_O 	O 	0.2952	0.8736	0.6852	-0.418
Mof_O 	O 	0.6852	0.3736	0.2952	-0.429
Mof_O 	O 	0.9069	0.0453	0.9269	-0.269
Mof_O 	O 	0.1852	0.146	0.7952	-0.439
Mof_O 	O 	0.8148	0.854	0.2048	-0.417
Mof_O 	O 	0.8736	0.1852	0.646	-0.419
Mof_O 	O 	0.646	0.6852	0.8736	-0.419
Mof_O 	O 	0.9269	0.9069	0.6209	-0.249
Mof_O 	O 	0.3736	0.6852	0.7952	-0.43
Mof_O 	O 	0.9547	0.3791	0.0931	-0.273
Mof_O 	O 	0.25	0.3806	0.25	-0.223
Mof_O 	O 	0.75	0.75	0.3806	-0.217
Mof_O 	O 	0.6194	0.25	0.3806	-0.221
Mof_O 	O 	0.0731	0.3791	0.4547	-0.324
Mof_O 	O 	0.75	0.6194	0.75	-0.217
Mof_O 	O 	0.2952	0.146	0.8736	-0.428
Mof_O 	O 	0.3148	0.354	0.6264	-0.432
Mof_O 	O 	0.9069	0.9269	0.1209	-0.249
Mof_O 	O 	0.146	0.2952	0.3736	-0.44
Mof_O 	O 	0.1264	0.8148	0.354	-0.438
Mof_O 	O 	0.5453	0.1209	0.9269	-0.274
Mof_O 	O 	0.5453	0.9269	0.4069	-0.274
Mof_O 	O 	0.3806	0.6194	0.25	-0.221
Mof_O 	O 	0.8806	0.1194	0.25	-0.222
Mof_O 	O 	0.4547	0.8791	0.0731	-0.303
Mof_O 	O 	0.8148	0.1264	0.854	-0.428
Mof_O 	O 	0.6194	0.75	0.25	-0.22
Mof_O 	O 	0.5731	0.9547	0.8791	-0.251
Mof_O 	O 	0.4269	0.1209	0.4069	-0.309
Mof_O 	O 	0.8791	0.4547	0.5731	-0.288
Mof_O 	O 	0.3806	0.75	0.6194	-0.218
Mof_O 	O 	0.7952	0.646	0.1852	-0.431
Mof_O 	O 	0.9069	0.1209	0.0453	-0.304
Mof_O 	O 	0.1194	0.25	0.8806	-0.222
_end
