data_functionalizedCrystal
_audit_creation_method	'EQeq! by Chris Wilmer'
_symmetry_space_group_name_H-M	'P1'
_symmetry_Int_Tables_number	1
_symmetry_cell_setting	triclinic
loop_
_symmetry_equiv_pos_as_xyz
  x,y,z
_cell_length_a	10.152
_cell_length_b	18.8793
_cell_length_c	20.9003
_cell_angle_alpha	115.564
_cell_angle_beta	101.854
_cell_angle_gamma	94.7566
loop_
_atom_site_label
_atom_site_type_symbol
_atom_site_fract_x
_atom_site_fract_y
_atom_site_fract_z
_atom_site_charge
Mof_Ce	Ce	0.12824	0.10874	0.93926	3.183
Mof_Ce	Ce	0.05648	0.06373	0.61478	3.007
Mof_Ce	Ce	0.31102	0.83052	0.93926	3.254
Mof_Ce	Ce	0.0583	0.55105	0.61478	3.05
Mof_Ce	Ce	0.87176	0.89126	0.06074	3.183
Mof_Ce	Ce	0.94352	0.93627	0.38522	3.007
Mof_Ce	Ce	0.68898	0.16948	0.06074	3.254
Mof_Ce	Ce	0.9417	0.44895	0.38522	3.05
Mof_Ce	Ce	0.03062	0.28062	0.56124	3.156
Mof_Ce	Ce	0.96938	0.71938	0.43876	3.156
Mof_S 	S 	0.16014	0.10131	0.46568	0.981
Mof_S 	S 	0.38548	0.02293	0.929	0.924
Mof_S 	S 	0.76734	0.09154	0.4957	1.046
Mof_S 	S 	0.21107	0.24691	0.68616	0.711
Mof_S 	S 	0.07719	0.09286	0.77774	0.682
Mof_S 	S 	0.40548	0.27798	0.04898	1.203
Mof_S 	S 	0.80554	0.36437	0.46568	0.983
Mof_S 	S 	0.04352	0.90607	0.929	0.931
Mof_S 	S 	0.22836	0.40416	0.4957	1.051
Mof_S 	S 	0.97509	0.43925	0.68616	0.727
Mof_S 	S 	0.20055	0.68488	0.77774	0.702
Mof_S 	S 	0.1435	0.771	0.04898	1.199
Mof_S 	S 	0.83986	0.89869	0.53432	0.981
Mof_S 	S 	0.61452	0.97707	0.071	0.924
Mof_S 	S 	0.23266	0.90846	0.5043	1.046
Mof_S 	S 	0.78893	0.75309	0.31384	0.711
Mof_S 	S 	0.92281	0.90714	0.22226	0.682
Mof_S 	S 	0.59452	0.72202	0.95102	1.203
Mof_S 	S 	0.19446	0.63563	0.53432	0.983
Mof_S 	S 	0.95648	0.09393	0.071	0.931
Mof_S 	S 	0.77164	0.59584	0.5043	1.051
Mof_S 	S 	0.02491	0.56075	0.31384	0.727
Mof_S 	S 	0.79945	0.31512	0.22226	0.702
Mof_S 	S 	0.8565	0.229	0.95102	1.199
Mof_O 	O 	0.2333	0.298	0.7636	-0.341
Mof_O 	O 	0.82574	0.07934	0.56088	-0.663
Mof_O 	O 	0.08157	0.06967	0.50434	-0.88
Mof_O 	O 	0.29606	0.03346	0.86972	-0.61
Mof_O 	O 	0.7878	0.0276	0.4286	-0.683
Mof_O 	O 	0.3367	0.0641	0.9948	-0.669
Mof_O 	O 	0.13151	0.18021	0.47922	-0.689
Mof_O 	O 	0.15995	0.16205	0.8475	-0.55
Mof_O 	O 	0.52886	0.05926	0.94352	-0.638
Mof_O 	O 	0.05895	0.21665	0.6495	-0.749
Mof_O 	O 	0.27035	0.17515	0.6739	-0.556
Mof_O 	O 	0.62101	0.09111	0.48782	-0.374
Mof_O 	O 	0.37673	0.93723	0.90606	-0.666
Mof_O 	O 	0.83822	0.16952	0.50824	-0.696
Mof_O 	O 	0.10259	0.04489	0.38678	-0.621
Mof_O 	O 	0.16391	0.05291	0.72962	-0.551
Mof_O 	O 	0.00875	0.03775	0.7991	-0.548
Mof_O 	O 	0.30484	0.10484	0.48988	-0.382
Mof_O 	O 	0.25796	0.28986	0.64872	-0.557
Mof_O 	O 	0.97977	0.12057	0.73514	-0.507
Mof_O 	O 	0.2742	0.2301	0.0278	-0.803
Mof_O 	O 	0.5137	0.2377	0.0434	-0.852
Mof_O 	O 	0.4331	0.3412	0.1228	-0.436
Mof_O 	O 	0.4049	0.3294	0.0108	-0.408
Mof_O 	O 	0.0303	0.4656	0.7636	-0.349
Mof_O 	O 	0.23514	0.48154	0.56088	-0.674
Mof_O 	O 	0.92277	0.43467	0.50434	-0.882
Mof_O 	O 	0.07366	0.83626	0.86972	-0.61
Mof_O 	O 	0.1408	0.401	0.4286	-0.694
Mof_O 	O 	0.1581	0.9307	0.9948	-0.665
Mof_O 	O 	0.84771	0.29901	0.47922	-0.686
Mof_O 	O 	0.18755	0.68545	0.8475	-0.557
Mof_O 	O 	0.91466	0.88426	0.94352	-0.631
Mof_O 	O 	0.09055	0.43285	0.6495	-0.753
Mof_O 	O 	0.90355	0.49875	0.6739	-0.56
Mof_O 	O 	0.36681	0.39671	0.48782	-0.375
Mof_O 	O 	0.02933	0.96883	0.90606	-0.66
Mof_O 	O 	0.17002	0.33872	0.50824	-0.702
Mof_O 	O 	0.78419	0.34189	0.38678	-0.622
Mof_O 	O 	0.06571	0.67671	0.72962	-0.553
Mof_O 	O 	0.29035	0.76135	0.7991	-0.545
Mof_O 	O 	0.68504	0.38504	0.48988	-0.382
Mof_O 	O 	0.89076	0.35886	0.64872	-0.557
Mof_O 	O 	0.25537	0.61457	0.73514	-0.53
Mof_O 	O 	0.2536	0.7977	0.0278	-0.812
Mof_O 	O 	0.0297	0.8057	0.0434	-0.835
Mof_O 	O 	0.1897	0.7816	0.1228	-0.433
Mof_O 	O 	0.1059	0.6814	0.0108	-0.405
Mof_O 	O 	0.7667	0.702	0.2364	-0.341
Mof_O 	O 	0.17426	0.92066	0.43912	-0.663
Mof_O 	O 	0.91843	0.93033	0.49566	-0.88
Mof_O 	O 	0.70394	0.96654	0.13028	-0.61
Mof_O 	O 	0.2122	0.9724	0.5714	-0.683
Mof_O 	O 	0.6633	0.9359	0.0052	-0.669
Mof_O 	O 	0.86849	0.81979	0.52078	-0.689
Mof_O 	O 	0.84005	0.83795	0.1525	-0.55
Mof_O 	O 	0.47114	0.94074	0.05648	-0.638
Mof_O 	O 	0.94105	0.78335	0.3505	-0.749
Mof_O 	O 	0.72965	0.82485	0.3261	-0.556
Mof_O 	O 	0.37899	0.90889	0.51218	-0.374
Mof_O 	O 	0.62327	0.06277	0.09394	-0.666
Mof_O 	O 	0.16178	0.83048	0.49176	-0.696
Mof_O 	O 	0.89741	0.95511	0.61322	-0.621
Mof_O 	O 	0.83609	0.94709	0.27038	-0.551
Mof_O 	O 	0.99125	0.96225	0.2009	-0.548
Mof_O 	O 	0.69516	0.89516	0.51012	-0.382
Mof_O 	O 	0.74204	0.71014	0.35128	-0.557
Mof_O 	O 	0.02023	0.87943	0.26486	-0.507
Mof_O 	O 	0.7258	0.7699	0.9722	-0.803
Mof_O 	O 	0.4863	0.7623	0.9566	-0.852
Mof_O 	O 	0.5669	0.6588	0.8772	-0.436
Mof_O 	O 	0.5951	0.6706	0.9892	-0.408
Mof_O 	O 	0.9697	0.5344	0.2364	-0.349
Mof_O 	O 	0.76486	0.51846	0.43912	-0.674
Mof_O 	O 	0.07723	0.56533	0.49566	-0.882
Mof_O 	O 	0.92634	0.16374	0.13028	-0.61
Mof_O 	O 	0.8592	0.599	0.5714	-0.694
Mof_O 	O 	0.8419	0.0693	0.0052	-0.665
Mof_O 	O 	0.15229	0.70099	0.52078	-0.686
Mof_O 	O 	0.81245	0.31455	0.1525	-0.557
Mof_O 	O 	0.08534	0.11574	0.05648	-0.631
Mof_O 	O 	0.90945	0.56715	0.3505	-0.753
Mof_O 	O 	0.09645	0.50125	0.3261	-0.56
Mof_O 	O 	0.63319	0.60329	0.51218	-0.375
Mof_O 	O 	0.97067	0.03117	0.09394	-0.66
Mof_O 	O 	0.82998	0.66128	0.49176	-0.702
Mof_O 	O 	0.21581	0.65811	0.61322	-0.622
Mof_O 	O 	0.93429	0.32329	0.27038	-0.553
Mof_O 	O 	0.70965	0.23865	0.2009	-0.545
Mof_O 	O 	0.31496	0.61496	0.51012	-0.382
Mof_O 	O 	0.10924	0.64114	0.35128	-0.557
Mof_O 	O 	0.74463	0.38543	0.26486	-0.53
Mof_O 	O 	0.7464	0.2023	0.9722	-0.812
Mof_O 	O 	0.9703	0.1943	0.9566	-0.835
Mof_O 	O 	0.8103	0.2184	0.8772	-0.433
Mof_O 	O 	0.8941	0.3186	0.9892	-0.405
Mof_H 	H 	0.4177	0.525	0.4128	0.158
Mof_H 	H 	0.3071	0.4496	0.3534	0.128
Mof_H 	H 	0.4268	0.4834	0.3312	0.128
Mof_H 	H 	0.5276	0.3111	0.3376	0.143
Mof_H 	H 	0.4957	0.3496	0.2844	0.132
Mof_H 	H 	0.376	0.3158	0.3066	0.12
Mof_H 	H 	0.5765	0.4461	0.4028	0.137
Mof_H 	H 	0.4657	0.4149	0.4236	0.158
Mof_C 	C 	0.4023	0.4746	0.3694	-0.307
Mof_C 	C 	0.4702	0.3427	0.3234	-0.302
Mof_N 	N 	0.48775	0.42185	0.3869	-0.177
Mof_H 	H 	0.7387	0.0337	0.8602	0.053
Mof_H 	H 	0.612	0.973	0.7974	0.074
Mof_H 	H 	0.7603	0.9554	0.7974	0.072
Mof_H 	H 	0.7692	0.9424	0.9012	0.134
Mof_H 	H 	0.6215	0.8265	0.8602	0.046
Mof_H 	H 	0.6854	0.8244	0.7974	0.069
Mof_H 	H 	0.5371	0.842	0.7974	0.068
Mof_H 	H 	0.632	0.9588	0.9012	0.135
Mof_C 	C 	0.7006	0.9781	0.8278	-0.16
Mof_C 	C 	0.6272	0.8497	0.8278	-0.144
Mof_N 	N 	0.686	0.936	0.872	-0.216
Mof_H 	H 	0.8301	0.2649	0.7434	0.117
Mof_H 	H 	0.9361	0.3439	0.7706	0.136
Mof_H 	H 	0.8401	0.3386	0.819	0.126
Mof_H 	H 	0.1543	0.3241	0.91	0.142
Mof_H 	H 	0.0416	0.3768	0.9228	0.138
Mof_H 	H 	0.1376	0.3822	0.8746	0.14
Mof_H 	H 	0.9506	0.254	0.8368	0.141
Mof_H 	H 	0.0395	0.2588	0.7918	0.11
Mof_C 	C 	0.8913	0.3093	0.7858	-0.287
Mof_C 	C 	0.0898	0.3471	0.8882	-0.34
Mof_N 	N 	0.9933	0.2871	0.8236	-0.136
Mof_H 	H 	0.0793	0.4491	0.1018	0.144
Mof_H 	H 	0.1976	0.4003	0.0918	0.151
Mof_H 	H 	0.2058	0.4709	0.169	0.142
Mof_H 	H 	0.0953	0.3	0.1888	0.128
Mof_H 	H 	0.2171	0.3738	0.2262	0.121
Mof_H 	H 	0.209	0.3032	0.149	0.135
Mof_H 	H 	0.0275	0.4003	0.1726	0.124
Mof_H 	H 	0.0199	0.3351	0.1014	0.101
Mof_C 	C 	0.1453	0.4279	0.125	-0.336
Mof_C 	C 	0.1563	0.3344	0.18	-0.295
Mof_N 	N 	0.0785	0.3734	0.1432	-0.145
Mof_H 	H 	0.6925	0.1037	0.2652	0.109
Mof_H 	H 	0.7779	0.186	0.329	0.113
Mof_H 	H 	0.8081	0.1059	0.329	0.099
Mof_H 	H 	0.8777	0.0767	0.2274	0.124
Mof_H 	H 	0.0727	0.1615	0.2652	0.108
Mof_H 	H 	0.0511	0.143	0.329	0.113
Mof_H 	H 	0.0209	0.2231	0.329	0.096
Mof_H 	H 	0.8497	0.1507	0.2274	0.119
Mof_C 	C 	0.7814	0.1313	0.2986	-0.227
Mof_C 	C 	0.0172	0.1673	0.2986	-0.232
Mof_N 	N 	0.8784	0.1284	0.2568	-0.177
Mof_H 	H 	0.4951	0.8878	0.4128	0.157
Mof_H 	H 	0.5463	0.9038	0.3534	0.127
Mof_H 	H 	0.4044	0.8478	0.3312	0.128
Mof_H 	H 	0.31	0.0265	0.3376	0.137
Mof_H 	H 	0.2887	0.9348	0.2844	0.13
Mof_H 	H 	0.4306	0.9908	0.3066	0.115
Mof_H 	H 	0.3263	0.9567	0.4028	0.138
Mof_H 	H 	0.4579	0.0087	0.4236	0.156
Mof_C 	C 	0.4671	0.8948	0.3694	-0.306
Mof_C 	C 	0.3532	0.9807	0.3234	-0.289
Mof_N 	N 	0.39915	0.96505	0.3869	-0.179
Mof_H 	H 	0.4133	0.4785	0.7434	0.11
Mof_H 	H 	0.3345	0.4267	0.7706	0.126
Mof_H 	H 	0.4789	0.4804	0.819	0.119
Mof_H 	H 	0.2557	0.5859	0.91	0.134
Mof_H 	H 	0.3812	0.546	0.9228	0.134
Mof_H 	H 	0.237	0.4924	0.8746	0.131
Mof_H 	H 	0.3862	0.5828	0.8368	0.142
Mof_H 	H 	0.2523	0.533	0.7918	0.124
Mof_C 	C 	0.3945	0.4765	0.7858	-0.269
Mof_C 	C 	0.2984	0.5411	0.8882	-0.309
Mof_N 	N 	0.3303	0.5365	0.8236	-0.159
Mof_H 	H 	0.5225	0.6527	0.1018	0.141
Mof_H 	H 	0.3942	0.6915	0.0918	0.15
Mof_H 	H 	0.4632	0.6981	0.169	0.141
Mof_H 	H 	0.5935	0.8888	0.1888	0.127
Mof_H 	H 	0.5091	0.8524	0.2262	0.121
Mof_H 	H 	0.44	0.8458	0.149	0.134
Mof_H 	H 	0.6451	0.7723	0.1726	0.122
Mof_H 	H 	0.5815	0.7663	0.1014	0.1
Mof_C 	C 	0.4797	0.6971	0.125	-0.333
Mof_C 	C 	0.5237	0.8456	0.18	-0.295
Mof_N 	N 	0.5647	0.7698	0.1432	-0.145
Mof_H 	H 	0.5823	0.475	0.5872	0.158
Mof_H 	H 	0.6929	0.5504	0.6466	0.128
Mof_H 	H 	0.5732	0.5166	0.6688	0.128
Mof_H 	H 	0.4724	0.6889	0.6624	0.143
Mof_H 	H 	0.5043	0.6504	0.7156	0.132
Mof_H 	H 	0.624	0.6842	0.6934	0.12
Mof_H 	H 	0.4235	0.5539	0.5972	0.137
Mof_H 	H 	0.5343	0.5851	0.5764	0.158
Mof_C 	C 	0.5977	0.5254	0.6306	-0.307
Mof_C 	C 	0.5298	0.6573	0.6766	-0.302
Mof_N 	N 	0.51225	0.57815	0.6131	-0.177
Mof_H 	H 	0.2613	0.9663	0.1398	0.053
Mof_H 	H 	0.388	0.027	0.2026	0.074
Mof_H 	H 	0.2397	0.0446	0.2026	0.072
Mof_H 	H 	0.2308	0.0576	0.0988	0.134
Mof_H 	H 	0.3785	0.1735	0.1398	0.046
Mof_H 	H 	0.3146	0.1756	0.2026	0.069
Mof_H 	H 	0.4629	0.158	0.2026	0.068
Mof_H 	H 	0.368	0.0412	0.0988	0.135
Mof_C 	C 	0.2994	0.0219	0.1722	-0.16
Mof_C 	C 	0.3728	0.1503	0.1722	-0.144
Mof_N 	N 	0.314	0.064	0.128	-0.216
Mof_H 	H 	0.1699	0.7351	0.2566	0.117
Mof_H 	H 	0.0639	0.6561	0.2294	0.136
Mof_H 	H 	0.1599	0.6614	0.181	0.126
Mof_H 	H 	0.8457	0.6759	0.09	0.142
Mof_H 	H 	0.9584	0.6232	0.0772	0.138
Mof_H 	H 	0.8624	0.6178	0.1254	0.14
Mof_H 	H 	0.0494	0.746	0.1632	0.141
Mof_H 	H 	0.9605	0.7412	0.2082	0.11
Mof_C 	C 	0.1087	0.6907	0.2142	-0.287
Mof_C 	C 	0.9102	0.6529	0.1118	-0.34
Mof_N 	N 	0.0067	0.7129	0.1764	-0.136
Mof_H 	H 	0.9207	0.5509	0.8982	0.144
Mof_H 	H 	0.8024	0.5997	0.9082	0.151
Mof_H 	H 	0.7942	0.5291	0.831	0.142
Mof_H 	H 	0.9047	0.7	0.8112	0.128
Mof_H 	H 	0.7829	0.6262	0.7738	0.121
Mof_H 	H 	0.791	0.6968	0.851	0.135
Mof_H 	H 	0.9725	0.5997	0.8274	0.124
Mof_H 	H 	0.9801	0.6649	0.8986	0.101
Mof_C 	C 	0.8547	0.5721	0.875	-0.336
Mof_C 	C 	0.8437	0.6656	0.82	-0.295
Mof_N 	N 	0.9215	0.6266	0.8568	-0.145
Mof_H 	H 	0.3075	0.8963	0.7348	0.109
Mof_H 	H 	0.2221	0.814	0.671	0.113
Mof_H 	H 	0.1919	0.8941	0.671	0.099
Mof_H 	H 	0.1223	0.9233	0.7726	0.124
Mof_H 	H 	0.9273	0.8385	0.7348	0.108
Mof_H 	H 	0.9489	0.857	0.671	0.113
Mof_H 	H 	0.9791	0.7769	0.671	0.096
Mof_H 	H 	0.1503	0.8493	0.7726	0.119
Mof_C 	C 	0.2186	0.8687	0.7014	-0.227
Mof_C 	C 	0.9828	0.8327	0.7014	-0.232
Mof_N 	N 	0.1216	0.8716	0.7432	-0.177
Mof_H 	H 	0.5049	0.1122	0.5872	0.157
Mof_H 	H 	0.4537	0.0962	0.6466	0.127
Mof_H 	H 	0.5956	0.1522	0.6688	0.128
Mof_H 	H 	0.69	0.9735	0.6624	0.137
Mof_H 	H 	0.7113	0.0652	0.7156	0.13
Mof_H 	H 	0.5694	0.0092	0.6934	0.115
Mof_H 	H 	0.6737	0.0433	0.5972	0.138
Mof_H 	H 	0.5421	0.9913	0.5764	0.156
Mof_C 	C 	0.5329	0.1052	0.6306	-0.306
Mof_C 	C 	0.6468	0.0193	0.6766	-0.289
Mof_N 	N 	0.60085	0.03495	0.6131	-0.179
Mof_H 	H 	0.5867	0.5215	0.2566	0.11
Mof_H 	H 	0.6655	0.5733	0.2294	0.126
Mof_H 	H 	0.5211	0.5196	0.181	0.119
Mof_H 	H 	0.7443	0.4141	0.09	0.134
Mof_H 	H 	0.6188	0.454	0.0772	0.134
Mof_H 	H 	0.763	0.5076	0.1254	0.131
Mof_H 	H 	0.6138	0.4172	0.1632	0.142
Mof_H 	H 	0.7477	0.467	0.2082	0.124
Mof_C 	C 	0.6055	0.5235	0.2142	-0.269
Mof_C 	C 	0.7016	0.4589	0.1118	-0.309
Mof_N 	N 	0.6697	0.4635	0.1764	-0.159
Mof_H 	H 	0.4775	0.3473	0.8982	0.141
Mof_H 	H 	0.6058	0.3085	0.9082	0.15
Mof_H 	H 	0.5368	0.3019	0.831	0.141
Mof_H 	H 	0.4065	0.1112	0.8112	0.127
Mof_H 	H 	0.4909	0.1476	0.7738	0.121
Mof_H 	H 	0.56	0.1542	0.851	0.134
Mof_H 	H 	0.3549	0.2277	0.8274	0.122
Mof_H 	H 	0.4185	0.2337	0.8986	0.1
Mof_C 	C 	0.5203	0.3029	0.875	-0.333
Mof_C 	C 	0.4763	0.1544	0.82	-0.295
Mof_N 	N 	0.4353	0.2302	0.8568	-0.145
_end
