# CIF file generated by openbabel 3.1.0, see https://openbabel.org
data_I
_chemical_name_common 'image0'
_cell_length_a 22.807
_cell_length_b 25.243
_cell_length_c 16.204
_cell_angle_alpha 90
_cell_angle_beta 133.809
_cell_angle_gamma 90
_space_group_name_H-M_alt 'P 1'
_space_group_name_Hall 'P 1'
loop_
    _symmetry_equiv_pos_as_xyz
    x,y,z
loop_
    _atom_site_label
    _atom_site_type_symbol
    _atom_site_fract_x
    _atom_site_fract_y
    _atom_site_fract_z
    _atom_site_occupancy
    C1       C        0.27803    0.01213    0.75320    1.000
    C2       C        0.92287    0.94885    0.59130    1.000
    C3       C        0.92043    0.09462    0.60000    1.000
    C4       C        0.20648    0.98420    0.67040    1.000
    H1       H        0.19980    0.96350    0.61700    1.000
    C5       C        0.14584    0.98780    0.66900    1.000
    H2       H        0.09760    0.96970    0.61210    1.000
    C6       C        0.87290    0.90744    0.49850    1.000
    C7       C        0.87573    0.14116    0.52050    1.000
    C8       C        0.22135    0.04230    0.82520    1.000
    H3       H        0.22680    0.06180    0.87890    1.000
    C9       C        0.89825    0.88712    0.44730    1.000
    H4       H        0.94610    0.89960    0.47020    1.000
    C10      C        0.79960    0.88983    0.46000    1.000
    H5       H        0.78090    0.90400    0.49110    1.000
    C11      C        0.85320    0.84853    0.36250    1.000
    H6       H        0.87060    0.83500    0.32920    1.000
    C12      C        0.28499    0.04195    0.83210    1.000
    H7       H        0.33190    0.06130    0.88850    1.000
    C13      C        0.79240    0.22683    0.37220    1.000
    C14      C        0.80920    0.16207    0.49350    1.000
    H8       H        0.79090    0.14730    0.52480    1.000
    C15      C        0.78190    0.83070    0.32880    1.000
    C16      C        0.34750    0.98851    0.69030    1.000
    C17      C        0.75460    0.85166    0.37630    1.000
    H9       H        0.70590    0.83990    0.35170    1.000
    C18      C        0.89950    0.16334    0.46990    1.000
    H10      H        0.94370    0.14920    0.48480    1.000
    C19      C        0.76820    0.20495    0.42020    1.000
    H11      H        0.72340    0.21880    0.40400    1.000
    C20      C        0.42800    0.99421    0.72470    1.000
    C21      C        0.50100    0.99490    0.83550    1.000
    H12      H        0.50270    0.99580    0.89450    1.000
    C22      C        0.85900    0.20593    0.39780    1.000
    H13      H        0.87680    0.22080    0.36580    1.000
    C23      C        0.42710    0.99430    0.63920    1.000
    H14      H        0.37760    0.99390    0.56320    1.000
    H15      H        0.38300    0.03020    0.81200    1.000
    N1       N        0.74264    0.27014    0.29300    1.000
    N2       N        0.73022    0.78936    0.24420    1.000
    N3       N        0.15186    0.01582    0.74458    1.000
    N4       N        0.34371    0.01252    0.76210    1.000
    O1       O        0.89721    0.96532    0.63410    1.000
    O2       O        0.98757    0.96303    0.61974    1.000
    O3       O        0.89714    0.07937    0.64722    1.000
    O4       O        0.97719    0.07503    0.61434    1.000
    O5       O        0.29202    0.96453    0.60480    1.000
    Zn1      Zn       0.06011    0.01967    0.73900    1.000
    C24      C        0.77803    0.51213    0.75320    1.000
    C25      C        0.42287    0.44885    0.59130    1.000
    C26      C        0.42043    0.59462    0.60000    1.000
    C27      C        0.70648    0.48420    0.67040    1.000
    H16      H        0.69980    0.46350    0.61700    1.000
    C28      C        0.64584    0.48780    0.66900    1.000
    H17      H        0.59760    0.46970    0.61210    1.000
    C29      C        0.37290    0.40744    0.49850    1.000
    C30      C        0.37573    0.64116    0.52050    1.000
    C31      C        0.72135    0.54230    0.82520    1.000
    H18      H        0.72680    0.56180    0.87890    1.000
    C32      C        0.39825    0.38712    0.44730    1.000
    H19      H        0.44610    0.39960    0.47020    1.000
    C33      C        0.29960    0.38983    0.46000    1.000
    H20      H        0.28090    0.40400    0.49110    1.000
    C34      C        0.35320    0.34853    0.36250    1.000
    H21      H        0.37060    0.33500    0.32920    1.000
    C35      C        0.78499    0.54195    0.83210    1.000
    H22      H        0.83190    0.56130    0.88850    1.000
    C36      C        0.29240    0.72683    0.37220    1.000
    C37      C        0.30920    0.66207    0.49350    1.000
    H23      H        0.29090    0.64730    0.52480    1.000
    C38      C        0.28190    0.33070    0.32880    1.000
    C39      C        0.84750    0.48851    0.69030    1.000
    C40      C        0.25460    0.35166    0.37630    1.000
    H24      H        0.20590    0.33990    0.35170    1.000
    C41      C        0.39950    0.66334    0.46990    1.000
    H25      H        0.44370    0.64920    0.48480    1.000
    C42      C        0.26820    0.70495    0.42020    1.000
    H26      H        0.22340    0.71880    0.40400    1.000
    C43      C        0.92800    0.49421    0.72470    1.000
    C44      C        0.00100    0.49490    0.83550    1.000
    H27      H        0.00270    0.49580    0.89450    1.000
    C45      C        0.35900    0.70593    0.39780    1.000
    H28      H        0.37680    0.72080    0.36580    1.000
    C46      C        0.92710    0.49430    0.63920    1.000
    H29      H        0.87760    0.49390    0.56320    1.000
    H30      H        0.88300    0.53020    0.81200    1.000
    N5       N        0.24264    0.77014    0.29300    1.000
    N6       N        0.23022    0.28936    0.24420    1.000
    N7       N        0.65186    0.51582    0.74458    1.000
    N8       N        0.84371    0.51252    0.76210    1.000
    O6       O        0.39721    0.46532    0.63410    1.000
    O7       O        0.48757    0.46303    0.61974    1.000
    O8       O        0.39714    0.57937    0.64722    1.000
    O9       O        0.47719    0.57503    0.61434    1.000
    O10      O        0.79202    0.46453    0.60480    1.000
    Zn2      Zn       0.56011    0.51967    0.73900    1.000
    C47      C        0.72197    0.01213    0.74680    1.000
    C48      C        0.07713    0.94885    0.90870    1.000
    C49      C        0.07957    0.09462    0.90000    1.000
    C50      C        0.79352    0.98420    0.82960    1.000
    H31      H        0.80020    0.96350    0.88300    1.000
    C51      C        0.85416    0.98780    0.83100    1.000
    H32      H        0.90240    0.96970    0.88790    1.000
    C52      C        0.12710    0.90744    0.00150    1.000
    C53      C        0.12427    0.14116    0.97950    1.000
    C54      C        0.77865    0.04230    0.67480    1.000
    H33      H        0.77320    0.06180    0.62110    1.000
    C55      C        0.10175    0.88712    0.05270    1.000
    H34      H        0.05390    0.89960    0.02980    1.000
    C56      C        0.20040    0.88983    0.04000    1.000
    H35      H        0.21910    0.90400    0.00890    1.000
    C57      C        0.14680    0.84853    0.13750    1.000
    H36      H        0.12940    0.83500    0.17080    1.000
    C58      C        0.71501    0.04195    0.66790    1.000
    H37      H        0.66810    0.06130    0.61150    1.000
    C59      C        0.20760    0.22683    0.12780    1.000
    C60      C        0.19080    0.16207    0.00650    1.000
    H38      H        0.20910    0.14730    0.97520    1.000
    C61      C        0.21810    0.83070    0.17120    1.000
    C62      C        0.65250    0.98851    0.80970    1.000
    C63      C        0.24540    0.85166    0.12370    1.000
    H39      H        0.29410    0.83990    0.14830    1.000
    C64      C        0.10050    0.16334    0.03010    1.000
    H40      H        0.05630    0.14920    0.01520    1.000
    C65      C        0.23180    0.20495    0.07980    1.000
    H41      H        0.27660    0.21880    0.09600    1.000
    C66      C        0.57200    0.99421    0.77530    1.000
    C67      C        0.49900    0.99490    0.66450    1.000
    H42      H        0.49730    0.99580    0.60550    1.000
    C68      C        0.14100    0.20593    0.10220    1.000
    H43      H        0.12320    0.22080    0.13420    1.000
    C69      C        0.57290    0.99430    0.86080    1.000
    H44      H        0.62240    0.99390    0.93680    1.000
    H45      H        0.61700    0.03020    0.68800    1.000
    N9       N        0.25736    0.27014    0.20700    1.000
    N10      N        0.26978    0.78936    0.25580    1.000
    N11      N        0.84814    0.01582    0.75542    1.000
    N12      N        0.65629    0.01252    0.73790    1.000
    O11      O        0.10279    0.96532    0.86590    1.000
    O12      O        0.01243    0.96303    0.88026    1.000
    O13      O        0.10286    0.07937    0.85278    1.000
    O14      O        0.02281    0.07503    0.88566    1.000
    O15      O        0.70798    0.96453    0.89520    1.000
    Zn3      Zn       0.93989    0.01967    0.76100    1.000
    C70      C        0.22197    0.51213    0.74680    1.000
    C71      C        0.57713    0.44885    0.90870    1.000
    C72      C        0.57957    0.59462    0.90000    1.000
    C73      C        0.29352    0.48420    0.82960    1.000
    H46      H        0.30020    0.46350    0.88300    1.000
    C74      C        0.35416    0.48780    0.83100    1.000
    H47      H        0.40240    0.46970    0.88790    1.000
    C75      C        0.62710    0.40744    0.00150    1.000
    C76      C        0.62427    0.64116    0.97950    1.000
    C77      C        0.27865    0.54230    0.67480    1.000
    H48      H        0.27320    0.56180    0.62110    1.000
    C78      C        0.60175    0.38712    0.05270    1.000
    H49      H        0.55390    0.39960    0.02980    1.000
    C79      C        0.70040    0.38983    0.04000    1.000
    H50      H        0.71910    0.40400    0.00890    1.000
    C80      C        0.64680    0.34853    0.13750    1.000
    H51      H        0.62940    0.33500    0.17080    1.000
    C81      C        0.21501    0.54195    0.66790    1.000
    H52      H        0.16810    0.56130    0.61150    1.000
    C82      C        0.70760    0.72683    0.12780    1.000
    C83      C        0.69080    0.66207    0.00650    1.000
    H53      H        0.70910    0.64730    0.97520    1.000
    C84      C        0.71810    0.33070    0.17120    1.000
    C85      C        0.15250    0.48851    0.80970    1.000
    C86      C        0.74540    0.35166    0.12370    1.000
    H54      H        0.79410    0.33990    0.14830    1.000
    C87      C        0.60050    0.66334    0.03010    1.000
    H55      H        0.55630    0.64920    0.01520    1.000
    C88      C        0.73180    0.70495    0.07980    1.000
    H56      H        0.77660    0.71880    0.09600    1.000
    C89      C        0.07200    0.49421    0.77530    1.000
    C90      C        0.99900    0.49490    0.66450    1.000
    H57      H        0.99730    0.49580    0.60550    1.000
    C91      C        0.64100    0.70593    0.10220    1.000
    H58      H        0.62320    0.72080    0.13420    1.000
    C92      C        0.07290    0.49430    0.86080    1.000
    H59      H        0.12240    0.49390    0.93680    1.000
    H60      H        0.11700    0.53020    0.68800    1.000
    N13      N        0.75736    0.77014    0.20700    1.000
    N14      N        0.76978    0.28936    0.25580    1.000
    N15      N        0.34814    0.51582    0.75542    1.000
    N16      N        0.15629    0.51252    0.73790    1.000
    O16      O        0.60279    0.46532    0.86590    1.000
    O17      O        0.51243    0.46303    0.88026    1.000
    O18      O        0.60286    0.57937    0.85278    1.000
    O19      O        0.52281    0.57503    0.88566    1.000
    O20      O        0.20798    0.46453    0.89520    1.000
    Zn4      Zn       0.43989    0.51967    0.76100    1.000
    C93      C        0.72197    0.98787    0.24680    1.000
    C94      C        0.07713    0.05115    0.40870    1.000
    C95      C        0.07957    0.90538    0.40000    1.000
    C96      C        0.79352    0.01580    0.32960    1.000
    H61      H        0.80020    0.03650    0.38300    1.000
    C97      C        0.85416    0.01220    0.33100    1.000
    H62      H        0.90240    0.03030    0.38790    1.000
    C98      C        0.12710    0.09256    0.50150    1.000
    C99      C        0.12427    0.85884    0.47950    1.000
    C100     C        0.77865    0.95770    0.17480    1.000
    H63      H        0.77320    0.93820    0.12110    1.000
    C101     C        0.10175    0.11288    0.55270    1.000
    H64      H        0.05390    0.10040    0.52980    1.000
    C102     C        0.20040    0.11017    0.54000    1.000
    H65      H        0.21910    0.09600    0.50890    1.000
    C103     C        0.14680    0.15147    0.63750    1.000
    H66      H        0.12940    0.16500    0.67080    1.000
    C104     C        0.71501    0.95805    0.16790    1.000
    H67      H        0.66810    0.93870    0.11150    1.000
    C105     C        0.20760    0.77317    0.62780    1.000
    C106     C        0.19080    0.83793    0.50650    1.000
    H68      H        0.20910    0.85270    0.47520    1.000
    C107     C        0.21810    0.16930    0.67120    1.000
    C108     C        0.65250    0.01149    0.30970    1.000
    C109     C        0.24540    0.14834    0.62370    1.000
    H69      H        0.29410    0.16010    0.64830    1.000
    C110     C        0.10050    0.83666    0.53010    1.000
    H70      H        0.05630    0.85080    0.51520    1.000
    C111     C        0.23180    0.79505    0.57980    1.000
    H71      H        0.27660    0.78120    0.59600    1.000
    C112     C        0.57200    0.00579    0.27530    1.000
    C113     C        0.49900    0.00510    0.16450    1.000
    H72      H        0.49730    0.00420    0.10550    1.000
    C114     C        0.14100    0.79407    0.60220    1.000
    H73      H        0.12320    0.77920    0.63420    1.000
    C115     C        0.57290    0.00570    0.36080    1.000
    H74      H        0.62240    0.00610    0.43680    1.000
    H75      H        0.61700    0.96980    0.18800    1.000
    N17      N        0.25736    0.72986    0.70700    1.000
    N18      N        0.26978    0.21064    0.75580    1.000
    N19      N        0.84814    0.98418    0.25542    1.000
    N20      N        0.65629    0.98748    0.23790    1.000
    O21      O        0.10279    0.03468    0.36590    1.000
    O22      O        0.01243    0.03697    0.38026    1.000
    O23      O        0.10286    0.92063    0.35278    1.000
    O24      O        0.02281    0.92497    0.38566    1.000
    O25      O        0.70798    0.03547    0.39520    1.000
    Zn5      Zn       0.93989    0.98033    0.26100    1.000
    C116     C        0.22197    0.48787    0.24680    1.000
    C117     C        0.57713    0.55115    0.40870    1.000
    C118     C        0.57957    0.40538    0.40000    1.000
    C119     C        0.29352    0.51580    0.32960    1.000
    H76      H        0.30020    0.53650    0.38300    1.000
    C120     C        0.35416    0.51220    0.33100    1.000
    H77      H        0.40240    0.53030    0.38790    1.000
    C121     C        0.62710    0.59256    0.50150    1.000
    C122     C        0.62427    0.35884    0.47950    1.000
    C123     C        0.27865    0.45770    0.17480    1.000
    H78      H        0.27320    0.43820    0.12110    1.000
    C124     C        0.60175    0.61288    0.55270    1.000
    H79      H        0.55390    0.60040    0.52980    1.000
    C125     C        0.70040    0.61017    0.54000    1.000
    H80      H        0.71910    0.59600    0.50890    1.000
    C126     C        0.64680    0.65147    0.63750    1.000
    H81      H        0.62940    0.66500    0.67080    1.000
    C127     C        0.21501    0.45805    0.16790    1.000
    H82      H        0.16810    0.43870    0.11150    1.000
    C128     C        0.70760    0.27317    0.62780    1.000
    C129     C        0.69080    0.33793    0.50650    1.000
    H83      H        0.70910    0.35270    0.47520    1.000
    C130     C        0.71810    0.66930    0.67120    1.000
    C131     C        0.15250    0.51149    0.30970    1.000
    C132     C        0.74540    0.64834    0.62370    1.000
    H84      H        0.79410    0.66010    0.64830    1.000
    C133     C        0.60050    0.33666    0.53010    1.000
    H85      H        0.55630    0.35080    0.51520    1.000
    C134     C        0.73180    0.29505    0.57980    1.000
    H86      H        0.77660    0.28120    0.59600    1.000
    C135     C        0.07200    0.50579    0.27530    1.000
    C136     C        0.99900    0.50510    0.16450    1.000
    H87      H        0.99730    0.50420    0.10550    1.000
    C137     C        0.64100    0.29407    0.60220    1.000
    H88      H        0.62320    0.27920    0.63420    1.000
    C138     C        0.07290    0.50570    0.36080    1.000
    H89      H        0.12240    0.50610    0.43680    1.000
    H90      H        0.11700    0.46980    0.18800    1.000
    N21      N        0.75736    0.22986    0.70700    1.000
    N22      N        0.76978    0.71064    0.75580    1.000
    N23      N        0.34814    0.48418    0.25542    1.000
    N24      N        0.15629    0.48748    0.23790    1.000
    O26      O        0.60279    0.53468    0.36590    1.000
    O27      O        0.51243    0.53697    0.38026    1.000
    O28      O        0.60286    0.42063    0.35278    1.000
    O29      O        0.52281    0.42497    0.38566    1.000
    O30      O        0.20798    0.53547    0.39520    1.000
    Zn6      Zn       0.43989    0.48033    0.26100    1.000
    C139     C        0.27803    0.98787    0.25320    1.000
    C140     C        0.92287    0.05115    0.09130    1.000
    C141     C        0.92043    0.90538    0.10000    1.000
    C142     C        0.20648    0.01580    0.17040    1.000
    H91      H        0.19980    0.03650    0.11700    1.000
    C143     C        0.14584    0.01220    0.16900    1.000
    H92      H        0.09760    0.03030    0.11210    1.000
    C144     C        0.87290    0.09256    0.99850    1.000
    C145     C        0.87573    0.85884    0.02050    1.000
    C146     C        0.22135    0.95770    0.32520    1.000
    H93      H        0.22680    0.93820    0.37890    1.000
    C147     C        0.89825    0.11288    0.94730    1.000
    H94      H        0.94610    0.10040    0.97020    1.000
    C148     C        0.79960    0.11017    0.96000    1.000
    H95      H        0.78090    0.09600    0.99110    1.000
    C149     C        0.85320    0.15147    0.86250    1.000
    H96      H        0.87060    0.16500    0.82920    1.000
    C150     C        0.28499    0.95805    0.33210    1.000
    H97      H        0.33190    0.93870    0.38850    1.000
    C151     C        0.79240    0.77317    0.87220    1.000
    C152     C        0.80920    0.83793    0.99350    1.000
    H98      H        0.79090    0.85270    0.02480    1.000
    C153     C        0.78190    0.16930    0.82880    1.000
    C154     C        0.34750    0.01149    0.19030    1.000
    C155     C        0.75460    0.14834    0.87630    1.000
    H99      H        0.70590    0.16010    0.85170    1.000
    C156     C        0.89950    0.83666    0.96990    1.000
    H100     H        0.94370    0.85080    0.98480    1.000
    C157     C        0.76820    0.79505    0.92020    1.000
    H101     H        0.72340    0.78120    0.90400    1.000
    C158     C        0.42800    0.00579    0.22470    1.000
    C159     C        0.50100    0.00510    0.33550    1.000
    H102     H        0.50270    0.00420    0.39450    1.000
    C160     C        0.85900    0.79407    0.89780    1.000
    H103     H        0.87680    0.77920    0.86580    1.000
    C161     C        0.42710    0.00570    0.13920    1.000
    H104     H        0.37760    0.00610    0.06320    1.000
    H105     H        0.38300    0.96980    0.31200    1.000
    N25      N        0.74264    0.72986    0.79300    1.000
    N26      N        0.73022    0.21064    0.74420    1.000
    N27      N        0.15186    0.98418    0.24458    1.000
    N28      N        0.34371    0.98748    0.26210    1.000
    O31      O        0.89721    0.03468    0.13410    1.000
    O32      O        0.98757    0.03697    0.11974    1.000
    O33      O        0.89714    0.92063    0.14722    1.000
    O34      O        0.97719    0.92497    0.11434    1.000
    O35      O        0.29202    0.03547    0.10480    1.000
    Zn7      Zn       0.06011    0.98033    0.23900    1.000
    C162     C        0.77803    0.48787    0.25320    1.000
    C163     C        0.42287    0.55115    0.09130    1.000
    C164     C        0.42043    0.40538    0.10000    1.000
    C165     C        0.70648    0.51580    0.17040    1.000
    H106     H        0.69980    0.53650    0.11700    1.000
    C166     C        0.64584    0.51220    0.16900    1.000
    H107     H        0.59760    0.53030    0.11210    1.000
    C167     C        0.37290    0.59256    0.99850    1.000
    C168     C        0.37573    0.35884    0.02050    1.000
    C169     C        0.72135    0.45770    0.32520    1.000
    H108     H        0.72680    0.43820    0.37890    1.000
    C170     C        0.39825    0.61288    0.94730    1.000
    H109     H        0.44610    0.60040    0.97020    1.000
    C171     C        0.29960    0.61017    0.96000    1.000
    H110     H        0.28090    0.59600    0.99110    1.000
    C172     C        0.35320    0.65147    0.86250    1.000
    H111     H        0.37060    0.66500    0.82920    1.000
    C173     C        0.78499    0.45805    0.33210    1.000
    H112     H        0.83190    0.43870    0.38850    1.000
    C174     C        0.29240    0.27317    0.87220    1.000
    C175     C        0.30920    0.33793    0.99350    1.000
    H113     H        0.29090    0.35270    0.02480    1.000
    C176     C        0.28190    0.66930    0.82880    1.000
    C177     C        0.84750    0.51149    0.19030    1.000
    C178     C        0.25460    0.64834    0.87630    1.000
    H114     H        0.20590    0.66010    0.85170    1.000
    C179     C        0.39950    0.33666    0.96990    1.000
    H115     H        0.44370    0.35080    0.98480    1.000
    C180     C        0.26820    0.29505    0.92020    1.000
    H116     H        0.22340    0.28120    0.90400    1.000
    C181     C        0.92800    0.50579    0.22470    1.000
    C182     C        0.00100    0.50510    0.33550    1.000
    H117     H        0.00270    0.50420    0.39450    1.000
    C183     C        0.35900    0.29407    0.89780    1.000
    H118     H        0.37680    0.27920    0.86580    1.000
    C184     C        0.92710    0.50570    0.13920    1.000
    H119     H        0.87760    0.50610    0.06320    1.000
    H120     H        0.88300    0.46980    0.31200    1.000
    N29      N        0.24264    0.22986    0.79300    1.000
    N30      N        0.23022    0.71064    0.74420    1.000
    N31      N        0.65186    0.48418    0.24458    1.000
    N32      N        0.84371    0.48748    0.26210    1.000
    O36      O        0.39721    0.53468    0.13410    1.000
    O37      O        0.48757    0.53697    0.11974    1.000
    O38      O        0.39714    0.42063    0.14722    1.000
    O39      O        0.47719    0.42497    0.11434    1.000
    O40      O        0.79202    0.53547    0.10480    1.000
    Zn8      Zn       0.56011    0.48033    0.23900    1.000
