data_functionalizedCrystal
_audit_creation_method	'EQeq! by Chris Wilmer'
_symmetry_space_group_name_H-M	'P1'
_symmetry_Int_Tables_number	1
_symmetry_cell_setting	triclinic
loop_
_symmetry_equiv_pos_as_xyz
  x,y,z
_cell_length_a	7.8724
_cell_length_b	9.2884
_cell_length_c	9.4607
_cell_angle_alpha	93.3608
_cell_angle_beta	114.586
_cell_angle_gamma	81.8999
loop_
_atom_site_label
_atom_site_type_symbol
_atom_site_fract_x
_atom_site_fract_y
_atom_site_fract_z
_atom_site_charge
Mof_Cd	Cd	1.09493e-17	0.5	0.5	0.435
Mof_Cd	Cd	0.5	0.5	0.5	0.451
Mof_Cd	Cd	0.5	0	-0	0.323
Mof_H 	H 	0.0568	0.223	0.2488	0.089
Mof_H 	H 	0.9446	0.1026	0.1406	0.066
Mof_H 	H 	0.1144	0.0789	0.47	0.086
Mof_H 	H 	0.0146	0.9569	0.3574	0.084
Mof_H 	H 	0.192	0.777	0.2488	0.141
Mof_H 	H 	0.196	0.8974	0.1406	0.105
Mof_H 	H 	0.3556	0.9211	0.47	0.03
Mof_H 	H 	0.3428	0.0431	0.3574	0.024
Mof_H 	H 	0.9432	0.777	0.7512	0.181
Mof_H 	H 	0.0554	0.8974	0.8594	0.142
Mof_H 	H 	0.8856	0.9211	0.53	0.03
Mof_H 	H 	0.9854	0.0431	0.6426	0.029
Mof_H 	H 	0.808	0.223	0.7512	0.135
Mof_H 	H 	0.804	0.1026	0.8594	0.109
Mof_H 	H 	0.6444	0.0789	0.53	0.076
Mof_H 	H 	0.6572	0.9569	0.6426	0.079
Mof_C 	C 	0.8068	0.2134	0.2628	0.151
Mof_C 	C 	0.9797	0.1479	0.242	-0.138
Mof_C 	C 	0.0913	0.0337	0.3698	-0.162
Mof_C 	C 	0.456	0.7866	0.2628	0.188
Mof_C 	C 	0.2623	0.8521	0.242	-0.289
Mof_C 	C 	0.2785	0.9663	0.3698	0.035
Mof_C 	C 	0.1932	0.7866	0.7372	0.211
Mof_C 	C 	0.0203	0.8521	0.758	-0.359
Mof_C 	C 	0.9087	0.9663	0.6302	0.052
Mof_C 	C 	0.544	0.2134	0.7372	0.18
Mof_C 	C 	0.7377	0.1479	0.758	-0.227
Mof_C 	C 	0.7215	0.0337	0.6302	-0.114
Mof_N 	N 	0.6227	0.3363	0.3532	-0.062
Mof_N 	N 	0.5253	0.2452	0.2516	-0.049
Mof_N 	N 	0.6387	0.1663	0.193	-0.127
Mof_N 	N 	0.802	0.3196	0.364	-0.109
Mof_N 	N 	0.7305	0.6637	0.3532	-0.059
Mof_N 	N 	0.7263	0.7548	0.2516	-0.045
Mof_N 	N 	0.5543	0.8337	0.193	-0.132
Mof_N 	N 	0.562	0.6804	0.364	-0.12
Mof_N 	N 	0.3773	0.6637	0.6468	-0.06
Mof_N 	N 	0.4747	0.7548	0.7484	-0.04
Mof_N 	N 	0.3613	0.8337	0.807	-0.125
Mof_N 	N 	0.198	0.6804	0.636	-0.125
Mof_N 	N 	0.2695	0.3363	0.6468	-0.061
Mof_N 	N 	0.2737	0.2452	0.7484	-0.044
Mof_N 	N 	0.4457	0.1663	0.807	-0.12
Mof_N 	N 	0.438	0.3196	0.636	-0.116
Mof_Cl	Cl	0.14903	0.5	0.29806	-0.39
Mof_Cl	Cl	0.85097	0.5	0.70194	-0.359
_end
