data_functionalizedCrystal
_audit_creation_method	'EQeq! by Chris Wilmer'
_symmetry_space_group_name_H-M	'P1'
_symmetry_Int_Tables_number	1
_symmetry_cell_setting	triclinic
loop_
_symmetry_equiv_pos_as_xyz
  x,y,z
_cell_length_a	5.7467
_cell_length_b	17.9631
_cell_length_c	20.3944
_cell_angle_alpha	90
_cell_angle_beta	90
_cell_angle_gamma	90
loop_
_atom_site_label
_atom_site_type_symbol
_atom_site_fract_x
_atom_site_fract_y
_atom_site_fract_z
_atom_site_charge
Mof_Cu	Cu	0.14423	0.99617	0.70849	0.911
Mof_Cu	Cu	0.35577	0.00383	0.20849	0.912
Mof_Cu	Cu	0.64423	0.50383	0.29151	0.912
Mof_Cu	Cu	0.85577	0.49617	0.79151	0.912
Mof_H 	H 	0.972	0.1332	0.0654	0.111
Mof_H 	H 	0.472	0.3668	0.9346	0.117
Mof_H 	H 	0.2978	0.1652	0.2761	0.071
Mof_H 	H 	0.0872	0.7168	0.7391	0.068
Mof_H 	H 	0.4128	0.2832	0.2391	0.069
Mof_H 	H 	0.2022	0.8348	0.7761	0.07
Mof_H 	H 	0.7022	0.6652	0.2239	0.07
Mof_H 	H 	0.6898	0.9384	0.9425	0.286
Mof_H 	H 	0.8263	0.2795	0.6652	0.081
Mof_H 	H 	0.0035	0.6584	0.1427	0.076
Mof_H 	H 	0.371	0.376	0.1286	0.109
Mof_H 	H 	0.9965	0.1584	0.3573	0.076
Mof_H 	H 	0.2387	0.5549	0.1948	0.028
Mof_H 	H 	0.1737	0.7795	0.8348	0.081
Mof_H 	H 	0.1146	0.464	0.3736	0.024
Mof_H 	H 	0.3102	0.4384	0.5575	0.286
Mof_H 	H 	0.3526	0.1414	0.7751	0.018
Mof_H 	H 	0.0714	0.3475	0.8555	0.032
Mof_H 	H 	0.9115	0.2366	0.3331	0.073
Mof_H 	H 	0.528	0.8668	0.5654	0.117
Mof_H 	H 	0.3268	0.7396	0.7081	0.077
Mof_H 	H 	0.8102	0.0616	0.4425	0.286
Mof_H 	H 	0.1474	0.8586	0.2751	0.018
Mof_H 	H 	0.3263	0.2205	0.3348	0.08
Mof_H 	H 	0.9128	0.2168	0.7609	0.068
Mof_H 	H 	0.6146	0.036	0.6264	0.024
Mof_H 	H 	0.9286	0.8475	0.6445	0.032
Mof_H 	H 	0.6732	0.2396	0.7919	0.077
Mof_H 	H 	0.129	0.624	0.6286	0.108
Mof_H 	H 	0.6474	0.6414	0.7249	0.018
Mof_H 	H 	0.1898	0.5616	0.0575	0.286
Mof_H 	H 	0.4286	0.6525	0.3555	0.031
Mof_H 	H 	0.7613	0.0549	0.3052	0.027
Mof_H 	H 	0.5714	0.1525	0.1445	0.031
Mof_H 	H 	0.8268	0.7604	0.2919	0.078
Mof_H 	H 	0.5872	0.7832	0.2609	0.069
Mof_H 	H 	0.5035	0.8416	0.8573	0.075
Mof_H 	H 	0.5885	0.7634	0.8331	0.072
Mof_H 	H 	0.871	0.124	0.8714	0.108
Mof_H 	H 	0.8526	0.3586	0.2249	0.018
Mof_H 	H 	0.028	0.6332	0.4346	0.11
Mof_H 	H 	0.8854	0.964	0.1264	0.024
Mof_H 	H 	0.0885	0.7366	0.1669	0.073
Mof_H 	H 	0.6737	0.7205	0.1652	0.081
Mof_H 	H 	0.4965	0.3416	0.6427	0.075
Mof_H 	H 	0.7387	0.9451	0.8052	0.027
Mof_H 	H 	0.4115	0.2634	0.6669	0.072
Mof_H 	H 	0.2613	0.4451	0.6948	0.027
Mof_H 	H 	0.629	0.876	0.3714	0.109
Mof_H 	H 	0.3854	0.536	0.8736	0.024
Mof_H 	H 	0.7978	0.3348	0.7239	0.07
Mof_H 	H 	0.1732	0.2604	0.2081	0.078
Mof_C 	C 	0.0526	0.60643	0.59151	-0.1
Mof_C 	C 	0.5128	0.8091	0.81936	-0.053
Mof_C 	C 	0.1161	0.05116	0.90293	0.015
Mof_C 	C 	0.2667	0.97377	0.45924	-0.061
Mof_C 	C 	0.3954	0.96024	0.95558	0.388
Mof_C 	C 	0.3004	0.03224	0.08203	0.291
Mof_C 	C 	0.0516	0.87352	0.24079	0.097
Mof_C 	C 	0.6052	0.86528	0.46933	0.152
Mof_C 	C 	0.2429	0.41079	0.72854	0.082
Mof_C 	C 	0.8394	0.51853	0.66372	0.285
Mof_C 	C 	0.7679	0.70912	0.20339	-0.095
Mof_C 	C 	0.3394	0.98147	0.33628	0.285
Mof_C 	C 	0.1788	0.05796	0.02018	0.015
Mof_C 	C 	0.1996	0.96776	0.58203	0.289
Mof_C 	C 	0.9058	0.92974	0.1601	0.09
Mof_C 	C 	0.8579	0.8567	0.68474	0.09
Mof_C 	C 	0.2333	0.02623	0.95924	-0.056
Mof_C 	C 	0.8839	0.55116	0.59707	0.016
Mof_C 	C 	0.6046	0.46024	0.54442	0.391
Mof_C 	C 	0.9872	0.1909	0.31936	-0.055
Mof_C 	C 	0.5942	0.07026	0.6601	0.089
Mof_C 	C 	0.2571	0.58921	0.22854	0.082
Mof_C 	C 	0.1606	0.01853	0.83628	0.287
Mof_C 	C 	0.6606	0.48147	0.16372	0.285
Mof_C 	C 	0.8212	0.55796	0.47982	0.018
Mof_C 	C 	0.4474	0.39357	0.09151	-0.1
Mof_C 	C 	0.7503	0.22641	0.75121	-0.054
Mof_C 	C 	0.7321	0.29088	0.70339	-0.096
Mof_C 	C 	0.3212	0.94204	0.52018	0.022
Mof_C 	C 	0.9474	0.10643	0.90849	-0.1
Mof_C 	C 	0.5086	0.3877	0.975	-0.104
Mof_C 	C 	0.3579	0.6433	0.31526	0.09
Mof_C 	C 	0.6996	0.53224	0.41797	0.292
Mof_C 	C 	0.2497	0.72641	0.74879	-0.054
Mof_C 	C 	0.2679	0.79088	0.79661	-0.096
Mof_C 	C 	0.5526	0.89357	0.40849	-0.1
Mof_C 	C 	0.1421	0.3567	0.81526	0.09
Mof_C 	C 	0.2503	0.27359	0.24879	-0.055
Mof_C 	C 	0.6788	0.44204	0.97982	0.021
Mof_C 	C 	0.7333	0.47377	0.04076	-0.061
Mof_C 	C 	0.8948	0.13472	0.96933	0.145
Mof_C 	C 	0.7571	0.91079	0.77146	0.082
Mof_C 	C 	0.3948	0.36528	0.03067	0.151
Mof_C 	C 	0.4914	0.8877	0.525	-0.105
Mof_C 	C 	0.7429	0.08921	0.27146	0.082
Mof_C 	C 	0.6421	0.1433	0.18474	0.09
Mof_C 	C 	0.9914	0.6123	0.475	-0.093
Mof_C 	C 	0.0086	0.1123	0.025	-0.092
Mof_C 	C 	0.4058	0.57026	0.8399	0.089
Mof_C 	C 	0.9484	0.37352	0.25921	0.097
Mof_C 	C 	0.8004	0.46776	0.91797	0.291
Mof_C 	C 	0.5516	0.62648	0.75921	0.099
Mof_C 	C 	0.1046	0.03976	0.45558	0.389
Mof_C 	C 	0.0128	0.6909	0.18064	-0.054
Mof_C 	C 	0.4484	0.12648	0.74079	0.099
Mof_C 	C 	0.7497	0.77359	0.25121	-0.055
Mof_C 	C 	0.7667	0.52623	0.54076	-0.06
Mof_C 	C 	0.6161	0.44884	0.09707	0.014
Mof_C 	C 	0.1052	0.63472	0.53067	0.145
Mof_C 	C 	0.3839	0.94884	0.40293	0.015
Mof_C 	C 	0.0942	0.42974	0.3399	0.089
Mof_C 	C 	0.2321	0.20912	0.29661	-0.094
Mof_C 	C 	0.8954	0.53976	0.04442	0.388
Mof_C 	C 	0.4872	0.3091	0.68064	-0.053
Mof_N 	N 	0.0929	0.93107	0.20135	-0.215
Mof_N 	N 	0.1437	0.34094	0.27577	-0.085
Mof_N 	N 	0.5929	0.56893	0.79865	-0.215
Mof_N 	N 	0.8563	0.84094	0.22423	-0.085
Mof_N 	N 	0.1108	0.4211	0.78148	-0.216
Mof_N 	N 	0.2027	0.31146	0.02616	-0.012
Mof_N 	N 	0.3892	0.5789	0.28148	-0.217
Mof_N 	N 	0.1565	0.65491	0.2308	-0.087
Mof_N 	N 	0.2973	0.68854	0.52616	-0.01
Mof_N 	N 	0.2797	0.30861	0.78665	-0.087
Mof_N 	N 	0.6565	0.84509	0.7692	-0.087
Mof_N 	N 	0.4071	0.06893	0.70135	-0.215
Mof_N 	N 	0.2203	0.69139	0.28665	-0.088
Mof_N 	N 	0.258	0.62383	0.82793	-0.094
Mof_N 	N 	0.9071	0.43107	0.29865	-0.215
Mof_N 	N 	0.7973	0.81146	0.47384	-0.011
Mof_N 	N 	0.7203	0.80861	0.71335	-0.087
Mof_N 	N 	0.8435	0.15491	0.2692	-0.087
Mof_N 	N 	0.758	0.87617	0.17207	-0.094
Mof_N 	N 	0.3563	0.65906	0.77577	-0.086
Mof_N 	N 	0.8892	0.9211	0.71852	-0.216
Mof_N 	N 	0.7027	0.18854	0.97384	-0.01
Mof_N 	N 	0.242	0.37617	0.32793	-0.094
Mof_N 	N 	0.742	0.12383	0.67207	-0.094
Mof_N 	N 	0.7797	0.19139	0.21335	-0.088
Mof_N 	N 	0.6437	0.15906	0.72423	-0.086
Mof_N 	N 	0.6108	0.0789	0.21852	-0.217
Mof_N 	N 	0.3435	0.34509	0.7308	-0.087
Mof_O 	O 	0.0428	0.01388	0.57933	-0.273
Mof_O 	O 	0.3761	0.70241	0.4718	-0.096
Mof_O 	O 	0.2222	0.0597	0.13547	-0.369
Mof_O 	O 	0.4572	0.98612	0.07933	-0.272
Mof_O 	O 	0.628	0.21599	0.9236	-0.105
Mof_O 	O 	0.1758	0.10288	0.46332	-0.265
Mof_O 	O 	0.4584	0.95346	0.28904	-0.365
Mof_O 	O 	0.1239	0.29759	0.9718	-0.094
Mof_O 	O 	0.3242	0.89712	0.96332	-0.265
Mof_O 	O 	0.6125	0.97677	0.94387	-0.455
Mof_O 	O 	0.128	0.28401	0.0764	-0.103
Mof_O 	O 	0.7222	0.4403	0.86453	-0.37
Mof_O 	O 	0.1125	0.52323	0.05613	-0.453
Mof_O 	O 	0.9584	0.54654	0.71096	-0.365
Mof_O 	O 	0.8013	0.53235	0.17106	-0.288
Mof_O 	O 	0.8761	0.79759	0.5282	-0.094
Mof_O 	O 	0.372	0.71599	0.5764	-0.105
Mof_O 	O 	0.0416	0.04654	0.78904	-0.365
Mof_O 	O 	0.7778	0.5597	0.36453	-0.369
Mof_O 	O 	0.1987	0.03235	0.32894	-0.289
Mof_O 	O 	0.2778	0.9403	0.63547	-0.369
Mof_O 	O 	0.8242	0.60288	0.03668	-0.264
Mof_O 	O 	0.9572	0.51388	0.92067	-0.274
Mof_O 	O 	0.5428	0.48612	0.42067	-0.273
Mof_O 	O 	0.6758	0.39712	0.53668	-0.265
Mof_O 	O 	0.6239	0.20241	0.0282	-0.097
Mof_O 	O 	0.5416	0.45346	0.21096	-0.366
Mof_O 	O 	0.3013	0.96765	0.82894	-0.29
Mof_O 	O 	0.3875	0.47677	0.55613	-0.456
Mof_O 	O 	0.6987	0.46765	0.67106	-0.288
Mof_O 	O 	0.8875	0.02323	0.44387	-0.454
Mof_O 	O 	0.872	0.78401	0.4236	-0.103
_end
