# CIF file generated by openbabel 3.1.0, see https://openbabel.org
data_I
_chemical_name_common 'image0'
_cell_length_a 9.4727
_cell_length_b 12.652
_cell_length_c 18.6017
_cell_angle_alpha 106.106
_cell_angle_beta 98.088
_cell_angle_gamma 100.255
_space_group_name_H-M_alt 'P 1'
_space_group_name_Hall 'P 1'
loop_
    _symmetry_equiv_pos_as_xyz
    x,y,z
loop_
    _atom_site_label
    _atom_site_type_symbol
    _atom_site_fract_x
    _atom_site_fract_y
    _atom_site_fract_z
    _atom_site_occupancy
    Dy1      Dy       0.76384    0.48437    0.49715    1.000
    O1       O        0.55160    0.46820    0.41470    1.000
    N1       N        0.99560    0.34850    0.81720    1.000
    O2       O        0.97570    0.60810    0.57430    1.000
    O3       O        0.88950    0.38300    0.55970    1.000
    O4       O        0.31960    0.47910    0.38670    1.000
    O5       O        0.21850    0.66770    0.60770    1.000
    N2       N        0.43880    0.33720    0.13320    1.000
    C1       C        0.09870    0.08190    0.92640    1.000
    C2       C        0.43980    0.42010    0.28510    1.000
    N3       N        0.04390    0.89210    0.82620    1.000
    C3       C        0.08040    0.26840    0.92130    1.000
    C4       C        0.09050    0.67070    0.61750    1.000
    C5       C        0.43910    0.46090    0.37060    1.000
    C6       C        0.56580    0.39810    0.26040    1.000
    H1       H        0.65380    0.41070    0.29630    1.000
    C7       C        0.07520    0.75610    0.68950    1.000
    C8       C        0.21870    0.31560    0.97070    1.000
    C9       C        0.23290    0.12790    0.97710    1.000
    C10      C        0.31420    0.40210    0.23120    1.000
    H2       H        0.22770    0.41940    0.24720    1.000
    C11      C        0.29530    0.24550    0.99750    1.000
    C12      C        0.56250    0.35790    0.18350    1.000
    H3       H        0.64930    0.34480    0.16610    1.000
    C13      C        0.87810    0.10210    0.84240    1.000
    H4       H        0.83300    0.16310    0.83460    1.000
    H5       H        0.81280    0.05370    0.86270    1.000
    H6       H        0.89480    0.05710    0.79350    1.000
    C14      C        0.31420    0.35910    0.15400    1.000
    H7       H        0.22800    0.34540    0.11670    1.000
    C15      C        0.19710    0.82170    0.74450    1.000
    H8       H        0.29270    0.81940    0.73520    1.000
    C16      C        0.87540    0.37040    0.70460    1.000
    H9       H        0.78860    0.37430    0.67390    1.000
    C17      C        0.93700    0.76290    0.70430    1.000
    H10      H        0.85180    0.72020    0.66710    1.000
    C18      C        0.13040    0.36770    0.72330    1.000
    H11      H        0.22010    0.37100    0.70570    1.000
    C19      C        0.92510    0.83180    0.77270    1.000
    H12      H        0.83070    0.83710    0.78290    1.000
    C20      C        0.01160    0.39920    0.60240    1.000
    C21      C        0.02160    0.15180    0.89800    1.000
    C22      C        0.12220    0.35310    0.79300    1.000
    H13      H        0.20650    0.34620    0.82410    1.000
    C23      C        0.99160    0.34500    0.89840    1.000
    H14      H        0.02920    0.42240    0.93450    1.000
    H15      H        0.88870    0.31910    0.90210    1.000
    C24      C        0.27950    0.44160    0.99500    1.000
    H16      H        0.22290    0.47990    0.03000    1.000
    H17      H        0.27290    0.46750    0.94990    1.000
    H18      H        0.38220    0.45920    0.02100    1.000
    C25      C        0.17900    0.88950    0.81210    1.000
    H19      H        0.26240    0.93530    0.84950    1.000
    C26      C        0.87330    0.35730    0.77570    1.000
    H20      H        0.78560    0.35460    0.79510    1.000
    C27      C        0.00580    0.37780    0.67850    1.000
    C28      C        0.02700    0.95780    0.90380    1.000
    H21      H        0.07030    0.92540    0.94200    1.000
    H22      H        0.92140    0.94930    0.90460    1.000
    C29      C        0.44670    0.29690    0.04920    1.000
    H23      H        0.50680    0.23970    0.04130    1.000
    H24      H        0.49570    0.36150    0.03460    1.000
    C30      C        0.31940    0.05470    0.01020    1.000
    H25      H        0.25570    0.98020    0.00120    1.000
    H26      H        0.35480    0.09130    0.06530    1.000
    H27      H        0.40300    0.04580    0.98530    1.000
    O6       O        0.13610    0.43530    0.59120    1.000
    Dy2      Dy       0.23616    0.51563    0.50285    1.000
    O7       O        0.44840    0.53180    0.58530    1.000
    N4       N        0.00440    0.65150    0.18280    1.000
    O8       O        0.02430    0.39190    0.42570    1.000
    O9       O        0.11050    0.61700    0.44030    1.000
    O10      O        0.68040    0.52090    0.61330    1.000
    O11      O        0.78150    0.33230    0.39230    1.000
    N5       N        0.56120    0.66280    0.86680    1.000
    C31      C        0.90130    0.91810    0.07360    1.000
    C32      C        0.56020    0.57990    0.71490    1.000
    N6       N        0.95610    0.10790    0.17380    1.000
    C33      C        0.91960    0.73160    0.07870    1.000
    C34      C        0.90950    0.32930    0.38250    1.000
    C35      C        0.56090    0.53910    0.62940    1.000
    C36      C        0.43420    0.60190    0.73960    1.000
    H28      H        0.34620    0.58930    0.70370    1.000
    C37      C        0.92480    0.24390    0.31050    1.000
    C38      C        0.78130    0.68440    0.02930    1.000
    C39      C        0.76710    0.87210    0.02290    1.000
    C40      C        0.68580    0.59790    0.76880    1.000
    H29      H        0.77230    0.58060    0.75280    1.000
    C41      C        0.70470    0.75450    0.00250    1.000
    C42      C        0.43750    0.64210    0.81650    1.000
    H30      H        0.35070    0.65520    0.83390    1.000
    C43      C        0.12190    0.89790    0.15760    1.000
    H31      H        0.16700    0.83690    0.16540    1.000
    H32      H        0.18720    0.94630    0.13730    1.000
    H33      H        0.10520    0.94290    0.20650    1.000
    C44      C        0.68580    0.64090    0.84600    1.000
    H34      H        0.77200    0.65460    0.88330    1.000
    C45      C        0.80290    0.17830    0.25550    1.000
    H35      H        0.70730    0.18060    0.26480    1.000
    C46      C        0.12460    0.62960    0.29540    1.000
    H36      H        0.21140    0.62570    0.32610    1.000
    C47      C        0.06300    0.23710    0.29570    1.000
    H37      H        0.14820    0.27980    0.33290    1.000
    C48      C        0.86960    0.63230    0.27670    1.000
    H38      H        0.77990    0.62900    0.29430    1.000
    C49      C        0.07490    0.16820    0.22730    1.000
    H39      H        0.16930    0.16290    0.21710    1.000
    C50      C        0.98840    0.60080    0.39760    1.000
    C51      C        0.97840    0.84820    0.10200    1.000
    C52      C        0.87780    0.64690    0.20700    1.000
    H40      H        0.79350    0.65380    0.17590    1.000
    C53      C        0.00840    0.65500    0.10160    1.000
    H41      H        0.97080    0.57760    0.06550    1.000
    H42      H        0.11130    0.68090    0.09790    1.000
    C54      C        0.72050    0.55840    0.00500    1.000
    H43      H        0.77710    0.52010    0.97000    1.000
    H44      H        0.72710    0.53250    0.05010    1.000
    H45      H        0.61780    0.54080    0.97900    1.000
    C55      C        0.82100    0.11050    0.18790    1.000
    H46      H        0.73760    0.06470    0.15050    1.000
    C56      C        0.12670    0.64270    0.22430    1.000
    H47      H        0.21440    0.64540    0.20490    1.000
    C57      C        0.99420    0.62220    0.32150    1.000
    C58      C        0.97300    0.04220    0.09620    1.000
    H48      H        0.92970    0.07460    0.05800    1.000
    H49      H        0.07860    0.05070    0.09540    1.000
    C59      C        0.55330    0.70310    0.95080    1.000
    H50      H        0.49320    0.76030    0.95870    1.000
    H51      H        0.50430    0.63850    0.96540    1.000
    C60      C        0.68060    0.94530    0.98980    1.000
    H52      H        0.74430    0.01980    0.99880    1.000
    H53      H        0.64520    0.90870    0.93470    1.000
    H54      H        0.59700    0.95420    0.01470    1.000
    O12      O        0.86390    0.56470    0.40880    1.000
