data_functionalizedCrystal
_audit_creation_method	'EQeq! by Chris Wilmer'
_symmetry_space_group_name_H-M	'P1'
_symmetry_Int_Tables_number	1
_symmetry_cell_setting	triclinic
loop_
_symmetry_equiv_pos_as_xyz
  x,y,z
_cell_length_a	10.8267
_cell_length_b	13.5046
_cell_length_c	14.4436
_cell_angle_alpha	76.4566
_cell_angle_beta	67.9886
_cell_angle_gamma	66.3685
loop_
_atom_site_label
_atom_site_type_symbol
_atom_site_fract_x
_atom_site_fract_y
_atom_site_fract_z
_atom_site_charge
Mof_Mn	Mn	0.86036	0.03813	0.11107	0.857
Mof_Mn	Mn	0.50956	0.46187	0.38893	0.873
Mof_Mn	Mn	0.13964	0.96187	0.88893	0.857
Mof_Mn	Mn	0.49044	0.53813	0.61107	0.873
Mof_Mn	Mn	0.78555	0.25	0.25	0.99
Mof_Mn	Mn	0.21445	0.75	0.75	0.99
Mof_H 	H 	0.2016	0.1803	0.8479	0.052
Mof_H 	H 	0.2953	0.3124	0.7532	0.049
Mof_H 	H 	0.9554	0.541	0.9076	0.049
Mof_H 	H 	0.8677	0.4079	0.0091	0.046
Mof_H 	H 	0.5495	0.1594	0.4512	0.044
Mof_H 	H 	0.5787	0.8778	0.384	0.049
Mof_H 	H 	0.7298	0.3197	0.6521	0.045
Mof_H 	H 	0.8609	0.1876	0.7468	0.055
Mof_H 	H 	0.904	0.959	0.5924	0.054
Mof_H 	H 	0.7847	0.0921	0.4909	0.041
Mof_H 	H 	0.6601	0.3406	0.0488	0.044
Mof_H 	H 	0.3405	0.6222	0.116	0.049
Mof_H 	H 	0.7984	0.8197	0.1521	0.052
Mof_H 	H 	0.7047	0.6876	0.2468	0.049
Mof_H 	H 	0.0446	0.459	0.0924	0.049
Mof_H 	H 	0.1323	0.5921	0.9909	0.046
Mof_H 	H 	0.4505	0.8406	0.5488	0.044
Mof_H 	H 	0.4213	0.1222	0.616	0.049
Mof_H 	H 	0.2702	0.6803	0.3479	0.045
Mof_H 	H 	0.1391	0.8124	0.2532	0.055
Mof_H 	H 	0.096	0.041	0.4076	0.054
Mof_H 	H 	0.2153	0.9079	0.5091	0.041
Mof_H 	H 	0.3399	0.6594	0.9512	0.044
Mof_H 	H 	0.6595	0.3778	0.884	0.049
Mof_C 	C 	0.9692	0.19486	0.00394	0.355
Mof_C 	C 	0.02587	0.28079	0.93927	-0.084
Mof_C 	C 	0.1533	0.25242	0.86138	-0.021
Mof_C 	C 	0.20825	0.33196	0.80374	-0.012
Mof_C 	C 	0.13504	0.44016	0.82056	-0.086
Mof_C 	C 	0.00641	0.46837	0.89661	-0.014
Mof_C 	C 	0.95289	0.38856	0.95686	-0.017
Mof_C 	C 	0.19918	0.52484	0.7596	0.38
Mof_C 	C 	0.66515	0.04405	0.29585	0.346
Mof_C 	C 	0.57796	0.02189	0.40159	-0.08
Mof_C 	C 	0.52992	0.09515	0.47081	-0.02
Mof_C 	C 	0.54747	0.92686	0.4306	-0.018
Mof_C 	C 	0.668	0.30514	0.49606	0.376
Mof_C 	C 	0.74593	0.21921	0.56073	-0.105
Mof_C 	C 	0.7671	0.24758	0.63862	-0.004
Mof_C 	C 	0.84395	0.16804	0.69626	-0.028
Mof_C 	C 	0.89576	0.05984	0.67944	-0.068
Mof_C 	C 	0.87139	0.03163	0.60339	-0.029
Mof_C 	C 	0.79831	0.11144	0.54314	-0.001
Mof_C 	C 	0.98362	0.97516	0.7404	0.362
Mof_C 	C 	0.50505	0.45595	0.20415	0.353
Mof_C 	C 	0.50144	0.47811	0.09841	-0.08
Mof_C 	C 	0.59588	0.40485	0.02919	-0.022
Mof_C 	C 	0.40493	0.57314	0.0694	-0.017
Mof_C 	C 	0.0308	0.80514	0.99606	0.355
Mof_C 	C 	0.97413	0.71921	0.06073	-0.084
Mof_C 	C 	0.8467	0.74758	0.13862	-0.021
Mof_C 	C 	0.79175	0.66804	0.19626	-0.012
Mof_C 	C 	0.86496	0.55984	0.17944	-0.086
Mof_C 	C 	0.99359	0.53163	0.10339	-0.014
Mof_C 	C 	0.04711	0.61144	0.04314	-0.017
Mof_C 	C 	0.80082	0.47516	0.2404	0.38
Mof_C 	C 	0.33485	0.95595	0.70415	0.346
Mof_C 	C 	0.42204	0.97811	0.59841	-0.08
Mof_C 	C 	0.47008	0.90485	0.52919	-0.02
Mof_C 	C 	0.45253	0.07314	0.5694	-0.018
Mof_C 	C 	0.332	0.69486	0.50394	0.376
Mof_C 	C 	0.25407	0.78079	0.43927	-0.105
Mof_C 	C 	0.2329	0.75242	0.36138	-0.004
Mof_C 	C 	0.15605	0.83196	0.30374	-0.028
Mof_C 	C 	0.10424	0.94016	0.32056	-0.068
Mof_C 	C 	0.12861	0.96837	0.39661	-0.029
Mof_C 	C 	0.20169	0.88856	0.45686	-0.001
Mof_C 	C 	0.01638	0.02484	0.2596	0.362
Mof_C 	C 	0.49495	0.54405	0.79585	0.353
Mof_C 	C 	0.49856	0.52189	0.90159	-0.08
Mof_C 	C 	0.40412	0.59515	0.97081	-0.022
Mof_C 	C 	0.59507	0.42686	0.9306	-0.017
Mof_O 	O 	0.01764	0.10131	0.97555	-0.423
Mof_O 	O 	0.87113	0.21589	0.08627	-0.414
Mof_O 	O 	0.13617	0.62069	0.78257	-0.386
Mof_O 	O 	0.31398	0.49115	0.69129	-0.389
Mof_O 	O 	0.68523	0.13324	0.2683	-0.405
Mof_O 	O 	0.71567	0.97246	0.2372	-0.358
Mof_O 	O 	0.5945	0.39869	0.52445	-0.438
Mof_O 	O 	0.67329	0.28411	0.41373	-0.419
Mof_O 	O 	0.03943	0.87931	0.71743	-0.381
Mof_O 	O 	0.99642	0.00885	0.80871	-0.378
Mof_O 	O 	0.58677	0.36676	0.2317	-0.407
Mof_O 	O 	0.42533	0.52754	0.2628	-0.365
Mof_O 	O 	0.98236	0.89869	0.02445	-0.423
Mof_O 	O 	0.12887	0.78411	0.91373	-0.414
Mof_O 	O 	0.86383	0.37931	0.21743	-0.386
Mof_O 	O 	0.68602	0.50885	0.30871	-0.389
Mof_O 	O 	0.31477	0.86676	0.7317	-0.405
Mof_O 	O 	0.28433	0.02754	0.7628	-0.358
Mof_O 	O 	0.4055	0.60131	0.47555	-0.438
Mof_O 	O 	0.32671	0.71589	0.58627	-0.419
Mof_O 	O 	0.96057	0.12069	0.28257	-0.381
Mof_O 	O 	0.00358	0.99115	0.19129	-0.378
Mof_O 	O 	0.41323	0.63324	0.7683	-0.407
Mof_O 	O 	0.57467	0.47246	0.7372	-0.365
_end
