# CIF file generated by openbabel 3.1.0, see https://openbabel.org
data_I
_chemical_name_common 'image0'
_cell_length_a 6.5685
_cell_length_b 16.3904
_cell_length_c 13.2097
_cell_angle_alpha 90
_cell_angle_beta 90
_cell_angle_gamma 90
_space_group_name_H-M_alt 'P 1'
_space_group_name_Hall 'P 1'
loop_
    _symmetry_equiv_pos_as_xyz
    x,y,z
loop_
    _atom_site_label
    _atom_site_type_symbol
    _atom_site_fract_x
    _atom_site_fract_y
    _atom_site_fract_z
    _atom_site_occupancy
    O1       O        0.16990    0.16767    0.84050    1.000
    C1       C        0.80320    0.02920    0.95820    1.000
    O2       O        0.66990    0.66767    0.34050    1.000
    C2       C        0.30320    0.52920    0.45820    1.000
    O3       O        0.83010    0.33233    0.84050    1.000
    C3       C        0.19680    0.47080    0.95820    1.000
    O4       O        0.33010    0.83233    0.34050    1.000
    C4       C        0.69680    0.97080    0.45820    1.000
    O5       O        0.83010    0.66767    0.15950    1.000
    C5       C        0.19680    0.52920    0.04180    1.000
    O6       O        0.33010    0.16767    0.65950    1.000
    C6       C        0.69680    0.02920    0.54180    1.000
    O7       O        0.16990    0.83233    0.15950    1.000
    C7       C        0.80320    0.97080    0.04180    1.000
    O8       O        0.66990    0.33233    0.65950    1.000
    C8       C        0.30320    0.47080    0.54180    1.000
    O9       O        0.83010    0.83233    0.15950    1.000
    C9       C        0.19680    0.97080    0.04180    1.000
    O10      O        0.33010    0.33233    0.65950    1.000
    C10      C        0.69680    0.47080    0.54180    1.000
    O11      O        0.16990    0.66767    0.15950    1.000
    C11      C        0.80320    0.52920    0.04180    1.000
    O12      O        0.66990    0.16767    0.65950    1.000
    C12      C        0.30320    0.02920    0.54180    1.000
    O13      O        0.16990    0.33233    0.84050    1.000
    C13      C        0.80320    0.47080    0.95820    1.000
    O14      O        0.66990    0.83233    0.34050    1.000
    C14      C        0.30320    0.97080    0.45820    1.000
    O15      O        0.83010    0.16767    0.84050    1.000
    C15      C        0.19680    0.02920    0.95820    1.000
    O16      O        0.33010    0.66767    0.34050    1.000
    C16      C        0.69680    0.52920    0.45820    1.000
    Al1      Al       0.25000    0.25000    0.75000    1.000
    Al2      Al       0.75000    0.25000    0.75000    1.000
    Al3      Al       0.75000    0.75000    0.25000    1.000
    Al4      Al       0.25000    0.75000    0.25000    1.000
    F1       F        0.00000    0.25000    0.69390    1.000
    F2       F        0.50000    0.75000    0.19390    1.000
    F3       F        0.00000    0.75000    0.30610    1.000
    F4       F        0.50000    0.25000    0.80610    1.000
    C17      C        0.00000    0.06420    0.94720    1.000
    C18      C        0.00000    0.13590    0.86730    1.000
    C19      C        0.50000    0.56420    0.44720    1.000
    C20      C        0.50000    0.63590    0.36730    1.000
    C21      C        0.00000    0.43580    0.94720    1.000
    C22      C        0.00000    0.36410    0.86730    1.000
    C23      C        0.50000    0.93580    0.44720    1.000
    C24      C        0.50000    0.86410    0.36730    1.000
    C25      C        0.00000    0.56420    0.05280    1.000
    C26      C        0.00000    0.63590    0.13270    1.000
    C27      C        0.50000    0.06420    0.55280    1.000
    C28      C        0.50000    0.13590    0.63270    1.000
    C29      C        0.00000    0.93580    0.05280    1.000
    C30      C        0.00000    0.86410    0.13270    1.000
    C31      C        0.50000    0.43580    0.55280    1.000
    C32      C        0.50000    0.36410    0.63270    1.000
