# CIF file generated by openbabel 3.1.0, see https://openbabel.org
data_I
_chemical_name_common 'image0'
_cell_length_a 17.5238
_cell_length_b 21.4858
_cell_length_c 22.2555
_cell_angle_alpha 106.51
_cell_angle_beta 105.257
_cell_angle_gamma 105.879
_space_group_name_H-M_alt 'P 1'
_space_group_name_Hall 'P 1'
loop_
    _symmetry_equiv_pos_as_xyz
    x,y,z
loop_
    _atom_site_label
    _atom_site_type_symbol
    _atom_site_fract_x
    _atom_site_fract_y
    _atom_site_fract_z
    _atom_site_occupancy
    U1       U        0.97026    0.41888    0.01540    1.000
    U2       U        0.88931    0.39834    0.82440    1.000
    O1       O        0.87890    0.29179    0.98268    1.000
    O2       O        0.88340    0.32603    0.89988    1.000
    O3       O        0.86930    0.50630    0.82520    1.000
    O4       O        0.99080    0.59770    0.88140    1.000
    N1       N        0.59000    0.09040    0.65540    1.000
    H1       H        0.56540    0.05720    0.66840    1.000
    H2       H        0.64150    0.09020    0.65800    1.000
    C1       C        0.91320    0.56940    0.84310    1.000
    C2       C        0.59910    0.15970    0.70120    1.000
    H3       H        0.54310    0.16250    0.69240    1.000
    H4       H        0.63410    0.19620    0.69150    1.000
    O5       O        0.94330    0.21910    0.78130    1.000
    C3       C        0.91730    0.68470    0.83600    1.000
    H5       H        0.97400    0.70450    0.86530    1.000
    C4       C        0.70690    0.20090    0.91140    1.000
    H6       H        0.72920    0.21120    0.95740    1.000
    N2       N        0.98660    0.38510    0.56320    1.000
    H7       H        0.02940    0.37530    0.55380    1.000
    H8       H        0.00680    0.41390    0.60630    1.000
    C5       C        0.63820    0.17260    0.77390    1.000
    N3       N        0.93310    0.84420    0.89860    1.000
    H9       H        0.95830    0.82990    0.92950    1.000
    H10      H        0.87960    0.83540    0.89640    1.000
    C6       C        0.75810    0.23070    0.87980    1.000
    C7       C        0.74840    0.62640    0.75250    1.000
    H11      H        0.69130    0.60670    0.72380    1.000
    C8       C        0.84530    0.28490    0.92230    1.000
    C9       C        0.92660    0.28710    0.65140    1.000
    H12      H        0.89300    0.31240    0.66130    1.000
    C10      C        0.94880    0.28330    0.59580    1.000
    C11      C        0.72300    0.21540    0.81160    1.000
    H13      H        0.75700    0.23420    0.79040    1.000
    C12      C        0.93150    0.80300    0.83350    1.000
    H14      H        0.98940    0.80930    0.83610    1.000
    H15      H        0.90650    0.81940    0.79970    1.000
    C13      C        0.87170    0.61410    0.81660    1.000
    C14      C        0.62390    0.15670    0.87360    1.000
    H16      H        0.59050    0.13580    0.89410    1.000
    C15      C        0.78700    0.58530    0.77450    1.000
    H17      H        0.75590    0.53780    0.76100    1.000
    C16      C        0.88020    0.72630    0.81270    1.000
    C17      C        0.79380    0.69640    0.77250    1.000
    H18      H        0.76650    0.72440    0.75910    1.000
    C18      C        0.91820    0.31950    0.55180    1.000
    H19      H        0.89720    0.28820    0.50490    1.000
    H20      H        0.87110    0.33040    0.56070    1.000
    C19      C        0.95370    0.25360    0.69280    1.000
    C20      C        0.92560    0.25420    0.75040    1.000
    C21      C        0.53760    0.07440    0.58420    1.000
    H21      H        0.48140    0.07390    0.58190    1.000
    H22      H        0.56370    0.11180    0.57110    1.000
    C22      C        0.95240    0.41980    0.51940    1.000
    H23      H        0.90890    0.43340    0.53230    1.000
    H24      H        0.92550    0.38630    0.47300    1.000
    C23      C        0.00260    0.24770    0.58350    1.000
    H25      H        0.02020    0.24640    0.54740    1.000
    C24      C        0.52780    0.00700    0.53530    1.000
    H26      H        0.50260    0.96930    0.54850    1.000
    H27      H        0.58360    0.00760    0.53610    1.000
    C25      C        0.97780    0.92080    0.92140    1.000
    H28      H        0.95030    0.93680    0.88820    1.000
    H29      H        0.03630    0.93070    0.92400    1.000
    C26      C        0.58920    0.14260    0.80570    1.000
    H30      H        0.53240    0.11280    0.78100    1.000
    C27      C        0.97800    0.96080    0.98900    1.000
    H31      H        0.00680    0.94570    0.02240    1.000
    H32      H        0.91960    0.95010    0.98660    1.000
    C28      C        0.02980    0.21400    0.62520    1.000
    H33      H        0.06400    0.18910    0.61590    1.000
    C29      C        0.00660    0.21770    0.67950    1.000
    H34      H        0.02600    0.19620    0.70780    1.000
    C30      C        0.01880    0.48320    0.52300    1.000
    H35      H        0.06260    0.47000    0.51020    1.000
    H36      H        0.04550    0.51710    0.56920    1.000
    O6       O        0.94970    0.46498    0.93398    1.000
    O7       O        0.87900    0.28930    0.76232    1.000
    U3       U        0.02974    0.58112    0.98460    1.000
    U4       U        0.11069    0.60166    0.17560    1.000
    O8       O        0.12110    0.70821    0.01732    1.000
    O9       O        0.11660    0.67397    0.10012    1.000
    O10      O        0.13070    0.49370    0.17480    1.000
    O11      O        0.00920    0.40230    0.11860    1.000
    N4       N        0.41000    0.90960    0.34460    1.000
    H37      H        0.43460    0.94280    0.33160    1.000
    H38      H        0.35850    0.90980    0.34200    1.000
    C31      C        0.08680    0.43060    0.15690    1.000
    C32      C        0.40090    0.84030    0.29880    1.000
    H39      H        0.45690    0.83750    0.30760    1.000
    H40      H        0.36590    0.80380    0.30850    1.000
    O12      O        0.05670    0.78090    0.21870    1.000
    C33      C        0.08270    0.31530    0.16400    1.000
    H41      H        0.02600    0.29550    0.13470    1.000
    C34      C        0.29310    0.79910    0.08860    1.000
    H42      H        0.27080    0.78880    0.04260    1.000
    N5       N        0.01340    0.61490    0.43680    1.000
    H43      H        0.97060    0.62470    0.44620    1.000
    H44      H        0.99320    0.58610    0.39370    1.000
    C35      C        0.36180    0.82740    0.22610    1.000
    N6       N        0.06690    0.15580    0.10140    1.000
    H45      H        0.04170    0.17010    0.07050    1.000
    H46      H        0.12040    0.16460    0.10360    1.000
    C36      C        0.24190    0.76930    0.12020    1.000
    C37      C        0.25160    0.37360    0.24750    1.000
    H47      H        0.30870    0.39330    0.27620    1.000
    C38      C        0.15470    0.71510    0.07770    1.000
    C39      C        0.07340    0.71290    0.34860    1.000
    H48      H        0.10700    0.68760    0.33870    1.000
    C40      C        0.05120    0.71670    0.40420    1.000
    C41      C        0.27700    0.78460    0.18840    1.000
    H49      H        0.24300    0.76580    0.20960    1.000
    C42      C        0.06850    0.19700    0.16650    1.000
    H50      H        0.01060    0.19070    0.16390    1.000
    H51      H        0.09350    0.18060    0.20030    1.000
    C43      C        0.12830    0.38590    0.18340    1.000
    C44      C        0.37610    0.84330    0.12640    1.000
    H52      H        0.40950    0.86420    0.10590    1.000
    C45      C        0.21300    0.41470    0.22550    1.000
    H53      H        0.24410    0.46220    0.23900    1.000
    C46      C        0.11980    0.27370    0.18730    1.000
    C47      C        0.20620    0.30360    0.22750    1.000
    H54      H        0.23350    0.27560    0.24090    1.000
    C48      C        0.08180    0.68050    0.44820    1.000
    H55      H        0.10280    0.71180    0.49510    1.000
    H56      H        0.12890    0.66960    0.43930    1.000
    C49      C        0.04630    0.74640    0.30720    1.000
    C50      C        0.07440    0.74580    0.24960    1.000
    C51      C        0.46240    0.92560    0.41580    1.000
    H57      H        0.51860    0.92610    0.41810    1.000
    H58      H        0.43630    0.88820    0.42890    1.000
    C52      C        0.04760    0.58020    0.48060    1.000
    H59      H        0.09110    0.56660    0.46770    1.000
    H60      H        0.07450    0.61370    0.52700    1.000
    C53      C        0.99740    0.75230    0.41650    1.000
    H61      H        0.97980    0.75360    0.45260    1.000
    C54      C        0.47220    0.99300    0.46470    1.000
    H62      H        0.49740    0.03070    0.45150    1.000
    H63      H        0.41640    0.99240    0.46390    1.000
    C55      C        0.02220    0.07920    0.07860    1.000
    H64      H        0.04970    0.06320    0.11180    1.000
    H65      H        0.96370    0.06930    0.07600    1.000
    C56      C        0.41080    0.85740    0.19430    1.000
    H66      H        0.46760    0.88720    0.21900    1.000
    C57      C        0.02200    0.03920    0.01100    1.000
    H67      H        0.99320    0.05430    0.97760    1.000
    H68      H        0.08040    0.04990    0.01340    1.000
    C58      C        0.97020    0.78600    0.37480    1.000
    H69      H        0.93600    0.81090    0.38410    1.000
    C59      C        0.99340    0.78230    0.32050    1.000
    H70      H        0.97400    0.80380    0.29220    1.000
    C60      C        0.98120    0.51680    0.47700    1.000
    H71      H        0.93740    0.53000    0.48980    1.000
    H72      H        0.95450    0.48290    0.43080    1.000
    O13      O        0.05030    0.53502    0.06602    1.000
    O14      O        0.12100    0.71070    0.23768    1.000
    O15      O        0.49700    0.72380    0.09640    1.000
    O16      O        0.46910    0.48800    0.18960    1.000
    N7       N        0.39660    0.55930    0.17050    1.000
    O17      O        0.65260    0.49550    0.19540    1.000
    O18      O        0.30290    0.37390    0.04590    1.000
    N8       N        0.77150    0.59800    0.03830    1.000
    N9       N        0.76420    0.50420    0.07930    1.000
    N10      N        0.29580    0.57170    0.02630    1.000
    O19      O        0.68390    0.73020    0.09880    1.000
    N11      N        0.67970    0.61410    0.23800    1.000
    N12      N        0.28000    0.47770    0.06690    1.000
    C61      C        0.23690    0.51140    0.02890    1.000
    H73      H        0.19310    0.52240    0.04460    1.000
    N13      N        0.40920    0.65610    0.13210    1.000
    C62      C        0.80130    0.54290    0.04380    1.000
    H74      H        0.86380    0.55980    0.06210    1.000
    N14      N        0.54600    0.70780    0.19540    1.000
    N15      N        0.75130    0.57640    0.17870    1.000
    N16      N        0.68290    0.70450    0.19240    1.000
    C63      C        0.79160    0.53030    0.15160    1.000
    H75      H        0.85300    0.55550    0.17090    1.000
    H76      H        0.77920    0.49090    0.16530    1.000
    C64      C        0.33010    0.64080    0.07960    1.000
    H77      H        0.33890    0.67560    0.05970    1.000
    H78      H        0.28800    0.64510    0.09970    1.000
    N17      N        0.76730    0.67380    0.14100    1.000
    C65      C        0.41460    0.63350    0.18830    1.000
    H79      H        0.38150    0.64970    0.21410    1.000
    N18      N        0.53600    0.60840    0.22900    1.000
    C66      C        0.80610    0.66620    0.09120    1.000
    H80      H        0.80070    0.70000    0.07090    1.000
    H81      H        0.86660    0.67800    0.11390    1.000
    C67      C        0.27330    0.41350    0.02710    1.000
    C68      C        0.73110    0.67630    0.23430    1.000
    H82      H        0.76680    0.71220    0.27940    1.000
    C69      C        0.46720    0.54610    0.19530    1.000
    C70      C        0.69100    0.55620    0.20280    1.000
    C71      C        0.31250    0.50370    0.13950    1.000
    H83      H        0.31520    0.46530    0.15350    1.000
    H84      H        0.27310    0.52110    0.15560    1.000
    C72      C        0.78530    0.65210    0.19710    1.000
    H85      H        0.84610    0.67360    0.22560    1.000
    C73      C        0.48470    0.69790    0.13710    1.000
    C74      C        0.51230    0.66730    0.23030    1.000
    H86      H        0.52410    0.69740    0.27670    1.000
    C75      C        0.63460    0.74570    0.21360    1.000
    H87      H        0.66020    0.76950    0.26230    1.000
    H88      H        0.64050    0.78140    0.19460    1.000
    C76      C        0.70870    0.70540    0.13930    1.000
    C77      C        0.61720    0.61090    0.27010    1.000
    H89      H        0.60710    0.56970    0.28130    1.000
    H90      H        0.64080    0.65170    0.31200    1.000
    O20      O        0.67770    0.39190    0.05710    1.000
    C78      C        0.71110    0.43710    0.03820    1.000
    O21      O        0.50300    0.27620    0.90360    1.000
    O22      O        0.53090    0.51200    0.81040    1.000
    N19      N        0.60340    0.44070    0.82950    1.000
    O23      O        0.34740    0.50450    0.80460    1.000
    O24      O        0.69710    0.62610    0.95410    1.000
    N20      N        0.22850    0.40200    0.96170    1.000
    N21      N        0.23580    0.49580    0.92070    1.000
    N22      N        0.70420    0.42830    0.97370    1.000
    O25      O        0.31610    0.26980    0.90120    1.000
    N23      N        0.32030    0.38590    0.76200    1.000
    N24      N        0.72000    0.52230    0.93310    1.000
    C79      C        0.76310    0.48860    0.97110    1.000
    H91      H        0.80690    0.47760    0.95540    1.000
    N25      N        0.59080    0.34390    0.86790    1.000
    C80      C        0.19870    0.45710    0.95620    1.000
    H92      H        0.13620    0.44020    0.93790    1.000
    N26      N        0.45400    0.29220    0.80460    1.000
    N27      N        0.24870    0.42360    0.82130    1.000
    N28      N        0.31710    0.29550    0.80760    1.000
    C81      C        0.20840    0.46970    0.84840    1.000
    H93      H        0.14700    0.44450    0.82910    1.000
    H94      H        0.22080    0.50910    0.83470    1.000
    C82      C        0.66990    0.35920    0.92040    1.000
    H95      H        0.66110    0.32440    0.94030    1.000
    H96      H        0.71200    0.35490    0.90030    1.000
    N29      N        0.23270    0.32620    0.85900    1.000
    C83      C        0.58540    0.36650    0.81170    1.000
    H97      H        0.61850    0.35030    0.78590    1.000
    N30      N        0.46400    0.39160    0.77100    1.000
    C84      C        0.19390    0.33380    0.90880    1.000
    H98      H        0.19930    0.30000    0.92910    1.000
    H99      H        0.13340    0.32200    0.88610    1.000
    C85      C        0.72670    0.58650    0.97290    1.000
    C86      C        0.26890    0.32370    0.76570    1.000
    H100     H        0.23320    0.28780    0.72060    1.000
    C87      C        0.53280    0.45390    0.80470    1.000
    C88      C        0.30900    0.44380    0.79720    1.000
    C89      C        0.68750    0.49630    0.86050    1.000
    H101     H        0.68480    0.53470    0.84650    1.000
    H102     H        0.72690    0.47890    0.84440    1.000
    C90      C        0.21470    0.34790    0.80290    1.000
    H103     H        0.15390    0.32640    0.77440    1.000
    C91      C        0.51530    0.30210    0.86290    1.000
    C92      C        0.48770    0.33270    0.76970    1.000
    H104     H        0.47590    0.30260    0.72330    1.000
    C93      C        0.36540    0.25430    0.78640    1.000
    H105     H        0.33980    0.23050    0.73770    1.000
    H106     H        0.35950    0.21860    0.80540    1.000
    C94      C        0.29130    0.29460    0.86070    1.000
    C95      C        0.38280    0.38910    0.72990    1.000
    H107     H        0.39290    0.43030    0.71870    1.000
    H108     H        0.35920    0.34830    0.68800    1.000
    O26      O        0.32230    0.60810    0.94290    1.000
    C96      C        0.28890    0.56290    0.96180    1.000
    O27      O        0.97570    0.03910    0.20800    1.000
    O28      O        0.82400    0.91400    0.78260    1.000
    O29      O        0.11860    0.23010    0.02820    1.000
    O30      O        0.91290    0.16930    0.01600    1.000
    O31      O        0.75990    0.82170    0.87430    1.000
    N31      N        0.04430    0.17480    0.91340    1.000
    N32      N        0.79040    0.08450    0.93000    1.000
    O32      O        0.83510    0.08630    0.10160    1.000
    N33      N        0.85970    0.03200    0.80710    1.000
    N34      N        0.76630    0.96740    0.06410    1.000
    N35      N        0.74200    0.01790    0.99300    1.000
    N36      N        0.75900    0.97770    0.83630    1.000
    N37      N        0.86390    0.93390    0.13620    1.000
    N38      N        0.89660    0.13860    0.90400    1.000
    N39      N        0.00640    0.06650    0.81780    1.000
    N40      N        0.73200    0.85790    0.97040    1.000
    N41      N        0.82590    0.82310    0.04420    1.000
    N42      N        0.71030    0.91080    0.90110    1.000
    C97      C        0.97290    0.19450    0.91230    1.000
    H109     H        0.95920    0.21050    0.87560    1.000
    H110     H        0.98880    0.23370    0.95400    1.000
    C98      C        0.81560    0.96910    0.80630    1.000
    C99      C        0.68600    0.94750    0.95380    1.000
    H111     H        0.62630    0.94280    0.93690    1.000
    C100     C        0.87140    0.13490    0.95600    1.000
    C101     C        0.73820    0.07370    0.96920    1.000
    H112     H        0.67940    0.06270    0.94190    1.000
    H113     H        0.75640    0.11700    0.00770    1.000
    C102     C        0.94830    0.97550    0.17930    1.000
    C103     C        0.85000    0.86050    0.11620    1.000
    H114     H        0.81010    0.83680    0.13360    1.000
    C104     C        0.79760    0.96050    0.12840    1.000
    H115     H        0.81830    0.00620    0.16430    1.000
    H116     H        0.75010    0.92990    0.13390    1.000
    C105     C        0.83400    0.08780    0.83960    1.000
    H117     H        0.81420    0.11010    0.80920    1.000
    C106     C        0.76220    0.04850    0.85750    1.000
    H118     H        0.70780    0.05070    0.83400    1.000
    C107     C        0.74150    0.80280    0.99460    1.000
    H119     H        0.69920    0.79080    0.01440    1.000
    H120     H        0.73040    0.76120    0.95650    1.000
    C108     C        0.70250    0.91100    0.00350    1.000
    H121     H        0.65050    0.88960    0.01080    1.000
    C109     C        0.11270    0.19690    0.97180    1.000
    C110     C        0.69350    0.91950    0.83590    1.000
    H122     H        0.68730    0.87680    0.80170    1.000
    H123     H        0.63970    0.92590    0.82340    1.000
    C111     C        0.06100    0.14010    0.85400    1.000
    H124     H        0.05960    0.16560    0.82390    1.000
    C112     C        0.78680    0.02980    0.05690    1.000
    C113     C        0.73530    0.86030    0.91190    1.000
    C114     C        0.91980    0.04190    0.77390    1.000
    H125     H        0.90640    0.99780    0.73810    1.000
    H126     H        0.91310    0.07530    0.75340    1.000
    O33      O        0.02430    0.96090    0.79200    1.000
    O34      O        0.17600    0.08600    0.21740    1.000
    O35      O        0.88140    0.76990    0.97180    1.000
    O36      O        0.08710    0.83070    0.98400    1.000
    O37      O        0.24010    0.17830    0.12570    1.000
    N43      N        0.95570    0.82520    0.08660    1.000
    N44      N        0.20960    0.91550    0.07000    1.000
    O38      O        0.16490    0.91370    0.89840    1.000
    N45      N        0.14030    0.96800    0.19290    1.000
    N46      N        0.23370    0.03260    0.93590    1.000
    N47      N        0.25800    0.98210    0.00700    1.000
    N48      N        0.24100    0.02230    0.16370    1.000
    N49      N        0.13610    0.06610    0.86380    1.000
    N50      N        0.10340    0.86140    0.09600    1.000
    N51      N        0.99360    0.93350    0.18220    1.000
    N52      N        0.26800    0.14210    0.02960    1.000
    N53      N        0.17410    0.17690    0.95580    1.000
    N54      N        0.28970    0.08920    0.09890    1.000
    C115     C        0.02710    0.80550    0.08770    1.000
    H127     H        0.04080    0.78950    0.12440    1.000
    H128     H        0.01120    0.76630    0.04600    1.000
    C116     C        0.18440    0.03090    0.19370    1.000
    C117     C        0.31400    0.05250    0.04620    1.000
    H129     H        0.37370    0.05720    0.06310    1.000
    C118     C        0.12860    0.86510    0.04400    1.000
    C119     C        0.26180    0.92630    0.03080    1.000
    H130     H        0.32060    0.93730    0.05810    1.000
    H131     H        0.24360    0.88300    0.99230    1.000
    C120     C        0.05170    0.02450    0.82070    1.000
    C121     C        0.15000    0.13950    0.88380    1.000
    H132     H        0.18990    0.16320    0.86640    1.000
    C122     C        0.20240    0.03950    0.87160    1.000
    H133     H        0.18170    0.99380    0.83570    1.000
    H134     H        0.24990    0.07010    0.86610    1.000
    C123     C        0.16600    0.91220    0.16040    1.000
    H135     H        0.18580    0.88990    0.19080    1.000
    C124     C        0.23780    0.95150    0.14250    1.000
    H136     H        0.29220    0.94930    0.16600    1.000
    C125     C        0.25850    0.19720    0.00540    1.000
    H137     H        0.30080    0.20920    0.98560    1.000
    H138     H        0.26960    0.23880    0.04350    1.000
    C126     C        0.29750    0.08900    0.99650    1.000
    H139     H        0.34950    0.11040    0.98920    1.000
    C127     C        0.88730    0.80310    0.02820    1.000
    C128     C        0.30650    0.08050    0.16410    1.000
    H140     H        0.31270    0.12320    0.19830    1.000
    H141     H        0.36030    0.07410    0.17660    1.000
    C129     C        0.93900    0.85990    0.14600    1.000
    H142     H        0.94040    0.83440    0.17610    1.000
    C130     C        0.21320    0.97020    0.94310    1.000
    C131     C        0.26470    0.13970    0.08810    1.000
    C132     C        0.08020    0.95810    0.22610    1.000
    H143     H        0.09360    0.00220    0.26190    1.000
    H144     H        0.08690    0.92470    0.24660    1.000
    O39      O        0.25320    0.61180    0.48090    1.000
    O40      O        0.86740    0.63850    0.44810    1.000
    O41      O        0.12430    0.46470    0.69040    1.000
    O42      O        0.04400    0.72180    0.59370    1.000
    O43      O        0.24840    0.71210    0.61450    1.000
    N55      N        0.17090    0.58490    0.73530    1.000
    N56      N        0.21230    0.68050    0.69690    1.000
    N57      N        0.30030    0.56230    0.55530    1.000
    N58      N        0.30030    0.63980    0.65840    1.000
    C133     C        0.30200    0.49400    0.55170    1.000
    H145     H        0.36040    0.49550    0.56790    1.000
    N59      N        0.94100    0.66790    0.62720    1.000
    C134     C        0.10770    0.58630    0.76440    1.000
    H146     H        0.13360    0.62470    0.80820    1.000
    H147     H        0.08840    0.54310    0.77160    1.000
    N60      N        0.07470    0.68720    0.68190    1.000
    N61      N        0.24230    0.53740    0.68120    1.000
    N62      N        0.03310    0.59440    0.72330    1.000
    N63      N        0.25040    0.46120    0.58320    1.000
    C135     C        0.25830    0.56110    0.49410    1.000
    C136     C        0.17420    0.52300    0.70130    1.000
    C137     C        0.27080    0.48290    0.65440    1.000
    H148     H        0.33220    0.49940    0.67690    1.000
    H149     H        0.24490    0.44280    0.66420    1.000
    C138     C        0.34550    0.62420    0.61460    1.000
    H150     H        0.36280    0.66350    0.60130    1.000
    H151     H        0.39710    0.62060    0.64010    1.000
    C139     C        0.02860    0.65980    0.72110    1.000
    H152     H        0.04620    0.69500    0.76640    1.000
    C140     C        0.23750    0.64410    0.73980    1.000
    H153     H        0.27060    0.67670    0.78670    1.000
    N64      N        0.81540    0.60810    0.52480    1.000
    C141     C        0.93500    0.64070    0.67960    1.000
    H154     H        0.90640    0.66230    0.70670    1.000
    C142     C        0.16440    0.72500    0.70940    1.000
    H155     H        0.18230    0.74960    0.75760    1.000
    H156     H        0.17770    0.75990    0.69000    1.000
    C143     C        0.86970    0.67310    0.58200    1.000
    H157     H        0.89100    0.70890    0.56550    1.000
    H158     H        0.83570    0.68800    0.60680    1.000
    C144     C        0.74600    0.55230    0.52340    1.000
    H159     H        0.70920    0.57010    0.54390    1.000
    C145     C        0.81600    0.60030    0.46230    1.000
    C146     C        0.29270    0.61030    0.70770    1.000
    H160     H        0.34870    0.62180    0.74140    1.000
    C147     C        0.02190    0.69610    0.63170    1.000
    C148     C        0.25220    0.68030    0.65230    1.000
    O44      O        0.94340    0.47800    0.67480    1.000
    N65      N        0.89910    0.56430    0.65560    1.000
    N66      N        0.77550    0.50740    0.55270    1.000
    C149     C        0.95740    0.53960    0.68350    1.000
    C150     C        0.80930    0.52420    0.62460    1.000
    H161     H        0.77990    0.55030    0.64600    1.000
    H162     H        0.79770    0.48100    0.63240    1.000
    O45      O        0.74680    0.38820    0.51910    1.000
    O46      O        0.13260    0.36150    0.55190    1.000
    O47      O        0.87570    0.53530    0.30960    1.000
    O48      O        0.95600    0.27820    0.40630    1.000
    O49      O        0.75160    0.28790    0.38550    1.000
    N67      N        0.82910    0.41510    0.26470    1.000
    N68      N        0.78770    0.31950    0.30310    1.000
    N69      N        0.69970    0.43770    0.44470    1.000
    N70      N        0.69970    0.36020    0.34160    1.000
    C151     C        0.69800    0.50600    0.44830    1.000
    H163     H        0.63960    0.50450    0.43210    1.000
    N71      N        0.05900    0.33210    0.37280    1.000
    C152     C        0.89230    0.41370    0.23560    1.000
    H164     H        0.86640    0.37530    0.19180    1.000
    H165     H        0.91160    0.45690    0.22840    1.000
    N72      N        0.92530    0.31280    0.31810    1.000
    N73      N        0.75770    0.46260    0.31880    1.000
    N74      N        0.96690    0.40560    0.27670    1.000
    N75      N        0.74960    0.53880    0.41680    1.000
    C153     C        0.74170    0.43890    0.50590    1.000
    C154     C        0.82580    0.47700    0.29870    1.000
    C155     C        0.72920    0.51710    0.34560    1.000
    H166     H        0.66780    0.50060    0.32310    1.000
    H167     H        0.75510    0.55720    0.33580    1.000
    C156     C        0.65450    0.37580    0.38540    1.000
    H168     H        0.63720    0.33650    0.39870    1.000
    H169     H        0.60290    0.37940    0.35990    1.000
    C157     C        0.97140    0.34020    0.27890    1.000
    H170     H        0.95380    0.30500    0.23360    1.000
    C158     C        0.76250    0.35590    0.26020    1.000
    H171     H        0.72940    0.32330    0.21330    1.000
    N76      N        0.18460    0.39190    0.47520    1.000
    C159     C        0.06500    0.35930    0.32040    1.000
    H172     H        0.09360    0.33770    0.29330    1.000
    C160     C        0.83560    0.27500    0.29060    1.000
    H173     H        0.81770    0.25040    0.24240    1.000
    H174     H        0.82230    0.24010    0.31000    1.000
    C161     C        0.13030    0.32690    0.41800    1.000
    H175     H        0.10900    0.29110    0.43450    1.000
    H176     H        0.16430    0.31200    0.39320    1.000
    C162     C        0.25400    0.44770    0.47660    1.000
    H177     H        0.29080    0.42990    0.45610    1.000
    C163     C        0.18400    0.39970    0.53770    1.000
    C164     C        0.70730    0.38970    0.29230    1.000
    H178     H        0.65130    0.37820    0.25860    1.000
    C165     C        0.97810    0.30390    0.36830    1.000
    C166     C        0.74780    0.31970    0.34770    1.000
    O50      O        0.05660    0.52200    0.32520    1.000
    N77      N        0.10090    0.43570    0.34440    1.000
    N78      N        0.22450    0.49260    0.44730    1.000
    C167     C        0.04260    0.46040    0.31650    1.000
    C168     C        0.19070    0.47580    0.37540    1.000
    H179     H        0.22010    0.44970    0.35400    1.000
    H180     H        0.20230    0.51900    0.36760    1.000
    O51      O        0.26980    0.96030    0.32470    1.000
    O52      O        0.60170    0.96630    0.33580    1.000
    O53      O        0.59240    0.24370    0.58930    1.000
    O54      O        0.73880    0.16540    0.61680    1.000
    O55      O        0.44030    0.02920    0.30200    1.000
    O56      O        0.40940    0.17320    0.61290    1.000
    N79      N        0.28920    0.08130    0.53160    1.000
    N80      N        0.42990    0.12910    0.36830    1.000
    N81      N        0.36060    0.16270    0.50340    1.000
    N82      N        0.62000    0.21380    0.49000    1.000
    N83      N        0.72810    0.01420    0.43090    1.000
    N84      N        0.56070    0.12780    0.37670    1.000
    N85      N        0.22820    0.99800    0.41520    1.000
    N86      N        0.49050    0.21150    0.48550    1.000
    C169     C        0.28540    0.11890    0.44170    1.000
    H181     H        0.25270    0.14610    0.42760    1.000
    C170     C        0.42630    0.22510    0.50900    1.000
    H182     H        0.39920    0.24830    0.48360    1.000
    H183     H        0.45330    0.25710    0.55590    1.000
    N87      N        0.73080    0.16970    0.51130    1.000
    N88      N        0.78330    0.09630    0.54580    1.000
    C171     C        0.78450    0.08250    0.47950    1.000
    H184     H        0.84280    0.09220    0.48030    1.000
    C172     C        0.48680    0.19820    0.41690    1.000
    H185     H        0.47560    0.23460    0.40200    1.000
    N89      N        0.30230    0.07730    0.38590    1.000
    C173     C        0.74710    0.13280    0.45560    1.000
    H186     H        0.78800    0.16470    0.44470    1.000
    N90      N        0.67330    0.08590    0.39670    1.000
    C174     C        0.57630    0.19830    0.42110    1.000
    H187     H        0.60540    0.23370    0.40640    1.000
    C175     C        0.35930    0.14280    0.55640    1.000
    C176     C        0.56950    0.22470    0.52790    1.000
    C177     C        0.70900    0.22960    0.52070    1.000
    H188     H        0.73990    0.25920    0.50230    1.000
    H189     H        0.72750    0.25610    0.56870    1.000
    C178     C        0.26710    0.00800    0.37110    1.000
    C179     C        0.47260    0.08850    0.34430    1.000
    C180     C        0.62080    0.10990    0.35340    1.000
    H190     H        0.62700    0.11290    0.31400    1.000
    C181     C        0.73760    0.94960    0.42470    1.000
    H191     H        0.79720    0.95680    0.43350    1.000
    H192     H        0.70510    0.91680    0.37840    1.000
    C182     C        0.23370    0.06270    0.46240    1.000
    H193     H        0.17740    0.06410    0.45920    1.000
    C183     C        0.66060    0.01700    0.38240    1.000
    C184     C        0.33940    0.10440    0.34400    1.000
    H194     H        0.31690    0.06780    0.29940    1.000
    H195     H        0.32190    0.14250    0.33960    1.000
    C185     C        0.82460    0.06960    0.59210    1.000
    H196     H        0.87610    0.06690    0.58510    1.000
    H197     H        0.84130    0.10230    0.63790    1.000
    C186     C        0.74960    0.14470    0.56440    1.000
    O57      O        0.73020    0.03970    0.67530    1.000
    O58      O        0.39830    0.03370    0.66420    1.000
    O59      O        0.40760    0.75630    0.41070    1.000
    O60      O        0.26120    0.83460    0.38320    1.000
    O61      O        0.55970    0.97080    0.69800    1.000
    O62      O        0.59060    0.82680    0.38710    1.000
    N91      N        0.71080    0.91870    0.46840    1.000
    N92      N        0.57010    0.87090    0.63170    1.000
    N93      N        0.63940    0.83730    0.49660    1.000
    N94      N        0.38000    0.78620    0.51000    1.000
    N95      N        0.27190    0.98580    0.56910    1.000
    N96      N        0.43930    0.87220    0.62330    1.000
    N97      N        0.77180    0.00200    0.58480    1.000
    N98      N        0.50950    0.78850    0.51450    1.000
    C187     C        0.71460    0.88110    0.55830    1.000
    H198     H        0.74730    0.85390    0.57240    1.000
    C188     C        0.57370    0.77490    0.49100    1.000
    H199     H        0.60080    0.75170    0.51640    1.000
    H200     H        0.54670    0.74290    0.44410    1.000
    N99      N        0.26920    0.83030    0.48870    1.000
    N100     N        0.21670    0.90370    0.45420    1.000
    C189     C        0.21550    0.91750    0.52050    1.000
    H201     H        0.15720    0.90780    0.51970    1.000
    C190     C        0.51320    0.80180    0.58310    1.000
    H202     H        0.52440    0.76540    0.59800    1.000
    N101     N        0.69770    0.92270    0.61410    1.000
    C191     C        0.25290    0.86720    0.54440    1.000
    H203     H        0.21200    0.83530    0.55530    1.000
    N102     N        0.32670    0.91410    0.60330    1.000
    C192     C        0.42370    0.80170    0.57890    1.000
    H204     H        0.39460    0.76630    0.59360    1.000
    C193     C        0.64070    0.85720    0.44360    1.000
    C194     C        0.43050    0.77530    0.47210    1.000
    C195     C        0.29100    0.77040    0.47930    1.000
    H205     H        0.26010    0.74080    0.49770    1.000
    H206     H        0.27250    0.74390    0.43130    1.000
    C196     C        0.73290    0.99200    0.62890    1.000
    C197     C        0.52740    0.91150    0.65570    1.000
    C198     C        0.37920    0.89010    0.64660    1.000
    H207     H        0.37300    0.88710    0.68600    1.000
    C199     C        0.26240    0.05040    0.57530    1.000
    H208     H        0.20280    0.04320    0.56650    1.000
    H209     H        0.29490    0.08320    0.62160    1.000
    C200     C        0.76630    0.93730    0.53760    1.000
    H210     H        0.82260    0.93590    0.54080    1.000
    C201     C        0.33940    0.98300    0.61760    1.000
    C202     C        0.66060    0.89560    0.65600    1.000
    H211     H        0.68310    0.93220    0.70060    1.000
    H212     H        0.67810    0.85750    0.66040    1.000
    C203     C        0.17540    0.93040    0.40790    1.000
    H213     H        0.12390    0.93310    0.41490    1.000
    H214     H        0.15870    0.89770    0.36210    1.000
    C204     C        0.25040    0.85530    0.43560    1.000
