# CIF file generated by openbabel 3.1.0, see https://openbabel.org
data_I
_chemical_name_common 'OWIZAW_clean'
_cell_length_a 19.9482
_cell_length_b 19.9482
_cell_length_c 45.448
_cell_angle_alpha 93.4203
_cell_angle_beta 93.4203
_cell_angle_gamma 96.6125
_space_group_name_H-M_alt 'P 1'
_space_group_name_Hall 'P 1'
loop_
    _symmetry_equiv_pos_as_xyz
    x,y,z
loop_
    _atom_site_label
    _atom_site_type_symbol
    _atom_site_fract_x
    _atom_site_fract_y
    _atom_site_fract_z
    _atom_site_occupancy
    Cu1      Cu       0.47372    0.90742    0.31450    1.000
    Cu2      Cu       0.33830    0.88494    0.30543    1.000
    Cu3      Cu       0.90742    0.47372    0.81450    1.000
    Cu4      Cu       0.88494    0.33830    0.80543    1.000
    H1       H        0.48520    0.06260    0.38390    1.000
    H2       H        0.47470    0.13850    0.42360    1.000
    H3       H        0.27240    0.09780    0.41310    1.000
    H4       H        0.28290    0.02190    0.37340    1.000
    H5       H        0.46350    0.36190    0.53830    1.000
    H6       H        0.46200    0.27660    0.50120    1.000
    H7       H        0.25910    0.26290    0.49230    1.000
    H8       H        0.26060    0.34820    0.52940    1.000
    H9       H        0.31110    0.72570    0.36450    1.000
    H10      H        0.30470    0.66110    0.40530    1.000
    H11      H        0.48660    0.75220    0.43760    1.000
    H12      H        0.49290    0.81690    0.39680    1.000
    H13      H        0.26600    0.47940    0.52980    1.000
    H14      H        0.27110    0.55670    0.49360    1.000
    H15      H        0.47390    0.58270    0.50540    1.000
    H16      H        0.46880    0.50540    0.54160    1.000
    H17      H        0.74930    0.52290    0.75170    1.000
    H18      H        0.67110    0.53290    0.71280    1.000
    H19      H        0.66040    0.33320    0.69170    1.000
    H20      H        0.73860    0.32320    0.73060    1.000
    H21      H        0.03670    0.31210    0.74170    1.000
    H22      H        0.09590    0.31290    0.69930    1.000
    H23      H        0.07370    0.50930    0.69280    1.000
    H24      H        0.01450    0.50850    0.73520    1.000
    H25      H        0.29200    0.32040    0.58240    1.000
    H26      H        0.21200    0.31600    0.61750    1.000
    H27      H        0.21540    0.51800    0.61900    1.000
    H28      H        0.29540    0.52240    0.58390    1.000
    H29      H        0.42370    0.33070    0.58540    1.000
    H30      H        0.50540    0.33660    0.62430    1.000
    H31      H        0.51490    0.53930    0.62990    1.000
    H32      H        0.43330    0.53350    0.59100    1.000
    H33      H        0.06260    0.48520    0.88390    1.000
    H34      H        0.13850    0.47470    0.92360    1.000
    H35      H        0.09780    0.27240    0.91310    1.000
    H36      H        0.02190    0.28290    0.87340    1.000
    H37      H        0.36190    0.46350    0.03830    1.000
    H38      H        0.27660    0.46200    0.00120    1.000
    H39      H        0.26290    0.25910    0.99230    1.000
    H40      H        0.34820    0.26060    0.02940    1.000
    H41      H        0.72570    0.31110    0.86450    1.000
    H42      H        0.66110    0.30470    0.90530    1.000
    H43      H        0.75220    0.48660    0.93760    1.000
    H44      H        0.81690    0.49290    0.89680    1.000
    H45      H        0.47940    0.26600    0.02980    1.000
    H46      H        0.55670    0.27110    0.99360    1.000
    H47      H        0.58270    0.47390    0.00540    1.000
    H48      H        0.50540    0.46880    0.04160    1.000
    H49      H        0.52290    0.74930    0.25170    1.000
    H50      H        0.53290    0.67110    0.21280    1.000
    H51      H        0.33320    0.66040    0.19170    1.000
    H52      H        0.32320    0.73860    0.23060    1.000
    H53      H        0.31210    0.03670    0.24170    1.000
    H54      H        0.31290    0.09590    0.19930    1.000
    H55      H        0.50930    0.07370    0.19280    1.000
    H56      H        0.50850    0.01450    0.23520    1.000
    H57      H        0.32040    0.29200    0.08240    1.000
    H58      H        0.31600    0.21200    0.11750    1.000
    H59      H        0.51800    0.21540    0.11900    1.000
    H60      H        0.52240    0.29540    0.08390    1.000
    H61      H        0.33070    0.42370    0.08540    1.000
    H62      H        0.33660    0.50540    0.12430    1.000
    H63      H        0.53930    0.51490    0.12990    1.000
    H64      H        0.53350    0.43330    0.09100    1.000
    C1       C        0.38510    0.03470    0.37472    1.000
    C2       C        0.44260    0.06960    0.38980    1.000
    C3       C        0.43630    0.11510    0.41360    1.000
    C4       C        0.37250    0.12570    0.42230    1.000
    C5       C        0.31500    0.09080    0.40720    1.000
    C6       C        0.32130    0.04530    0.38350    1.000
    C7       C        0.36220    0.36360    0.53754    1.000
    C8       C        0.42250    0.34210    0.52910    1.000
    C9       C        0.42160    0.29100    0.50690    1.000
    C10      C        0.36040    0.26140    0.49307    1.000
    C11      C        0.30010    0.28270    0.50150    1.000
    C12      C        0.30100    0.33380    0.52380    1.000
    C13      C        0.40260    0.77780    0.37664    1.000
    C14      C        0.34630    0.73110    0.37920    1.000
    C15      C        0.34250    0.69230    0.40360    1.000
    C16      C        0.39500    0.70020    0.42540    1.000
    C17      C        0.45140    0.74700    0.42290    1.000
    C18      C        0.45510    0.78570    0.39850    1.000
    C19      C        0.36690    0.48470    0.53928    1.000
    C20      C        0.30770    0.50010    0.52490    1.000
    C21      C        0.31070    0.54650    0.50320    1.000
    C22      C        0.37300    0.57740    0.49590    1.000
    C23      C        0.43220    0.56200    0.51030    1.000
    C24      C        0.42910    0.51570    0.53200    1.000
    C25      C        0.75170    0.42210    0.74503    1.000
    C26      C        0.73150    0.48490    0.73970    1.000
    C27      C        0.68460    0.49080    0.71640    1.000
    C28      C        0.65800    0.43400    0.69843    1.000
    C29      C        0.67820    0.37120    0.70380    1.000
    C30      C        0.72510    0.36530    0.72710    1.000
    C31      C        0.01980    0.41020    0.74269    1.000
    C32      C        0.04410    0.35170    0.73190    1.000
    C33      C        0.07960    0.35220    0.70650    1.000
    C34      C        0.09070    0.41130    0.69187    1.000
    C35      C        0.06640    0.46980    0.70260    1.000
    C36      C        0.03090    0.46930    0.72800    1.000
    C37      C        0.30160    0.42180    0.57969    1.000
    C38      C        0.27660    0.36000    0.58970    1.000
    C39      C        0.22870    0.35730    0.61080    1.000
    C40      C        0.20580    0.41660    0.62170    1.000
    C41      C        0.23080    0.47840    0.61170    1.000
    C42      C        0.27880    0.48100    0.59060    1.000
    C43      C        0.42040    0.43160    0.58433    1.000
    C44      C        0.44200    0.37260    0.59430    1.000
    C45      C        0.49090    0.37610    0.61760    1.000
    C46      C        0.51820    0.43860    0.63099    1.000
    C47      C        0.49660    0.49760    0.62100    1.000
    C48      C        0.44780    0.49400    0.59770    1.000
    C49      C        0.36360    0.42640    0.56030    1.000
    C50      C        0.39390    0.98570    0.35000    1.000
    C51      C        0.40950    0.81930    0.35000    1.000
    C52      C        0.80410    0.41870    0.77060    1.000
    C53      C        0.97710    0.40910    0.76890    1.000
    C54      C        0.36740    0.21300    0.46920    1.000
    C55      C        0.36900    0.17500    0.44790    1.000
    C56      C        0.38570    0.62230    0.47220    1.000
    C57      C        0.38950    0.65730    0.45080    1.000
    C58      C        0.12230    0.41270    0.66440    1.000
    C59      C        0.16630    0.41570    0.64690    1.000
    C60      C        0.56960    0.44520    0.65550    1.000
    C61      C        0.61160    0.44120    0.67540    1.000
    C62      C        0.03470    0.38510    0.87472    1.000
    C63      C        0.06960    0.44260    0.88980    1.000
    C64      C        0.11510    0.43630    0.91360    1.000
    C65      C        0.12570    0.37250    0.92230    1.000
    C66      C        0.09080    0.31500    0.90720    1.000
    C67      C        0.04530    0.32130    0.88350    1.000
    C68      C        0.36360    0.36220    0.03754    1.000
    C69      C        0.34210    0.42250    0.02910    1.000
    C70      C        0.29100    0.42160    0.00690    1.000
    C71      C        0.26140    0.36040    0.99307    1.000
    C72      C        0.28270    0.30010    0.00150    1.000
    C73      C        0.33380    0.30100    0.02380    1.000
    C74      C        0.77780    0.40260    0.87664    1.000
    C75      C        0.73110    0.34630    0.87920    1.000
    C76      C        0.69230    0.34250    0.90360    1.000
    C77      C        0.70020    0.39500    0.92540    1.000
    C78      C        0.74700    0.45140    0.92290    1.000
    C79      C        0.78570    0.45510    0.89850    1.000
    C80      C        0.48470    0.36690    0.03928    1.000
    C81      C        0.50010    0.30770    0.02490    1.000
    C82      C        0.54650    0.31070    0.00320    1.000
    C83      C        0.57740    0.37300    0.99590    1.000
    C84      C        0.56200    0.43220    0.01030    1.000
    C85      C        0.51570    0.42910    0.03200    1.000
    C86      C        0.42210    0.75170    0.24503    1.000
    C87      C        0.48490    0.73150    0.23970    1.000
    C88      C        0.49080    0.68460    0.21640    1.000
    C89      C        0.43400    0.65800    0.19843    1.000
    C90      C        0.37120    0.67820    0.20380    1.000
    C91      C        0.36530    0.72510    0.22710    1.000
    C92      C        0.41020    0.01980    0.24269    1.000
    C93      C        0.35170    0.04410    0.23190    1.000
    C94      C        0.35220    0.07960    0.20650    1.000
    C95      C        0.41130    0.09070    0.19187    1.000
    C96      C        0.46980    0.06640    0.20260    1.000
    C97      C        0.46930    0.03090    0.22800    1.000
    C98      C        0.42180    0.30160    0.07969    1.000
    C99      C        0.36000    0.27660    0.08970    1.000
    C100     C        0.35730    0.22870    0.11080    1.000
    C101     C        0.41660    0.20580    0.12170    1.000
    C102     C        0.47840    0.23080    0.11170    1.000
    C103     C        0.48100    0.27880    0.09060    1.000
    C104     C        0.43160    0.42040    0.08433    1.000
    C105     C        0.37260    0.44200    0.09430    1.000
    C106     C        0.37610    0.49090    0.11760    1.000
    C107     C        0.43860    0.51820    0.13099    1.000
    C108     C        0.49760    0.49660    0.12100    1.000
    C109     C        0.49400    0.44780    0.09770    1.000
    C110     C        0.42640    0.36360    0.06030    1.000
    C111     C        0.98570    0.39390    0.85000    1.000
    C112     C        0.81930    0.40950    0.85000    1.000
    C113     C        0.41870    0.80410    0.27060    1.000
    C114     C        0.40910    0.97710    0.26890    1.000
    C115     C        0.21300    0.36740    0.96920    1.000
    C116     C        0.17500    0.36900    0.94790    1.000
    C117     C        0.62230    0.38570    0.97220    1.000
    C118     C        0.65730    0.38950    0.95080    1.000
    C119     C        0.41270    0.12230    0.16440    1.000
    C120     C        0.41570    0.16630    0.14690    1.000
    C121     C        0.44520    0.56960    0.15550    1.000
    C122     C        0.44120    0.61160    0.17540    1.000
    O1       O        0.45270    0.98130    0.34200    1.000
    O2       O        0.33590    0.95270    0.33910    1.000
    O3       O        0.35120    0.81580    0.33510    1.000
    O4       O        0.46930    0.85130    0.34730    1.000
    O5       O        0.82970    0.47350    0.78710    1.000
    O6       O        0.82160    0.36040    0.77470    1.000
    O7       O        0.96280    0.46620    0.78080    1.000
    O8       O        0.95700    0.35080    0.77790    1.000
    O9       O        0.98130    0.45270    0.84200    1.000
    O10      O        0.95270    0.33590    0.83910    1.000
    O11      O        0.81580    0.35120    0.83510    1.000
    O12      O        0.85130    0.46930    0.84730    1.000
    O13      O        0.47350    0.82970    0.28710    1.000
    O14      O        0.36040    0.82160    0.27470    1.000
    O15      O        0.46620    0.96280    0.28080    1.000
    O16      O        0.35080    0.95700    0.27790    1.000
    Cu5      Cu       0.09258    0.52628    0.18550    1.000
    Cu6      Cu       0.11506    0.66170    0.19457    1.000
    Cu7      Cu       0.52628    0.09258    0.68550    1.000
    Cu8      Cu       0.66170    0.11506    0.69457    1.000
    H65      H        0.93740    0.51480    0.11610    1.000
    H66      H        0.86150    0.52530    0.07640    1.000
    H67      H        0.90220    0.72760    0.08690    1.000
    H68      H        0.97810    0.71710    0.12660    1.000
    H69      H        0.63810    0.53650    0.96170    1.000
    H70      H        0.72340    0.53800    0.99880    1.000
    H71      H        0.73710    0.74090    0.00770    1.000
    H72      H        0.65180    0.73940    0.97060    1.000
    H73      H        0.27430    0.68890    0.13550    1.000
    H74      H        0.33890    0.69530    0.09470    1.000
    H75      H        0.24780    0.51340    0.06240    1.000
    H76      H        0.18310    0.50710    0.10320    1.000
    H77      H        0.52060    0.73400    0.97020    1.000
    H78      H        0.44330    0.72890    0.00640    1.000
    H79      H        0.41730    0.52610    0.99460    1.000
    H80      H        0.49460    0.53120    0.95840    1.000
    H81      H        0.47710    0.25070    0.74830    1.000
    H82      H        0.46710    0.32890    0.78720    1.000
    H83      H        0.66680    0.33960    0.80830    1.000
    H84      H        0.67680    0.26140    0.76940    1.000
    H85      H        0.68790    0.96330    0.75830    1.000
    H86      H        0.68710    0.90410    0.80070    1.000
    H87      H        0.49070    0.92630    0.80720    1.000
    H88      H        0.49150    0.98550    0.76480    1.000
    H89      H        0.67960    0.70800    0.91760    1.000
    H90      H        0.68400    0.78800    0.88250    1.000
    H91      H        0.48200    0.78460    0.88100    1.000
    H92      H        0.47760    0.70460    0.91610    1.000
    H93      H        0.66930    0.57630    0.91460    1.000
    H94      H        0.66340    0.49460    0.87570    1.000
    H95      H        0.46070    0.48510    0.87010    1.000
    H96      H        0.46650    0.56670    0.90900    1.000
    H97      H        0.51480    0.93740    0.61610    1.000
    H98      H        0.52530    0.86150    0.57640    1.000
    H99      H        0.72760    0.90220    0.58690    1.000
    H100     H        0.71710    0.97810    0.62660    1.000
    H101     H        0.53650    0.63810    0.46170    1.000
    H102     H        0.53800    0.72340    0.49880    1.000
    H103     H        0.74090    0.73710    0.50770    1.000
    H104     H        0.73940    0.65180    0.47060    1.000
    H105     H        0.68890    0.27430    0.63550    1.000
    H106     H        0.69530    0.33890    0.59470    1.000
    H107     H        0.51340    0.24780    0.56240    1.000
    H108     H        0.50710    0.18310    0.60320    1.000
    H109     H        0.73400    0.52060    0.47020    1.000
    H110     H        0.72890    0.44330    0.50640    1.000
    H111     H        0.52610    0.41730    0.49460    1.000
    H112     H        0.53120    0.49460    0.45840    1.000
    H113     H        0.25070    0.47710    0.24830    1.000
    H114     H        0.32890    0.46710    0.28720    1.000
    H115     H        0.33960    0.66680    0.30830    1.000
    H116     H        0.26140    0.67680    0.26940    1.000
    H117     H        0.96330    0.68790    0.25830    1.000
    H118     H        0.90410    0.68710    0.30070    1.000
    H119     H        0.92630    0.49070    0.30720    1.000
    H120     H        0.98550    0.49150    0.26480    1.000
    H121     H        0.70800    0.67960    0.41760    1.000
    H122     H        0.78800    0.68400    0.38250    1.000
    H123     H        0.78460    0.48200    0.38100    1.000
    H124     H        0.70460    0.47760    0.41610    1.000
    H125     H        0.57630    0.66930    0.41460    1.000
    H126     H        0.49460    0.66340    0.37570    1.000
    H127     H        0.48510    0.46070    0.37010    1.000
    H128     H        0.56670    0.46650    0.40900    1.000
    C123     C        0.96530    0.61490    0.12528    1.000
    C124     C        0.93040    0.55740    0.11020    1.000
    C125     C        0.88490    0.56370    0.08640    1.000
    C126     C        0.87430    0.62750    0.07770    1.000
    C127     C        0.90920    0.68500    0.09280    1.000
    C128     C        0.95470    0.67870    0.11650    1.000
    C129     C        0.63640    0.63780    0.96246    1.000
    C130     C        0.65790    0.57750    0.97090    1.000
    C131     C        0.70900    0.57840    0.99310    1.000
    C132     C        0.73860    0.63960    0.00693    1.000
    C133     C        0.71730    0.69990    0.99850    1.000
    C134     C        0.66620    0.69900    0.97620    1.000
    C135     C        0.22220    0.59740    0.12336    1.000
    C136     C        0.26890    0.65370    0.12080    1.000
    C137     C        0.30770    0.65750    0.09640    1.000
    C138     C        0.29980    0.60500    0.07460    1.000
    C139     C        0.25300    0.54860    0.07710    1.000
    C140     C        0.21430    0.54490    0.10150    1.000
    C141     C        0.51530    0.63310    0.96072    1.000
    C142     C        0.49990    0.69230    0.97510    1.000
    C143     C        0.45350    0.68930    0.99680    1.000
    C144     C        0.42260    0.62700    0.00410    1.000
    C145     C        0.43800    0.56780    0.98970    1.000
    C146     C        0.48430    0.57090    0.96800    1.000
    C147     C        0.57790    0.24830    0.75497    1.000
    C148     C        0.51510    0.26850    0.76030    1.000
    C149     C        0.50920    0.31540    0.78360    1.000
    C150     C        0.56600    0.34200    0.80157    1.000
    C151     C        0.62880    0.32180    0.79620    1.000
    C152     C        0.63470    0.27490    0.77290    1.000
    C153     C        0.58980    0.98020    0.75731    1.000
    C154     C        0.64830    0.95590    0.76810    1.000
    C155     C        0.64780    0.92040    0.79350    1.000
    C156     C        0.58870    0.90930    0.80813    1.000
    C157     C        0.53020    0.93360    0.79740    1.000
    C158     C        0.53070    0.96910    0.77200    1.000
    C159     C        0.57820    0.69840    0.92031    1.000
    C160     C        0.64000    0.72340    0.91030    1.000
    C161     C        0.64270    0.77130    0.88920    1.000
    C162     C        0.58340    0.79420    0.87830    1.000
    C163     C        0.52160    0.76920    0.88830    1.000
    C164     C        0.51900    0.72120    0.90940    1.000
    C165     C        0.56840    0.57960    0.91567    1.000
    C166     C        0.62740    0.55800    0.90570    1.000
    C167     C        0.62390    0.50910    0.88240    1.000
    C168     C        0.56140    0.48180    0.86901    1.000
    C169     C        0.50240    0.50340    0.87900    1.000
    C170     C        0.50600    0.55220    0.90230    1.000
    C171     C        0.57360    0.63640    0.93970    1.000
    C172     C        0.01430    0.60610    0.15000    1.000
    C173     C        0.18070    0.59050    0.15000    1.000
    C174     C        0.58130    0.19590    0.72940    1.000
    C175     C        0.59090    0.02290    0.73110    1.000
    C176     C        0.78700    0.63260    0.03080    1.000
    C177     C        0.82500    0.63100    0.05210    1.000
    C178     C        0.37770    0.61430    0.02780    1.000
    C179     C        0.34270    0.61050    0.04920    1.000
    C180     C        0.58730    0.87770    0.83560    1.000
    C181     C        0.58430    0.83370    0.85310    1.000
    C182     C        0.55480    0.43040    0.84450    1.000
    C183     C        0.55880    0.38840    0.82460    1.000
    C184     C        0.61490    0.96530    0.62528    1.000
    C185     C        0.55740    0.93040    0.61020    1.000
    C186     C        0.56370    0.88490    0.58640    1.000
    C187     C        0.62750    0.87430    0.57770    1.000
    C188     C        0.68500    0.90920    0.59280    1.000
    C189     C        0.67870    0.95470    0.61650    1.000
    C190     C        0.63780    0.63640    0.46246    1.000
    C191     C        0.57750    0.65790    0.47090    1.000
    C192     C        0.57840    0.70900    0.49310    1.000
    C193     C        0.63960    0.73860    0.50693    1.000
    C194     C        0.69990    0.71730    0.49850    1.000
    C195     C        0.69900    0.66620    0.47620    1.000
    C196     C        0.59740    0.22220    0.62336    1.000
    C197     C        0.65370    0.26890    0.62080    1.000
    C198     C        0.65750    0.30770    0.59640    1.000
    C199     C        0.60500    0.29980    0.57460    1.000
    C200     C        0.54860    0.25300    0.57710    1.000
    C201     C        0.54490    0.21430    0.60150    1.000
    C202     C        0.63310    0.51530    0.46072    1.000
    C203     C        0.69230    0.49990    0.47510    1.000
    C204     C        0.68930    0.45350    0.49680    1.000
    C205     C        0.62700    0.42260    0.50410    1.000
    C206     C        0.56780    0.43800    0.48970    1.000
    C207     C        0.57090    0.48430    0.46800    1.000
    C208     C        0.24830    0.57790    0.25497    1.000
    C209     C        0.26850    0.51510    0.26030    1.000
    C210     C        0.31540    0.50920    0.28360    1.000
    C211     C        0.34200    0.56600    0.30157    1.000
    C212     C        0.32180    0.62880    0.29620    1.000
    C213     C        0.27490    0.63470    0.27290    1.000
    C214     C        0.98020    0.58980    0.25731    1.000
    C215     C        0.95590    0.64830    0.26810    1.000
    C216     C        0.92040    0.64780    0.29350    1.000
    C217     C        0.90930    0.58870    0.30813    1.000
    C218     C        0.93360    0.53020    0.29740    1.000
    C219     C        0.96910    0.53070    0.27200    1.000
    C220     C        0.69840    0.57820    0.42031    1.000
    C221     C        0.72340    0.64000    0.41030    1.000
    C222     C        0.77130    0.64270    0.38920    1.000
    C223     C        0.79420    0.58340    0.37830    1.000
    C224     C        0.76920    0.52160    0.38830    1.000
    C225     C        0.72120    0.51900    0.40940    1.000
    C226     C        0.57960    0.56840    0.41567    1.000
    C227     C        0.55800    0.62740    0.40570    1.000
    C228     C        0.50910    0.62390    0.38240    1.000
    C229     C        0.48180    0.56140    0.36901    1.000
    C230     C        0.50340    0.50240    0.37900    1.000
    C231     C        0.55220    0.50600    0.40230    1.000
    C232     C        0.63640    0.57360    0.43970    1.000
    C233     C        0.60610    0.01430    0.65000    1.000
    C234     C        0.59050    0.18070    0.65000    1.000
    C235     C        0.19590    0.58130    0.22940    1.000
    C236     C        0.02290    0.59090    0.23110    1.000
    C237     C        0.63260    0.78700    0.53080    1.000
    C238     C        0.63100    0.82500    0.55210    1.000
    C239     C        0.61430    0.37770    0.52780    1.000
    C240     C        0.61050    0.34270    0.54920    1.000
    C241     C        0.87770    0.58730    0.33560    1.000
    C242     C        0.83370    0.58430    0.35310    1.000
    C243     C        0.43040    0.55480    0.34450    1.000
    C244     C        0.38840    0.55880    0.32460    1.000
    O17      O        0.01870    0.54730    0.15800    1.000
    O18      O        0.04730    0.66410    0.16090    1.000
    O19      O        0.18420    0.64880    0.16490    1.000
    O20      O        0.14870    0.53070    0.15270    1.000
    O21      O        0.52650    0.17030    0.71290    1.000
    O22      O        0.63960    0.17840    0.72530    1.000
    O23      O        0.53380    0.03720    0.71920    1.000
    O24      O        0.64920    0.04300    0.72210    1.000
    O25      O        0.54730    0.01870    0.65800    1.000
    O26      O        0.66410    0.04730    0.66090    1.000
    O27      O        0.64880    0.18420    0.66490    1.000
    O28      O        0.53070    0.14870    0.65270    1.000
    O29      O        0.17030    0.52650    0.21290    1.000
    O30      O        0.17840    0.63960    0.22530    1.000
    O31      O        0.03720    0.53380    0.21920    1.000
    O32      O        0.04300    0.64920    0.22210    1.000
