# CIF file generated by openbabel 3.1.0, see https://openbabel.org
data_I
_chemical_name_common 'image0'
_cell_length_a 9.3086
_cell_length_b 21.1829
_cell_length_c 21.456
_cell_angle_alpha 90
_cell_angle_beta 90
_cell_angle_gamma 90
_space_group_name_H-M_alt 'P 1'
_space_group_name_Hall 'P 1'
loop_
    _symmetry_equiv_pos_as_xyz
    x,y,z
loop_
    _atom_site_label
    _atom_site_type_symbol
    _atom_site_fract_x
    _atom_site_fract_y
    _atom_site_fract_z
    _atom_site_occupancy
    Zn1      Zn       0.92275    0.50286    0.14663    1.000
    C1       C        0.63660    0.54860    0.10220    1.000
    H1       H        0.60656    0.55974    0.14206    1.000
    C2       C        0.75590    0.51410    0.02580    1.000
    H2       H        0.82962    0.49534    0.00314    1.000
    C3       C        0.75090    0.56260    0.74910    1.000
    H3       H        0.81592    0.52969    0.75415    1.000
    C4       C        0.58230    0.62110    0.71810    1.000
    H4       H        0.50472    0.63557    0.69476    1.000
    C5       C        0.56060    0.71390    0.22740    1.000
    H5       H        0.53231    0.67424    0.21348    1.000
    C6       C        0.57860    0.79680    0.27550    1.000
    H6       H        0.56081    0.82838    0.30459    1.000
    C7       C        0.42930    0.58965    0.04120    1.000
    C8       C        0.40250    0.61810    0.98400    1.000
    H7       H        0.47154    0.61704    0.95268    1.000
    C9       C        0.27280    0.64780    0.97400    1.000
    H8       H        0.25518    0.66735    0.93589    1.000
    C10      C        0.16770    0.64900    0.02040    1.000
    C11      C        0.19760    0.62170    0.07740    1.000
    H9       H        0.12943    0.62323    0.10909    1.000
    C12      C        0.32720    0.59220    0.08790    1.000
    H10      H        0.34608    0.57392    0.12651    1.000
    C13      C        0.82910    0.63080    0.83780    1.000
    C14      C        0.82910    0.69300    0.85830    1.000
    H11      H        0.78398    0.72425    0.83506    1.000
    C15      C        0.89650    0.70760    0.91320    1.000
    H12      H        0.89398    0.74883    0.92814    1.000
    C16      C        0.96900    0.66100    0.94680    1.000
    C17      C        0.97320    0.59980    0.92410    1.000
    H13      H        0.02453    0.56895    0.94538    1.000
    C18      C        0.90170    0.58460    0.87030    1.000
    H14      H        0.90219    0.54328    0.85573    1.000
    C19      C        0.75830    0.73220    0.15080    1.000
    C20      C        0.90070    0.75040    0.15190    1.000
    H15      H        0.93681    0.77370    0.18510    1.000
    C21      C        0.98840    0.73340    0.10290    1.000
    H16      H        0.08321    0.74725    0.10255    1.000
    C22      C        0.93890    0.69623    0.05390    1.000
    C23      C        0.79330    0.68010    0.05340    1.000
    H17      H        0.75625    0.65662    0.02042    1.000
    C24      C        0.70410    0.69870    0.10140    1.000
    H18      H        0.60703    0.68839    0.10032    1.000
    C25      C        0.13530    0.45430    0.06090    1.000
    C26      C        0.09830    0.09940    0.26990    1.000
    C27      C        0.28370    0.42450    0.05580    1.000
    C28      C        0.37900    0.42750    0.10510    1.000
    H19      H        0.35133    0.44711    0.14200    1.000
    C29      C        0.51650    0.40140    0.10010    1.000
    H20      H        0.57923    0.40322    0.13382    1.000
    C30      C        0.55950    0.37270    0.04480    1.000
    C31      C        0.46520    0.37210    0.99480    1.000
    H21      H        0.49346    0.35442    0.95705    1.000
    C32      C        0.32790    0.39800    0.00080    1.000
    H22      H        0.26551    0.39711    0.96697    1.000
    C33      C        0.04450    0.14760    0.22410    1.000
    C34      C        0.14030    0.17990    0.18570    1.000
    H23      H        0.23826    0.17210    0.18933    1.000
    C35      C        0.09240    0.22320    0.14240    1.000
    H24      H        0.15868    0.24457    0.11777    1.000
    C36      C        0.94570    0.23550    0.13500    1.000
    C37      C        0.85100    0.20440    0.17470    1.000
    H25      H        0.75304    0.21230    0.17130    1.000
    C38      C        0.89900    0.16180    0.21910    1.000
    H26      H        0.83352    0.14257    0.24582    1.000
    C39      C        0.89360    0.27830    0.08480    1.000
    C40      C        0.97440    0.28720    0.03070    1.000
    H27      H        0.06499    0.26901    0.02754    1.000
    C41      C        0.92120    0.32300    0.98160    1.000
    H28      H        0.97544    0.32793    0.94554    1.000
    C42      C        0.78780    0.35120    0.98620    1.000
    H29      H        0.75324    0.37563    0.95345    1.000
    C43      C        0.70560    0.34340    0.03930    1.000
    C44      C        0.76020    0.30760    0.08810    1.000
    H30      H        0.70566    0.30298    0.12416    1.000
    N1       N        0.76060    0.52110    0.08810    1.000
    N2       N        0.56250    0.55773    0.04996    1.000
    N3       N        0.63790    0.53596    0.99974    1.000
    N4       N        0.64790    0.56457    0.70676    1.000
    N5       N        0.74780    0.61464    0.78323    1.000
    N6       N        0.63740    0.65332    0.76423    1.000
    N7       N        0.50220    0.74320    0.27500    1.000
    N8       N        0.66640    0.74810    0.20124    1.000
    N9       N        0.68100    0.80300    0.23250    1.000
    N10      N        0.03180    0.67610    0.00628    1.000
    O1       O        0.09280    0.46123    0.11715    1.000
    O2       O        0.07090    0.47045    0.01435    1.000
    O3       O        0.00350    0.07453    0.30556    1.000
    O4       O        0.22760    0.08516    0.27102    1.000
    Zn2      Zn       0.57725    0.49714    0.64663    1.000
    C45      C        0.86340    0.45140    0.60220    1.000
    H31      H        0.89344    0.44026    0.64206    1.000
    C46      C        0.74410    0.48590    0.52580    1.000
    H32      H        0.67038    0.50466    0.50314    1.000
    C47      C        0.74910    0.43740    0.24910    1.000
    H33      H        0.68408    0.47031    0.25415    1.000
    C48      C        0.91770    0.37890    0.21810    1.000
    H34      H        0.99528    0.36443    0.19476    1.000
    C49      C        0.93940    0.28610    0.72740    1.000
    H35      H        0.96769    0.32576    0.71348    1.000
    C50      C        0.92140    0.20320    0.77550    1.000
    H36      H        0.93919    0.17162    0.80459    1.000
    C51      C        0.07070    0.41035    0.54120    1.000
    C52      C        0.09750    0.38190    0.48400    1.000
    H37      H        0.02846    0.38296    0.45268    1.000
    C53      C        0.22720    0.35220    0.47400    1.000
    H38      H        0.24482    0.33265    0.43589    1.000
    C54      C        0.33230    0.35100    0.52040    1.000
    C55      C        0.30240    0.37830    0.57740    1.000
    H39      H        0.37057    0.37677    0.60909    1.000
    C56      C        0.17280    0.40780    0.58790    1.000
    H40      H        0.15392    0.42608    0.62651    1.000
    C57      C        0.67090    0.36920    0.33780    1.000
    C58      C        0.67090    0.30700    0.35830    1.000
    H41      H        0.71602    0.27575    0.33506    1.000
    C59      C        0.60350    0.29240    0.41320    1.000
    H42      H        0.60602    0.25117    0.42814    1.000
    C60      C        0.53100    0.33900    0.44680    1.000
    C61      C        0.52680    0.40020    0.42410    1.000
    H43      H        0.47547    0.43105    0.44538    1.000
    C62      C        0.59830    0.41540    0.37030    1.000
    H44      H        0.59781    0.45672    0.35573    1.000
    C63      C        0.74170    0.26780    0.65080    1.000
    C64      C        0.59930    0.24960    0.65190    1.000
    H45      H        0.56319    0.22630    0.68510    1.000
    C65      C        0.51160    0.26660    0.60290    1.000
    H46      H        0.41679    0.25275    0.60255    1.000
    C66      C        0.56110    0.30377    0.55390    1.000
    C67      C        0.70670    0.31990    0.55340    1.000
    H47      H        0.74375    0.34338    0.52042    1.000
    C68      C        0.79590    0.30130    0.60140    1.000
    H48      H        0.89297    0.31161    0.60032    1.000
    C69      C        0.36470    0.54570    0.56090    1.000
    C70      C        0.40170    0.90060    0.76990    1.000
    C71      C        0.21630    0.57550    0.55580    1.000
    C72      C        0.12100    0.57250    0.60510    1.000
    H49      H        0.14867    0.55289    0.64200    1.000
    C73      C        0.98350    0.59860    0.60010    1.000
    H50      H        0.92077    0.59678    0.63382    1.000
    C74      C        0.94050    0.62730    0.54480    1.000
    C75      C        0.03480    0.62790    0.49480    1.000
    H51      H        0.00654    0.64558    0.45705    1.000
    C76      C        0.17210    0.60200    0.50080    1.000
    H52      H        0.23449    0.60289    0.46697    1.000
    C77      C        0.45550    0.85240    0.72410    1.000
    C78      C        0.35970    0.82010    0.68570    1.000
    H53      H        0.26174    0.82790    0.68933    1.000
    C79      C        0.40760    0.77680    0.64240    1.000
    H54      H        0.34132    0.75543    0.61777    1.000
    C80      C        0.55430    0.76450    0.63500    1.000
    C81      C        0.64900    0.79560    0.67470    1.000
    H55      H        0.74696    0.78770    0.67130    1.000
    C82      C        0.60100    0.83820    0.71910    1.000
    H56      H        0.66648    0.85743    0.74582    1.000
    C83      C        0.60640    0.72170    0.58480    1.000
    C84      C        0.52560    0.71280    0.53070    1.000
    H57      H        0.43501    0.73099    0.52754    1.000
    C85      C        0.57880    0.67700    0.48160    1.000
    H58      H        0.52456    0.67207    0.44554    1.000
    C86      C        0.71220    0.64880    0.48620    1.000
    H59      H        0.74676    0.62437    0.45345    1.000
    C87      C        0.79440    0.65660    0.53930    1.000
    C88      C        0.73980    0.69240    0.58810    1.000
    H60      H        0.79434    0.69702    0.62416    1.000
    N11      N        0.73940    0.47890    0.58810    1.000
    N12      N        0.93750    0.44227    0.54996    1.000
    N13      N        0.86210    0.46404    0.49974    1.000
    N14      N        0.85210    0.43543    0.20676    1.000
    N15      N        0.75220    0.38536    0.28323    1.000
    N16      N        0.86260    0.34668    0.26423    1.000
    N17      N        0.99780    0.25680    0.77500    1.000
    N18      N        0.83360    0.25190    0.70124    1.000
    N19      N        0.81900    0.19700    0.73250    1.000
    N20      N        0.46820    0.32390    0.50628    1.000
    O5       O        0.40720    0.53877    0.61715    1.000
    O6       O        0.42910    0.52955    0.51435    1.000
    O7       O        0.49650    0.92547    0.80556    1.000
    O8       O        0.27240    0.91484    0.77102    1.000
    Zn3      Zn       0.07725    0.00286    0.35337    1.000
    C89      C        0.36340    0.04860    0.39780    1.000
    H61      H        0.39344    0.05974    0.35794    1.000
    C90      C        0.24410    0.01410    0.47420    1.000
    H62      H        0.17038    0.99534    0.49686    1.000
    C91      C        0.24910    0.06260    0.75090    1.000
    H63      H        0.18408    0.02969    0.74585    1.000
    C92      C        0.41770    0.12110    0.78190    1.000
    H64      H        0.49528    0.13557    0.80524    1.000
    C93      C        0.43940    0.21390    0.27260    1.000
    H65      H        0.46769    0.17424    0.28652    1.000
    C94      C        0.42140    0.29680    0.22450    1.000
    H66      H        0.43919    0.32838    0.19541    1.000
    C95      C        0.57070    0.08965    0.45880    1.000
    C96      C        0.59750    0.11810    0.51600    1.000
    H67      H        0.52846    0.11704    0.54732    1.000
    C97      C        0.72720    0.14780    0.52600    1.000
    H68      H        0.74482    0.16735    0.56411    1.000
    C98      C        0.83230    0.14900    0.47960    1.000
    C99      C        0.80240    0.12170    0.42260    1.000
    H69      H        0.87057    0.12323    0.39091    1.000
    C100     C        0.67280    0.09220    0.41210    1.000
    H70      H        0.65392    0.07392    0.37349    1.000
    C101     C        0.17090    0.13080    0.66220    1.000
    C102     C        0.17090    0.19300    0.64170    1.000
    H71      H        0.21602    0.22425    0.66494    1.000
    C103     C        0.10350    0.20760    0.58680    1.000
    H72      H        0.10602    0.24883    0.57186    1.000
    C104     C        0.03100    0.16100    0.55320    1.000
    C105     C        0.02680    0.09980    0.57590    1.000
    H73      H        0.97547    0.06895    0.55462    1.000
    C106     C        0.09830    0.08460    0.62970    1.000
    H74      H        0.09781    0.04328    0.64427    1.000
    C107     C        0.24170    0.23220    0.34920    1.000
    C108     C        0.09930    0.25040    0.34810    1.000
    H75      H        0.06319    0.27370    0.31490    1.000
    C109     C        0.01160    0.23340    0.39710    1.000
    H76      H        0.91679    0.24725    0.39745    1.000
    C110     C        0.06110    0.19623    0.44610    1.000
    C111     C        0.20670    0.18010    0.44660    1.000
    H77      H        0.24375    0.15662    0.47958    1.000
    C112     C        0.29590    0.19870    0.39860    1.000
    H78      H        0.39297    0.18839    0.39968    1.000
    C113     C        0.86470    0.95430    0.43910    1.000
    C114     C        0.90170    0.59940    0.23010    1.000
    C115     C        0.71630    0.92450    0.44420    1.000
    C116     C        0.62100    0.92750    0.39490    1.000
    H79      H        0.64867    0.94711    0.35800    1.000
    C117     C        0.48350    0.90140    0.39990    1.000
    H80      H        0.42077    0.90322    0.36618    1.000
    C118     C        0.44050    0.87270    0.45520    1.000
    C119     C        0.53480    0.87210    0.50520    1.000
    H81      H        0.50654    0.85442    0.54295    1.000
    C120     C        0.67210    0.89800    0.49920    1.000
    H82      H        0.73449    0.89711    0.53303    1.000
    C121     C        0.95550    0.64760    0.27590    1.000
    C122     C        0.85970    0.67990    0.31430    1.000
    H83      H        0.76174    0.67210    0.31067    1.000
    C123     C        0.90760    0.72320    0.35760    1.000
    H84      H        0.84132    0.74457    0.38223    1.000
    C124     C        0.05430    0.73550    0.36500    1.000
    C125     C        0.14900    0.70440    0.32530    1.000
    H85      H        0.24696    0.71230    0.32870    1.000
    C126     C        0.10100    0.66180    0.28090    1.000
    H86      H        0.16648    0.64257    0.25418    1.000
    C127     C        0.10640    0.77830    0.41520    1.000
    C128     C        0.02560    0.78720    0.46930    1.000
    H87      H        0.93501    0.76901    0.47246    1.000
    C129     C        0.07880    0.82300    0.51840    1.000
    H88      H        0.02456    0.82793    0.55446    1.000
    C130     C        0.21220    0.85120    0.51380    1.000
    H89      H        0.24676    0.87563    0.54655    1.000
    C131     C        0.29440    0.84340    0.46070    1.000
    C132     C        0.23980    0.80760    0.41190    1.000
    H90      H        0.29434    0.80298    0.37584    1.000
    N21      N        0.23940    0.02110    0.41190    1.000
    N22      N        0.43750    0.05773    0.45004    1.000
    N23      N        0.36210    0.03596    0.50026    1.000
    N24      N        0.35210    0.06457    0.79324    1.000
    N25      N        0.25220    0.11464    0.71677    1.000
    N26      N        0.36260    0.15332    0.73577    1.000
    N27      N        0.49780    0.24320    0.22500    1.000
    N28      N        0.33360    0.24810    0.29876    1.000
    N29      N        0.31900    0.30300    0.26750    1.000
    N30      N        0.96820    0.17610    0.49372    1.000
    O9       O        0.90720    0.96123    0.38285    1.000
    O10      O        0.92910    0.97045    0.48565    1.000
    O11      O        0.99650    0.57453    0.19444    1.000
    O12      O        0.77240    0.58516    0.22898    1.000
    Zn4      Zn       0.42275    0.99714    0.85337    1.000
    C133     C        0.13660    0.95140    0.89780    1.000
    H91      H        0.10656    0.94026    0.85794    1.000
    C134     C        0.25590    0.98590    0.97420    1.000
    H92      H        0.32962    0.00466    0.99686    1.000
    C135     C        0.25090    0.93740    0.25090    1.000
    H93      H        0.31592    0.97031    0.24585    1.000
    C136     C        0.08230    0.87890    0.28190    1.000
    H94      H        0.00472    0.86443    0.30524    1.000
    C137     C        0.06060    0.78610    0.77260    1.000
    H95      H        0.03231    0.82576    0.78652    1.000
    C138     C        0.07860    0.70320    0.72450    1.000
    H96      H        0.06081    0.67162    0.69541    1.000
    C139     C        0.92930    0.91035    0.95880    1.000
    C140     C        0.90250    0.88190    0.01600    1.000
    H97      H        0.97154    0.88296    0.04732    1.000
    C141     C        0.77280    0.85220    0.02600    1.000
    H98      H        0.75518    0.83265    0.06411    1.000
    C142     C        0.66770    0.85100    0.97960    1.000
    C143     C        0.69760    0.87830    0.92260    1.000
    H99      H        0.62943    0.87677    0.89091    1.000
    C144     C        0.82720    0.90780    0.91210    1.000
    H100     H        0.84608    0.92608    0.87349    1.000
    C145     C        0.32910    0.86920    0.16220    1.000
    C146     C        0.32910    0.80700    0.14170    1.000
    H101     H        0.28398    0.77575    0.16494    1.000
    C147     C        0.39650    0.79240    0.08680    1.000
    H102     H        0.39398    0.75117    0.07186    1.000
    C148     C        0.46900    0.83900    0.05320    1.000
    C149     C        0.47320    0.90020    0.07590    1.000
    H103     H        0.52453    0.93105    0.05462    1.000
    C150     C        0.40170    0.91540    0.12970    1.000
    H104     H        0.40219    0.95672    0.14427    1.000
    C151     C        0.25830    0.76780    0.84920    1.000
    C152     C        0.40070    0.74960    0.84810    1.000
    H105     H        0.43681    0.72630    0.81490    1.000
    C153     C        0.48840    0.76660    0.89710    1.000
    H106     H        0.58321    0.75275    0.89745    1.000
    C154     C        0.43890    0.80377    0.94610    1.000
    C155     C        0.29330    0.81990    0.94660    1.000
    H107     H        0.25625    0.84338    0.97958    1.000
    C156     C        0.20410    0.80130    0.89860    1.000
    H108     H        0.10703    0.81161    0.89968    1.000
    C157     C        0.63530    0.04570    0.93910    1.000
    C158     C        0.59830    0.40060    0.73010    1.000
    C159     C        0.78370    0.07550    0.94420    1.000
    C160     C        0.87900    0.07250    0.89490    1.000
    H109     H        0.85133    0.05289    0.85800    1.000
    C161     C        0.01650    0.09860    0.89990    1.000
    H110     H        0.07923    0.09678    0.86618    1.000
    C162     C        0.05950    0.12730    0.95520    1.000
    C163     C        0.96520    0.12790    0.00520    1.000
    H111     H        0.99346    0.14558    0.04295    1.000
    C164     C        0.82790    0.10200    0.99920    1.000
    H112     H        0.76551    0.10289    0.03303    1.000
    C165     C        0.54450    0.35240    0.77590    1.000
    C166     C        0.64030    0.32010    0.81430    1.000
    H113     H        0.73826    0.32790    0.81067    1.000
    C167     C        0.59240    0.27680    0.85760    1.000
    H114     H        0.65868    0.25543    0.88223    1.000
    C168     C        0.44570    0.26450    0.86500    1.000
    C169     C        0.35100    0.29560    0.82530    1.000
    H115     H        0.25304    0.28770    0.82870    1.000
    C170     C        0.39900    0.33820    0.78090    1.000
    H116     H        0.33352    0.35743    0.75418    1.000
    C171     C        0.39360    0.22170    0.91520    1.000
    C172     C        0.47440    0.21280    0.96930    1.000
    H117     H        0.56499    0.23099    0.97246    1.000
    C173     C        0.42120    0.17700    0.01840    1.000
    H118     H        0.47544    0.17207    0.05446    1.000
    C174     C        0.28780    0.14880    0.01380    1.000
    H119     H        0.25324    0.12437    0.04655    1.000
    C175     C        0.20560    0.15660    0.96070    1.000
    C176     C        0.26020    0.19240    0.91190    1.000
    H120     H        0.20566    0.19702    0.87584    1.000
    N31      N        0.26060    0.97890    0.91190    1.000
    N32      N        0.06250    0.94227    0.95004    1.000
    N33      N        0.13790    0.96404    0.00026    1.000
    N34      N        0.14790    0.93543    0.29324    1.000
    N35      N        0.24780    0.88536    0.21677    1.000
    N36      N        0.13740    0.84668    0.23577    1.000
    N37      N        0.00220    0.75680    0.72500    1.000
    N38      N        0.16640    0.75190    0.79876    1.000
    N39      N        0.18100    0.69700    0.76750    1.000
    N40      N        0.53180    0.82390    0.99372    1.000
    O13      O        0.59280    0.03877    0.88285    1.000
    O14      O        0.57090    0.02955    0.98565    1.000
    O15      O        0.50350    0.42547    0.69444    1.000
    O16      O        0.72760    0.41484    0.72898    1.000
