# CIF file generated by openbabel 3.1.0, see https://openbabel.org
data_I
_chemical_name_common 'image0'
_cell_length_a 14.4225
_cell_length_b 14.2601
_cell_length_c 22.5106
_cell_angle_alpha 90
_cell_angle_beta 100.154
_cell_angle_gamma 90
_space_group_name_H-M_alt 'P 1'
_space_group_name_Hall 'P 1'
loop_
    _symmetry_equiv_pos_as_xyz
    x,y,z
loop_
    _atom_site_label
    _atom_site_type_symbol
    _atom_site_fract_x
    _atom_site_fract_y
    _atom_site_fract_z
    _atom_site_occupancy
    Cd1      Cd       0.25605    0.75113    0.24017    1.000
    Cd2      Cd       0.18455    0.62409    0.36043    1.000
    O1       O        0.09760    0.60330    0.26800    1.000
    O2       O        0.31550    0.65250    0.31690    1.000
    O3       O        0.61690    0.36060    0.24870    1.000
    O4       O        0.84760    0.35790    0.23790    1.000
    O5       O        0.69390    0.32140    0.33910    1.000
    O6       O        0.37550    0.61820    0.23630    1.000
    O7       O        0.82150    0.28320    0.15050    1.000
    N1       N        0.52350    0.47100    0.48800    1.000
    N2       N        0.97210    0.47350    0.00970    1.000
    C1       C        0.62970    0.36600    0.30550    1.000
    C2       C        0.03220    0.54260    0.17270    1.000
    C3       C        0.43940    0.53980    0.32750    1.000
    C4       C        0.51200    0.47950    0.42360    1.000
    C5       C        0.49910    0.48410    0.29970    1.000
    H1       H        0.49420    0.48540    0.25800    1.000
    C6       C        0.57230    0.42510    0.39670    1.000
    H2       H        0.61710    0.38730    0.42020    1.000
    C7       C        0.44490    0.53670    0.38950    1.000
    H3       H        0.40420    0.57240    0.40810    1.000
    C8       C        0.97570    0.47950    0.07350    1.000
    C9       C        0.91930    0.41700    0.09750    1.000
    H4       H        0.88180    0.37480    0.07250    1.000
    C10      C        0.56550    0.42730    0.33390    1.000
    C11      C        0.97480    0.48000    0.19660    1.000
    H5       H        0.97400    0.48020    0.23780    1.000
    C12      C        0.03220    0.54280    0.11110    1.000
    H6       H        0.07000    0.58510    0.09480    1.000
    C13      C        0.09760    0.60870    0.21270    1.000
    C14      C        0.91860    0.41720    0.15930    1.000
    C15      C        0.37270    0.60530    0.28980    1.000
    C16      C        0.85820    0.34680    0.18420    1.000
    O8       O        0.14620    0.66230    0.18760    1.000
    Cd3      Cd       0.74395    0.25113    0.25983    1.000
    Cd4      Cd       0.81545    0.12409    0.13957    1.000
    O9       O        0.90240    0.10330    0.23200    1.000
    O10      O        0.68450    0.15250    0.18310    1.000
    O11      O        0.38310    0.86060    0.25130    1.000
    O12      O        0.15240    0.85790    0.26210    1.000
    O13      O        0.30610    0.82140    0.16090    1.000
    O14      O        0.62450    0.11820    0.26370    1.000
    O15      O        0.17850    0.78320    0.34950    1.000
    N3       N        0.47650    0.97100    0.01200    1.000
    N4       N        0.02790    0.97350    0.49030    1.000
    C17      C        0.37030    0.86600    0.19450    1.000
    C18      C        0.96780    0.04260    0.32730    1.000
    C19      C        0.56060    0.03980    0.17250    1.000
    C20      C        0.48800    0.97950    0.07640    1.000
    C21      C        0.50090    0.98410    0.20030    1.000
    H7       H        0.50580    0.98540    0.24200    1.000
    C22      C        0.42770    0.92510    0.10330    1.000
    H8       H        0.38290    0.88730    0.07980    1.000
    C23      C        0.55510    0.03670    0.11050    1.000
    H9       H        0.59580    0.07240    0.09190    1.000
    C24      C        0.02430    0.97950    0.42650    1.000
    C25      C        0.08070    0.91700    0.40250    1.000
    H10      H        0.11820    0.87480    0.42750    1.000
    C26      C        0.43450    0.92730    0.16610    1.000
    C27      C        0.02520    0.98000    0.30340    1.000
    H11      H        0.02600    0.98020    0.26220    1.000
    C28      C        0.96780    0.04280    0.38890    1.000
    H12      H        0.93000    0.08510    0.40520    1.000
    C29      C        0.90240    0.10870    0.28730    1.000
    C30      C        0.08140    0.91720    0.34070    1.000
    C31      C        0.62730    0.10530    0.21020    1.000
    C32      C        0.14180    0.84680    0.31580    1.000
    O16      O        0.85380    0.16230    0.31240    1.000
    Cd5      Cd       0.74395    0.24887    0.75983    1.000
    Cd6      Cd       0.81545    0.37591    0.63957    1.000
    O17      O        0.90240    0.39670    0.73200    1.000
    O18      O        0.68450    0.34750    0.68310    1.000
    O19      O        0.38310    0.63940    0.75130    1.000
    O20      O        0.15240    0.64210    0.76210    1.000
    O21      O        0.30610    0.67860    0.66090    1.000
    O22      O        0.62450    0.38180    0.76370    1.000
    O23      O        0.17850    0.71680    0.84950    1.000
    N5       N        0.47650    0.52900    0.51200    1.000
    N6       N        0.02790    0.52650    0.99030    1.000
    C33      C        0.37030    0.63400    0.69450    1.000
    C34      C        0.96780    0.45740    0.82730    1.000
    C35      C        0.56060    0.46020    0.67250    1.000
    C36      C        0.48800    0.52050    0.57640    1.000
    C37      C        0.50090    0.51590    0.70030    1.000
    H13      H        0.50580    0.51460    0.74200    1.000
    C38      C        0.42770    0.57490    0.60330    1.000
    H14      H        0.38290    0.61270    0.57980    1.000
    C39      C        0.55510    0.46330    0.61050    1.000
    H15      H        0.59580    0.42760    0.59190    1.000
    C40      C        0.02430    0.52050    0.92650    1.000
    C41      C        0.08070    0.58300    0.90250    1.000
    H16      H        0.11820    0.62520    0.92750    1.000
    C42      C        0.43450    0.57270    0.66610    1.000
    C43      C        0.02520    0.52000    0.80340    1.000
    H17      H        0.02600    0.51980    0.76220    1.000
    C44      C        0.96780    0.45720    0.88890    1.000
    H18      H        0.93000    0.41490    0.90520    1.000
    C45      C        0.90240    0.39130    0.78730    1.000
    C46      C        0.08140    0.58280    0.84070    1.000
    C47      C        0.62730    0.39470    0.71020    1.000
    C48      C        0.14180    0.65320    0.81580    1.000
    O24      O        0.85380    0.33770    0.81240    1.000
    Cd7      Cd       0.25605    0.74887    0.74017    1.000
    Cd8      Cd       0.18455    0.87591    0.86043    1.000
    O25      O        0.09760    0.89670    0.76800    1.000
    O26      O        0.31550    0.84750    0.81690    1.000
    O27      O        0.61690    0.13940    0.74870    1.000
    O28      O        0.84760    0.14210    0.73790    1.000
    O29      O        0.69390    0.17860    0.83910    1.000
    O30      O        0.37550    0.88180    0.73630    1.000
    O31      O        0.82150    0.21680    0.65050    1.000
    N7       N        0.52350    0.02900    0.98800    1.000
    N8       N        0.97210    0.02650    0.50970    1.000
    C49      C        0.62970    0.13400    0.80550    1.000
    C50      C        0.03220    0.95740    0.67270    1.000
    C51      C        0.43940    0.96020    0.82750    1.000
    C52      C        0.51200    0.02050    0.92360    1.000
    C53      C        0.49910    0.01590    0.79970    1.000
    H19      H        0.49420    0.01460    0.75800    1.000
    C54      C        0.57230    0.07490    0.89670    1.000
    H20      H        0.61710    0.11270    0.92020    1.000
    C55      C        0.44490    0.96330    0.88950    1.000
    H21      H        0.40420    0.92760    0.90810    1.000
    C56      C        0.97570    0.02050    0.57350    1.000
    C57      C        0.91930    0.08300    0.59750    1.000
    H22      H        0.88180    0.12520    0.57250    1.000
    C58      C        0.56550    0.07270    0.83390    1.000
    C59      C        0.97480    0.02000    0.69660    1.000
    H23      H        0.97400    0.01980    0.73780    1.000
    C60      C        0.03220    0.95720    0.61110    1.000
    H24      H        0.07000    0.91490    0.59480    1.000
    C61      C        0.09760    0.89130    0.71270    1.000
    C62      C        0.91860    0.08280    0.65930    1.000
    C63      C        0.37270    0.89470    0.78980    1.000
    C64      C        0.85820    0.15320    0.68420    1.000
    O32      O        0.14620    0.83770    0.68760    1.000
