data_functionalizedCrystal
_audit_creation_method	'EQeq! by Chris Wilmer'
_symmetry_space_group_name_H-M	'P1'
_symmetry_Int_Tables_number	1
_symmetry_cell_setting	triclinic
loop_
_symmetry_equiv_pos_as_xyz
  x,y,z
_cell_length_a	9.1602
_cell_length_b	9.1602
_cell_length_c	14.894
_cell_angle_alpha	80.0126
_cell_angle_beta	80.0123
_cell_angle_gamma	115.85
loop_
_atom_site_label
_atom_site_type_symbol
_atom_site_fract_x
_atom_site_fract_y
_atom_site_fract_z
_atom_site_charge
Mof_Ce	Ce	0.9905	0.2405	0.019	2.383
Mof_Ce	Ce	0.7595	0.0095	0.481	2.428
Mof_Ce	Ce	0.0095	0.7595	0.981	2.383
Mof_Ce	Ce	0.2405	0.9905	0.519	2.428
Mof_H 	H 	0.563	0.6592	0.0314	0.076
Mof_H 	H 	0.5235	0.6395	0.1404	0.072
Mof_H 	H 	0.4056	0.8094	0.0314	0.075
Mof_H 	H 	0.3361	0.7201	0.1404	0.068
Mof_H 	H 	0.3408	0.437	0.4686	0.076
Mof_H 	H 	0.3605	0.4765	0.3596	0.072
Mof_H 	H 	0.1906	0.5944	0.4686	0.072
Mof_H 	H 	0.2799	0.6639	0.3596	0.068
Mof_H 	H 	0.437	0.3408	0.9686	0.077
Mof_H 	H 	0.4765	0.3605	0.8596	0.073
Mof_H 	H 	0.5944	0.1906	0.9686	0.075
Mof_H 	H 	0.6639	0.2799	0.8596	0.068
Mof_H 	H 	0.6592	0.563	0.5314	0.076
Mof_H 	H 	0.6395	0.5235	0.6404	0.072
Mof_H 	H 	0.8094	0.4056	0.5314	0.072
Mof_H 	H 	0.7201	0.3361	0.6404	0.068
Mof_C 	C 	0.69151	0.87651	0.06238	0.47
Mof_C 	C 	0.5392	0.7112	0.0794	-0.253
Mof_C 	C 	0.24611	0.56111	0.06238	0.449
Mof_C 	C 	0.3814	0.7094	0.0794	-0.234
Mof_C 	C 	0.12349	0.30849	0.43762	0.467
Mof_C 	C 	0.2888	0.4608	0.4206	-0.25
Mof_C 	C 	0.43889	0.75389	0.43762	0.452
Mof_C 	C 	0.2906	0.6186	0.4206	-0.236
Mof_C 	C 	0.30849	0.12349	0.93762	0.47
Mof_C 	C 	0.4608	0.2888	0.9206	-0.253
Mof_C 	C 	0.75389	0.43889	0.93762	0.449
Mof_C 	C 	0.6186	0.2906	0.9206	-0.234
Mof_C 	C 	0.87651	0.69151	0.56238	0.467
Mof_C 	C 	0.7112	0.5392	0.5794	-0.25
Mof_C 	C 	0.56111	0.24611	0.56238	0.452
Mof_C 	C 	0.7094	0.3814	0.5794	-0.236
Mof_C 	C 	0.9249	0.0751	0.25	0.285
Mof_C 	C 	0.8251	0.1749	0.25	0.281
Mof_C 	C 	0.0751	0.9249	0.75	0.285
Mof_C 	C 	0.1749	0.8251	0.75	0.281
Mof_O 	O 	0.98966	0.0676	0.17094	-0.5
Mof_O 	O 	0.83335	0.88737	0.03288	-0.687
Mof_O 	O 	0.67918	0.00102	0.0798	-0.531
Mof_O 	O 	0.8394	0.26146	0.17094	-0.488
Mof_O 	O 	0.13377	0.57975	0.03288	-0.682
Mof_O 	O 	0.24102	0.41918	0.0798	-0.508
Mof_O 	O 	0.9324	0.01034	0.32906	-0.501
Mof_O 	O 	0.11263	0.16665	0.46712	-0.694
Mof_O 	O 	0.99898	0.32082	0.4202	-0.529
Mof_O 	O 	0.73854	0.1606	0.32906	-0.49
Mof_O 	O 	0.42025	0.86623	0.46712	-0.697
Mof_O 	O 	0.58082	0.75898	0.4202	-0.515
Mof_O 	O 	0.01034	0.9324	0.82906	-0.5
Mof_O 	O 	0.16665	0.11263	0.96712	-0.687
Mof_O 	O 	0.32082	0.99898	0.9202	-0.531
Mof_O 	O 	0.1606	0.73854	0.82906	-0.488
Mof_O 	O 	0.86623	0.42025	0.96712	-0.682
Mof_O 	O 	0.75898	0.58082	0.9202	-0.508
Mof_O 	O 	0.0676	0.98966	0.67094	-0.501
Mof_O 	O 	0.88737	0.83335	0.53288	-0.694
Mof_O 	O 	0.00102	0.67918	0.5798	-0.529
Mof_O 	O 	0.26146	0.8394	0.67094	-0.49
Mof_O 	O 	0.57975	0.13377	0.53288	-0.697
Mof_O 	O 	0.41918	0.24102	0.5798	-0.515
_end
