data_functionalizedCrystal
_audit_creation_method	'EQeq! by Chris Wilmer'
_symmetry_space_group_name_H-M	'P1'
_symmetry_Int_Tables_number	1
_symmetry_cell_setting	triclinic
loop_
_symmetry_equiv_pos_as_xyz
  x,y,z
_cell_length_a	9.0752
_cell_length_b	9.0752
_cell_length_c	27.014
_cell_angle_alpha	90
_cell_angle_beta	90
_cell_angle_gamma	90
loop_
_atom_site_label
_atom_site_type_symbol
_atom_site_fract_x
_atom_site_fract_y
_atom_site_fract_z
_atom_site_charge
Mof_Cd	Cd	0.18155	0.6233	0.37496	0.3
Mof_Cd	Cd	0.81845	0.3767	0.87496	0.3
Mof_Cd	Cd	0.3767	0.18155	0.62496	0.3
Mof_Cd	Cd	0.6233	0.81845	0.12496	0.301
Mof_H 	H 	0.415	0.1862	0.2435	0.142
Mof_H 	H 	0.7072	0.4787	0.2966	0.129
Mof_H 	H 	0.6601	0.0826	0.3621	0.133
Mof_H 	H 	0.3645	0.9678	0.3748	-0.01
Mof_H 	H 	0.3461	0.677	0.2691	0.03
Mof_H 	H 	0.4926	0.8807	0.2384	0.028
Mof_H 	H 	0.6924	0.5856	0.2202	-0.013
Mof_H 	H 	0.3266	0.5943	0.145	0.031
Mof_H 	H 	0.3108	0.3852	0.203	0.023
Mof_H 	H 	0.8348	0.5396	0.3653	-0.012
Mof_H 	H 	0.0995	0.2546	0.4284	0.033
Mof_H 	H 	0.9003	0.1177	0.3891	0.017
Mof_H 	H 	0.585	0.8138	0.7435	0.142
Mof_H 	H 	0.2928	0.5213	0.7966	0.129
Mof_H 	H 	0.3399	0.9174	0.8621	0.133
Mof_H 	H 	0.6355	0.0322	0.8748	-0.011
Mof_H 	H 	0.6539	0.323	0.7691	0.03
Mof_H 	H 	0.5074	0.1193	0.7384	0.028
Mof_H 	H 	0.3076	0.4144	0.7202	-0.013
Mof_H 	H 	0.6734	0.4057	0.645	0.031
Mof_H 	H 	0.6892	0.6148	0.703	0.023
Mof_H 	H 	0.1652	0.4604	0.8653	-0.012
Mof_H 	H 	0.9005	0.7454	0.9284	0.032
Mof_H 	H 	0.0997	0.8823	0.8891	0.017
Mof_H 	H 	0.8138	0.415	0.4935	0.142
Mof_H 	H 	0.5213	0.7072	0.5466	0.129
Mof_H 	H 	0.9174	0.6601	0.6121	0.133
Mof_H 	H 	0.0322	0.3645	0.6248	-0.01
Mof_H 	H 	0.323	0.3461	0.5191	0.03
Mof_H 	H 	0.1193	0.4926	0.4884	0.028
Mof_H 	H 	0.4144	0.6924	0.4702	-0.013
Mof_H 	H 	0.4057	0.3266	0.395	0.031
Mof_H 	H 	0.6148	0.3108	0.453	0.023
Mof_H 	H 	0.4604	0.8348	0.6153	-0.012
Mof_H 	H 	0.7454	0.0995	0.6784	0.033
Mof_H 	H 	0.8823	0.9003	0.6391	0.017
Mof_H 	H 	0.1862	0.585	0.9935	0.137
Mof_H 	H 	0.4787	0.2928	0.0466	0.13
Mof_H 	H 	0.0826	0.3399	0.1121	0.132
Mof_H 	H 	0.9678	0.6355	0.1248	-0.01
Mof_H 	H 	0.677	0.6539	0.0191	0.033
Mof_H 	H 	0.8807	0.5074	0.9884	0.022
Mof_H 	H 	0.5856	0.3076	0.9702	-0.014
Mof_H 	H 	0.5943	0.6734	0.895	0.03
Mof_H 	H 	0.3852	0.6892	0.953	0.023
Mof_H 	H 	0.5396	0.1652	0.1153	-0.012
Mof_H 	H 	0.2546	0.9005	0.1784	0.033
Mof_H 	H 	0.1177	0.0997	0.1391	0.017
Mof_C 	C 	0.5263	0.1158	0.3034	0.231
Mof_C 	C 	0.4871	0.2117	0.2664	-0.297
Mof_C 	C 	0.5564	0.3461	0.2638	0.227
Mof_C 	C 	0.6638	0.3859	0.29787	-0.283
Mof_C 	C 	0.7055	0.2842	0.33409	0.228
Mof_C 	C 	0.6349	0.1494	0.3374	-0.292
Mof_C 	C 	0.3777	0.9201	0.3447	0.101
Mof_C 	C 	0.3684	0.7619	0.2868	-0.005
Mof_C 	C 	0.449	0.8738	0.2695	0.01
Mof_C 	C 	0.5993	0.5616	0.2083	0.103
Mof_C 	C 	0.3993	0.5659	0.1672	-0.005
Mof_C 	C 	0.3895	0.4501	0.1996	0.013
Mof_C 	C 	0.877	0.452	0.3762	0.098
Mof_C 	C 	0.0212	0.2955	0.4109	-0.02
Mof_C 	C 	0.9121	0.2195	0.3888	0.015
Mof_C 	C 	0.4737	0.8842	0.8034	0.231
Mof_C 	C 	0.5129	0.7883	0.7664	-0.297
Mof_C 	C 	0.4436	0.6539	0.7638	0.227
Mof_C 	C 	0.3362	0.6141	0.79787	-0.283
Mof_C 	C 	0.2945	0.7158	0.83409	0.228
Mof_C 	C 	0.3651	0.8506	0.8374	-0.292
Mof_C 	C 	0.6223	0.0799	0.8447	0.101
Mof_C 	C 	0.6316	0.2381	0.7868	-0.005
Mof_C 	C 	0.551	0.1262	0.7695	0.01
Mof_C 	C 	0.4007	0.4384	0.7083	0.103
Mof_C 	C 	0.6007	0.4341	0.6672	-0.005
Mof_C 	C 	0.6105	0.5499	0.6996	0.013
Mof_C 	C 	0.123	0.548	0.8762	0.098
Mof_C 	C 	0.9788	0.7045	0.9109	-0.02
Mof_C 	C 	0.0879	0.7805	0.8888	0.015
Mof_C 	C 	0.8842	0.5263	0.5534	0.231
Mof_C 	C 	0.7883	0.4871	0.5164	-0.297
Mof_C 	C 	0.6539	0.5564	0.5138	0.227
Mof_C 	C 	0.6141	0.6638	0.54787	-0.283
Mof_C 	C 	0.7158	0.7055	0.58409	0.228
Mof_C 	C 	0.8506	0.6349	0.5874	-0.292
Mof_C 	C 	0.0799	0.3777	0.5947	0.101
Mof_C 	C 	0.2381	0.3684	0.5368	-0.005
Mof_C 	C 	0.1262	0.449	0.5195	0.01
Mof_C 	C 	0.4384	0.5993	0.4583	0.103
Mof_C 	C 	0.4341	0.3993	0.4172	-0.005
Mof_C 	C 	0.5499	0.3895	0.4496	0.013
Mof_C 	C 	0.548	0.877	0.6262	0.098
Mof_C 	C 	0.7045	0.0212	0.6609	-0.02
Mof_C 	C 	0.7805	0.9121	0.6388	0.015
Mof_C 	C 	0.1158	0.4737	0.0534	0.229
Mof_C 	C 	0.2117	0.5129	0.0164	-0.29
Mof_C 	C 	0.3461	0.4436	0.0138	0.228
Mof_C 	C 	0.3859	0.3362	0.04787	-0.282
Mof_C 	C 	0.2842	0.2945	0.08409	0.227
Mof_C 	C 	0.1494	0.3651	0.0874	-0.291
Mof_C 	C 	0.9201	0.6223	0.0947	0.101
Mof_C 	C 	0.7619	0.6316	0.0368	-0.01
Mof_C 	C 	0.8738	0.551	0.0195	0.02
Mof_C 	C 	0.5616	0.4007	0.9583	0.103
Mof_C 	C 	0.5659	0.6007	0.9172	-0.005
Mof_C 	C 	0.4501	0.6105	0.9496	0.012
Mof_C 	C 	0.452	0.123	0.1262	0.098
Mof_C 	C 	0.2955	0.9788	0.1609	-0.019
Mof_C 	C 	0.2195	0.0879	0.1388	0.015
Mof_N 	N 	0.3235	0.7895	0.33397	-0.156
Mof_N 	N 	0.4545	0.9759	0.30647	-0.165
Mof_N 	N 	0.5327	0.6329	0.17289	-0.153
Mof_N 	N 	0.5171	0.4487	0.22569	-0.164
Mof_N 	N 	0.9973	0.4465	0.40325	-0.148
Mof_N 	N 	0.8214	0.3193	0.36595	-0.169
Mof_N 	N 	0.6765	0.2105	0.83397	-0.156
Mof_N 	N 	0.5455	0.0241	0.80647	-0.165
Mof_N 	N 	0.4673	0.3671	0.67289	-0.153
Mof_N 	N 	0.4829	0.5513	0.72569	-0.164
Mof_N 	N 	0.0027	0.5535	0.90325	-0.148
Mof_N 	N 	0.1786	0.6807	0.86595	-0.169
Mof_N 	N 	0.2105	0.3235	0.58397	-0.156
Mof_N 	N 	0.0241	0.4545	0.55647	-0.165
Mof_N 	N 	0.3671	0.5327	0.42289	-0.153
Mof_N 	N 	0.5513	0.5171	0.47569	-0.164
Mof_N 	N 	0.5535	0.9973	0.65325	-0.148
Mof_N 	N 	0.6807	0.8214	0.61595	-0.169
Mof_N 	N 	0.7895	0.6765	0.08397	-0.155
Mof_N 	N 	0.9759	0.5455	0.05647	-0.166
Mof_N 	N 	0.6329	0.4673	0.92289	-0.153
Mof_N 	N 	0.4487	0.4829	0.97569	-0.166
Mof_N 	N 	0.4465	0.0027	0.15325	-0.148
Mof_N 	N 	0.3193	0.1786	0.11595	-0.168
_end
