# CIF file generated by openbabel 3.1.0, see https://openbabel.org
data_I
_chemical_name_common 'NEDJAJ_clean'
_cell_length_a 17.0627
_cell_length_b 18.8861
_cell_length_c 31.6438
_cell_angle_alpha 90
_cell_angle_beta 90
_cell_angle_gamma 90
_space_group_name_H-M_alt 'P 1'
_space_group_name_Hall 'P 1'
loop_
    _symmetry_equiv_pos_as_xyz
    x,y,z
loop_
    _atom_site_label
    _atom_site_type_symbol
    _atom_site_fract_x
    _atom_site_fract_y
    _atom_site_fract_z
    _atom_site_occupancy
    Cs1      Cs       0.56131    0.60049    0.81380    1.000
    Cs2      Cs       0.43869    0.89951    0.31380    1.000
    Cs3      Cs       0.06131    0.39951    0.68620    1.000
    Cs4      Cs       0.93869    0.10049    0.18620    1.000
    Cs5      Cs       0.43869    0.39951    0.18620    1.000
    Cs6      Cs       0.56131    0.10049    0.68620    1.000
    Cs7      Cs       0.93869    0.60049    0.31380    1.000
    Cs8      Cs       0.06131    0.89951    0.81380    1.000
    K1       K        0.86090    0.28067    0.77894    1.000
    K2       K        0.13910    0.21933    0.27894    1.000
    K3       K        0.36090    0.71933    0.72106    1.000
    K4       K        0.63910    0.78067    0.22106    1.000
    K5       K        0.13910    0.71933    0.22106    1.000
    K6       K        0.86090    0.78067    0.72106    1.000
    K7       K        0.63910    0.28067    0.27894    1.000
    K8       K        0.36090    0.21933    0.77894    1.000
    Mo1      Mo       0.73714    0.44847    0.79974    1.000
    Mo2      Mo       0.91811    0.47627    0.78001    1.000
    Mo3      Mo       0.92545    0.58494    0.67978    1.000
    Mo4      Mo       0.86979    0.72198    0.60654    1.000
    Mo5      Mo       0.87718    0.81654    0.50133    1.000
    Mo6      Mo       0.61079    0.69832    0.92951    1.000
    Mo7      Mo       0.26286    0.05153    0.29974    1.000
    Mo8      Mo       0.08189    0.02373    0.28001    1.000
    Mo9      Mo       0.07456    0.91506    0.17978    1.000
    Mo10     Mo       0.13021    0.77802    0.10654    1.000
    Mo11     Mo       0.12282    0.68346    0.00133    1.000
    Mo12     Mo       0.38921    0.80168    0.42951    1.000
    Mo13     Mo       0.23714    0.55153    0.70026    1.000
    Mo14     Mo       0.41811    0.52373    0.71999    1.000
    Mo15     Mo       0.42544    0.41506    0.82022    1.000
    Mo16     Mo       0.36979    0.27802    0.89346    1.000
    Mo17     Mo       0.37718    0.18346    0.99867    1.000
    Mo18     Mo       0.11079    0.30168    0.57049    1.000
    Mo19     Mo       0.76286    0.94847    0.20026    1.000
    Mo20     Mo       0.58189    0.97627    0.21999    1.000
    Mo21     Mo       0.57455    0.08494    0.32022    1.000
    Mo22     Mo       0.63021    0.22198    0.39346    1.000
    Mo23     Mo       0.62282    0.31654    0.49867    1.000
    Mo24     Mo       0.88921    0.19832    0.07049    1.000
    Mo25     Mo       0.26286    0.55153    0.20026    1.000
    Mo26     Mo       0.08189    0.52373    0.21999    1.000
    Mo27     Mo       0.07456    0.41506    0.32022    1.000
    Mo28     Mo       0.13021    0.27802    0.39346    1.000
    Mo29     Mo       0.12282    0.18346    0.49867    1.000
    Mo30     Mo       0.38921    0.30168    0.07049    1.000
    Mo31     Mo       0.73714    0.94847    0.70026    1.000
    Mo32     Mo       0.91811    0.97627    0.71999    1.000
    Mo33     Mo       0.92545    0.08494    0.82022    1.000
    Mo34     Mo       0.86979    0.22198    0.89346    1.000
    Mo35     Mo       0.87718    0.31654    0.99867    1.000
    Mo36     Mo       0.61079    0.19832    0.57049    1.000
    Mo37     Mo       0.76286    0.44847    0.29974    1.000
    Mo38     Mo       0.58189    0.47627    0.28001    1.000
    Mo39     Mo       0.57455    0.58494    0.17978    1.000
    Mo40     Mo       0.63021    0.72198    0.10654    1.000
    Mo41     Mo       0.62282    0.81654    0.00133    1.000
    Mo42     Mo       0.88921    0.69832    0.42951    1.000
    Mo43     Mo       0.23714    0.05153    0.79974    1.000
    Mo44     Mo       0.41811    0.02373    0.78001    1.000
    Mo45     Mo       0.42544    0.91506    0.67978    1.000
    Mo46     Mo       0.36979    0.77802    0.60654    1.000
    Mo47     Mo       0.37718    0.68346    0.50133    1.000
    Mo48     Mo       0.11079    0.80168    0.92951    1.000
    P1       P        0.77059    0.59895    0.75025    1.000
    P2       P        0.77916    0.46475    0.69932    1.000
    P3       P        0.79294    0.64942    0.51441    1.000
    P4       P        0.96815    0.65534    0.52146    1.000
    P5       P        0.22941    0.90105    0.25025    1.000
    P6       P        0.22084    0.03525    0.19932    1.000
    P7       P        0.20706    0.85058    0.01441    1.000
    P8       P        0.03185    0.84466    0.02146    1.000
    P9       P        0.27059    0.40105    0.74975    1.000
    P10      P        0.27916    0.53525    0.80068    1.000
    P11      P        0.29294    0.35058    0.98559    1.000
    P12      P        0.46815    0.34466    0.97854    1.000
    P13      P        0.72941    0.09895    0.24975    1.000
    P14      P        0.72084    0.96475    0.30068    1.000
    P15      P        0.70706    0.14942    0.48559    1.000
    P16      P        0.53185    0.15534    0.47854    1.000
    P17      P        0.22941    0.40105    0.24975    1.000
    P18      P        0.22084    0.53525    0.30068    1.000
    P19      P        0.20706    0.35058    0.48559    1.000
    P20      P        0.03185    0.34466    0.47854    1.000
    P21      P        0.77059    0.09895    0.74975    1.000
    P22      P        0.77916    0.96475    0.80068    1.000
    P23      P        0.79294    0.14942    0.98559    1.000
    P24      P        0.96815    0.15534    0.97854    1.000
    P25      P        0.72941    0.59895    0.25025    1.000
    P26      P        0.72084    0.46475    0.19932    1.000
    P27      P        0.70706    0.64942    0.01441    1.000
    P28      P        0.53185    0.65534    0.02146    1.000
    P29      P        0.27059    0.90105    0.75025    1.000
    P30      P        0.27916    0.03525    0.69932    1.000
    P31      P        0.29294    0.85058    0.51441    1.000
    P32      P        0.46815    0.84466    0.52146    1.000
    H1       H        0.62510    0.51910    0.67840    1.000
    H2       H        0.61070    0.58370    0.70840    1.000
    H3       H        0.69910    0.65270    0.67080    1.000
    H4       H        0.72430    0.58740    0.64320    1.000
    H5       H        0.60330    0.58330    0.61110    1.000
    H6       H        0.56990    0.64060    0.64210    1.000
    H7       H        0.68760    0.67110    0.58660    1.000
    H8       H        0.64510    0.72280    0.61170    1.000
    H9       H        0.58240    0.65150    0.54470    1.000
    H10      H        0.60350    0.73230    0.54460    1.000
    H11      H        0.53410    0.70460    0.57250    1.000
    H12      H        0.84870    0.49860    0.49910    1.000
    H13      H        0.93740    0.50600    0.51070    1.000
    H14      H        0.89540    0.54450    0.58000    1.000
    H15      H        0.81090    0.52010    0.56720    1.000
    H16      H        0.94140    0.43020    0.57670    1.000
    H17      H        0.86760    0.43120    0.60620    1.000
    H18      H        0.87330    0.38010    0.52580    1.000
    H19      H        0.79800    0.39680    0.54460    1.000
    H20      H        0.89570    0.29450    0.57570    1.000
    H21      H        0.82030    0.27830    0.54910    1.000
    H22      H        0.81260    0.31130    0.59430    1.000
    H23      H        0.37490    0.98090    0.17840    1.000
    H24      H        0.38930    0.91630    0.20840    1.000
    H25      H        0.30090    0.84730    0.17080    1.000
    H26      H        0.27570    0.91260    0.14320    1.000
    H27      H        0.39670    0.91670    0.11110    1.000
    H28      H        0.43010    0.85940    0.14210    1.000
    H29      H        0.31240    0.82890    0.08660    1.000
    H30      H        0.35490    0.77720    0.11170    1.000
    H31      H        0.41760    0.84850    0.04470    1.000
    H32      H        0.39650    0.76770    0.04460    1.000
    H33      H        0.46590    0.79540    0.07250    1.000
    H34      H        0.15130    0.00140    0.99910    1.000
    H35      H        0.06260    0.99400    0.01070    1.000
    H36      H        0.10460    0.95550    0.08000    1.000
    H37      H        0.18910    0.97990    0.06720    1.000
    H38      H        0.05860    0.06980    0.07670    1.000
    H39      H        0.13240    0.06880    0.10620    1.000
    H40      H        0.12670    0.11990    0.02580    1.000
    H41      H        0.20200    0.10320    0.04460    1.000
    H42      H        0.10430    0.20550    0.07570    1.000
    H43      H        0.17970    0.22170    0.04910    1.000
    H44      H        0.18740    0.18870    0.09430    1.000
    H45      H        0.12510    0.48090    0.82160    1.000
    H46      H        0.11070    0.41630    0.79160    1.000
    H47      H        0.19910    0.34730    0.82920    1.000
    H48      H        0.22430    0.41260    0.85680    1.000
    H49      H        0.10330    0.41670    0.88890    1.000
    H50      H        0.06990    0.35940    0.85790    1.000
    H51      H        0.18760    0.32890    0.91340    1.000
    H52      H        0.14510    0.27720    0.88830    1.000
    H53      H        0.08240    0.34850    0.95530    1.000
    H54      H        0.10350    0.26770    0.95540    1.000
    H55      H        0.03410    0.29540    0.92750    1.000
    H56      H        0.34870    0.50140    0.00090    1.000
    H57      H        0.43740    0.49400    0.98930    1.000
    H58      H        0.39540    0.45550    0.92000    1.000
    H59      H        0.31090    0.47990    0.93280    1.000
    H60      H        0.44140    0.56980    0.92330    1.000
    H61      H        0.36760    0.56880    0.89380    1.000
    H62      H        0.37330    0.61990    0.97420    1.000
    H63      H        0.29800    0.60320    0.95540    1.000
    H64      H        0.39570    0.70550    0.92430    1.000
    H65      H        0.32030    0.72170    0.95090    1.000
    H66      H        0.31260    0.68870    0.90570    1.000
    H67      H        0.87490    0.01910    0.32160    1.000
    H68      H        0.88930    0.08370    0.29160    1.000
    H69      H        0.80090    0.15270    0.32920    1.000
    H70      H        0.77570    0.08740    0.35680    1.000
    H71      H        0.89670    0.08330    0.38890    1.000
    H72      H        0.93010    0.14060    0.35790    1.000
    H73      H        0.81240    0.17110    0.41340    1.000
    H74      H        0.85490    0.22280    0.38830    1.000
    H75      H        0.91760    0.15150    0.45530    1.000
    H76      H        0.89650    0.23230    0.45540    1.000
    H77      H        0.96590    0.20460    0.42750    1.000
    H78      H        0.65130    0.99860    0.50090    1.000
    H79      H        0.56260    0.00600    0.48930    1.000
    H80      H        0.60460    0.04450    0.42000    1.000
    H81      H        0.68910    0.02010    0.43280    1.000
    H82      H        0.55860    0.93020    0.42330    1.000
    H83      H        0.63240    0.93120    0.39380    1.000
    H84      H        0.62670    0.88010    0.47420    1.000
    H85      H        0.70200    0.89680    0.45540    1.000
    H86      H        0.60430    0.79450    0.42430    1.000
    H87      H        0.67970    0.77830    0.45090    1.000
    H88      H        0.68740    0.81130    0.40570    1.000
    H89      H        0.37490    0.48090    0.32160    1.000
    H90      H        0.38930    0.41630    0.29160    1.000
    H91      H        0.30090    0.34730    0.32920    1.000
    H92      H        0.27570    0.41260    0.35680    1.000
    H93      H        0.39670    0.41670    0.38890    1.000
    H94      H        0.43010    0.35940    0.35790    1.000
    H95      H        0.31240    0.32890    0.41340    1.000
    H96      H        0.35490    0.27720    0.38830    1.000
    H97      H        0.41760    0.34850    0.45530    1.000
    H98      H        0.39650    0.26770    0.45540    1.000
    H99      H        0.46590    0.29540    0.42750    1.000
    H100     H        0.15130    0.50140    0.50090    1.000
    H101     H        0.06260    0.49400    0.48930    1.000
    H102     H        0.10460    0.45550    0.42000    1.000
    H103     H        0.18910    0.47990    0.43280    1.000
    H104     H        0.05860    0.56980    0.42330    1.000
    H105     H        0.13240    0.56880    0.39380    1.000
    H106     H        0.12670    0.61990    0.47420    1.000
    H107     H        0.20200    0.60320    0.45540    1.000
    H108     H        0.10430    0.70550    0.42430    1.000
    H109     H        0.17970    0.72170    0.45090    1.000
    H110     H        0.18740    0.68870    0.40570    1.000
    H111     H        0.62510    0.01910    0.82160    1.000
    H112     H        0.61070    0.08370    0.79160    1.000
    H113     H        0.69910    0.15270    0.82920    1.000
    H114     H        0.72430    0.08740    0.85680    1.000
    H115     H        0.60330    0.08330    0.88890    1.000
    H116     H        0.56990    0.14060    0.85790    1.000
    H117     H        0.68760    0.17110    0.91340    1.000
    H118     H        0.64510    0.22280    0.88830    1.000
    H119     H        0.58240    0.15150    0.95530    1.000
    H120     H        0.60350    0.23230    0.95540    1.000
    H121     H        0.53410    0.20460    0.92750    1.000
    H122     H        0.84870    0.99860    0.00090    1.000
    H123     H        0.93740    0.00600    0.98930    1.000
    H124     H        0.89540    0.04450    0.92000    1.000
    H125     H        0.81090    0.02010    0.93280    1.000
    H126     H        0.94140    0.93020    0.92330    1.000
    H127     H        0.86760    0.93120    0.89380    1.000
    H128     H        0.87330    0.88010    0.97420    1.000
    H129     H        0.79800    0.89680    0.95540    1.000
    H130     H        0.89570    0.79450    0.92430    1.000
    H131     H        0.82030    0.77830    0.95090    1.000
    H132     H        0.81260    0.81130    0.90570    1.000
    H133     H        0.87490    0.51910    0.17840    1.000
    H134     H        0.88930    0.58370    0.20840    1.000
    H135     H        0.80090    0.65270    0.17080    1.000
    H136     H        0.77570    0.58740    0.14320    1.000
    H137     H        0.89670    0.58330    0.11110    1.000
    H138     H        0.93010    0.64060    0.14210    1.000
    H139     H        0.81240    0.67110    0.08660    1.000
    H140     H        0.85490    0.72280    0.11170    1.000
    H141     H        0.91760    0.65150    0.04470    1.000
    H142     H        0.89650    0.73230    0.04460    1.000
    H143     H        0.96590    0.70460    0.07250    1.000
    H144     H        0.65130    0.49860    0.99910    1.000
    H145     H        0.56260    0.50600    0.01070    1.000
    H146     H        0.60460    0.54450    0.08000    1.000
    H147     H        0.68910    0.52010    0.06720    1.000
    H148     H        0.55860    0.43020    0.07670    1.000
    H149     H        0.63240    0.43120    0.10620    1.000
    H150     H        0.62670    0.38010    0.02580    1.000
    H151     H        0.70200    0.39680    0.04460    1.000
    H152     H        0.60430    0.29450    0.07570    1.000
    H153     H        0.67970    0.27830    0.04910    1.000
    H154     H        0.68740    0.31130    0.09430    1.000
    H155     H        0.12510    0.98090    0.67840    1.000
    H156     H        0.11070    0.91630    0.70840    1.000
    H157     H        0.19910    0.84730    0.67080    1.000
    H158     H        0.22430    0.91260    0.64320    1.000
    H159     H        0.10330    0.91670    0.61110    1.000
    H160     H        0.06990    0.85940    0.64210    1.000
    H161     H        0.18760    0.82890    0.58660    1.000
    H162     H        0.14510    0.77720    0.61170    1.000
    H163     H        0.08240    0.84850    0.54470    1.000
    H164     H        0.10350    0.76770    0.54460    1.000
    H165     H        0.03410    0.79540    0.57250    1.000
    H166     H        0.34870    0.00140    0.49910    1.000
    H167     H        0.43740    0.99400    0.51070    1.000
    H168     H        0.39540    0.95550    0.58000    1.000
    H169     H        0.31090    0.97990    0.56720    1.000
    H170     H        0.44140    0.06980    0.57670    1.000
    H171     H        0.36760    0.06880    0.60620    1.000
    H172     H        0.37330    0.11990    0.52580    1.000
    H173     H        0.29800    0.10320    0.54460    1.000
    H174     H        0.39570    0.20550    0.57570    1.000
    H175     H        0.32030    0.22170    0.54910    1.000
    H176     H        0.31260    0.18870    0.59430    1.000
    C1       C        0.71290    0.53100    0.72227    1.000
    C2       C        0.65030    0.55910    0.69199    1.000
    C3       C        0.68060    0.60920    0.65785    1.000
    C4       C        0.61640    0.62570    0.62688    1.000
    C5       C        0.58520    0.69360    0.56162    1.000
    C6       C        0.88370    0.60244    0.50278    1.000
    C7       C        0.88560    0.52479    0.51642    1.000
    C8       C        0.86630    0.51120    0.56275    1.000
    C9       C        0.88510    0.43700    0.57729    1.000
    C10      C        0.84360    0.31030    0.56903    1.000
    C11      C        0.28710    0.96900    0.22227    1.000
    C12      C        0.34970    0.94090    0.19199    1.000
    C13      C        0.31940    0.89080    0.15785    1.000
    C14      C        0.38360    0.87430    0.12688    1.000
    C15      C        0.41480    0.80640    0.06162    1.000
    C16      C        0.11630    0.89756    0.00278    1.000
    C17      C        0.11440    0.97521    0.01642    1.000
    C18      C        0.13370    0.98880    0.06275    1.000
    C19      C        0.11490    0.06300    0.07729    1.000
    C20      C        0.15640    0.18970    0.06903    1.000
    C21      C        0.21290    0.46900    0.77773    1.000
    C22      C        0.15030    0.44090    0.80801    1.000
    C23      C        0.18060    0.39080    0.84215    1.000
    C24      C        0.11640    0.37430    0.87312    1.000
    C25      C        0.08520    0.30640    0.93838    1.000
    C26      C        0.38370    0.39756    0.99722    1.000
    C27      C        0.38560    0.47521    0.98358    1.000
    C28      C        0.36630    0.48880    0.93725    1.000
    C29      C        0.38510    0.56300    0.92271    1.000
    C30      C        0.34360    0.68970    0.93097    1.000
    C31      C        0.78710    0.03100    0.27773    1.000
    C32      C        0.84970    0.05910    0.30801    1.000
    C33      C        0.81940    0.10920    0.34215    1.000
    C34      C        0.88360    0.12570    0.37312    1.000
    C35      C        0.91480    0.19360    0.43838    1.000
    C36      C        0.61630    0.10244    0.49722    1.000
    C37      C        0.61440    0.02479    0.48358    1.000
    C38      C        0.63370    0.01120    0.43725    1.000
    C39      C        0.61490    0.93700    0.42271    1.000
    C40      C        0.65640    0.81030    0.43097    1.000
    C41      C        0.28710    0.46900    0.27773    1.000
    C42      C        0.34970    0.44090    0.30801    1.000
    C43      C        0.31940    0.39080    0.34215    1.000
    C44      C        0.38360    0.37430    0.37312    1.000
    C45      C        0.41480    0.30640    0.43838    1.000
    C46      C        0.11630    0.39756    0.49722    1.000
    C47      C        0.11440    0.47521    0.48358    1.000
    C48      C        0.13370    0.48880    0.43725    1.000
    C49      C        0.11490    0.56300    0.42271    1.000
    C50      C        0.15640    0.68970    0.43097    1.000
    C51      C        0.71290    0.03100    0.77773    1.000
    C52      C        0.65030    0.05910    0.80801    1.000
    C53      C        0.68060    0.10920    0.84215    1.000
    C54      C        0.61640    0.12570    0.87312    1.000
    C55      C        0.58520    0.19360    0.93838    1.000
    C56      C        0.88370    0.10244    0.99722    1.000
    C57      C        0.88560    0.02479    0.98358    1.000
    C58      C        0.86630    0.01120    0.93725    1.000
    C59      C        0.88510    0.93700    0.92271    1.000
    C60      C        0.84360    0.81030    0.93097    1.000
    C61      C        0.78710    0.53100    0.22227    1.000
    C62      C        0.84970    0.55910    0.19199    1.000
    C63      C        0.81940    0.60920    0.15785    1.000
    C64      C        0.88360    0.62570    0.12688    1.000
    C65      C        0.91480    0.69360    0.06162    1.000
    C66      C        0.61630    0.60244    0.00278    1.000
    C67      C        0.61440    0.52479    0.01642    1.000
    C68      C        0.63370    0.51120    0.06275    1.000
    C69      C        0.61490    0.43700    0.07729    1.000
    C70      C        0.65640    0.31030    0.06903    1.000
    C71      C        0.21290    0.96900    0.72227    1.000
    C72      C        0.15030    0.94090    0.69199    1.000
    C73      C        0.18060    0.89080    0.65785    1.000
    C74      C        0.11640    0.87430    0.62688    1.000
    C75      C        0.08520    0.80640    0.56162    1.000
    C76      C        0.38370    0.89756    0.50278    1.000
    C77      C        0.38560    0.97521    0.51642    1.000
    C78      C        0.36630    0.98880    0.56275    1.000
    C79      C        0.38510    0.06300    0.57729    1.000
    C80      C        0.34360    0.18970    0.56903    1.000
    N1       N        0.64019    0.68206    0.59720    1.000
    N2       N        0.84720    0.38254    0.55044    1.000
    N3       N        0.35981    0.81794    0.09720    1.000
    N4       N        0.15280    0.11746    0.05044    1.000
    N5       N        0.14019    0.31794    0.90280    1.000
    N6       N        0.34720    0.61746    0.94956    1.000
    N7       N        0.85981    0.18206    0.40280    1.000
    N8       N        0.65280    0.88254    0.44956    1.000
    N9       N        0.35981    0.31794    0.40280    1.000
    N10      N        0.15280    0.61746    0.44956    1.000
    N11      N        0.64019    0.18206    0.90280    1.000
    N12      N        0.84720    0.88254    0.94956    1.000
    N13      N        0.85981    0.68206    0.09720    1.000
    N14      N        0.65280    0.38254    0.05044    1.000
    N15      N        0.14019    0.81794    0.59720    1.000
    N16      N        0.34720    0.11746    0.55044    1.000
    O1       O        0.69110    0.48530    0.84209    1.000
    O2       O        0.83863    0.43228    0.81926    1.000
    O3       O        0.67376    0.49345    0.75584    1.000
    O4       O        0.81653    0.43411    0.74052    1.000
    O5       O        0.80872    0.55217    0.78538    1.000
    O6       O        0.97108    0.40025    0.77293    1.000
    O7       O        0.94521    0.52817    0.73359    1.000
    O8       O        0.98935    0.53613    0.64984    1.000
    O9       O        0.87202    0.63445    0.63704    1.000
    O10      O        0.83914    0.50210    0.67176    1.000
    O11      O        0.83171    0.62959    0.72059    1.000
    O12      O        0.87248    0.79002    0.55745    1.000
    O13      O        0.95632    0.67104    0.56792    1.000
    O14      O        0.78916    0.66598    0.56115    1.000
    O15      O        0.61455    0.79588    0.93919    1.000
    O16      O        0.95941    0.72187    0.49289    1.000
    O17      O        0.80488    0.71740    0.48726    1.000
    O18      O        0.52870    0.68910    0.89893    1.000
    O19      O        0.89073    0.60603    0.45732    1.000
    O20      O        0.71783    0.65396    0.76956    1.000
    O21      O        0.73220    0.40868    0.67745    1.000
    O22      O        0.72421    0.60694    0.49915    1.000
    O23      O        0.04430    0.61785    0.51306    1.000
    O24      O        0.30890    0.01470    0.34209    1.000
    O25      O        0.16137    0.06772    0.31926    1.000
    O26      O        0.32624    0.00655    0.25584    1.000
    O27      O        0.18347    0.06589    0.24052    1.000
    O28      O        0.19128    0.94783    0.28538    1.000
    O29      O        0.02892    0.09975    0.27293    1.000
    O30      O        0.05479    0.97183    0.23359    1.000
    O31      O        0.01065    0.96387    0.14984    1.000
    O32      O        0.12798    0.86555    0.13704    1.000
    O33      O        0.16086    0.99790    0.17176    1.000
    O34      O        0.16829    0.87041    0.22059    1.000
    O35      O        0.12752    0.70998    0.05745    1.000
    O36      O        0.04368    0.82896    0.06792    1.000
    O37      O        0.21084    0.83402    0.06115    1.000
    O38      O        0.38545    0.70412    0.43919    1.000
    O39      O        0.04059    0.77813    0.99289    1.000
    O40      O        0.19512    0.78260    0.98726    1.000
    O41      O        0.47130    0.81090    0.39893    1.000
    O42      O        0.10927    0.89397    0.95732    1.000
    O43      O        0.28217    0.84604    0.26956    1.000
    O44      O        0.26780    0.09132    0.17745    1.000
    O45      O        0.27579    0.89306    0.99915    1.000
    O46      O        0.95570    0.88215    0.01306    1.000
    O47      O        0.19110    0.51470    0.65791    1.000
    O48      O        0.33863    0.56772    0.68074    1.000
    O49      O        0.17376    0.50655    0.74416    1.000
    O50      O        0.31653    0.56589    0.75948    1.000
    O51      O        0.30872    0.44783    0.71462    1.000
    O52      O        0.47108    0.59975    0.72707    1.000
    O53      O        0.44521    0.47183    0.76641    1.000
    O54      O        0.48935    0.46387    0.85016    1.000
    O55      O        0.37202    0.36555    0.86296    1.000
    O56      O        0.33914    0.49790    0.82824    1.000
    O57      O        0.33171    0.37041    0.77941    1.000
    O58      O        0.37248    0.20998    0.94255    1.000
    O59      O        0.45632    0.32896    0.93208    1.000
    O60      O        0.28916    0.33402    0.93885    1.000
    O61      O        0.11455    0.20412    0.56081    1.000
    O62      O        0.45941    0.27813    0.00711    1.000
    O63      O        0.30488    0.28260    0.01274    1.000
    O64      O        0.02870    0.31090    0.60107    1.000
    O65      O        0.39073    0.39397    0.04268    1.000
    O66      O        0.21783    0.34604    0.73044    1.000
    O67      O        0.23220    0.59132    0.82255    1.000
    O68      O        0.22421    0.39306    0.00085    1.000
    O69      O        0.54430    0.38215    0.98694    1.000
    O70      O        0.80890    0.98530    0.15791    1.000
    O71      O        0.66137    0.93228    0.18074    1.000
    O72      O        0.82624    0.99345    0.24416    1.000
    O73      O        0.68347    0.93411    0.25948    1.000
    O74      O        0.69128    0.05217    0.21462    1.000
    O75      O        0.52892    0.90025    0.22707    1.000
    O76      O        0.55479    0.02817    0.26641    1.000
    O77      O        0.51065    0.03613    0.35016    1.000
    O78      O        0.62798    0.13445    0.36296    1.000
    O79      O        0.66086    0.00210    0.32824    1.000
    O80      O        0.66829    0.12959    0.27941    1.000
    O81      O        0.62752    0.29002    0.44255    1.000
    O82      O        0.54368    0.17104    0.43208    1.000
    O83      O        0.71084    0.16598    0.43885    1.000
    O84      O        0.88545    0.29588    0.06081    1.000
    O85      O        0.54059    0.22187    0.50711    1.000
    O86      O        0.69512    0.21740    0.51274    1.000
    O87      O        0.97130    0.18910    0.10107    1.000
    O88      O        0.60927    0.10603    0.54268    1.000
    O89      O        0.78217    0.15396    0.23044    1.000
    O90      O        0.76780    0.90868    0.32255    1.000
    O91      O        0.77579    0.10694    0.50085    1.000
    O92      O        0.45570    0.11785    0.48694    1.000
    O93      O        0.30890    0.51470    0.15791    1.000
    O94      O        0.16137    0.56772    0.18074    1.000
    O95      O        0.32624    0.50655    0.24416    1.000
    O96      O        0.18347    0.56589    0.25948    1.000
    O97      O        0.19128    0.44783    0.21462    1.000
    O98      O        0.02892    0.59975    0.22707    1.000
    O99      O        0.05479    0.47183    0.26641    1.000
    O100     O        0.01065    0.46387    0.35016    1.000
    O101     O        0.12798    0.36555    0.36296    1.000
    O102     O        0.16086    0.49790    0.32824    1.000
    O103     O        0.16829    0.37041    0.27941    1.000
    O104     O        0.12752    0.20998    0.44255    1.000
    O105     O        0.04368    0.32896    0.43208    1.000
    O106     O        0.21084    0.33402    0.43885    1.000
    O107     O        0.38545    0.20412    0.06081    1.000
    O108     O        0.04059    0.27813    0.50711    1.000
    O109     O        0.19512    0.28260    0.51274    1.000
    O110     O        0.47130    0.31090    0.10107    1.000
    O111     O        0.10927    0.39397    0.54268    1.000
    O112     O        0.28217    0.34604    0.23044    1.000
    O113     O        0.26780    0.59132    0.32255    1.000
    O114     O        0.27579    0.39306    0.50085    1.000
    O115     O        0.95570    0.38215    0.48694    1.000
    O116     O        0.69110    0.98530    0.65791    1.000
    O117     O        0.83863    0.93228    0.68074    1.000
    O118     O        0.67376    0.99345    0.74416    1.000
    O119     O        0.81653    0.93411    0.75948    1.000
    O120     O        0.80872    0.05217    0.71462    1.000
    O121     O        0.97108    0.90025    0.72707    1.000
    O122     O        0.94521    0.02817    0.76641    1.000
    O123     O        0.98935    0.03613    0.85016    1.000
    O124     O        0.87202    0.13445    0.86296    1.000
    O125     O        0.83914    0.00210    0.82824    1.000
    O126     O        0.83171    0.12959    0.77941    1.000
    O127     O        0.87248    0.29002    0.94255    1.000
    O128     O        0.95632    0.17104    0.93208    1.000
    O129     O        0.78916    0.16598    0.93885    1.000
    O130     O        0.61455    0.29588    0.56081    1.000
    O131     O        0.95941    0.22187    0.00711    1.000
    O132     O        0.80488    0.21740    0.01274    1.000
    O133     O        0.52870    0.18910    0.60107    1.000
    O134     O        0.89073    0.10603    0.04268    1.000
    O135     O        0.71783    0.15396    0.73044    1.000
    O136     O        0.73220    0.90868    0.82255    1.000
    O137     O        0.72421    0.10694    0.00085    1.000
    O138     O        0.04430    0.11785    0.98694    1.000
    O139     O        0.80890    0.48530    0.34209    1.000
    O140     O        0.66137    0.43228    0.31926    1.000
    O141     O        0.82624    0.49345    0.25584    1.000
    O142     O        0.68347    0.43411    0.24052    1.000
    O143     O        0.69128    0.55217    0.28538    1.000
    O144     O        0.52892    0.40025    0.27293    1.000
    O145     O        0.55479    0.52817    0.23359    1.000
    O146     O        0.51065    0.53613    0.14984    1.000
    O147     O        0.62798    0.63445    0.13704    1.000
    O148     O        0.66086    0.50210    0.17176    1.000
    O149     O        0.66829    0.62959    0.22059    1.000
    O150     O        0.62752    0.79002    0.05745    1.000
    O151     O        0.54368    0.67104    0.06792    1.000
    O152     O        0.71084    0.66598    0.06115    1.000
    O153     O        0.88545    0.79588    0.43919    1.000
    O154     O        0.54059    0.72187    0.99289    1.000
    O155     O        0.69512    0.71740    0.98726    1.000
    O156     O        0.97130    0.68910    0.39893    1.000
    O157     O        0.60927    0.60603    0.95732    1.000
    O158     O        0.78217    0.65396    0.26956    1.000
    O159     O        0.76780    0.40868    0.17745    1.000
    O160     O        0.77579    0.60694    0.99915    1.000
    O161     O        0.45570    0.61785    0.01306    1.000
    O162     O        0.19110    0.01470    0.84209    1.000
    O163     O        0.33863    0.06772    0.81926    1.000
    O164     O        0.17376    0.00655    0.75584    1.000
    O165     O        0.31653    0.06589    0.74052    1.000
    O166     O        0.30872    0.94783    0.78538    1.000
    O167     O        0.47108    0.09975    0.77293    1.000
    O168     O        0.44521    0.97183    0.73359    1.000
    O169     O        0.48935    0.96387    0.64984    1.000
    O170     O        0.37202    0.86555    0.63704    1.000
    O171     O        0.33914    0.99790    0.67176    1.000
    O172     O        0.33171    0.87041    0.72059    1.000
    O173     O        0.37248    0.70998    0.55745    1.000
    O174     O        0.45632    0.82896    0.56792    1.000
    O175     O        0.28916    0.83402    0.56115    1.000
    O176     O        0.11455    0.70412    0.93919    1.000
    O177     O        0.45941    0.77813    0.49289    1.000
    O178     O        0.30488    0.78260    0.48726    1.000
    O179     O        0.02870    0.81090    0.89893    1.000
    O180     O        0.39073    0.89397    0.45732    1.000
    O181     O        0.21783    0.84604    0.76956    1.000
    O182     O        0.23220    0.09132    0.67745    1.000
    O183     O        0.22421    0.89306    0.49915    1.000
    O184     O        0.54430    0.88215    0.51306    1.000
