data_functionalizedCrystal
_audit_creation_method	'EQeq! by Chris Wilmer'
_symmetry_space_group_name_H-M	'P1'
_symmetry_Int_Tables_number	1
_symmetry_cell_setting	triclinic
loop_
_symmetry_equiv_pos_as_xyz
  x,y,z
_cell_length_a	15.914
_cell_length_b	15.914
_cell_length_c	35.966
_cell_angle_alpha	90
_cell_angle_beta	90
_cell_angle_gamma	120
loop_
_atom_site_label
_atom_site_type_symbol
_atom_site_fract_x
_atom_site_fract_y
_atom_site_fract_z
_atom_site_charge
Mof_S 	S 	0.8028	0.3952	0.0392	-0.228
Mof_N 	N 	0.9654	0.3895	0.0286	-0.1
Mof_C 	C 	0.8691	0.3367	0.038	0.117
Mof_C 	C 	0.8314	0.2381	0.0452	-0.141
Mof_C 	C 	0.8878	0.1962	0.0432	0.031
Mof_C 	C 	0.9856	0.2512	0.0334	-0.058
Mof_C 	C 	0.0222	0.3482	0.0262	0.008
Mof_C 	C 	0.0109	0.4933	0.0202	-0.136
Mof_H 	H 	0.7663	0.2001	0.0516	0.072
Mof_H 	H 	0.8609	0.1304	0.0483	0.018
Mof_H 	H 	0.0247	0.2231	0.0318	0.04
Mof_H 	H 	0.0871	0.3864	0.0196	0.033
Mof_H 	H 	0.0805	0.5241	0.0239	0.082
Mof_H 	H 	0.9859	0.5235	0.0369	0.088
Mof_S 	S 	0.46947	0.72853	0.37253	-0.234
Mof_N 	N 	0.63207	0.72283	0.36193	-0.132
Mof_C 	C 	0.53577	0.67003	0.37133	0.132
Mof_C 	C 	0.49807	0.57143	0.37853	-0.178
Mof_C 	C 	0.55447	0.52953	0.37653	0.083
Mof_C 	C 	0.65227	0.58453	0.36673	-0.146
Mof_C 	C 	0.68887	0.68153	0.35953	0.074
Mof_C 	C 	0.67757	0.82663	0.35353	-0.06
Mof_H 	H 	0.43297	0.53343	0.38493	0.084
Mof_H 	H 	0.52757	0.46373	0.38163	-0.002
Mof_H 	H 	0.69137	0.55643	0.36513	0.08
Mof_H 	H 	0.75377	0.71973	0.35293	0.011
Mof_H 	H 	0.74717	0.85743	0.35723	0.062
Mof_H 	H 	0.65257	0.85683	0.37023	0.06
Mof_S 	S 	0.13613	0.06187	0.70587	-0.241
Mof_N 	N 	0.29873	0.05617	0.69527	-0.124
Mof_C 	C 	0.20243	0.00337	0.70467	0.109
Mof_C 	C 	0.16473	0.90477	0.71187	-0.14
Mof_C 	C 	0.22113	0.86287	0.70987	0.049
Mof_C 	C 	0.31893	0.91787	0.70007	-0.104
Mof_C 	C 	0.35553	0.01487	0.69287	0.04
Mof_C 	C 	0.34423	0.15997	0.68687	-0.062
Mof_H 	H 	0.09963	0.86677	0.71827	0.07
Mof_H 	H 	0.19423	0.79707	0.71497	0.009
Mof_H 	H 	0.35803	0.88977	0.69847	0.066
Mof_H 	H 	0.42043	0.05307	0.68627	0.02
Mof_H 	H 	0.41383	0.19077	0.69057	0.061
Mof_H 	H 	0.31923	0.19017	0.70357	0.06
Mof_S 	S 	0.6048	0.4076	0.0392	-0.236
Mof_N 	N 	0.6105	0.5759	0.0286	-0.133
Mof_C 	C 	0.6633	0.5324	0.038	0.132
Mof_C 	C 	0.7619	0.5933	0.0452	-0.177
Mof_C 	C 	0.8038	0.6916	0.0432	0.084
Mof_C 	C 	0.7488	0.7344	0.0334	-0.146
Mof_C 	C 	0.6518	0.674	0.0262	0.074
Mof_C 	C 	0.5067	0.5176	0.0202	-0.057
Mof_H 	H 	0.7999	0.5662	0.0516	0.084
Mof_H 	H 	0.8696	0.7305	0.0483	0
Mof_H 	H 	0.7769	0.8016	0.0318	0.081
Mof_H 	H 	0.6136	0.7007	0.0196	0.011
Mof_H 	H 	0.4759	0.5564	0.0239	0.06
Mof_H 	H 	0.4765	0.4624	0.0369	0.058
Mof_S 	S 	0.27147	0.74093	0.37253	-0.233
Mof_N 	N 	0.27717	0.90923	0.36193	-0.122
Mof_C 	C 	0.32997	0.86573	0.37133	0.121
Mof_C 	C 	0.42857	0.92663	0.37853	-0.143
Mof_C 	C 	0.47047	0.02493	0.37653	0.043
Mof_C 	C 	0.41547	0.06773	0.36673	-0.12
Mof_C 	C 	0.31847	0.00733	0.35953	0.047
Mof_C 	C 	0.17337	0.85093	0.35353	-0.057
Mof_H 	H 	0.46657	0.89953	0.38493	0.073
Mof_H 	H 	0.53627	0.06383	0.38163	0.009
Mof_H 	H 	0.44357	0.13493	0.36513	0.069
Mof_H 	H 	0.28027	0.03403	0.35293	0.016
Mof_H 	H 	0.14257	0.88973	0.35723	0.062
Mof_H 	H 	0.14317	0.79573	0.37023	0.058
Mof_S 	S 	0.93813	0.07427	0.70587	-0.239
Mof_N 	N 	0.94383	0.24257	0.69527	-0.141
Mof_C 	C 	0.99663	0.19907	0.70467	0.156
Mof_C 	C 	0.09523	0.25997	0.71187	-0.217
Mof_C 	C 	0.13713	0.35827	0.70987	0.118
Mof_C 	C 	0.08213	0.40107	0.70007	-0.189
Mof_C 	C 	0.98513	0.34067	0.69287	0.108
Mof_C 	C 	0.84003	0.18427	0.68687	-0.054
Mof_H 	H 	0.13323	0.23287	0.71827	0.096
Mof_H 	H 	0.20293	0.39717	0.71497	-0.014
Mof_H 	H 	0.11023	0.46827	0.69847	0.092
Mof_H 	H 	0.94693	0.36737	0.68627	0.001
Mof_H 	H 	0.80923	0.22307	0.69057	0.059
Mof_H 	H 	0.80983	0.12907	0.70357	0.056
Mof_S 	S 	0.5924	0.1972	0.0392	-0.241
Mof_N 	N 	0.4241	0.0346	0.0286	-0.163
Mof_C 	C 	0.4676	0.1309	0.038	0.147
Mof_C 	C 	0.4067	0.1686	0.0452	-0.214
Mof_C 	C 	0.3084	0.1122	0.0432	0.135
Mof_C 	C 	0.2656	0.0144	0.0334	-0.23
Mof_C 	C 	0.326	0.9778	0.0262	0.139
Mof_C 	C 	0.4824	0.9891	0.0202	0.02
Mof_H 	H 	0.4338	0.2337	0.0516	0.096
Mof_H 	H 	0.2695	0.1391	0.0483	-0.023
Mof_H 	H 	0.1984	0.9753	0.0318	0.114
Mof_H 	H 	0.2993	0.9129	0.0196	-0.012
Mof_H 	H 	0.4436	0.9195	0.0239	0.039
Mof_H 	H 	0.5376	0.0141	0.0369	0.03
Mof_S 	S 	0.25907	0.53053	0.37253	-0.239
Mof_N 	N 	0.09077	0.36793	0.36193	-0.144
Mof_C 	C 	0.13427	0.46423	0.37133	0.143
Mof_C 	C 	0.07337	0.50193	0.37853	-0.214
Mof_C 	C 	0.97507	0.44553	0.37653	0.124
Mof_C 	C 	0.93227	0.34773	0.36673	-0.174
Mof_C 	C 	0.99267	0.31113	0.35953	0.102
Mof_C 	C 	0.14907	0.32243	0.35353	-0.055
Mof_H 	H 	0.10047	0.56703	0.38493	0.095
Mof_H 	H 	0.93617	0.47243	0.38163	-0.013
Mof_H 	H 	0.86507	0.30863	0.36513	0.089
Mof_H 	H 	0.96597	0.24623	0.35293	0.003
Mof_H 	H 	0.11027	0.25283	0.35723	0.056
Mof_H 	H 	0.20427	0.34743	0.37023	0.057
Mof_S 	S 	0.92573	0.86387	0.70587	-0.221
Mof_N 	N 	0.75743	0.70127	0.69527	-0.132
Mof_C 	C 	0.80093	0.79757	0.70467	0.13
Mof_C 	C 	0.74003	0.83527	0.71187	-0.176
Mof_C 	C 	0.64173	0.77887	0.70987	0.083
Mof_C 	C 	0.59893	0.68107	0.70007	-0.145
Mof_C 	C 	0.65933	0.64447	0.69287	0.074
Mof_C 	C 	0.81573	0.65577	0.68687	-0.057
Mof_H 	H 	0.76713	0.90037	0.71827	0.086
Mof_H 	H 	0.60283	0.80577	0.71497	-0.001
Mof_H 	H 	0.53173	0.64197	0.69847	0.079
Mof_H 	H 	0.63263	0.57957	0.68627	0.01
Mof_H 	H 	0.77693	0.58617	0.69057	0.06
Mof_H 	H 	0.87093	0.68077	0.70357	0.06
Mof_S 	S 	0.3952	0.8028	0.4608	-0.229
Mof_N 	N 	0.3895	0.9654	0.4714	-0.102
Mof_C 	C 	0.3367	0.8691	0.462	0.117
Mof_C 	C 	0.2381	0.8314	0.4548	-0.143
Mof_C 	C 	0.1962	0.8878	0.4568	0.031
Mof_C 	C 	0.2512	0.9856	0.4666	-0.061
Mof_C 	C 	0.3482	0.0222	0.4738	0.008
Mof_C 	C 	0.4933	0.0109	0.4798	-0.135
Mof_H 	H 	0.2001	0.7663	0.4484	0.072
Mof_H 	H 	0.1304	0.8609	0.4517	0.017
Mof_H 	H 	0.2231	0.0247	0.4682	0.041
Mof_H 	H 	0.3864	0.0871	0.4804	0.032
Mof_H 	H 	0.5241	0.0805	0.4761	0.082
Mof_H 	H 	0.5235	0.9859	0.4631	0.088
Mof_S 	S 	0.06187	0.13613	0.79413	-0.242
Mof_N 	N 	0.05617	0.29873	0.80473	-0.124
Mof_C 	C 	0.00337	0.20243	0.79533	0.109
Mof_C 	C 	0.90477	0.16473	0.78813	-0.141
Mof_C 	C 	0.86287	0.22113	0.79013	0.05
Mof_C 	C 	0.91787	0.31893	0.79993	-0.105
Mof_C 	C 	0.01487	0.35553	0.80713	0.041
Mof_C 	C 	0.15997	0.34423	0.81313	-0.062
Mof_H 	H 	0.86677	0.09963	0.78173	0.07
Mof_H 	H 	0.79707	0.19423	0.78503	0.009
Mof_H 	H 	0.88977	0.35803	0.80153	0.066
Mof_H 	H 	0.05307	0.42043	0.81373	0.019
Mof_H 	H 	0.19077	0.41383	0.80943	0.061
Mof_H 	H 	0.19017	0.31923	0.79643	0.06
Mof_S 	S 	0.72853	0.46947	0.12747	-0.234
Mof_N 	N 	0.72283	0.63207	0.13807	-0.132
Mof_C 	C 	0.67003	0.53577	0.12867	0.132
Mof_C 	C 	0.57143	0.49807	0.12147	-0.178
Mof_C 	C 	0.52953	0.55447	0.12347	0.083
Mof_C 	C 	0.58453	0.65227	0.13327	-0.146
Mof_C 	C 	0.68153	0.68887	0.14047	0.074
Mof_C 	C 	0.82663	0.67757	0.14647	-0.06
Mof_H 	H 	0.53343	0.43297	0.11507	0.084
Mof_H 	H 	0.46373	0.52757	0.11837	-0.002
Mof_H 	H 	0.55643	0.69137	0.13487	0.08
Mof_H 	H 	0.71973	0.75377	0.14707	0.011
Mof_H 	H 	0.85743	0.74717	0.14277	0.062
Mof_H 	H 	0.85683	0.65257	0.12977	0.06
Mof_S 	S 	0.4076	0.6048	0.4608	-0.236
Mof_N 	N 	0.5759	0.6105	0.4714	-0.133
Mof_C 	C 	0.5324	0.6633	0.462	0.132
Mof_C 	C 	0.5933	0.7619	0.4548	-0.177
Mof_C 	C 	0.6916	0.8038	0.4568	0.084
Mof_C 	C 	0.7344	0.7488	0.4666	-0.146
Mof_C 	C 	0.674	0.6518	0.4738	0.074
Mof_C 	C 	0.5176	0.5067	0.4798	-0.057
Mof_H 	H 	0.5662	0.7999	0.4484	0.084
Mof_H 	H 	0.7305	0.8696	0.4517	0
Mof_H 	H 	0.8016	0.7769	0.4682	0.081
Mof_H 	H 	0.7007	0.6136	0.4804	0.011
Mof_H 	H 	0.5564	0.4759	0.4761	0.06
Mof_H 	H 	0.4624	0.4765	0.4631	0.058
Mof_S 	S 	0.07427	0.93813	0.79413	-0.239
Mof_N 	N 	0.24257	0.94383	0.80473	-0.141
Mof_C 	C 	0.19907	0.99663	0.79533	0.157
Mof_C 	C 	0.25997	0.09523	0.78813	-0.217
Mof_C 	C 	0.35827	0.13713	0.79013	0.118
Mof_C 	C 	0.40107	0.08213	0.79993	-0.189
Mof_C 	C 	0.34067	0.98513	0.80713	0.108
Mof_C 	C 	0.18427	0.84003	0.81313	-0.054
Mof_H 	H 	0.23287	0.13323	0.78173	0.096
Mof_H 	H 	0.39717	0.20293	0.78503	-0.014
Mof_H 	H 	0.46827	0.11023	0.80153	0.092
Mof_H 	H 	0.36737	0.94693	0.81373	0.001
Mof_H 	H 	0.22307	0.80923	0.80943	0.059
Mof_H 	H 	0.12907	0.80983	0.79643	0.056
Mof_S 	S 	0.74093	0.27147	0.12747	-0.233
Mof_N 	N 	0.90923	0.27717	0.13807	-0.122
Mof_C 	C 	0.86573	0.32997	0.12867	0.121
Mof_C 	C 	0.92663	0.42857	0.12147	-0.142
Mof_C 	C 	0.02493	0.47047	0.12347	0.043
Mof_C 	C 	0.06773	0.41547	0.13327	-0.119
Mof_C 	C 	0.00733	0.31847	0.14047	0.046
Mof_C 	C 	0.85093	0.17337	0.14647	-0.057
Mof_H 	H 	0.89953	0.46657	0.11507	0.073
Mof_H 	H 	0.06383	0.53627	0.11837	0.009
Mof_H 	H 	0.13493	0.44357	0.13487	0.069
Mof_H 	H 	0.03403	0.28027	0.14707	0.016
Mof_H 	H 	0.88973	0.14257	0.14277	0.062
Mof_H 	H 	0.79573	0.14317	0.12977	0.058
Mof_S 	S 	0.1972	0.5924	0.4608	-0.241
Mof_N 	N 	0.0346	0.4241	0.4714	-0.164
Mof_C 	C 	0.1309	0.4676	0.462	0.147
Mof_C 	C 	0.1686	0.4067	0.4548	-0.214
Mof_C 	C 	0.1122	0.3084	0.4568	0.136
Mof_C 	C 	0.0144	0.2656	0.4666	-0.232
Mof_C 	C 	0.9778	0.326	0.4738	0.14
Mof_C 	C 	0.9891	0.4824	0.4798	0.02
Mof_H 	H 	0.2337	0.4338	0.4484	0.096
Mof_H 	H 	0.1391	0.2695	0.4517	-0.023
Mof_H 	H 	0.9753	0.1984	0.4682	0.115
Mof_H 	H 	0.9129	0.2993	0.4804	-0.012
Mof_H 	H 	0.9195	0.4436	0.4761	0.039
Mof_H 	H 	0.0141	0.5376	0.4631	0.03
Mof_S 	S 	0.86387	0.92573	0.79413	-0.221
Mof_N 	N 	0.70127	0.75743	0.80473	-0.132
Mof_C 	C 	0.79757	0.80093	0.79533	0.13
Mof_C 	C 	0.83527	0.74003	0.78813	-0.176
Mof_C 	C 	0.77887	0.64173	0.79013	0.083
Mof_C 	C 	0.68107	0.59893	0.79993	-0.145
Mof_C 	C 	0.64447	0.65933	0.80713	0.074
Mof_C 	C 	0.65577	0.81573	0.81313	-0.057
Mof_H 	H 	0.90037	0.76713	0.78173	0.086
Mof_H 	H 	0.80577	0.60283	0.78503	-0.001
Mof_H 	H 	0.64197	0.53173	0.80153	0.079
Mof_H 	H 	0.57957	0.63263	0.81373	0.01
Mof_H 	H 	0.58617	0.77693	0.80943	0.06
Mof_H 	H 	0.68077	0.87093	0.79643	0.06
Mof_S 	S 	0.53053	0.25907	0.12747	-0.239
Mof_N 	N 	0.36793	0.09077	0.13807	-0.144
Mof_C 	C 	0.46423	0.13427	0.12867	0.143
Mof_C 	C 	0.50193	0.07337	0.12147	-0.213
Mof_C 	C 	0.44553	0.97507	0.12347	0.123
Mof_C 	C 	0.34773	0.93227	0.13327	-0.173
Mof_C 	C 	0.31113	0.99267	0.14047	0.101
Mof_C 	C 	0.32243	0.14907	0.14647	-0.055
Mof_H 	H 	0.56703	0.10047	0.11507	0.095
Mof_H 	H 	0.47243	0.93617	0.11837	-0.013
Mof_H 	H 	0.30863	0.86507	0.13487	0.089
Mof_H 	H 	0.24623	0.96597	0.14707	0.003
Mof_H 	H 	0.25283	0.11027	0.14277	0.056
Mof_H 	H 	0.34743	0.20427	0.12977	0.057
Mof_S 	S 	0.1972	0.6048	0.9608	-0.241
Mof_N 	N 	0.0346	0.6105	0.9714	-0.161
Mof_C 	C 	0.1309	0.6633	0.962	0.145
Mof_C 	C 	0.1686	0.7619	0.9548	-0.207
Mof_C 	C 	0.1122	0.8038	0.9568	0.127
Mof_C 	C 	0.0144	0.7488	0.9666	-0.217
Mof_C 	C 	0.9778	0.6518	0.9738	0.13
Mof_C 	C 	0.9891	0.5067	0.9798	0.019
Mof_H 	H 	0.2337	0.7999	0.9484	0.095
Mof_H 	H 	0.1391	0.8696	0.9517	-0.017
Mof_H 	H 	0.9753	0.7769	0.9682	0.11
Mof_H 	H 	0.9129	0.6136	0.9804	-0.008
Mof_H 	H 	0.9195	0.4759	0.9761	0.039
Mof_H 	H 	0.0141	0.4765	0.9631	0.03
Mof_S 	S 	0.86387	0.93813	0.29413	-0.227
Mof_N 	N 	0.70127	0.94383	0.30473	-0.14
Mof_C 	C 	0.79757	0.99663	0.29533	0.15
Mof_C 	C 	0.83527	0.09523	0.28813	-0.209
Mof_C 	C 	0.77887	0.13713	0.29013	0.112
Mof_C 	C 	0.68107	0.08213	0.29993	-0.182
Mof_C 	C 	0.64447	0.98513	0.30713	0.103
Mof_C 	C 	0.65577	0.84003	0.31313	-0.054
Mof_H 	H 	0.90037	0.13323	0.28173	0.097
Mof_H 	H 	0.80577	0.20293	0.28503	-0.011
Mof_H 	H 	0.64197	0.11023	0.30153	0.09
Mof_H 	H 	0.57957	0.94693	0.31373	0.002
Mof_H 	H 	0.58617	0.80923	0.30943	0.059
Mof_H 	H 	0.68077	0.80983	0.29643	0.057
Mof_S 	S 	0.53053	0.27147	0.62747	-0.236
Mof_N 	N 	0.36793	0.27717	0.63807	-0.133
Mof_C 	C 	0.46423	0.32997	0.62867	0.132
Mof_C 	C 	0.50193	0.42857	0.62147	-0.178
Mof_C 	C 	0.44553	0.47047	0.62347	0.084
Mof_C 	C 	0.34773	0.41547	0.63327	-0.147
Mof_C 	C 	0.31113	0.31847	0.64047	0.074
Mof_C 	C 	0.32243	0.17337	0.64647	-0.054
Mof_H 	H 	0.56703	0.46657	0.61507	0.084
Mof_H 	H 	0.47243	0.53627	0.61837	-0.002
Mof_H 	H 	0.30863	0.44357	0.63487	0.078
Mof_H 	H 	0.24623	0.28027	0.64707	0.009
Mof_H 	H 	0.25283	0.14257	0.64277	0.058
Mof_H 	H 	0.34743	0.14317	0.62977	0.057
Mof_S 	S 	0.3952	0.5924	0.9608	-0.235
Mof_N 	N 	0.3895	0.4241	0.9714	-0.133
Mof_C 	C 	0.3367	0.4676	0.962	0.132
Mof_C 	C 	0.2381	0.4067	0.9548	-0.179
Mof_C 	C 	0.1962	0.3084	0.9568	0.083
Mof_C 	C 	0.2512	0.2656	0.9666	-0.147
Mof_C 	C 	0.3482	0.326	0.9738	0.074
Mof_C 	C 	0.4933	0.4824	0.9798	-0.058
Mof_H 	H 	0.2001	0.4338	0.9484	0.084
Mof_H 	H 	0.1304	0.2695	0.9517	-0.004
Mof_H 	H 	0.2231	0.1984	0.9682	0.077
Mof_H 	H 	0.3864	0.2993	0.9804	0.01
Mof_H 	H 	0.5241	0.4436	0.9761	0.06
Mof_H 	H 	0.5235	0.5376	0.9631	0.059
Mof_S 	S 	0.06187	0.92573	0.29413	-0.226
Mof_N 	N 	0.05617	0.75743	0.30473	-0.125
Mof_C 	C 	0.00337	0.80093	0.29533	0.111
Mof_C 	C 	0.90477	0.74003	0.28813	-0.144
Mof_C 	C 	0.86287	0.64173	0.29013	0.054
Mof_C 	C 	0.91787	0.59893	0.29993	-0.109
Mof_C 	C 	0.01487	0.65933	0.30713	0.044
Mof_C 	C 	0.15997	0.81573	0.31313	-0.06
Mof_H 	H 	0.86677	0.76713	0.28173	0.074
Mof_H 	H 	0.79707	0.60283	0.28503	0.009
Mof_H 	H 	0.88977	0.53173	0.30153	0.068
Mof_H 	H 	0.05307	0.63263	0.31373	0.018
Mof_H 	H 	0.19077	0.77693	0.30943	0.062
Mof_H 	H 	0.19017	0.87093	0.29643	0.062
Mof_S 	S 	0.72853	0.25907	0.62747	-0.238
Mof_N 	N 	0.72283	0.09077	0.63807	-0.142
Mof_C 	C 	0.67003	0.13427	0.62867	0.142
Mof_C 	C 	0.57143	0.07337	0.62147	-0.212
Mof_C 	C 	0.52953	0.97507	0.62347	0.122
Mof_C 	C 	0.58453	0.93227	0.63327	-0.171
Mof_C 	C 	0.68153	0.99267	0.64047	0.099
Mof_C 	C 	0.82663	0.14907	0.64647	-0.058
Mof_H 	H 	0.53343	0.10047	0.61507	0.094
Mof_H 	H 	0.46373	0.93617	0.61837	-0.012
Mof_H 	H 	0.55643	0.86507	0.63487	0.089
Mof_H 	H 	0.71973	0.96597	0.64707	0.005
Mof_H 	H 	0.85743	0.11027	0.64277	0.059
Mof_H 	H 	0.85683	0.20427	0.62977	0.059
Mof_S 	S 	0.4076	0.8028	0.9608	-0.23
Mof_N 	N 	0.5759	0.9654	0.9714	-0.104
Mof_C 	C 	0.5324	0.8691	0.962	0.119
Mof_C 	C 	0.5933	0.8314	0.9548	-0.147
Mof_C 	C 	0.6916	0.8878	0.9568	0.038
Mof_C 	C 	0.7344	0.9856	0.9666	-0.073
Mof_C 	C 	0.674	0.0222	0.9738	0.016
Mof_C 	C 	0.5176	0.0109	0.9798	-0.135
Mof_H 	H 	0.5662	0.7663	0.9484	0.073
Mof_H 	H 	0.7305	0.8609	0.9517	0.016
Mof_H 	H 	0.8016	0.0247	0.9682	0.049
Mof_H 	H 	0.7007	0.0871	0.9804	0.03
Mof_H 	H 	0.5564	0.0805	0.9761	0.081
Mof_H 	H 	0.4624	0.9859	0.9631	0.088
Mof_S 	S 	0.07427	0.13613	0.29413	-0.248
Mof_N 	N 	0.24257	0.29873	0.30473	-0.133
Mof_C 	C 	0.19907	0.20243	0.29533	0.134
Mof_C 	C 	0.25997	0.16473	0.28813	-0.179
Mof_C 	C 	0.35827	0.22113	0.29013	0.084
Mof_C 	C 	0.40107	0.31893	0.29993	-0.147
Mof_C 	C 	0.34067	0.35553	0.30713	0.074
Mof_C 	C 	0.18427	0.34423	0.31313	-0.058
Mof_H 	H 	0.23287	0.09963	0.28173	0.082
Mof_H 	H 	0.39717	0.19423	0.28503	-0.003
Mof_H 	H 	0.46827	0.35803	0.30153	0.079
Mof_H 	H 	0.36737	0.42043	0.31373	0.01
Mof_H 	H 	0.22307	0.41383	0.30943	0.06
Mof_H 	H 	0.12907	0.31923	0.29643	0.057
Mof_S 	S 	0.74093	0.46947	0.62747	-0.232
Mof_N 	N 	0.90923	0.63207	0.63807	-0.122
Mof_C 	C 	0.86573	0.53577	0.62867	0.122
Mof_C 	C 	0.92663	0.49807	0.62147	-0.144
Mof_C 	C 	0.02493	0.55447	0.62347	0.045
Mof_C 	C 	0.06773	0.65227	0.63327	-0.121
Mof_C 	C 	0.00733	0.68887	0.64047	0.049
Mof_C 	C 	0.85093	0.67757	0.64647	-0.06
Mof_H 	H 	0.89953	0.43297	0.61507	0.074
Mof_H 	H 	0.06383	0.52757	0.61837	0.008
Mof_H 	H 	0.13493	0.69137	0.63487	0.07
Mof_H 	H 	0.03403	0.75377	0.64707	0.017
Mof_H 	H 	0.88973	0.74717	0.64277	0.064
Mof_H 	H 	0.79573	0.65257	0.62977	0.06
Mof_S 	S 	0.6048	0.1972	0.5392	-0.241
Mof_N 	N 	0.6105	0.0346	0.5286	-0.161
Mof_C 	C 	0.6633	0.1309	0.538	0.146
Mof_C 	C 	0.7619	0.1686	0.5452	-0.208
Mof_C 	C 	0.8038	0.1122	0.5432	0.128
Mof_C 	C 	0.7488	0.0144	0.5334	-0.218
Mof_C 	C 	0.6518	0.9778	0.5262	0.131
Mof_C 	C 	0.5067	0.9891	0.5202	0.02
Mof_H 	H 	0.7999	0.2337	0.5516	0.095
Mof_H 	H 	0.8696	0.1391	0.5483	-0.017
Mof_H 	H 	0.7769	0.9753	0.5318	0.111
Mof_H 	H 	0.6136	0.9129	0.5196	-0.009
Mof_H 	H 	0.4759	0.9195	0.5239	0.039
Mof_H 	H 	0.4765	0.0141	0.5369	0.029
Mof_S 	S 	0.27147	0.53053	0.87253	-0.236
Mof_N 	N 	0.27717	0.36793	0.86193	-0.133
Mof_C 	C 	0.32997	0.46423	0.87133	0.132
Mof_C 	C 	0.42857	0.50193	0.87853	-0.178
Mof_C 	C 	0.47047	0.44553	0.87653	0.084
Mof_C 	C 	0.41547	0.34773	0.86673	-0.147
Mof_C 	C 	0.31847	0.31113	0.85953	0.074
Mof_C 	C 	0.17337	0.32243	0.85353	-0.054
Mof_H 	H 	0.46657	0.56703	0.88493	0.084
Mof_H 	H 	0.53627	0.47243	0.88163	-0.002
Mof_H 	H 	0.44357	0.30863	0.86513	0.078
Mof_H 	H 	0.28027	0.24623	0.85293	0.009
Mof_H 	H 	0.14257	0.25283	0.85723	0.058
Mof_H 	H 	0.14317	0.34743	0.87023	0.057
Mof_S 	S 	0.93813	0.86387	0.20587	-0.227
Mof_N 	N 	0.94383	0.70127	0.19527	-0.14
Mof_C 	C 	0.99663	0.79757	0.20467	0.151
Mof_C 	C 	0.09523	0.83527	0.21187	-0.209
Mof_C 	C 	0.13713	0.77887	0.20987	0.112
Mof_C 	C 	0.08213	0.68107	0.20007	-0.183
Mof_C 	C 	0.98513	0.64447	0.19287	0.104
Mof_C 	C 	0.84003	0.65577	0.18687	-0.054
Mof_H 	H 	0.13323	0.90037	0.21827	0.097
Mof_H 	H 	0.20293	0.80577	0.21497	-0.011
Mof_H 	H 	0.11023	0.64197	0.19847	0.09
Mof_H 	H 	0.94693	0.57957	0.18627	0.002
Mof_H 	H 	0.80923	0.58617	0.19057	0.059
Mof_H 	H 	0.80983	0.68077	0.20357	0.057
Mof_S 	S 	0.5924	0.3952	0.5392	-0.235
Mof_N 	N 	0.4241	0.3895	0.5286	-0.133
Mof_C 	C 	0.4676	0.3367	0.538	0.132
Mof_C 	C 	0.4067	0.2381	0.5452	-0.179
Mof_C 	C 	0.3084	0.1962	0.5432	0.083
Mof_C 	C 	0.2656	0.2512	0.5334	-0.147
Mof_C 	C 	0.326	0.3482	0.5262	0.074
Mof_C 	C 	0.4824	0.4933	0.5202	-0.058
Mof_H 	H 	0.4338	0.2001	0.5516	0.084
Mof_H 	H 	0.2695	0.1304	0.5483	-0.004
Mof_H 	H 	0.1984	0.2231	0.5318	0.077
Mof_H 	H 	0.2993	0.3864	0.5196	0.01
Mof_H 	H 	0.4436	0.5241	0.5239	0.06
Mof_H 	H 	0.5376	0.5235	0.5369	0.059
Mof_S 	S 	0.25907	0.72853	0.87253	-0.238
Mof_N 	N 	0.09077	0.72283	0.86193	-0.142
Mof_C 	C 	0.13427	0.67003	0.87133	0.142
Mof_C 	C 	0.07337	0.57143	0.87853	-0.211
Mof_C 	C 	0.97507	0.52953	0.87653	0.121
Mof_C 	C 	0.93227	0.58453	0.86673	-0.171
Mof_C 	C 	0.99267	0.68153	0.85953	0.098
Mof_C 	C 	0.14907	0.82663	0.85353	-0.058
Mof_H 	H 	0.10047	0.53343	0.88493	0.094
Mof_H 	H 	0.93617	0.46373	0.88163	-0.012
Mof_H 	H 	0.86507	0.55643	0.86513	0.089
Mof_H 	H 	0.96597	0.71973	0.85293	0.005
Mof_H 	H 	0.11027	0.85743	0.85723	0.059
Mof_H 	H 	0.20427	0.85683	0.87023	0.059
Mof_S 	S 	0.92573	0.06187	0.20587	-0.225
Mof_N 	N 	0.75743	0.05617	0.19527	-0.125
Mof_C 	C 	0.80093	0.00337	0.20467	0.111
Mof_C 	C 	0.74003	0.90477	0.21187	-0.145
Mof_C 	C 	0.64173	0.86287	0.20987	0.054
Mof_C 	C 	0.59893	0.91787	0.20007	-0.109
Mof_C 	C 	0.65933	0.01487	0.19287	0.045
Mof_C 	C 	0.81573	0.15997	0.18687	-0.06
Mof_H 	H 	0.76713	0.86677	0.21827	0.074
Mof_H 	H 	0.60283	0.79707	0.21497	0.009
Mof_H 	H 	0.53173	0.88977	0.19847	0.068
Mof_H 	H 	0.63263	0.05307	0.18627	0.018
Mof_H 	H 	0.77693	0.19077	0.19057	0.062
Mof_H 	H 	0.87093	0.19017	0.20357	0.062
Mof_S 	S 	0.8028	0.4076	0.5392	-0.23
Mof_N 	N 	0.9654	0.5759	0.5286	-0.104
Mof_C 	C 	0.8691	0.5324	0.538	0.119
Mof_C 	C 	0.8314	0.5933	0.5452	-0.147
Mof_C 	C 	0.8878	0.6916	0.5432	0.039
Mof_C 	C 	0.9856	0.7344	0.5334	-0.074
Mof_C 	C 	0.0222	0.674	0.5262	0.017
Mof_C 	C 	0.0109	0.5176	0.5202	-0.134
Mof_H 	H 	0.7663	0.5662	0.5516	0.074
Mof_H 	H 	0.8609	0.7305	0.5483	0.016
Mof_H 	H 	0.0247	0.8016	0.5318	0.05
Mof_H 	H 	0.0871	0.7007	0.5196	0.03
Mof_H 	H 	0.0805	0.5564	0.5239	0.081
Mof_H 	H 	0.9859	0.4624	0.5369	0.088
Mof_S 	S 	0.46947	0.74093	0.87253	-0.232
Mof_N 	N 	0.63207	0.90923	0.86193	-0.122
Mof_C 	C 	0.53577	0.86573	0.87133	0.122
Mof_C 	C 	0.49807	0.92663	0.87853	-0.144
Mof_C 	C 	0.55447	0.02493	0.87653	0.044
Mof_C 	C 	0.65227	0.06773	0.86673	-0.12
Mof_C 	C 	0.68887	0.00733	0.85953	0.048
Mof_C 	C 	0.67757	0.85093	0.85353	-0.06
Mof_H 	H 	0.43297	0.89953	0.88493	0.074
Mof_H 	H 	0.52757	0.06383	0.88163	0.009
Mof_H 	H 	0.69137	0.13493	0.86513	0.07
Mof_H 	H 	0.75377	0.03403	0.85293	0.017
Mof_H 	H 	0.74717	0.88973	0.85723	0.064
Mof_H 	H 	0.65257	0.79573	0.87023	0.06
Mof_S 	S 	0.13613	0.07427	0.20587	-0.248
Mof_N 	N 	0.29873	0.24257	0.19527	-0.133
Mof_C 	C 	0.20243	0.19907	0.20467	0.134
Mof_C 	C 	0.16473	0.25997	0.21187	-0.179
Mof_C 	C 	0.22113	0.35827	0.20987	0.084
Mof_C 	C 	0.31893	0.40107	0.20007	-0.147
Mof_C 	C 	0.35553	0.34067	0.19287	0.074
Mof_C 	C 	0.34423	0.18427	0.18687	-0.058
Mof_H 	H 	0.09963	0.23287	0.21827	0.082
Mof_H 	H 	0.19423	0.39717	0.21497	-0.003
Mof_H 	H 	0.35803	0.46827	0.19847	0.079
Mof_H 	H 	0.42043	0.36737	0.18627	0.01
Mof_H 	H 	0.41383	0.22307	0.19057	0.06
Mof_H 	H 	0.31923	0.12907	0.20357	0.057
Mof_Ni	Ni	0.33333	0.66667	0.91667	1.018
Mof_Ni	Ni	-6.40028e-33	0	0.25	1.008
Mof_Ni	Ni	0.66667	0.33333	0.58333	1.018
Mof_Ni	Ni	0.66667	0.33333	0.08333	1.018
Mof_Ni	Ni	3.84017e-32	0	0.75	1.008
Mof_Ni	Ni	0.33333	0.66667	0.41667	1.018
_end
