data_functionalizedCrystal
_audit_creation_method	'EQeq! by Chris Wilmer'
_symmetry_space_group_name_H-M	'P1'
_symmetry_Int_Tables_number	1
_symmetry_cell_setting	triclinic
loop_
_symmetry_equiv_pos_as_xyz
  x,y,z
_cell_length_a	8.157
_cell_length_b	10.1706
_cell_length_c	11.613
_cell_angle_alpha	90
_cell_angle_beta	90
_cell_angle_gamma	113.641
loop_
_atom_site_label
_atom_site_type_symbol
_atom_site_fract_x
_atom_site_fract_y
_atom_site_fract_z
_atom_site_charge
Mof_Cu	Cu	0.5	0	0.25	0.835
Mof_Cu	Cu	0.5	0	0.75	0.837
Mof_H 	H 	1.26306e-17	0.5	0.7983	0.171
Mof_H 	H 	0.5	0.5	0.7017	0.146
Mof_H 	H 	2.84839e-18	0.5	0.2017	0.141
Mof_H 	H 	0.5	0.5	0.2983	0.145
Mof_C 	C 	0.7911	0.247	0.8806	0.157
Mof_C 	C 	0.9005	0.3764	0.9403	0.173
Mof_C 	C 	0.2089	0.753	0.8806	0.176
Mof_C 	C 	0.0995	0.6236	0.9403	0.115
Mof_C 	C 	0.4559	0.247	0.6194	0.163
Mof_C 	C 	0.4759	0.3764	0.5597	0.036
Mof_C 	C 	0.5441	0.753	0.6194	0.212
Mof_C 	C 	0.5241	0.6236	0.5597	0.05
Mof_C 	C 	0.2089	0.753	0.1194	0.194
Mof_C 	C 	0.0995	0.6236	0.0597	0.005
Mof_C 	C 	0.7911	0.247	0.1194	0.175
Mof_C 	C 	0.9005	0.3764	0.0597	0.065
Mof_C 	C 	0.5441	0.753	0.3806	0.211
Mof_C 	C 	0.5241	0.6236	0.4403	0.049
Mof_C 	C 	0.4559	0.247	0.3806	0.162
Mof_C 	C 	0.4759	0.3764	0.4403	0.035
Mof_C 	C 	9.73163e-19	0.5	0.8784	-0.162
Mof_C 	C 	0.5	0.5	0.6216	-0.004
Mof_C 	C 	1.45058e-17	0.5	0.1216	-0.079
Mof_C 	C 	0.5	0.5	0.3784	-0.004
Mof_N 	N 	0.6976	0.1424	0.8384	-0.232
Mof_N 	N 	0.3024	0.8576	0.8384	-0.156
Mof_N 	N 	0.4448	0.1424	0.6616	-0.252
Mof_N 	N 	0.5552	0.8576	0.6616	-0.157
Mof_N 	N 	0.3024	0.8576	0.1616	-0.171
Mof_N 	N 	0.6976	0.1424	0.1616	-0.246
Mof_N 	N 	0.5552	0.8576	0.3384	-0.158
Mof_N 	N 	0.4448	0.1424	0.3384	-0.253
Mof_P 	P 	0.5	0.5	-0	1.13
Mof_F 	F 	0.5436	0.4088	0.9044	-0.385
Mof_F 	F 	0.4564	0.5912	0.9044	-0.368
Mof_F 	F 	0.4564	0.5912	0.0956	-0.385
Mof_F 	F 	0.5436	0.4088	0.0956	-0.402
Mof_F 	F 	0.7023	0.6036	-0	-0.361
Mof_F 	F 	0.2977	0.3964	-0	-0.426
Mof_P 	P 	5.60441e-17	0.5	0.5	1.042
Mof_F 	F 	0.8652	0.4088	0.5956	-0.35
Mof_F 	F 	0.1348	0.5912	0.5956	-0.395
Mof_F 	F 	0.1348	0.5912	0.4044	-0.395
Mof_F 	F 	0.8652	0.4088	0.4044	-0.35
Mof_F 	F 	0.9013	0.6036	0.5	-0.318
Mof_F 	F 	0.0987	0.3964	0.5	-0.416
_end
