data_functionalizedCrystal
_audit_creation_method	'EQeq! by Chris Wilmer'
_symmetry_space_group_name_H-M	'P1'
_symmetry_Int_Tables_number	1
_symmetry_cell_setting	triclinic
loop_
_symmetry_equiv_pos_as_xyz
  x,y,z
_cell_length_a	17.03
_cell_length_b	17.086
_cell_length_c	21.121
_cell_angle_alpha	90
_cell_angle_beta	90
_cell_angle_gamma	99.158
loop_
_atom_site_label
_atom_site_type_symbol
_atom_site_fract_x
_atom_site_fract_y
_atom_site_fract_z
_atom_site_charge
Mof_Pr	Pr	0.53776	0.72955	0.45168	2.94
Mof_Pr	Pr	0.87053	0.74901	0.58325	2.959
Mof_Pr	Pr	0.48266	0.63931	0.64381	2.693
Mof_Pr	Pr	0.56229	0.87287	0.15873	2.771
Mof_Pr	Pr	0.96224	0.27045	0.95169	2.903
Mof_Pr	Pr	0.62947	0.25099	0.08325	2.964
Mof_Pr	Pr	0.01734	0.36069	0.14381	2.671
Mof_Pr	Pr	0.93771	0.12713	0.65873	2.764
Mof_Pr	Pr	0.46224	0.27045	0.54831	2.941
Mof_Pr	Pr	0.12947	0.25099	0.41675	2.96
Mof_Pr	Pr	0.51734	0.36069	0.35619	2.694
Mof_Pr	Pr	0.43771	0.12713	0.84127	2.771
Mof_Pr	Pr	0.03776	0.72955	0.04831	2.903
Mof_Pr	Pr	0.37053	0.74901	0.91675	2.964
Mof_Pr	Pr	0.98266	0.63931	0.85619	2.671
Mof_Pr	Pr	0.06229	0.87287	0.34127	2.764
Mof_H 	H 	0.9067	0.8169	0.71662	0.404
Mof_H 	H 	0.97633	0.8215	0.6866	0.402
Mof_H 	H 	0.7976	0.5817	0.5399	0.392
Mof_H 	H 	0.8535	0.6013	0.49553	0.388
Mof_H 	H 	0.3289	0.6606	0.70788	0.419
Mof_H 	H 	0.3127	0.6555	0.64597	0.441
Mof_H 	H 	0.5071	0.6944	0.1354	0.373
Mof_H 	H 	0.5627	0.6942	0.1799	0.381
Mof_H 	H 	0.5551	0.815	0.6487	0.376
Mof_H 	H 	0.4779	0.8161	0.6617	0.384
Mof_H 	H 	0.5128	0.8592	0.54795	0.381
Mof_H 	H 	0.5769	0.8913	0.5144	0.394
Mof_H 	H 	0.7077	0.7725	0.46694	0.449
Mof_H 	H 	0.705	0.8023	0.40839	0.449
Mof_H 	H 	0.5076	0.6589	0.3204	0.416
Mof_H 	H 	0.5796	0.7046	0.314	0.415
Mof_H 	H 	0.6156	0.8881	0.0226	0.37
Mof_H 	H 	0.6573	0.8298	0.0362	0.388
Mof_H 	H 	0.0223	0.6894	0.5261	0.398
Mof_H 	H 	0.0079	0.757	0.49911	0.4
Mof_H 	H 	0.7331	0.8697	0.1982	0.416
Mof_H 	H 	0.6942	0.7967	0.208	0.389
Mof_H 	H 	0.5933	0.1831	0.21662	0.404
Mof_H 	H 	0.52367	0.1785	0.1866	0.402
Mof_H 	H 	0.7024	0.4183	0.0399	0.391
Mof_H 	H 	0.6465	0.3987	0.99553	0.381
Mof_H 	H 	0.1711	0.3394	0.20788	0.418
Mof_H 	H 	0.1873	0.3445	0.14597	0.44
Mof_H 	H 	0.9929	0.3056	0.6354	0.372
Mof_H 	H 	0.9373	0.3058	0.6799	0.381
Mof_H 	H 	0.9449	0.185	0.1487	0.372
Mof_H 	H 	0.0221	0.1839	0.1617	0.374
Mof_H 	H 	0.9872	0.1408	0.04795	0.382
Mof_H 	H 	0.9231	0.1087	0.0144	0.395
Mof_H 	H 	0.7923	0.2275	0.96694	0.445
Mof_H 	H 	0.795	0.1977	0.90839	0.447
Mof_H 	H 	0.9924	0.3411	0.8204	0.413
Mof_H 	H 	0.9204	0.2954	0.814	0.413
Mof_H 	H 	0.8844	0.1119	0.5226	0.37
Mof_H 	H 	0.8427	0.1702	0.5362	0.387
Mof_H 	H 	0.4777	0.3106	0.0261	0.398
Mof_H 	H 	0.4921	0.243	0.99911	0.4
Mof_H 	H 	0.7669	0.1303	0.6982	0.415
Mof_H 	H 	0.8058	0.2033	0.708	0.389
Mof_H 	H 	0.0933	0.1831	0.28338	0.404
Mof_H 	H 	0.02367	0.1785	0.3134	0.402
Mof_H 	H 	0.2024	0.4183	0.4601	0.392
Mof_H 	H 	0.1465	0.3987	0.50447	0.388
Mof_H 	H 	0.6711	0.3394	0.29212	0.419
Mof_H 	H 	0.6873	0.3445	0.35403	0.441
Mof_H 	H 	0.4929	0.3056	0.8646	0.373
Mof_H 	H 	0.4373	0.3058	0.8201	0.381
Mof_H 	H 	0.4449	0.185	0.3513	0.376
Mof_H 	H 	0.5221	0.1839	0.3383	0.384
Mof_H 	H 	0.4872	0.1408	0.45205	0.381
Mof_H 	H 	0.4231	0.1087	0.4856	0.394
Mof_H 	H 	0.2923	0.2275	0.53306	0.449
Mof_H 	H 	0.295	0.1977	0.59161	0.449
Mof_H 	H 	0.4924	0.3411	0.6796	0.416
Mof_H 	H 	0.4204	0.2954	0.686	0.414
Mof_H 	H 	0.3844	0.1119	0.9774	0.37
Mof_H 	H 	0.3427	0.1702	0.9638	0.388
Mof_H 	H 	0.9777	0.3106	0.4739	0.398
Mof_H 	H 	0.9921	0.243	0.50089	0.4
Mof_H 	H 	0.2669	0.1303	0.8018	0.416
Mof_H 	H 	0.3058	0.2033	0.792	0.389
Mof_H 	H 	0.4067	0.8169	0.78338	0.404
Mof_H 	H 	0.47633	0.8215	0.8134	0.402
Mof_H 	H 	0.2976	0.5817	0.9601	0.391
Mof_H 	H 	0.3535	0.6013	0.00447	0.381
Mof_H 	H 	0.8289	0.6606	0.79212	0.418
Mof_H 	H 	0.8127	0.6555	0.85403	0.44
Mof_H 	H 	0.0071	0.6944	0.3646	0.372
Mof_H 	H 	0.0627	0.6942	0.3201	0.381
Mof_H 	H 	0.0551	0.815	0.8513	0.372
Mof_H 	H 	0.9779	0.8161	0.8383	0.374
Mof_H 	H 	0.0128	0.8592	0.95205	0.382
Mof_H 	H 	0.0769	0.8913	0.9856	0.395
Mof_H 	H 	0.2077	0.7725	0.03306	0.445
Mof_H 	H 	0.205	0.8023	0.09161	0.447
Mof_H 	H 	0.0076	0.6589	0.1796	0.413
Mof_H 	H 	0.0796	0.7046	0.186	0.413
Mof_H 	H 	0.1156	0.8881	0.4774	0.37
Mof_H 	H 	0.1573	0.8298	0.4638	0.387
Mof_H 	H 	0.5223	0.6894	0.9739	0.398
Mof_H 	H 	0.5079	0.757	0.00089	0.4
Mof_H 	H 	0.2331	0.8697	0.3018	0.415
Mof_H 	H 	0.1942	0.7967	0.292	0.389
Mof_C 	C 	0.342	0.7293	0.4687	-0.021
Mof_C 	C 	0.358	0.6962	0.52952	0.374
Mof_C 	C 	0.5465	0.95419	0.30691	-0.024
Mof_C 	C 	0.5488	0.87041	0.32256	0.42
Mof_C 	C 	0.57111	0.53958	0.42553	-0.037
Mof_C 	C 	0.48467	0.53381	0.4204	0.339
Mof_C 	C 	0.9511	0.54411	0.71418	-0.034
Mof_C 	C 	0.95066	0.62784	0.69601	0.445
Mof_C 	C 	0.68284	0.68433	0.6455	-0.074
Mof_C 	C 	0.66687	0.70803	0.57998	0.462
Mof_C 	C 	0.93452	0.9462	0.59264	-0.059
Mof_C 	C 	0.85357	0.93878	0.61706	0.366
Mof_C 	C 	0.8627	0.8356	0.36568	-0.041
Mof_C 	C 	0.89444	0.81066	0.42682	0.441
Mof_C 	C 	0.158	0.2707	0.9687	-0.012
Mof_C 	C 	0.142	0.3038	0.02952	0.365
Mof_C 	C 	0.9535	0.04581	0.80691	-0.03
Mof_C 	C 	0.9512	0.12959	0.82256	0.42
Mof_C 	C 	0.92889	0.46042	0.92553	-0.047
Mof_C 	C 	0.01533	0.46619	0.9204	0.351
Mof_C 	C 	0.5489	0.45589	0.21418	-0.034
Mof_C 	C 	0.54934	0.37216	0.19601	0.446
Mof_C 	C 	0.81716	0.31567	0.1455	-0.072
Mof_C 	C 	0.83313	0.29197	0.07998	0.46
Mof_C 	C 	0.56548	0.0538	0.09264	-0.06
Mof_C 	C 	0.64643	0.06122	0.11706	0.364
Mof_C 	C 	0.6373	0.1644	0.86568	-0.044
Mof_C 	C 	0.60556	0.18934	0.92682	0.442
Mof_C 	C 	0.658	0.2707	0.5313	-0.021
Mof_C 	C 	0.642	0.3038	0.47048	0.374
Mof_C 	C 	0.4535	0.04581	0.69309	-0.024
Mof_C 	C 	0.4512	0.12959	0.67744	0.42
Mof_C 	C 	0.42889	0.46042	0.57447	-0.037
Mof_C 	C 	0.51533	0.46619	0.5796	0.339
Mof_C 	C 	0.0489	0.45589	0.28582	-0.034
Mof_C 	C 	0.04934	0.37216	0.30399	0.445
Mof_C 	C 	0.31716	0.31567	0.3545	-0.074
Mof_C 	C 	0.33313	0.29197	0.42002	0.462
Mof_C 	C 	0.06548	0.0538	0.40736	-0.059
Mof_C 	C 	0.14643	0.06122	0.38294	0.366
Mof_C 	C 	0.1373	0.1644	0.63432	-0.041
Mof_C 	C 	0.10556	0.18934	0.57318	0.441
Mof_C 	C 	0.842	0.7293	0.0313	-0.012
Mof_C 	C 	0.858	0.6962	0.97048	0.365
Mof_C 	C 	0.0465	0.95419	0.19309	-0.03
Mof_C 	C 	0.0488	0.87041	0.17744	0.42
Mof_C 	C 	0.07111	0.53958	0.07447	-0.047
Mof_C 	C 	0.98467	0.53381	0.0796	0.351
Mof_C 	C 	0.4511	0.54411	0.78582	-0.034
Mof_C 	C 	0.45066	0.62784	0.80399	0.446
Mof_C 	C 	0.18284	0.68433	0.8545	-0.072
Mof_C 	C 	0.16687	0.70803	0.92002	0.46
Mof_C 	C 	0.43452	0.9462	0.90736	-0.06
Mof_C 	C 	0.35357	0.93878	0.88294	0.364
Mof_C 	C 	0.3627	0.8356	0.13432	-0.044
Mof_C 	C 	0.39444	0.81066	0.07318	0.442
Mof_N 	N 	0.39833	0.75601	0.42741	-0.241
Mof_N 	N 	0.3623	0.7848	0.37726	-0.061
Mof_N 	N 	0.2857	0.7755	0.391	-0.062
Mof_N 	N 	0.2698	0.7363	0.4463	-0.088
Mof_N 	N 	0.5414	0.0124	0.34778	-0.09
Mof_N 	N 	0.5427	0.0775	0.3094	-0.106
Mof_N 	N 	0.5474	0.05596	0.25024	-0.089
Mof_N 	N 	0.54974	0.97824	0.24754	-0.231
Mof_N 	N 	0.60795	0.48167	0.40877	-0.22
Mof_N 	N 	0.6898	0.5126	0.4214	-0.059
Mof_N 	N 	0.695	0.5839	0.4431	-0.074
Mof_N 	N 	0.61423	0.6048	0.44525	-0.225
Mof_N 	N 	0.9652	0.52379	0.77241	-0.218
Mof_N 	N 	0.959	0.44486	0.77163	-0.088
Mof_N 	N 	0.9381	0.4177	0.71476	-0.1
Mof_N 	N 	0.9345	0.48	0.67583	-0.084
Mof_N 	N 	0.62903	0.65717	0.68948	-0.209
Mof_N 	N 	0.67153	0.64371	0.74008	-0.064
Mof_N 	N 	0.74679	0.66432	0.72805	-0.095
Mof_N 	N 	0.75593	0.69072	0.66734	-0.211
Mof_N 	N 	0.96393	0.88618	0.56449	-0.216
Mof_N 	N 	0.04034	0.91728	0.54964	-0.089
Mof_N 	N 	0.05482	0.99268	0.56897	-0.067
Mof_N 	N 	0.98891	0.01177	0.59625	-0.225
Mof_N 	N 	0.91101	0.8626	0.31776	-0.228
Mof_N 	N 	0.86281	0.8816	0.27132	-0.068
Mof_N 	N 	0.7888	0.8658	0.29224	-0.088
Mof_N 	N 	0.7877	0.8388	0.35183	-0.113
Mof_N 	N 	0.10167	0.24399	0.92741	-0.236
Mof_N 	N 	0.1377	0.2152	0.87726	-0.058
Mof_N 	N 	0.2143	0.2245	0.891	-0.061
Mof_N 	N 	0.2302	0.2637	0.9463	-0.089
Mof_N 	N 	0.9586	0.9876	0.84778	-0.089
Mof_N 	N 	0.9573	0.9225	0.8094	-0.106
Mof_N 	N 	0.9526	0.94404	0.75024	-0.088
Mof_N 	N 	0.95026	0.02176	0.74754	-0.231
Mof_N 	N 	0.89205	0.51833	0.90877	-0.219
Mof_N 	N 	0.8102	0.4874	0.9214	-0.06
Mof_N 	N 	0.805	0.4161	0.9431	-0.076
Mof_N 	N 	0.88577	0.3952	0.94525	-0.224
Mof_N 	N 	0.5348	0.47621	0.27241	-0.218
Mof_N 	N 	0.541	0.55514	0.27163	-0.087
Mof_N 	N 	0.5619	0.5823	0.21476	-0.1
Mof_N 	N 	0.5655	0.52	0.17583	-0.084
Mof_N 	N 	0.87097	0.34283	0.18948	-0.206
Mof_N 	N 	0.82847	0.35629	0.24008	-0.063
Mof_N 	N 	0.75321	0.33568	0.22805	-0.095
Mof_N 	N 	0.74407	0.30928	0.16734	-0.211
Mof_N 	N 	0.53607	0.11382	0.06449	-0.216
Mof_N 	N 	0.45966	0.08272	0.04964	-0.089
Mof_N 	N 	0.44518	0.00732	0.06897	-0.066
Mof_N 	N 	0.51109	0.98823	0.09625	-0.225
Mof_N 	N 	0.58899	0.1374	0.81776	-0.231
Mof_N 	N 	0.63719	0.1184	0.77132	-0.07
Mof_N 	N 	0.7112	0.1342	0.79224	-0.089
Mof_N 	N 	0.7123	0.1612	0.85183	-0.113
Mof_N 	N 	0.60167	0.24399	0.57259	-0.241
Mof_N 	N 	0.6377	0.2152	0.62274	-0.061
Mof_N 	N 	0.7143	0.2245	0.609	-0.062
Mof_N 	N 	0.7302	0.2637	0.5537	-0.088
Mof_N 	N 	0.4586	0.9876	0.65222	-0.09
Mof_N 	N 	0.4573	0.9225	0.6906	-0.106
Mof_N 	N 	0.4526	0.94404	0.74976	-0.089
Mof_N 	N 	0.45026	0.02176	0.75246	-0.231
Mof_N 	N 	0.39205	0.51833	0.59123	-0.22
Mof_N 	N 	0.3102	0.4874	0.5786	-0.059
Mof_N 	N 	0.305	0.4161	0.5569	-0.074
Mof_N 	N 	0.38577	0.3952	0.55475	-0.225
Mof_N 	N 	0.0348	0.47621	0.22759	-0.218
Mof_N 	N 	0.041	0.55514	0.22837	-0.088
Mof_N 	N 	0.0619	0.5823	0.28524	-0.1
Mof_N 	N 	0.0655	0.52	0.32417	-0.084
Mof_N 	N 	0.37097	0.34283	0.31052	-0.209
Mof_N 	N 	0.32847	0.35629	0.25992	-0.064
Mof_N 	N 	0.25321	0.33568	0.27195	-0.095
Mof_N 	N 	0.24407	0.30928	0.33266	-0.211
Mof_N 	N 	0.03607	0.11382	0.43551	-0.216
Mof_N 	N 	0.95966	0.08272	0.45036	-0.089
Mof_N 	N 	0.94518	0.00732	0.43103	-0.067
Mof_N 	N 	0.01109	0.98823	0.40375	-0.225
Mof_N 	N 	0.08899	0.1374	0.68224	-0.228
Mof_N 	N 	0.13719	0.1184	0.72868	-0.068
Mof_N 	N 	0.2112	0.1342	0.70776	-0.088
Mof_N 	N 	0.2123	0.1612	0.64817	-0.113
Mof_N 	N 	0.89833	0.75601	0.07259	-0.236
Mof_N 	N 	0.8623	0.7848	0.12274	-0.058
Mof_N 	N 	0.7857	0.7755	0.109	-0.061
Mof_N 	N 	0.7698	0.7363	0.0537	-0.089
Mof_N 	N 	0.0414	0.0124	0.15222	-0.089
Mof_N 	N 	0.0427	0.0775	0.1906	-0.106
Mof_N 	N 	0.0474	0.05596	0.24976	-0.088
Mof_N 	N 	0.04974	0.97824	0.25246	-0.231
Mof_N 	N 	0.10795	0.48167	0.09123	-0.219
Mof_N 	N 	0.1898	0.5126	0.0786	-0.06
Mof_N 	N 	0.195	0.5839	0.0569	-0.076
Mof_N 	N 	0.11423	0.6048	0.05475	-0.224
Mof_N 	N 	0.4652	0.52379	0.72759	-0.218
Mof_N 	N 	0.459	0.44486	0.72837	-0.087
Mof_N 	N 	0.4381	0.4177	0.78524	-0.1
Mof_N 	N 	0.4345	0.48	0.82417	-0.084
Mof_N 	N 	0.12903	0.65717	0.81052	-0.206
Mof_N 	N 	0.17153	0.64371	0.75992	-0.063
Mof_N 	N 	0.24679	0.66432	0.77195	-0.095
Mof_N 	N 	0.25593	0.69072	0.83266	-0.211
Mof_N 	N 	0.46393	0.88618	0.93551	-0.216
Mof_N 	N 	0.54034	0.91728	0.95036	-0.089
Mof_N 	N 	0.55482	0.99268	0.93103	-0.066
Mof_N 	N 	0.48891	0.01177	0.90375	-0.225
Mof_N 	N 	0.41101	0.8626	0.18224	-0.231
Mof_N 	N 	0.36281	0.8816	0.22868	-0.07
Mof_N 	N 	0.2888	0.8658	0.20776	-0.089
Mof_N 	N 	0.2877	0.8388	0.14817	-0.113
Mof_O 	O 	0.92789	0.80035	0.68382	-1.059
Mof_O 	O 	0.43055	0.69136	0.54229	-0.7
Mof_O 	O 	0.83278	0.6197	0.52778	-1.01
Mof_O 	O 	0.34662	0.64545	0.67305	-1.068
Mof_O 	O 	0.2987	0.6709	0.56387	-0.351
Mof_O 	O 	0.53948	0.72571	0.15806	-0.988
Mof_O 	O 	0.51099	0.78481	0.65477	-1.013
Mof_O 	O 	0.54158	0.85027	0.51682	-1.03
Mof_O 	O 	0.67553	0.78621	0.43976	-1.109
Mof_O 	O 	0.54115	0.6928	0.33947	-1.063
Mof_O 	O 	0.62901	0.86073	0.05319	-0.961
Mof_O 	O 	0.9955	0.72686	0.53061	-1.036
Mof_O 	O 	0.69069	0.83911	0.18787	-1.021
Mof_O 	O 	0.54777	0.84866	0.37858	-0.512
Mof_O 	O 	0.55389	0.82622	0.27363	-0.533
Mof_O 	O 	0.44475	0.46756	0.40199	-0.512
Mof_O 	O 	0.45227	0.593	0.43285	-0.514
Mof_O 	O 	0.97276	0.6763	0.74061	-0.525
Mof_O 	O 	0.92715	0.64421	0.64349	-0.548
Mof_O 	O 	0.59377	0.70115	0.56344	-0.705
Mof_O 	O 	0.72489	0.73122	0.54687	-0.592
Mof_O 	O 	0.81046	0.87243	0.61244	-0.525
Mof_O 	O 	0.8336	0.00108	0.64219	-0.488
Mof_O 	O 	0.96964	0.81315	0.42663	-0.577
Mof_O 	O 	0.85	0.78832	0.47111	-0.582
Mof_O 	O 	0.57211	0.19965	0.18382	-1.059
Mof_O 	O 	0.06945	0.30864	0.04229	-0.698
Mof_O 	O 	0.66722	0.3803	0.02778	-1.003
Mof_O 	O 	0.15338	0.35455	0.17305	-1.065
Mof_O 	O 	0.2013	0.3291	0.06387	-0.35
Mof_O 	O 	0.96052	0.27429	0.65806	-0.988
Mof_O 	O 	0.98901	0.21519	0.15477	-0.995
Mof_O 	O 	0.95842	0.14973	0.01682	-1.019
Mof_O 	O 	0.82447	0.21379	0.93976	-1.105
Mof_O 	O 	0.95885	0.3072	0.83947	-1.059
Mof_O 	O 	0.87099	0.13927	0.55319	-0.961
Mof_O 	O 	0.5045	0.27314	0.03061	-1.038
Mof_O 	O 	0.80931	0.16089	0.68787	-1.02
Mof_O 	O 	0.95223	0.15134	0.87858	-0.513
Mof_O 	O 	0.94611	0.17378	0.77363	-0.534
Mof_O 	O 	0.05525	0.53244	0.90199	-0.508
Mof_O 	O 	0.04773	0.407	0.93285	-0.507
Mof_O 	O 	0.52724	0.3237	0.24061	-0.526
Mof_O 	O 	0.57285	0.35579	0.14349	-0.548
Mof_O 	O 	0.90623	0.29885	0.06344	-0.694
Mof_O 	O 	0.77511	0.26878	0.04687	-0.587
Mof_O 	O 	0.68954	0.12757	0.11244	-0.524
Mof_O 	O 	0.6664	0.99892	0.14219	-0.486
Mof_O 	O 	0.53036	0.18685	0.92663	-0.582
Mof_O 	O 	0.65	0.21168	0.97111	-0.586
Mof_O 	O 	0.07211	0.19965	0.31618	-1.059
Mof_O 	O 	0.56945	0.30864	0.45771	-0.7
Mof_O 	O 	0.16722	0.3803	0.47222	-1.01
Mof_O 	O 	0.65338	0.35455	0.32695	-1.068
Mof_O 	O 	0.7013	0.3291	0.43613	-0.351
Mof_O 	O 	0.46052	0.27429	0.84194	-0.988
Mof_O 	O 	0.48901	0.21519	0.34523	-1.013
Mof_O 	O 	0.45842	0.14973	0.48318	-1.03
Mof_O 	O 	0.32447	0.21379	0.56024	-1.109
Mof_O 	O 	0.45885	0.3072	0.66053	-1.063
Mof_O 	O 	0.37099	0.13927	0.94681	-0.961
Mof_O 	O 	0.0045	0.27314	0.46939	-1.036
Mof_O 	O 	0.30931	0.16089	0.81213	-1.021
Mof_O 	O 	0.45223	0.15134	0.62142	-0.512
Mof_O 	O 	0.44611	0.17378	0.72637	-0.533
Mof_O 	O 	0.55525	0.53244	0.59801	-0.512
Mof_O 	O 	0.54773	0.407	0.56715	-0.514
Mof_O 	O 	0.02724	0.3237	0.25939	-0.525
Mof_O 	O 	0.07285	0.35579	0.35651	-0.548
Mof_O 	O 	0.40623	0.29885	0.43656	-0.705
Mof_O 	O 	0.27511	0.26878	0.45313	-0.592
Mof_O 	O 	0.18954	0.12757	0.38756	-0.525
Mof_O 	O 	0.1664	0.99892	0.35781	-0.488
Mof_O 	O 	0.03036	0.18685	0.57337	-0.577
Mof_O 	O 	0.15	0.21168	0.52889	-0.582
Mof_O 	O 	0.42789	0.80035	0.81618	-1.059
Mof_O 	O 	0.93055	0.69136	0.95771	-0.698
Mof_O 	O 	0.33278	0.6197	0.97222	-1.003
Mof_O 	O 	0.84662	0.64545	0.82695	-1.065
Mof_O 	O 	0.7987	0.6709	0.93613	-0.35
Mof_O 	O 	0.03948	0.72571	0.34194	-0.988
Mof_O 	O 	0.01099	0.78481	0.84523	-0.995
Mof_O 	O 	0.04158	0.85027	0.98318	-1.019
Mof_O 	O 	0.17553	0.78621	0.06024	-1.105
Mof_O 	O 	0.04115	0.6928	0.16053	-1.059
Mof_O 	O 	0.12901	0.86073	0.44681	-0.961
Mof_O 	O 	0.4955	0.72686	0.96939	-1.038
Mof_O 	O 	0.19069	0.83911	0.31213	-1.02
Mof_O 	O 	0.04777	0.84866	0.12142	-0.513
Mof_O 	O 	0.05389	0.82622	0.22637	-0.534
Mof_O 	O 	0.94475	0.46756	0.09801	-0.508
Mof_O 	O 	0.95227	0.593	0.06715	-0.507
Mof_O 	O 	0.47276	0.6763	0.75939	-0.526
Mof_O 	O 	0.42715	0.64421	0.85651	-0.548
Mof_O 	O 	0.09377	0.70115	0.93656	-0.694
Mof_O 	O 	0.22489	0.73122	0.95313	-0.587
Mof_O 	O 	0.31046	0.87243	0.88756	-0.524
Mof_O 	O 	0.3336	0.00108	0.85781	-0.486
Mof_O 	O 	0.46964	0.81315	0.07337	-0.582
Mof_O 	O 	0.35	0.78832	0.02889	-0.586
_end
