data_functionalizedCrystal
_audit_creation_method	'EQeq! by Chris Wilmer'
_symmetry_space_group_name_H-M	'P1'
_symmetry_Int_Tables_number	1
_symmetry_cell_setting	triclinic
loop_
_symmetry_equiv_pos_as_xyz
  x,y,z
_cell_length_a	15.0578
_cell_length_b	13.197
_cell_length_c	15.2727
_cell_angle_alpha	90
_cell_angle_beta	112.197
_cell_angle_gamma	90
loop_
_atom_site_label
_atom_site_type_symbol
_atom_site_fract_x
_atom_site_fract_y
_atom_site_fract_z
_atom_site_charge
Mof_Ga	Ga	0.56738	0.10568	0.65382	3.569
Mof_Ga	Ga	0.73158	0.87308	0.5773	3.607
Mof_Co	Co	0.63532	0.19004	0.36767	1.21
Mof_P 	P 	0.5716	0.8694	0.6573	0.806
Mof_P 	P 	0.7317	0.1144	0.5759	0.811
Mof_P 	P 	0.6368	0.1869	0.8647	1.039
Mof_O 	O 	0.627	0.8289	0.6002	-1.092
Mof_O 	O 	0.7156	0.1423	0.9528	-1.148
Mof_O 	O 	0.5295	0.9736	0.6227	-1.158
Mof_O 	O 	0.7126	0.1169	0.4706	-0.568
Mof_O 	O 	0.7572	0.0068	0.6151	-1.087
Mof_O 	O 	0.8178	0.1799	0.6299	-0.509
Mof_O 	O 	0.4905	0.7944	0.6435	-0.521
Mof_O 	O 	0.6349	0.1218	0.7831	-1.111
Mof_O 	O 	0.6598	0.2974	0.8514	-1.068
Mof_O 	O 	0.6379	0.8757	0.7616	-0.604
Mof_O 	O 	0.5406	0.1869	0.8767	-1.129
Mof_O 	O 	0.6437	0.1546	0.5907	-1.048
Mof_Ga	Ga	0.06738	0.60568	0.65382	3.571
Mof_Ga	Ga	0.23158	0.37308	0.5773	3.608
Mof_Co	Co	0.13532	0.69004	0.36767	1.21
Mof_P 	P 	0.0716	0.3694	0.6573	0.808
Mof_P 	P 	0.2317	0.6144	0.5759	0.811
Mof_P 	P 	0.1368	0.6869	0.8647	1.039
Mof_O 	O 	0.127	0.3289	0.6002	-1.092
Mof_O 	O 	0.2156	0.6423	0.9528	-1.144
Mof_O 	O 	0.0295	0.4736	0.6227	-1.158
Mof_O 	O 	0.2126	0.6169	0.4706	-0.568
Mof_O 	O 	0.2572	0.5068	0.6151	-1.087
Mof_O 	O 	0.3178	0.6799	0.6299	-0.509
Mof_O 	O 	0.9905	0.2944	0.6435	-0.523
Mof_O 	O 	0.1349	0.6218	0.7831	-1.111
Mof_O 	O 	0.1598	0.7974	0.8514	-1.07
Mof_O 	O 	0.1379	0.3757	0.7616	-0.603
Mof_O 	O 	0.0406	0.6869	0.8767	-1.123
Mof_O 	O 	0.1437	0.6546	0.5907	-1.049
Mof_Ga	Ga	0.43262	0.10568	0.84618	3.571
Mof_Ga	Ga	0.26842	0.87308	0.9227	3.609
Mof_Co	Co	0.36468	0.19004	0.13233	1.21
Mof_P 	P 	0.4284	0.8694	0.8427	0.806
Mof_P 	P 	0.2683	0.1144	0.9241	0.815
Mof_P 	P 	0.3632	0.1869	0.6353	1.039
Mof_O 	O 	0.373	0.8289	0.8998	-1.092
Mof_O 	O 	0.2844	0.1423	0.5472	-1.147
Mof_O 	O 	0.4705	0.9736	0.8773	-1.159
Mof_O 	O 	0.2874	0.1169	0.0294	-0.571
Mof_O 	O 	0.2428	0.0068	0.8849	-1.086
Mof_O 	O 	0.1822	0.1799	0.8701	-0.508
Mof_O 	O 	0.5095	0.7944	0.8565	-0.521
Mof_O 	O 	0.3651	0.1218	0.7169	-1.111
Mof_O 	O 	0.3402	0.2974	0.6486	-1.07
Mof_O 	O 	0.3621	0.8757	0.7384	-0.604
Mof_O 	O 	0.4594	0.1869	0.6233	-1.129
Mof_O 	O 	0.3563	0.1546	0.9093	-1.048
Mof_Ga	Ga	0.93262	0.60568	0.84618	3.556
Mof_Ga	Ga	0.76842	0.37308	0.9227	3.6
Mof_Co	Co	0.86468	0.69004	0.13233	1.211
Mof_P 	P 	0.9284	0.3694	0.8427	0.802
Mof_P 	P 	0.7683	0.6144	0.9241	0.808
Mof_P 	P 	0.8632	0.6869	0.6353	1.039
Mof_O 	O 	0.873	0.3289	0.8998	-1.091
Mof_O 	O 	0.7844	0.6423	0.5472	-1.147
Mof_O 	O 	0.9705	0.4736	0.8773	-1.156
Mof_O 	O 	0.7874	0.6169	0.0294	-0.564
Mof_O 	O 	0.7428	0.5068	0.8849	-1.085
Mof_O 	O 	0.6822	0.6799	0.8701	-0.509
Mof_O 	O 	0.0095	0.2944	0.8565	-0.517
Mof_O 	O 	0.8651	0.6218	0.7169	-1.109
Mof_O 	O 	0.8402	0.7974	0.6486	-1.07
Mof_O 	O 	0.8621	0.3757	0.7384	-0.603
Mof_O 	O 	0.9594	0.6869	0.6233	-1.13
Mof_O 	O 	0.8563	0.6546	0.9093	-1.047
Mof_Ga	Ga	0.43262	0.89432	0.34618	3.568
Mof_Ga	Ga	0.26842	0.12692	0.4227	3.606
Mof_Co	Co	0.36468	0.80996	0.63233	1.21
Mof_P 	P 	0.4284	0.1306	0.3427	0.806
Mof_P 	P 	0.2683	0.8856	0.4241	0.811
Mof_P 	P 	0.3632	0.8131	0.1353	1.039
Mof_O 	O 	0.373	0.1711	0.3998	-1.092
Mof_O 	O 	0.2844	0.8577	0.0472	-1.148
Mof_O 	O 	0.4705	0.0264	0.3773	-1.158
Mof_O 	O 	0.2874	0.8831	0.5294	-0.568
Mof_O 	O 	0.2428	0.9932	0.3849	-1.087
Mof_O 	O 	0.1822	0.8201	0.3701	-0.509
Mof_O 	O 	0.5095	0.2056	0.3565	-0.521
Mof_O 	O 	0.3651	0.8782	0.2169	-1.111
Mof_O 	O 	0.3402	0.7026	0.1486	-1.068
Mof_O 	O 	0.3621	0.1243	0.2384	-0.604
Mof_O 	O 	0.4594	0.8131	0.1233	-1.129
Mof_O 	O 	0.3563	0.8454	0.4093	-1.048
Mof_Ga	Ga	0.93262	0.39432	0.34618	3.571
Mof_Ga	Ga	0.76842	0.62692	0.4227	3.608
Mof_Co	Co	0.86468	0.30996	0.63233	1.21
Mof_P 	P 	0.9284	0.6306	0.3427	0.808
Mof_P 	P 	0.7683	0.3856	0.4241	0.811
Mof_P 	P 	0.8632	0.3131	0.1353	1.039
Mof_O 	O 	0.873	0.6711	0.3998	-1.092
Mof_O 	O 	0.7844	0.3577	0.0472	-1.144
Mof_O 	O 	0.9705	0.5264	0.3773	-1.158
Mof_O 	O 	0.7874	0.3831	0.5294	-0.568
Mof_O 	O 	0.7428	0.4932	0.3849	-1.087
Mof_O 	O 	0.6822	0.3201	0.3701	-0.509
Mof_O 	O 	0.0095	0.7056	0.3565	-0.523
Mof_O 	O 	0.8651	0.3782	0.2169	-1.111
Mof_O 	O 	0.8402	0.2026	0.1486	-1.07
Mof_O 	O 	0.8621	0.6243	0.2384	-0.603
Mof_O 	O 	0.9594	0.3131	0.1233	-1.123
Mof_O 	O 	0.8563	0.3454	0.4093	-1.049
Mof_Ga	Ga	0.56738	0.89432	0.15382	3.571
Mof_Ga	Ga	0.73158	0.12692	0.0773	3.609
Mof_Co	Co	0.63532	0.80996	0.86767	1.21
Mof_P 	P 	0.5716	0.1306	0.1573	0.806
Mof_P 	P 	0.7317	0.8856	0.0759	0.815
Mof_P 	P 	0.6368	0.8131	0.3647	1.039
Mof_O 	O 	0.627	0.1711	0.1002	-1.092
Mof_O 	O 	0.7156	0.8577	0.4528	-1.147
Mof_O 	O 	0.5295	0.0264	0.1227	-1.159
Mof_O 	O 	0.7126	0.8831	0.9706	-0.571
Mof_O 	O 	0.7572	0.9932	0.1151	-1.086
Mof_O 	O 	0.8178	0.8201	0.1299	-0.508
Mof_O 	O 	0.4905	0.2056	0.1435	-0.521
Mof_O 	O 	0.6349	0.8782	0.2831	-1.111
Mof_O 	O 	0.6598	0.7026	0.3514	-1.07
Mof_O 	O 	0.6379	0.1243	0.2616	-0.604
Mof_O 	O 	0.5406	0.8131	0.3767	-1.129
Mof_O 	O 	0.6437	0.8454	0.0907	-1.048
Mof_Ga	Ga	0.06738	0.39432	0.15382	3.556
Mof_Ga	Ga	0.23158	0.62692	0.0773	3.6
Mof_Co	Co	0.13532	0.30996	0.86767	1.211
Mof_P 	P 	0.0716	0.6306	0.1573	0.802
Mof_P 	P 	0.2317	0.3856	0.0759	0.808
Mof_P 	P 	0.1368	0.3131	0.3647	1.039
Mof_O 	O 	0.127	0.6711	0.1002	-1.091
Mof_O 	O 	0.2156	0.3577	0.4528	-1.147
Mof_O 	O 	0.0295	0.5264	0.1227	-1.156
Mof_O 	O 	0.2126	0.3831	0.9706	-0.564
Mof_O 	O 	0.2572	0.4932	0.1151	-1.085
Mof_O 	O 	0.3178	0.3201	0.1299	-0.509
Mof_O 	O 	0.9905	0.7056	0.1435	-0.517
Mof_O 	O 	0.1349	0.3782	0.2831	-1.109
Mof_O 	O 	0.1598	0.2026	0.3514	-1.07
Mof_O 	O 	0.1379	0.6243	0.2616	-0.603
Mof_O 	O 	0.0406	0.3131	0.3767	-1.13
Mof_O 	O 	0.1437	0.3454	0.0907	-1.047
_end
