# CIF file generated by openbabel 3.1.0, see https://openbabel.org
data_I
_chemical_name_common 'image0'
_cell_length_a 22.0927
_cell_length_b 22.0927
_cell_length_c 15.2503
_cell_angle_alpha 90
_cell_angle_beta 90
_cell_angle_gamma 90
_space_group_name_H-M_alt 'P 1'
_space_group_name_Hall 'P 1'
loop_
    _symmetry_equiv_pos_as_xyz
    x,y,z
loop_
    _atom_site_label
    _atom_site_type_symbol
    _atom_site_fract_x
    _atom_site_fract_y
    _atom_site_fract_z
    _atom_site_occupancy
    F1       F        0.99320    0.92552    0.66200    1.000
    F2       F        0.92592    0.01508    0.16650    1.000
    N1       N        0.43200    0.43261    0.91150    1.000
    C1       C        0.38700    0.43310    0.85570    1.000
    H1       H        0.38660    0.46460    0.81320    1.000
    C2       C        0.33990    0.39160    0.85310    1.000
    H2       H        0.30860    0.39520    0.81080    1.000
    C3       C        0.33960    0.34430    0.91430    1.000
    C4       C        0.39020    0.34240    0.97670    1.000
    H3       H        0.39340    0.31170    0.02010    1.000
    C5       C        0.43130    0.38610    0.96880    1.000
    H4       H        0.46430    0.38440    0.00870    1.000
    C6       C        0.29330    0.29690    0.91730    1.000
    C7       C        0.23200    0.30770    0.92660    1.000
    C8       C        0.19150    0.26370    0.92310    1.000
    H5       H        0.14980    0.27440    0.92300    1.000
    C9       C        0.20630    0.20420    0.91950    1.000
    C10      C        0.26790    0.18830    0.91890    1.000
    C11      C        0.31150    0.23680    0.91750    1.000
    H6       H        0.35350    0.22750    0.91680    1.000
    C12      C        0.15860    0.15600    0.91850    1.000
    C13      C        0.15710    0.11000    0.97800    1.000
    H7       H        0.18880    0.10720    0.01990    1.000
    C14      C        0.11210    0.06800    0.97990    1.000
    H8       H        0.11120    0.03820    0.02490    1.000
    N2       N        0.06759    0.06896    0.91590    1.000
    C15      C        0.06780    0.11180    0.85430    1.000
    H9       H        0.03730    0.11380    0.81060    1.000
    C16      C        0.11660    0.15500    0.85720    1.000
    H10      H        0.11870    0.18460    0.81200    1.000
    O1       O        0.21890    0.36960    0.94010    1.000
    C17      C        0.15910    0.38460    0.97040    1.000
    H11      H        0.14890    0.36060    0.02320    1.000
    H12      H        0.12880    0.37550    0.92430    1.000
    C18      C        0.15840    0.45320    0.99250    1.000
    C19      C        0.09030    0.46830    0.01610    1.000
    C20      C        0.09600    0.45800    0.11940    1.000
    C21      C        0.15510    0.48570    0.89930    1.000
    C22      C        0.31680    0.00940    0.90680    1.000
    C23      C        0.42430    0.04860    0.89300    1.000
    C24      C        0.41070    0.03470    0.99060    1.000
    O2       O        0.28340    0.13240    0.94050    1.000
    C25      C        0.34470    0.11660    0.96230    1.000
    H13      H        0.35970    0.14190    0.01130    1.000
    H14      H        0.37160    0.12230    0.91110    1.000
    C26      C        0.34210    0.04630    0.99040    1.000
    C27      C        0.21240    0.49290    0.96800    1.000
    C28      C        0.10780    0.46960    0.05780    1.000
    C29      C        0.10200    0.43800    0.14800    1.000
    C30      C        0.29900    0.01500    0.92300    1.000
    C31      C        0.40630    0.02600    0.01700    1.000
    C32      C        0.38800    0.96100    0.99200    1.000
    F3       F        0.00680    0.07448    0.66200    1.000
    F4       F        0.07408    0.98492    0.16650    1.000
    N3       N        0.56800    0.56739    0.91150    1.000
    C33      C        0.61300    0.56690    0.85570    1.000
    H15      H        0.61340    0.53540    0.81320    1.000
    C34      C        0.66010    0.60840    0.85310    1.000
    H16      H        0.69140    0.60480    0.81080    1.000
    C35      C        0.66040    0.65570    0.91430    1.000
    C36      C        0.60980    0.65760    0.97670    1.000
    H17      H        0.60660    0.68830    0.02010    1.000
    C37      C        0.56870    0.61390    0.96880    1.000
    H18      H        0.53570    0.61560    0.00870    1.000
    C38      C        0.70670    0.70310    0.91730    1.000
    C39      C        0.76800    0.69230    0.92660    1.000
    C40      C        0.80850    0.73630    0.92310    1.000
    H19      H        0.85020    0.72560    0.92300    1.000
    C41      C        0.79370    0.79580    0.91950    1.000
    C42      C        0.73210    0.81170    0.91890    1.000
    C43      C        0.68850    0.76320    0.91750    1.000
    H20      H        0.64650    0.77250    0.91680    1.000
    C44      C        0.84140    0.84400    0.91850    1.000
    C45      C        0.84290    0.89000    0.97800    1.000
    H21      H        0.81120    0.89280    0.01990    1.000
    C46      C        0.88790    0.93200    0.97990    1.000
    H22      H        0.88880    0.96180    0.02490    1.000
    N4       N        0.93241    0.93104    0.91590    1.000
    C47      C        0.93220    0.88820    0.85430    1.000
    H23      H        0.96270    0.88620    0.81060    1.000
    C48      C        0.88340    0.84500    0.85720    1.000
    H24      H        0.88130    0.81540    0.81200    1.000
    O3       O        0.78110    0.63040    0.94010    1.000
    C49      C        0.84090    0.61540    0.97040    1.000
    H25      H        0.85110    0.63940    0.02320    1.000
    H26      H        0.87120    0.62450    0.92430    1.000
    C50      C        0.84160    0.54680    0.99250    1.000
    C51      C        0.90970    0.53170    0.01610    1.000
    C52      C        0.90400    0.54200    0.11940    1.000
    C53      C        0.84490    0.51430    0.89930    1.000
    C54      C        0.68320    0.99060    0.90680    1.000
    C55      C        0.57570    0.95140    0.89300    1.000
    C56      C        0.58930    0.96530    0.99060    1.000
    O4       O        0.71660    0.86760    0.94050    1.000
    C57      C        0.65530    0.88340    0.96230    1.000
    H27      H        0.64030    0.85810    0.01130    1.000
    H28      H        0.62840    0.87770    0.91110    1.000
    C58      C        0.65790    0.95370    0.99040    1.000
    C59      C        0.78760    0.50710    0.96800    1.000
    C60      C        0.89220    0.53040    0.05780    1.000
    C61      C        0.89800    0.56200    0.14800    1.000
    C62      C        0.70100    0.98500    0.92300    1.000
    C63      C        0.59370    0.97400    0.01700    1.000
    C64      C        0.61200    0.03900    0.99200    1.000
    F5       F        0.07448    0.99320    0.66200    1.000
    F6       F        0.98492    0.92592    0.16650    1.000
    N5       N        0.56739    0.43200    0.91150    1.000
    C65      C        0.56690    0.38700    0.85570    1.000
    H29      H        0.53540    0.38660    0.81320    1.000
    C66      C        0.60840    0.33990    0.85310    1.000
    H30      H        0.60480    0.30860    0.81080    1.000
    C67      C        0.65570    0.33960    0.91430    1.000
    C68      C        0.65760    0.39020    0.97670    1.000
    H31      H        0.68830    0.39340    0.02010    1.000
    C69      C        0.61390    0.43130    0.96880    1.000
    H32      H        0.61560    0.46430    0.00870    1.000
    C70      C        0.70310    0.29330    0.91730    1.000
    C71      C        0.69230    0.23200    0.92660    1.000
    C72      C        0.73630    0.19150    0.92310    1.000
    H33      H        0.72560    0.14980    0.92300    1.000
    C73      C        0.79580    0.20630    0.91950    1.000
    C74      C        0.81170    0.26790    0.91890    1.000
    C75      C        0.76320    0.31150    0.91750    1.000
    H34      H        0.77250    0.35350    0.91680    1.000
    C76      C        0.84400    0.15860    0.91850    1.000
    C77      C        0.89000    0.15710    0.97800    1.000
    H35      H        0.89280    0.18880    0.01990    1.000
    C78      C        0.93200    0.11210    0.97990    1.000
    H36      H        0.96180    0.11120    0.02490    1.000
    N6       N        0.93104    0.06759    0.91590    1.000
    C79      C        0.88820    0.06780    0.85430    1.000
    H37      H        0.88620    0.03730    0.81060    1.000
    C80      C        0.84500    0.11660    0.85720    1.000
    H38      H        0.81540    0.11870    0.81200    1.000
    O5       O        0.63040    0.21890    0.94010    1.000
    C81      C        0.61540    0.15910    0.97040    1.000
    H39      H        0.63940    0.14890    0.02320    1.000
    H40      H        0.62450    0.12880    0.92430    1.000
    C82      C        0.54680    0.15840    0.99250    1.000
    C83      C        0.53170    0.09030    0.01610    1.000
    C84      C        0.54200    0.09600    0.11940    1.000
    C85      C        0.51430    0.15510    0.89930    1.000
    C86      C        0.99060    0.31680    0.90680    1.000
    C87      C        0.95140    0.42430    0.89300    1.000
    C88      C        0.96530    0.41070    0.99060    1.000
    O6       O        0.86760    0.28340    0.94050    1.000
    C89      C        0.88340    0.34470    0.96230    1.000
    H41      H        0.85810    0.35970    0.01130    1.000
    H42      H        0.87770    0.37160    0.91110    1.000
    C90      C        0.95370    0.34210    0.99040    1.000
    C91      C        0.50710    0.21240    0.96800    1.000
    C92      C        0.53040    0.10780    0.05780    1.000
    C93      C        0.56200    0.10200    0.14800    1.000
    C94      C        0.98500    0.29900    0.92300    1.000
    C95      C        0.97400    0.40630    0.01700    1.000
    C96      C        0.03900    0.38800    0.99200    1.000
    F7       F        0.92552    0.00680    0.66200    1.000
    F8       F        0.01508    0.07408    0.16650    1.000
    N7       N        0.43261    0.56800    0.91150    1.000
    C97      C        0.43310    0.61300    0.85570    1.000
    H43      H        0.46460    0.61340    0.81320    1.000
    C98      C        0.39160    0.66010    0.85310    1.000
    H44      H        0.39520    0.69140    0.81080    1.000
    C99      C        0.34430    0.66040    0.91430    1.000
    C100     C        0.34240    0.60980    0.97670    1.000
    H45      H        0.31170    0.60660    0.02010    1.000
    C101     C        0.38610    0.56870    0.96880    1.000
    H46      H        0.38440    0.53570    0.00870    1.000
    C102     C        0.29690    0.70670    0.91730    1.000
    C103     C        0.30770    0.76800    0.92660    1.000
    C104     C        0.26370    0.80850    0.92310    1.000
    H47      H        0.27440    0.85020    0.92300    1.000
    C105     C        0.20420    0.79370    0.91950    1.000
    C106     C        0.18830    0.73210    0.91890    1.000
    C107     C        0.23680    0.68850    0.91750    1.000
    H48      H        0.22750    0.64650    0.91680    1.000
    C108     C        0.15600    0.84140    0.91850    1.000
    C109     C        0.11000    0.84290    0.97800    1.000
    H49      H        0.10720    0.81120    0.01990    1.000
    C110     C        0.06800    0.88790    0.97990    1.000
    H50      H        0.03820    0.88880    0.02490    1.000
    N8       N        0.06896    0.93241    0.91590    1.000
    C111     C        0.11180    0.93220    0.85430    1.000
    H51      H        0.11380    0.96270    0.81060    1.000
    C112     C        0.15500    0.88340    0.85720    1.000
    H52      H        0.18460    0.88130    0.81200    1.000
    O7       O        0.36960    0.78110    0.94010    1.000
    C113     C        0.38460    0.84090    0.97040    1.000
    H53      H        0.36060    0.85110    0.02320    1.000
    H54      H        0.37550    0.87120    0.92430    1.000
    C114     C        0.45320    0.84160    0.99250    1.000
    C115     C        0.46830    0.90970    0.01610    1.000
    C116     C        0.45800    0.90400    0.11940    1.000
    C117     C        0.48570    0.84490    0.89930    1.000
    C118     C        0.00940    0.68320    0.90680    1.000
    C119     C        0.04860    0.57570    0.89300    1.000
    C120     C        0.03470    0.58930    0.99060    1.000
    O8       O        0.13240    0.71660    0.94050    1.000
    C121     C        0.11660    0.65530    0.96230    1.000
    H55      H        0.14190    0.64030    0.01130    1.000
    H56      H        0.12230    0.62840    0.91110    1.000
    C122     C        0.04630    0.65790    0.99040    1.000
    C123     C        0.49290    0.78760    0.96800    1.000
    C124     C        0.46960    0.89220    0.05780    1.000
    C125     C        0.43800    0.89800    0.14800    1.000
    C126     C        0.01500    0.70100    0.92300    1.000
    C127     C        0.02600    0.59370    0.01700    1.000
    C128     C        0.96100    0.61200    0.99200    1.000
    Zn1      Zn       0.00000    0.00000    0.91736    1.000
    Si1      Si       0.00000    0.00000    0.66500    1.000
    Si2      Si       0.00000    0.00000    0.16510    1.000
    F9       F        0.00000    0.00000    0.78200    1.000
    F10      F        0.00000    0.00000    0.55800    1.000
    F11      F        0.00000    0.00000    0.05270    1.000
    F12      F        0.00000    0.00000    0.27650    1.000
    Zn2      Zn       0.50000    0.50000    0.91515    1.000
    N9       N        0.93200    0.93261    0.41150    1.000
    C129     C        0.88700    0.93310    0.35570    1.000
    H57      H        0.88660    0.96460    0.31320    1.000
    C130     C        0.83990    0.89160    0.35310    1.000
    H58      H        0.80860    0.89520    0.31080    1.000
    C131     C        0.83960    0.84430    0.41430    1.000
    C132     C        0.89020    0.84240    0.47670    1.000
    H59      H        0.89340    0.81170    0.52010    1.000
    C133     C        0.93130    0.88610    0.46880    1.000
    H60      H        0.96430    0.88440    0.50870    1.000
    C134     C        0.79330    0.79690    0.41730    1.000
    C135     C        0.73200    0.80770    0.42660    1.000
    C136     C        0.69150    0.76370    0.42310    1.000
    H61      H        0.64980    0.77440    0.42300    1.000
    C137     C        0.70630    0.70420    0.41950    1.000
    C138     C        0.76790    0.68830    0.41890    1.000
    C139     C        0.81150    0.73680    0.41750    1.000
    H62      H        0.85350    0.72750    0.41680    1.000
    C140     C        0.65860    0.65600    0.41850    1.000
    C141     C        0.65710    0.61000    0.47800    1.000
    H63      H        0.68880    0.60720    0.51990    1.000
    C142     C        0.61210    0.56800    0.47990    1.000
    H64      H        0.61120    0.53820    0.52490    1.000
    N10      N        0.56759    0.56896    0.41590    1.000
    C143     C        0.56780    0.61180    0.35430    1.000
    H65      H        0.53730    0.61380    0.31060    1.000
    C144     C        0.61660    0.65500    0.35720    1.000
    H66      H        0.61870    0.68460    0.31200    1.000
    O9       O        0.71890    0.86960    0.44010    1.000
    C145     C        0.65910    0.88460    0.47040    1.000
    H67      H        0.64890    0.86060    0.52320    1.000
    H68      H        0.62880    0.87550    0.42430    1.000
    C146     C        0.65840    0.95320    0.49250    1.000
    C147     C        0.59030    0.96830    0.51610    1.000
    C148     C        0.59600    0.95800    0.61940    1.000
    C149     C        0.65510    0.98570    0.39930    1.000
    C150     C        0.81680    0.50940    0.40680    1.000
    C151     C        0.92430    0.54860    0.39300    1.000
    C152     C        0.91070    0.53470    0.49060    1.000
    O10      O        0.78340    0.63240    0.44050    1.000
    C153     C        0.84470    0.61660    0.46230    1.000
    H69      H        0.85970    0.64190    0.51130    1.000
    H70      H        0.87160    0.62230    0.41110    1.000
    C154     C        0.84210    0.54630    0.49040    1.000
    C155     C        0.71240    0.99290    0.46800    1.000
    C156     C        0.60780    0.96960    0.55780    1.000
    C157     C        0.60200    0.93800    0.64800    1.000
    C158     C        0.79900    0.51500    0.42300    1.000
    C159     C        0.90630    0.52600    0.51700    1.000
    C160     C        0.88800    0.46100    0.49200    1.000
    F13      F        0.49320    0.42552    0.16200    1.000
    F14      F        0.42592    0.51508    0.66650    1.000
    N11      N        0.06800    0.06739    0.41150    1.000
    C161     C        0.11300    0.06690    0.35570    1.000
    H71      H        0.11340    0.03540    0.31320    1.000
    C162     C        0.16010    0.10840    0.35310    1.000
    H72      H        0.19140    0.10480    0.31080    1.000
    C163     C        0.16040    0.15570    0.41430    1.000
    C164     C        0.10980    0.15760    0.47670    1.000
    H73      H        0.10660    0.18830    0.52010    1.000
    C165     C        0.06870    0.11390    0.46880    1.000
    H74      H        0.03570    0.11560    0.50870    1.000
    C166     C        0.20670    0.20310    0.41730    1.000
    C167     C        0.26800    0.19230    0.42660    1.000
    C168     C        0.30850    0.23630    0.42310    1.000
    H75      H        0.35020    0.22560    0.42300    1.000
    C169     C        0.29370    0.29580    0.41950    1.000
    C170     C        0.23210    0.31170    0.41890    1.000
    C171     C        0.18850    0.26320    0.41750    1.000
    H76      H        0.14650    0.27250    0.41680    1.000
    C172     C        0.34140    0.34400    0.41850    1.000
    C173     C        0.34290    0.39000    0.47800    1.000
    H77      H        0.31120    0.39280    0.51990    1.000
    C174     C        0.38790    0.43200    0.47990    1.000
    H78      H        0.38880    0.46180    0.52490    1.000
    N12      N        0.43241    0.43104    0.41590    1.000
    C175     C        0.43220    0.38820    0.35430    1.000
    H79      H        0.46270    0.38620    0.31060    1.000
    C176     C        0.38340    0.34500    0.35720    1.000
    H80      H        0.38130    0.31540    0.31200    1.000
    O11      O        0.28110    0.13040    0.44010    1.000
    C177     C        0.34090    0.11540    0.47040    1.000
    H81      H        0.35110    0.13940    0.52320    1.000
    H82      H        0.37120    0.12450    0.42430    1.000
    C178     C        0.34160    0.04680    0.49250    1.000
    C179     C        0.40970    0.03170    0.51610    1.000
    C180     C        0.40400    0.04200    0.61940    1.000
    C181     C        0.34490    0.01430    0.39930    1.000
    C182     C        0.18320    0.49060    0.40680    1.000
    C183     C        0.07570    0.45140    0.39300    1.000
    C184     C        0.08930    0.46530    0.49060    1.000
    O12      O        0.21660    0.36760    0.44050    1.000
    C185     C        0.15530    0.38340    0.46230    1.000
    H83      H        0.14030    0.35810    0.51130    1.000
    H84      H        0.12840    0.37770    0.41110    1.000
    C186     C        0.15790    0.45370    0.49040    1.000
    C187     C        0.28760    0.00710    0.46800    1.000
    C188     C        0.39220    0.03040    0.55780    1.000
    C189     C        0.39800    0.06200    0.64800    1.000
    C190     C        0.20100    0.48500    0.42300    1.000
    C191     C        0.09370    0.47400    0.51700    1.000
    C192     C        0.11200    0.53900    0.49200    1.000
    F15      F        0.50680    0.57448    0.16200    1.000
    F16      F        0.57408    0.48492    0.66650    1.000
    N13      N        0.06739    0.93200    0.41150    1.000
    C193     C        0.06690    0.88700    0.35570    1.000
    H85      H        0.03540    0.88660    0.31320    1.000
    C194     C        0.10840    0.83990    0.35310    1.000
    H86      H        0.10480    0.80860    0.31080    1.000
    C195     C        0.15570    0.83960    0.41430    1.000
    C196     C        0.15760    0.89020    0.47670    1.000
    H87      H        0.18830    0.89340    0.52010    1.000
    C197     C        0.11390    0.93130    0.46880    1.000
    H88      H        0.11560    0.96430    0.50870    1.000
    C198     C        0.20310    0.79330    0.41730    1.000
    C199     C        0.19230    0.73200    0.42660    1.000
    C200     C        0.23630    0.69150    0.42310    1.000
    H89      H        0.22560    0.64980    0.42300    1.000
    C201     C        0.29580    0.70630    0.41950    1.000
    C202     C        0.31170    0.76790    0.41890    1.000
    C203     C        0.26320    0.81150    0.41750    1.000
    H90      H        0.27250    0.85350    0.41680    1.000
    C204     C        0.34400    0.65860    0.41850    1.000
    C205     C        0.39000    0.65710    0.47800    1.000
    H91      H        0.39280    0.68880    0.51990    1.000
    C206     C        0.43200    0.61210    0.47990    1.000
    H92      H        0.46180    0.61120    0.52490    1.000
    N14      N        0.43104    0.56759    0.41590    1.000
    C207     C        0.38820    0.56780    0.35430    1.000
    H93      H        0.38620    0.53730    0.31060    1.000
    C208     C        0.34500    0.61660    0.35720    1.000
    H94      H        0.31540    0.61870    0.31200    1.000
    O13      O        0.13040    0.71890    0.44010    1.000
    C209     C        0.11540    0.65910    0.47040    1.000
    H95      H        0.13940    0.64890    0.52320    1.000
    H96      H        0.12450    0.62880    0.42430    1.000
    C210     C        0.04680    0.65840    0.49250    1.000
    C211     C        0.03170    0.59030    0.51610    1.000
    C212     C        0.04200    0.59600    0.61940    1.000
    C213     C        0.01430    0.65510    0.39930    1.000
    C214     C        0.49060    0.81680    0.40680    1.000
    C215     C        0.45140    0.92430    0.39300    1.000
    C216     C        0.46530    0.91070    0.49060    1.000
    O14      O        0.36760    0.78340    0.44050    1.000
    C217     C        0.38340    0.84470    0.46230    1.000
    H97      H        0.35810    0.85970    0.51130    1.000
    H98      H        0.37770    0.87160    0.41110    1.000
    C218     C        0.45370    0.84210    0.49040    1.000
    C219     C        0.00710    0.71240    0.46800    1.000
    C220     C        0.03040    0.60780    0.55780    1.000
    C221     C        0.06200    0.60200    0.64800    1.000
    C222     C        0.48500    0.79900    0.42300    1.000
    C223     C        0.47400    0.90630    0.51700    1.000
    C224     C        0.53900    0.88800    0.49200    1.000
    F17      F        0.57448    0.49320    0.16200    1.000
    F18      F        0.48492    0.42592    0.66650    1.000
    N15      N        0.93261    0.06800    0.41150    1.000
    C225     C        0.93310    0.11300    0.35570    1.000
    H99      H        0.96460    0.11340    0.31320    1.000
    C226     C        0.89160    0.16010    0.35310    1.000
    H100     H        0.89520    0.19140    0.31080    1.000
    C227     C        0.84430    0.16040    0.41430    1.000
    C228     C        0.84240    0.10980    0.47670    1.000
    H101     H        0.81170    0.10660    0.52010    1.000
    C229     C        0.88610    0.06870    0.46880    1.000
    H102     H        0.88440    0.03570    0.50870    1.000
    C230     C        0.79690    0.20670    0.41730    1.000
    C231     C        0.80770    0.26800    0.42660    1.000
    C232     C        0.76370    0.30850    0.42310    1.000
    H103     H        0.77440    0.35020    0.42300    1.000
    C233     C        0.70420    0.29370    0.41950    1.000
    C234     C        0.68830    0.23210    0.41890    1.000
    C235     C        0.73680    0.18850    0.41750    1.000
    H104     H        0.72750    0.14650    0.41680    1.000
    C236     C        0.65600    0.34140    0.41850    1.000
    C237     C        0.61000    0.34290    0.47800    1.000
    H105     H        0.60720    0.31120    0.51990    1.000
    C238     C        0.56800    0.38790    0.47990    1.000
    H106     H        0.53820    0.38880    0.52490    1.000
    N16      N        0.56896    0.43241    0.41590    1.000
    C239     C        0.61180    0.43220    0.35430    1.000
    H107     H        0.61380    0.46270    0.31060    1.000
    C240     C        0.65500    0.38340    0.35720    1.000
    H108     H        0.68460    0.38130    0.31200    1.000
    O15      O        0.86960    0.28110    0.44010    1.000
    C241     C        0.88460    0.34090    0.47040    1.000
    H109     H        0.86060    0.35110    0.52320    1.000
    H110     H        0.87550    0.37120    0.42430    1.000
    C242     C        0.95320    0.34160    0.49250    1.000
    C243     C        0.96830    0.40970    0.51610    1.000
    C244     C        0.95800    0.40400    0.61940    1.000
    C245     C        0.98570    0.34490    0.39930    1.000
    C246     C        0.50940    0.18320    0.40680    1.000
    C247     C        0.54860    0.07570    0.39300    1.000
    C248     C        0.53470    0.08930    0.49060    1.000
    O16      O        0.63240    0.21660    0.44050    1.000
    C249     C        0.61660    0.15530    0.46230    1.000
    H111     H        0.64190    0.14030    0.51130    1.000
    H112     H        0.62230    0.12840    0.41110    1.000
    C250     C        0.54630    0.15790    0.49040    1.000
    C251     C        0.99290    0.28760    0.46800    1.000
    C252     C        0.96960    0.39220    0.55780    1.000
    C253     C        0.93800    0.39800    0.64800    1.000
    C254     C        0.51500    0.20100    0.42300    1.000
    C255     C        0.52600    0.09370    0.51700    1.000
    C256     C        0.46100    0.11200    0.49200    1.000
    F19      F        0.42552    0.50680    0.16200    1.000
    F20      F        0.51508    0.57408    0.66650    1.000
    Zn3      Zn       0.00000    0.00000    0.41515    1.000
    Zn4      Zn       0.50000    0.50000    0.41736    1.000
    Si3      Si       0.50000    0.50000    0.16500    1.000
    Si4      Si       0.50000    0.50000    0.66510    1.000
    F21      F        0.50000    0.50000    0.28200    1.000
    F22      F        0.50000    0.50000    0.05800    1.000
    F23      F        0.50000    0.50000    0.55270    1.000
    F24      F        0.50000    0.50000    0.77650    1.000
