data_functionalizedCrystal
_audit_creation_method	'EQeq! by Chris Wilmer'
_symmetry_space_group_name_H-M	'P1'
_symmetry_Int_Tables_number	1
_symmetry_cell_setting	triclinic
loop_
_symmetry_equiv_pos_as_xyz
  x,y,z
_cell_length_a	8.2367
_cell_length_b	9.1664
_cell_length_c	17.55
_cell_angle_alpha	90
_cell_angle_beta	90
_cell_angle_gamma	90
loop_
_atom_site_label
_atom_site_type_symbol
_atom_site_fract_x
_atom_site_fract_y
_atom_site_fract_z
_atom_site_charge
Mof_Al	Al	0.86075	0.13091	0.93403	5.148
Mof_Al	Al	0.94224	0.08437	0.16659	7.473
Mof_Al	Al	0.93968	0.58575	0.03164	8.063
Mof_P 	P 	0.06417	0.4144	0.17325	2.098
Mof_P 	P 	0.06985	0.90793	0.02627	2.093
Mof_P 	P 	0.13346	0.36723	0.9288	1.66
Mof_O 	O 	0.0041	0.2636	0.8991	-1.694
Mof_O 	O 	0.2389	0.4208	0.1476	-1.817
Mof_O 	O 	0.9613	0.9662	0.9639	-1.878
Mof_O 	O 	0.2384	0.2954	0.9893	-1.889
Mof_O 	O 	0.009	0.2581	0.1822	-2.4
Mof_O 	O 	0.0462	0.4885	0.249	-2.326
Mof_O 	O 	0.0639	0.0049	0.0974	-2.368
Mof_O 	O 	0.2356	0.4132	0.8602	-2.172
Mof_O 	O 	0.0546	0.5051	0.9604	-2.452
Mof_O 	O 	0.0153	0.7581	0.0506	-2.494
Mof_O 	O 	0.2436	0.9007	0.9978	-2.528
Mof_O 	O 	0.9522	0.4858	0.1153	-2.509
Mof_Al	Al	0.63925	0.86909	0.43403	5.119
Mof_Al	Al	0.55776	0.91563	0.66659	7.563
Mof_Al	Al	0.56032	0.41425	0.53164	8.081
Mof_P 	P 	0.43583	0.5856	0.67325	2.106
Mof_P 	P 	0.43015	0.09207	0.52627	2.1
Mof_P 	P 	0.36654	0.63277	0.4288	1.654
Mof_O 	O 	0.4959	0.7364	0.3991	-1.696
Mof_O 	O 	0.2611	0.5792	0.6476	-1.816
Mof_O 	O 	0.5387	0.0338	0.4639	-1.869
Mof_O 	O 	0.2616	0.7046	0.4893	-1.894
Mof_O 	O 	0.491	0.7419	0.6822	-2.429
Mof_O 	O 	0.4538	0.5115	0.749	-2.345
Mof_O 	O 	0.4361	0.9951	0.5974	-2.403
Mof_O 	O 	0.2644	0.5868	0.3602	-2.155
Mof_O 	O 	0.4454	0.4949	0.4604	-2.455
Mof_O 	O 	0.4847	0.2419	0.5506	-2.503
Mof_O 	O 	0.2564	0.0993	0.4978	-2.543
Mof_O 	O 	0.5478	0.5142	0.6153	-2.512
Mof_Al	Al	0.13925	0.63091	0.56597	5.067
Mof_Al	Al	0.05776	0.58437	0.33341	7.523
Mof_Al	Al	0.06032	0.08575	0.46836	8.079
Mof_P 	P 	0.93583	0.9144	0.32675	2.114
Mof_P 	P 	0.93015	0.40793	0.47373	2.099
Mof_P 	P 	0.86654	0.86723	0.5712	1.659
Mof_O 	O 	0.9959	0.7636	0.6009	-1.676
Mof_O 	O 	0.7611	0.9208	0.3524	-1.82
Mof_O 	O 	0.0387	0.4662	0.5361	-1.867
Mof_O 	O 	0.7616	0.7954	0.5107	-1.898
Mof_O 	O 	0.991	0.7581	0.3178	-2.408
Mof_O 	O 	0.9538	0.9885	0.251	-2.304
Mof_O 	O 	0.9361	0.5049	0.4026	-2.377
Mof_O 	O 	0.7644	0.9132	0.6398	-2.164
Mof_O 	O 	0.9454	0.0051	0.5396	-2.454
Mof_O 	O 	0.9847	0.2581	0.4494	-2.498
Mof_O 	O 	0.7564	0.4007	0.5022	-2.543
Mof_O 	O 	0.0478	0.9858	0.3847	-2.534
Mof_Al	Al	0.36075	0.36909	0.06597	5.1
Mof_Al	Al	0.44224	0.41563	0.83341	7.608
Mof_Al	Al	0.43968	0.91425	0.96836	7.949
Mof_P 	P 	0.56417	0.0856	0.82675	2.102
Mof_P 	P 	0.56985	0.59207	0.97373	2.085
Mof_P 	P 	0.63346	0.13277	0.0712	1.639
Mof_O 	O 	0.5041	0.2364	0.1009	-1.69
Mof_O 	O 	0.7389	0.0792	0.8524	-1.824
Mof_O 	O 	0.4613	0.5338	0.0361	-1.858
Mof_O 	O 	0.7384	0.2046	0.0107	-1.909
Mof_O 	O 	0.509	0.2419	0.8178	-2.434
Mof_O 	O 	0.5462	0.0115	0.751	-2.328
Mof_O 	O 	0.5639	0.4951	0.9026	-2.4
Mof_O 	O 	0.7356	0.0868	0.1398	-2.148
Mof_O 	O 	0.5546	0.9949	0.0396	-2.415
Mof_O 	O 	0.5153	0.7419	0.9494	-2.478
Mof_O 	O 	0.7436	0.5993	0.0022	-2.534
Mof_O 	O 	0.4522	0.0142	0.8847	-2.474
_end
