data_functionalizedCrystal
_audit_creation_method	'EQeq! by Chris Wilmer'
_symmetry_space_group_name_H-M	'P1'
_symmetry_Int_Tables_number	1
_symmetry_cell_setting	triclinic
loop_
_symmetry_equiv_pos_as_xyz
  x,y,z
_cell_length_a	9.7097
_cell_length_b	20.906
_cell_length_c	24.7394
_cell_angle_alpha	104.603
_cell_angle_beta	90
_cell_angle_gamma	103.428
loop_
_atom_site_label
_atom_site_type_symbol
_atom_site_fract_x
_atom_site_fract_y
_atom_site_fract_z
_atom_site_charge
Mof_Cu	Cu	0.64551	0.70924	0.46101	0.829
Mof_Cu	Cu	0.03787	0.78468	0.50972	0.827
Mof_Cu	Cu	0.76526	0.73872	0.60871	0.825
Mof_Cu	Cu	0.93627	0.29076	0.03899	0.828
Mof_Cu	Cu	0.25319	0.21532	0.99028	0.827
Mof_Cu	Cu	0.02654	0.26128	0.89129	0.824
Mof_Cu	Cu	0.35449	0.29076	0.53899	0.829
Mof_Cu	Cu	0.96213	0.21532	0.49028	0.827
Mof_Cu	Cu	0.23474	0.26128	0.39129	0.825
Mof_Cu	Cu	0.06373	0.70924	0.96101	0.828
Mof_Cu	Cu	0.74681	0.78468	0.00972	0.827
Mof_Cu	Cu	0.97346	0.73872	0.10871	0.824
Mof_H 	H 	0.2603	0.82	0.9156	-0.013
Mof_H 	H 	0.426	0.8306	0.8492	0.068
Mof_H 	H 	0.4097	0.6324	0.8237	0.07
Mof_H 	H 	0.2435	0.627	0.8887	-0.007
Mof_H 	H 	0.7646	0.8316	0.727	-0.026
Mof_H 	H 	0.6371	0.8304	0.8046	0.081
Mof_H 	H 	0.4588	0.6364	0.7382	0.083
Mof_H 	H 	0.5867	0.6432	0.6614	-0.018
Mof_H 	H 	0.1202	0.8966	0.4516	-0.017
Mof_H 	H 	0.2997	0.989	0.4506	0.064
Mof_H 	H 	0.5388	0.924	0.5431	0.065
Mof_H 	H 	0.3526	0.8356	0.5427	-0.019
Mof_H 	H 	0.2587	0.7144	0.5388	-0.015
Mof_H 	H 	0.3041	0.6078	0.5183	0.074
Mof_H 	H 	0.9789	0.5458	0.4029	0.077
Mof_H 	H 	0.9432	0.6532	0.4284	-0.035
Mof_H 	H 	0.6028	0.594	0.551	-0.025
Mof_H 	H 	0.6259	0.4854	0.5296	0.071
Mof_H 	H 	0.9665	0.4432	0.4142	0.075
Mof_H 	H 	0.9958	0.664	0.6071	-0.022
Mof_H 	H 	0.4403	0.18	0.5844	-0.011
Mof_H 	H 	0.5954	0.1694	0.6508	0.069
Mof_H 	H 	0.7773	0.3676	0.6763	0.071
Mof_H 	H 	0.6165	0.373	0.6113	-0.006
Mof_H 	H 	0.933	0.1684	0.773	-0.026
Mof_H 	H 	0.8067	0.1696	0.6954	0.08
Mof_H 	H 	0.8224	0.3636	0.7618	0.083
Mof_H 	H 	0.9435	0.3568	0.8386	-0.017
Mof_H 	H 	0.2236	0.1034	0.0484	-0.017
Mof_H 	H 	0.3107	0.011	0.0494	0.065
Mof_H 	H 	0.6148	0.076	0.9569	0.065
Mof_H 	H 	0.517	0.1644	0.9573	-0.019
Mof_H 	H 	0.5443	0.2856	0.9612	-0.015
Mof_H 	H 	0.6963	0.3922	0.9817	0.076
Mof_H 	H 	0.4331	0.4542	0.0971	0.078
Mof_H 	H 	0.29	0.3468	0.0716	-0.035
Mof_H 	H 	0.0088	0.406	0.949	-0.026
Mof_H 	H 	0.1405	0.5146	0.9704	0.071
Mof_H 	H 	0.5233	0.5568	0.0858	0.077
Mof_H 	H 	0.3318	0.336	0.8929	-0.023
Mof_H 	H 	0.7397	0.18	0.0844	-0.012
Mof_H 	H 	0.574	0.1694	0.1508	0.069
Mof_H 	H 	0.5903	0.3676	0.1763	0.07
Mof_H 	H 	0.7565	0.373	0.1113	-0.007
Mof_H 	H 	0.2354	0.1684	0.273	-0.026
Mof_H 	H 	0.3629	0.1696	0.1954	0.081
Mof_H 	H 	0.5412	0.3636	0.2618	0.083
Mof_H 	H 	0.4133	0.3568	0.3386	-0.018
Mof_H 	H 	0.8798	0.1034	0.5484	-0.017
Mof_H 	H 	0.7003	0.011	0.5494	0.064
Mof_H 	H 	0.4612	0.076	0.4569	0.065
Mof_H 	H 	0.6474	0.1644	0.4573	-0.019
Mof_H 	H 	0.7413	0.2856	0.4612	-0.015
Mof_H 	H 	0.6959	0.3922	0.4817	0.074
Mof_H 	H 	0.0211	0.4542	0.5971	0.077
Mof_H 	H 	0.0568	0.3468	0.5716	-0.035
Mof_H 	H 	0.3972	0.406	0.449	-0.025
Mof_H 	H 	0.3741	0.5146	0.4704	0.071
Mof_H 	H 	0.0335	0.5568	0.5858	0.075
Mof_H 	H 	0.0042	0.336	0.3929	-0.022
Mof_H 	H 	0.5597	0.82	0.4156	-0.011
Mof_H 	H 	0.4046	0.8306	0.3492	0.069
Mof_H 	H 	0.2227	0.6324	0.3237	0.071
Mof_H 	H 	0.3835	0.627	0.3887	-0.006
Mof_H 	H 	0.067	0.8316	0.227	-0.026
Mof_H 	H 	0.1933	0.8304	0.3046	0.08
Mof_H 	H 	0.1776	0.6364	0.2382	0.083
Mof_H 	H 	0.0565	0.6432	0.1614	-0.017
Mof_H 	H 	0.7764	0.8966	0.9516	-0.017
Mof_H 	H 	0.6893	0.989	0.9506	0.065
Mof_H 	H 	0.3852	0.924	0.0431	0.065
Mof_H 	H 	0.483	0.8356	0.0427	-0.019
Mof_H 	H 	0.4557	0.7144	0.0388	-0.015
Mof_H 	H 	0.3037	0.6078	0.0183	0.076
Mof_H 	H 	0.5669	0.5458	0.9029	0.078
Mof_H 	H 	0.71	0.6532	0.9284	-0.035
Mof_H 	H 	0.9912	0.594	0.051	-0.026
Mof_H 	H 	0.8595	0.4854	0.0296	0.071
Mof_H 	H 	0.4767	0.4432	0.9142	0.077
Mof_H 	H 	0.6682	0.664	0.1071	-0.023
Mof_W 	W 	0.79265	0.82018	0.53907	0.253
Mof_W 	W 	0.97247	0.17982	0.96093	0.254
Mof_W 	W 	0.20735	0.17982	0.46093	0.253
Mof_W 	W 	0.02753	0.82018	0.03907	0.254
Mof_C 	C 	0.28917	0.78154	0.8963	0.066
Mof_C 	C 	0.38939	0.78838	0.856	-0.125
Mof_C 	C 	0.43345	0.7315	0.8264	0.037
Mof_C 	C 	0.37921	0.67122	0.8408	-0.126
Mof_C 	C 	0.27994	0.66848	0.8806	0.066
Mof_C 	C 	0.69994	0.79148	0.7282	0.096
Mof_C 	C 	0.6228	0.7912	0.7753	-0.163
Mof_C 	C 	0.52655	0.7341	0.7789	0.079
Mof_C 	C 	0.5176	0.6778	0.7365	-0.158
Mof_C 	C 	0.597	0.6824	0.6906	0.087
Mof_C 	C 	0.2047	0.9032	0.4722	0.073
Mof_C 	C 	0.3134	0.959	0.471	-0.141
Mof_C 	C 	0.44039	0.96998	0.4996	0.056
Mof_C 	C 	0.45263	0.92126	0.5251	-0.148
Mof_C 	C 	0.33916	0.86792	0.5246	0.086
Mof_C 	C 	0.19991	0.67962	0.5118	0.078
Mof_C 	C 	0.22923	0.61546	0.4994	-0.147
Mof_C 	C 	0.1442	0.5632	0.4582	0.06
Mof_C 	C 	0.03684	0.57888	0.4314	-0.142
Mof_C 	C 	0.01603	0.64386	0.4471	0.075
Mof_C 	C 	0.6902	0.5862	0.5588	0.073
Mof_C 	C 	0.70344	0.52088	0.5455	-0.135
Mof_C 	C 	0.1658	0.4932	0.4441	0.049
Mof_C 	C 	0.05621	0.43722	0.4212	-0.131
Mof_C 	C 	0.92022	0.62724	0.5914	0.068
Mof_C 	C 	0.6434	0.5562	0.4145	0.095
Mof_C 	C 	0.50763	0.21846	0.6037	0.066
Mof_C 	C 	0.60101	0.21162	0.644	-0.124
Mof_C 	C 	0.70195	0.2685	0.6736	0.037
Mof_C 	C 	0.70799	0.32878	0.6592	-0.126
Mof_C 	C 	0.61146	0.33152	0.6194	0.066
Mof_C 	C 	0.90846	0.20852	0.7718	0.096
Mof_C 	C 	0.8316	0.2088	0.7247	-0.163
Mof_C 	C 	0.79245	0.2659	0.7211	0.079
Mof_C 	C 	0.8398	0.3222	0.7635	-0.158
Mof_C 	C 	0.9146	0.3176	0.8094	0.087
Mof_C 	C 	0.3015	0.0968	0.0278	0.074
Mof_C 	C 	0.3544	0.041	0.029	-0.142
Mof_C 	C 	0.47041	0.03002	0.0004	0.056
Mof_C 	C 	0.53137	0.07874	0.9749	-0.148
Mof_C 	C 	0.47124	0.13208	0.9754	0.087
Mof_C 	C 	0.52029	0.32038	0.9882	0.08
Mof_C 	C 	0.61377	0.38454	0.0006	-0.149
Mof_C 	C 	0.581	0.4368	0.0418	0.062
Mof_C 	C 	0.45796	0.42112	0.0686	-0.144
Mof_C 	C 	0.37217	0.35614	0.0529	0.076
Mof_C 	C 	0.104	0.4138	0.9412	0.073
Mof_C 	C 	0.18256	0.47912	0.9545	-0.136
Mof_C 	C 	0.6726	0.5068	0.0559	0.049
Mof_C 	C 	0.61899	0.56278	0.0788	-0.133
Mof_C 	C 	0.29298	0.37276	0.9086	0.069
Mof_C 	C 	0.0872	0.4438	0.0855	0.096
Mof_C 	C 	0.71083	0.21846	0.1037	0.066
Mof_C 	C 	0.61061	0.21162	0.144	-0.125
Mof_C 	C 	0.56655	0.2685	0.1736	0.037
Mof_C 	C 	0.62079	0.32878	0.1592	-0.126
Mof_C 	C 	0.72006	0.33152	0.1194	0.066
Mof_C 	C 	0.30006	0.20852	0.2718	0.096
Mof_C 	C 	0.3772	0.2088	0.2247	-0.163
Mof_C 	C 	0.47345	0.2659	0.2211	0.079
Mof_C 	C 	0.4824	0.3222	0.2635	-0.158
Mof_C 	C 	0.403	0.3176	0.3094	0.087
Mof_C 	C 	0.7953	0.0968	0.5278	0.073
Mof_C 	C 	0.6866	0.041	0.529	-0.141
Mof_C 	C 	0.55961	0.03002	0.5004	0.056
Mof_C 	C 	0.54737	0.07874	0.4749	-0.148
Mof_C 	C 	0.66084	0.13208	0.4754	0.086
Mof_C 	C 	0.80009	0.32038	0.4882	0.078
Mof_C 	C 	0.77077	0.38454	0.5006	-0.147
Mof_C 	C 	0.8558	0.4368	0.5418	0.06
Mof_C 	C 	0.96316	0.42112	0.5686	-0.142
Mof_C 	C 	0.98397	0.35614	0.5529	0.075
Mof_C 	C 	0.3098	0.4138	0.4412	0.073
Mof_C 	C 	0.29656	0.47912	0.4545	-0.135
Mof_C 	C 	0.8342	0.5068	0.5559	0.049
Mof_C 	C 	0.94379	0.56278	0.5788	-0.131
Mof_C 	C 	0.07978	0.37276	0.4086	0.068
Mof_C 	C 	0.3566	0.4438	0.5855	0.095
Mof_C 	C 	0.49237	0.78154	0.3963	0.066
Mof_C 	C 	0.39899	0.78838	0.356	-0.124
Mof_C 	C 	0.29805	0.7315	0.3264	0.037
Mof_C 	C 	0.29201	0.67122	0.3408	-0.126
Mof_C 	C 	0.38854	0.66848	0.3806	0.066
Mof_C 	C 	0.09154	0.79148	0.2282	0.096
Mof_C 	C 	0.1684	0.7912	0.2753	-0.163
Mof_C 	C 	0.20755	0.7341	0.2789	0.079
Mof_C 	C 	0.1602	0.6778	0.2365	-0.158
Mof_C 	C 	0.0854	0.6824	0.1906	0.087
Mof_C 	C 	0.6985	0.9032	0.9722	0.074
Mof_C 	C 	0.6456	0.959	0.971	-0.142
Mof_C 	C 	0.52959	0.96998	0.9996	0.056
Mof_C 	C 	0.46863	0.92126	0.0251	-0.148
Mof_C 	C 	0.52876	0.86792	0.0246	0.087
Mof_C 	C 	0.47971	0.67962	0.0118	0.08
Mof_C 	C 	0.38623	0.61546	0.9994	-0.149
Mof_C 	C 	0.419	0.5632	0.9582	0.062
Mof_C 	C 	0.54204	0.57888	0.9314	-0.144
Mof_C 	C 	0.62783	0.64386	0.9471	0.076
Mof_C 	C 	0.896	0.5862	0.0588	0.073
Mof_C 	C 	0.81744	0.52088	0.0455	-0.136
Mof_C 	C 	0.3274	0.4932	0.9441	0.049
Mof_C 	C 	0.38101	0.43722	0.9212	-0.133
Mof_C 	C 	0.70702	0.62724	0.0914	0.069
Mof_C 	C 	0.9128	0.5562	0.9145	0.096
Mof_S 	S 	0.85401	0.78442	0.45057	-0.473
Mof_S 	S 	0.9654	0.81672	0.59911	-0.485
Mof_S 	S 	0.58906	0.74862	0.55141	-0.479
Mof_S 	S 	0.65932	0.47764	0.38981	-0.083
Mof_S 	S 	0.06959	0.21558	0.04943	-0.47
Mof_S 	S 	0.14868	0.18328	0.90089	-0.488
Mof_S 	S 	0.84044	0.25138	0.94859	-0.478
Mof_S 	S 	0.18168	0.52236	0.11019	-0.081
Mof_S 	S 	0.14599	0.21558	0.54943	-0.473
Mof_S 	S 	0.0346	0.18328	0.40089	-0.485
Mof_S 	S 	0.41094	0.25138	0.44859	-0.479
Mof_S 	S 	0.34068	0.52236	0.61019	-0.083
Mof_S 	S 	0.93041	0.78442	0.95057	-0.47
Mof_S 	S 	0.85132	0.81672	0.09911	-0.488
Mof_S 	S 	0.15956	0.74862	0.05141	-0.478
Mof_S 	S 	0.81832	0.47764	0.88981	-0.081
Mof_N 	N 	0.63336	0.61092	0.4312	-0.267
Mof_N 	N 	0.5109	0.2774	0.5917	-0.226
Mof_N 	N 	0.68654	0.73848	0.6855	-0.247
Mof_N 	N 	0.21381	0.85902	0.5009	-0.24
Mof_N 	N 	0.09389	0.69398	0.4876	-0.251
Mof_N 	N 	0.79486	0.63992	0.5824	-0.249
Mof_N 	N 	0.02244	0.38908	0.0688	-0.265
Mof_N 	N 	0.2335	0.7226	0.9083	-0.226
Mof_N 	N 	0.94806	0.26152	0.8145	-0.247
Mof_N 	N 	0.35479	0.14098	0.9991	-0.241
Mof_N 	N 	0.39991	0.30602	0.0124	-0.251
Mof_N 	N 	0.15494	0.36008	0.9176	-0.25
Mof_N 	N 	0.36664	0.38908	0.5688	-0.267
Mof_N 	N 	0.4891	0.7226	0.4083	-0.226
Mof_N 	N 	0.31346	0.26152	0.3145	-0.247
Mof_N 	N 	0.78619	0.14098	0.4991	-0.24
Mof_N 	N 	0.90611	0.30602	0.5124	-0.251
Mof_N 	N 	0.20514	0.36008	0.4176	-0.249
Mof_N 	N 	0.97756	0.61092	0.9312	-0.265
Mof_N 	N 	0.7665	0.2774	0.0917	-0.226
Mof_N 	N 	0.05194	0.73848	0.1855	-0.247
Mof_N 	N 	0.64521	0.85902	0.0009	-0.241
Mof_N 	N 	0.60009	0.69398	0.9876	-0.251
Mof_N 	N 	0.84506	0.63992	0.0824	-0.25
_end
