data_functionalizedCrystal
_audit_creation_method	'EQeq! by Chris Wilmer'
_symmetry_space_group_name_H-M	'P1'
_symmetry_Int_Tables_number	1
_symmetry_cell_setting	triclinic
loop_
_symmetry_equiv_pos_as_xyz
  x,y,z
_cell_length_a	10.7873
_cell_length_b	22.3486
_cell_length_c	26.9072
_cell_angle_alpha	90
_cell_angle_beta	90
_cell_angle_gamma	101.173
loop_
_atom_site_label
_atom_site_type_symbol
_atom_site_fract_x
_atom_site_fract_y
_atom_site_fract_z
_atom_site_charge
Mof_Co	Co	0.83277	0.84114	0.34446	1.166
Mof_Co	Co	0.08772	0.95301	0.39016	1.19
Mof_Co	Co	0.58951	0.94473	0.14788	1.194
Mof_Co	Co	0.34588	0.82344	0.10161	1.182
Mof_Co	Co	0.66723	0.65886	0.84446	1.167
Mof_Co	Co	0.41228	0.54699	0.89016	1.189
Mof_Co	Co	0.91049	0.55527	0.64788	1.194
Mof_Co	Co	0.15412	0.67656	0.60161	1.182
Mof_Co	Co	0.16723	0.15886	0.65554	1.166
Mof_Co	Co	0.91228	0.04699	0.60984	1.189
Mof_Co	Co	0.41049	0.05527	0.85212	1.192
Mof_Co	Co	0.65412	0.17656	0.89839	1.181
Mof_Co	Co	0.33277	0.34114	0.15554	1.166
Mof_Co	Co	0.58772	0.45301	0.10984	1.188
Mof_Co	Co	0.08951	0.44473	0.35212	1.193
Mof_Co	Co	0.84588	0.32344	0.39839	1.181
Mof_H 	H 	0.048	0.8459	0.3846	0.512
Mof_H 	H 	0.054	0.8531	0.3359	0.518
Mof_H 	H 	0.379	0.9293	0.0955	0.524
Mof_H 	H 	0.357	0.9275	0.1451	0.545
Mof_H 	H 	0.7829	0.0681	0.4594	0.093
Mof_H 	H 	0.8692	0.2486	0.4884	0.036
Mof_H 	H 	0.3691	0.9803	0.4213	0.068
Mof_H 	H 	0.7245	0.9923	0.349	0.017
Mof_H 	H 	0.7827	0.0123	0.4027	0.012
Mof_H 	H 	0.5919	-7.9334e-33	0.3002	0.089
Mof_H 	H 	0.2139	0.9466	0.2893	0.035
Mof_H 	H 	0.618	0.51	0.0071	0.029
Mof_H 	H 	0.7122	0.6943	0.0139	0.09
Mof_H 	H 	0.66	0.59	0.1378	0.068
Mof_H 	H 	0.7318	0.9555	0.246	0.029
Mof_H 	H 	0.768	0.1932	0.3528	0.069
Mof_H 	H 	0.1919	0.0435	0.9814	0.09
Mof_H 	H 	0.0188	0.9442	0.0757	0.001
Mof_H 	H 	0.1626	0.9749	0.0638	0.004
Mof_H 	H 	0.1232	0.1306	0.1063	0.072
Mof_H 	H 	0.4039	0.2059	0.0196	0.039
Mof_H 	H 	0.0669	0.7948	0.0636	0.069
Mof_H 	H 	0.2019	0.8351	0.1981	0.041
Mof_H 	H 	0.6892	0.8431	0.2519	0.033
Mof_H 	H 	0.5549	0.7996	0.3856	0.064
Mof_H 	H 	0.1789	0.7718	0.3262	-0.01
Mof_H 	H 	0.1447	0.7478	0.3815	-0.007
Mof_H 	H 	0.3139	0.7813	0.269	0.095
Mof_H 	H 	0.1303	0.5779	0.3198	0.068
Mof_H 	H 	0.2259	0.6902	0.437	0.099
Mof_H 	H 	0.1018	0.5087	0.4545	0.042
Mof_H 	H 	0.8665	0.9831	0.1103	0.073
Mof_H 	H 	0.11	0.9912	0.2253	0.097
Mof_H 	H 	0.8232	0.7951	0.1778	0.097
Mof_H 	H 	0.6906	0.7849	0.1212	0.006
Mof_H 	H 	0.6534	0.7575	0.067	0.003
Mof_H 	H 	0.452	0.6541	0.8846	0.513
Mof_H 	H 	0.446	0.6469	0.8359	0.518
Mof_H 	H 	0.121	0.5707	0.5955	0.524
Mof_H 	H 	0.143	0.5725	0.6451	0.545
Mof_H 	H 	0.7171	0.4319	0.9594	0.093
Mof_H 	H 	0.6308	0.2514	0.9884	0.036
Mof_H 	H 	0.1309	0.5197	0.9213	0.067
Mof_H 	H 	0.7755	0.5077	0.849	0.014
Mof_H 	H 	0.7173	0.4877	0.9027	0.012
Mof_H 	H 	0.9081	0.5	0.8002	0.091
Mof_H 	H 	0.2861	0.5534	0.7893	0.035
Mof_H 	H 	0.882	0.99	0.5071	0.03
Mof_H 	H 	0.7878	0.8057	0.5139	0.09
Mof_H 	H 	0.84	0.91	0.6378	0.069
Mof_H 	H 	0.7682	0.5445	0.746	0.029
Mof_H 	H 	0.732	0.3068	0.8528	0.07
Mof_H 	H 	0.3081	0.4565	0.4814	0.093
Mof_H 	H 	0.4812	0.5558	0.5757	0.002
Mof_H 	H 	0.3374	0.5251	0.5638	0.004
Mof_H 	H 	0.3768	0.3694	0.6063	0.073
Mof_H 	H 	0.0961	0.2941	0.5196	0.04
Mof_H 	H 	0.4331	0.7052	0.5636	0.069
Mof_H 	H 	0.2981	0.6649	0.6981	0.04
Mof_H 	H 	0.8108	0.6569	0.7519	0.034
Mof_H 	H 	0.9451	0.7004	0.8856	0.064
Mof_H 	H 	0.3211	0.7282	0.8262	-0.01
Mof_H 	H 	0.3553	0.7522	0.8815	-0.007
Mof_H 	H 	0.1861	0.7187	0.769	0.096
Mof_H 	H 	0.3697	0.9221	0.8198	0.069
Mof_H 	H 	0.2741	0.8098	0.937	0.099
Mof_H 	H 	0.3982	0.9913	0.9545	0.043
Mof_H 	H 	0.6335	0.5169	0.6103	0.072
Mof_H 	H 	0.39	0.5088	0.7253	0.097
Mof_H 	H 	0.6768	0.7049	0.6778	0.096
Mof_H 	H 	0.8094	0.7151	0.6212	0.006
Mof_H 	H 	0.8466	0.7425	0.567	0.003
Mof_H 	H 	0.952	0.1541	0.6154	0.513
Mof_H 	H 	0.946	0.1469	0.6641	0.518
Mof_H 	H 	0.621	0.0707	0.9045	0.523
Mof_H 	H 	0.643	0.0725	0.8549	0.544
Mof_H 	H 	0.2171	0.9319	0.5406	0.094
Mof_H 	H 	0.1308	0.7514	0.5116	0.036
Mof_H 	H 	0.6309	0.0197	0.5787	0.066
Mof_H 	H 	0.2755	0.0077	0.651	0.011
Mof_H 	H 	0.2173	0.9877	0.5973	0.011
Mof_H 	H 	0.4081	-7.9334e-33	0.6998	0.092
Mof_H 	H 	0.7861	0.0534	0.7107	0.035
Mof_H 	H 	0.382	0.49	0.9929	0.029
Mof_H 	H 	0.2878	0.3057	0.9861	0.09
Mof_H 	H 	0.34	0.41	0.8622	0.068
Mof_H 	H 	0.2682	0.0445	0.754	0.028
Mof_H 	H 	0.232	0.8068	0.6472	0.07
Mof_H 	H 	0.8081	0.9565	0.0186	0.092
Mof_H 	H 	0.9812	0.0558	0.9243	0.003
Mof_H 	H 	0.8374	0.0251	0.9362	0.005
Mof_H 	H 	0.8768	0.8694	0.8937	0.073
Mof_H 	H 	0.5961	0.7941	0.9804	0.039
Mof_H 	H 	0.9331	0.2052	0.9364	0.069
Mof_H 	H 	0.7981	0.1649	0.8019	0.041
Mof_H 	H 	0.3108	0.1569	0.7481	0.033
Mof_H 	H 	0.4451	0.2004	0.6144	0.064
Mof_H 	H 	0.8211	0.2282	0.6738	-0.01
Mof_H 	H 	0.8553	0.2522	0.6185	-0.007
Mof_H 	H 	0.6861	0.2187	0.731	0.095
Mof_H 	H 	0.8697	0.4221	0.6802	0.068
Mof_H 	H 	0.7741	0.3098	0.563	0.099
Mof_H 	H 	0.8982	0.4913	0.5455	0.042
Mof_H 	H 	0.1335	0.0169	0.8897	0.072
Mof_H 	H 	0.89	0.0088	0.7747	0.096
Mof_H 	H 	0.1768	0.2049	0.8222	0.097
Mof_H 	H 	0.3094	0.2151	0.8788	0.006
Mof_H 	H 	0.3466	0.2425	0.933	0.003
Mof_H 	H 	0.548	0.3459	0.1154	0.513
Mof_H 	H 	0.554	0.3531	0.1641	0.518
Mof_H 	H 	0.879	0.4293	0.4045	0.524
Mof_H 	H 	0.857	0.4275	0.3549	0.545
Mof_H 	H 	0.2829	0.5681	0.0406	0.093
Mof_H 	H 	0.3692	0.7486	0.0116	0.036
Mof_H 	H 	0.8691	0.4803	0.0787	0.066
Mof_H 	H 	0.2245	0.4923	0.151	0.014
Mof_H 	H 	0.2827	0.5123	0.0973	0.012
Mof_H 	H 	0.0919	0.5	0.1998	0.091
Mof_H 	H 	0.7139	0.4466	0.2107	0.035
Mof_H 	H 	0.118	0.01	0.4929	0.028
Mof_H 	H 	0.2122	0.1943	0.4861	0.09
Mof_H 	H 	0.16	0.09	0.3622	0.068
Mof_H 	H 	0.2318	0.4555	0.254	0.029
Mof_H 	H 	0.268	0.6932	0.1472	0.07
Mof_H 	H 	0.6919	0.5435	0.5186	0.093
Mof_H 	H 	0.5188	0.4442	0.4243	0.002
Mof_H 	H 	0.6626	0.4749	0.4362	0.004
Mof_H 	H 	0.6232	0.6306	0.3937	0.073
Mof_H 	H 	0.9039	0.7059	0.4804	0.04
Mof_H 	H 	0.5669	0.2948	0.4364	0.069
Mof_H 	H 	0.7019	0.3351	0.3019	0.04
Mof_H 	H 	0.1892	0.3431	0.2481	0.034
Mof_H 	H 	0.0549	0.2996	0.1144	0.064
Mof_H 	H 	0.6789	0.2718	0.1738	-0.01
Mof_H 	H 	0.6447	0.2478	0.1185	-0.007
Mof_H 	H 	0.8139	0.2813	0.231	0.096
Mof_H 	H 	0.6303	0.0779	0.1802	0.067
Mof_H 	H 	0.7259	0.1902	0.063	0.099
Mof_H 	H 	0.6018	0.0087	0.0455	0.041
Mof_H 	H 	0.3665	0.4831	0.3897	0.072
Mof_H 	H 	0.61	0.4912	0.2747	0.097
Mof_H 	H 	0.3232	0.2951	0.3222	0.096
Mof_H 	H 	0.1906	0.2849	0.3788	0.006
Mof_H 	H 	0.1534	0.2575	0.433	0.003
Mof_C 	C 	0.9354	0.96303	0.2995	0.349
Mof_C 	C 	0.8676	0.14325	0.53411	0.334
Mof_C 	C 	0.8329	0.15674	0.48196	-0.051
Mof_C 	C 	0.7944	0.10934	0.44881	-0.096
Mof_C 	C 	0.7733	0.12339	0.40005	0.168
Mof_C 	C 	0.8433	0.21624	0.46548	0.043
Mof_C 	C 	0.3778	0.97833	0.38628	-0.055
Mof_C 	C 	0.4978	0.9909	0.36601	0.17
Mof_C 	C 	0.7187	0.01892	0.37799	0.168
Mof_C 	C 	0.5109	0.98924	0.31513	-0.092
Mof_C 	C 	0.4039	0.97158	0.28623	-0.054
Mof_C 	C 	0.4148	0.96466	0.23101	0.338
Mof_C 	C 	0.2872	0.95893	0.30923	0.043
Mof_C 	C 	0.63716	0.54629	0.02633	0.047
Mof_C 	C 	0.6632	0.60196	0.00151	-0.061
Mof_C 	C 	0.65129	0.60235	0.94543	0.353
Mof_C 	C 	0.69041	0.65556	0.02951	-0.092
Mof_C 	C 	0.6845	0.65023	0.08093	0.165
Mof_C 	C 	0.6604	0.59289	0.10258	-0.052
Mof_C 	C 	0.9234	0.9732	0.24469	-0.063
Mof_C 	C 	0.8024	0.96463	0.22426	0.05
Mof_C 	C 	0.48968	0.82379	0.19665	0.348
Mof_C 	C 	0.7847	0.18395	0.38628	-0.052
Mof_C 	C 	0.386	0.12431	0.94575	0.377
Mof_C 	C 	0.3102	0.12549	0.99271	-0.068
Mof_C 	C 	0.2115	0.07722	0.00337	-0.082
Mof_C 	C 	0.1431	0.07903	0.04609	0.161
Mof_C 	C 	0.0842	0.98155	0.08025	0.185
Mof_C 	C 	0.1723	0.12922	0.07721	-0.05
Mof_C 	C 	0.3353	0.1733	0.02622	0.052
Mof_C 	C 	0.1778	0.60323	0.5103	0.32
Mof_C 	C 	0.1663	0.59977	0.45451	-0.042
Mof_C 	C 	0.053	0.80048	0.098	-0.056
Mof_C 	C 	0.1316	0.82376	0.17649	0.031
Mof_C 	C 	0.5005	0.81361	0.25165	-0.06
Mof_C 	C 	0.6193	0.82827	0.27289	0.039
Mof_C 	C 	0.5411	0.80347	0.35099	-0.055
Mof_C 	C 	0.4184	0.78893	0.33309	0.169
Mof_C 	C 	0.204	0.74705	0.35354	0.195
Mof_C 	C 	0.3966	0.79263	0.28238	-0.094
Mof_C 	C 	0.1387	0.5834	0.35468	-0.061
Mof_C 	C 	0.1773	0.64178	0.37297	0.173
Mof_C 	C 	0.1952	0.65077	0.42375	-0.105
Mof_C 	C 	0.1239	0.543	0.43323	0.035
Mof_C 	C 	0.8806	0.97948	0.14493	-0.061
Mof_C 	C 	0.0034	0.98567	0.16224	0.171
Mof_C 	C 	0.0261	0.98446	0.21275	-0.089
Mof_C 	C 	0.9965	0.82582	0.25141	0.322
Mof_C 	C 	0.0107	0.8164	0.19622	-0.037
Mof_C 	C 	0.9069	0.80054	0.16516	-0.106
Mof_C 	C 	0.9294	0.79285	0.11516	0.171
Mof_C 	C 	0.7124	0.75735	0.09519	0.188
Mof_C 	C 	0.5646	0.53697	0.7995	0.351
Mof_C 	C 	0.6324	0.35675	0.03411	0.334
Mof_C 	C 	0.6671	0.34326	0.98196	-0.051
Mof_C 	C 	0.7056	0.39066	0.94881	-0.097
Mof_C 	C 	0.7267	0.37661	0.90005	0.169
Mof_C 	C 	0.6567	0.28376	0.96548	0.043
Mof_C 	C 	0.1222	0.52167	0.88628	-0.053
Mof_C 	C 	0.0022	0.5091	0.86601	0.163
Mof_C 	C 	0.7813	0.48108	0.87799	0.172
Mof_C 	C 	0.9891	0.51076	0.81513	-0.091
Mof_C 	C 	0.0961	0.52842	0.78623	-0.056
Mof_C 	C 	0.0852	0.53534	0.73101	0.336
Mof_C 	C 	0.2128	0.54107	0.80923	0.043
Mof_C 	C 	0.86284	0.95371	0.52633	0.047
Mof_C 	C 	0.8368	0.89804	0.50151	-0.06
Mof_C 	C 	0.84871	0.89765	0.44543	0.352
Mof_C 	C 	0.80959	0.84444	0.52951	-0.092
Mof_C 	C 	0.8155	0.84977	0.58093	0.166
Mof_C 	C 	0.8396	0.90711	0.60258	-0.052
Mof_C 	C 	0.5766	0.5268	0.74469	-0.062
Mof_C 	C 	0.6976	0.53537	0.72426	0.049
Mof_C 	C 	0.01032	0.67621	0.69665	0.343
Mof_C 	C 	0.7153	0.31605	0.88628	-0.052
Mof_C 	C 	0.114	0.37569	0.44575	0.375
Mof_C 	C 	0.1898	0.37451	0.49271	-0.064
Mof_C 	C 	0.2885	0.42278	0.50337	-0.087
Mof_C 	C 	0.3569	0.42097	0.54609	0.162
Mof_C 	C 	0.4158	0.51845	0.58025	0.182
Mof_C 	C 	0.3277	0.37078	0.57721	-0.051
Mof_C 	C 	0.1647	0.3267	0.52622	0.049
Mof_C 	C 	0.3222	0.89677	0.0103	0.32
Mof_C 	C 	0.3337	0.90023	0.95451	-0.041
Mof_C 	C 	0.447	0.69952	0.598	-0.058
Mof_C 	C 	0.3684	0.67624	0.67649	0.033
Mof_C 	C 	0.9995	0.68639	0.75165	-0.055
Mof_C 	C 	0.8807	0.67173	0.77289	0.037
Mof_C 	C 	0.9589	0.69653	0.85099	-0.054
Mof_C 	C 	0.0816	0.71107	0.83309	0.169
Mof_C 	C 	0.296	0.75295	0.85354	0.195
Mof_C 	C 	0.1034	0.70737	0.78238	-0.097
Mof_C 	C 	0.3613	0.9166	0.85468	-0.061
Mof_C 	C 	0.3227	0.85822	0.87297	0.173
Mof_C 	C 	0.3048	0.84923	0.92375	-0.106
Mof_C 	C 	0.3761	0.957	0.93323	0.035
Mof_C 	C 	0.6194	0.52052	0.64493	-0.06
Mof_C 	C 	0.4966	0.51433	0.66224	0.169
Mof_C 	C 	0.4739	0.51554	0.71275	-0.09
Mof_C 	C 	0.5035	0.67418	0.75141	0.327
Mof_C 	C 	0.4893	0.6836	0.69622	-0.042
Mof_C 	C 	0.5931	0.69946	0.66516	-0.102
Mof_C 	C 	0.5706	0.70715	0.61516	0.171
Mof_C 	C 	0.7876	0.74265	0.59519	0.188
Mof_C 	C 	0.0646	0.03697	0.7005	0.35
Mof_C 	C 	0.1324	0.85675	0.46589	0.334
Mof_C 	C 	0.1671	0.84326	0.51804	-0.051
Mof_C 	C 	0.2056	0.89066	0.55119	-0.097
Mof_C 	C 	0.2267	0.87661	0.59995	0.169
Mof_C 	C 	0.1567	0.78376	0.53452	0.042
Mof_C 	C 	0.6222	0.02167	0.61372	-0.054
Mof_C 	C 	0.5022	0.0091	0.63399	0.165
Mof_C 	C 	0.2813	0.98108	0.62201	0.178
Mof_C 	C 	0.4891	0.01076	0.68487	-0.096
Mof_C 	C 	0.5961	0.02842	0.71377	-0.053
Mof_C 	C 	0.5852	0.03534	0.76899	0.337
Mof_C 	C 	0.7128	0.04107	0.69077	0.042
Mof_C 	C 	0.36284	0.45371	0.97367	0.047
Mof_C 	C 	0.3368	0.39804	0.99849	-0.061
Mof_C 	C 	0.34871	0.39765	0.05457	0.353
Mof_C 	C 	0.30959	0.34444	0.97049	-0.092
Mof_C 	C 	0.3155	0.34977	0.91907	0.165
Mof_C 	C 	0.3396	0.40711	0.89742	-0.052
Mof_C 	C 	0.0766	0.0268	0.75531	-0.064
Mof_C 	C 	0.1976	0.03537	0.77574	0.049
Mof_C 	C 	0.51032	0.17621	0.80335	0.348
Mof_C 	C 	0.2153	0.81605	0.61372	-0.052
Mof_C 	C 	0.614	0.87569	0.05425	0.377
Mof_C 	C 	0.6898	0.87451	0.00729	-0.067
Mof_C 	C 	0.7885	0.92278	0.99663	-0.082
Mof_C 	C 	0.8569	0.92097	0.95391	0.161
Mof_C 	C 	0.9158	0.01845	0.91975	0.177
Mof_C 	C 	0.8277	0.87078	0.92279	-0.05
Mof_C 	C 	0.6647	0.8267	0.97378	0.052
Mof_C 	C 	0.8222	0.39677	0.4897	0.32
Mof_C 	C 	0.8337	0.40023	0.54549	-0.042
Mof_C 	C 	0.947	0.19952	0.902	-0.057
Mof_C 	C 	0.8684	0.17624	0.82351	0.032
Mof_C 	C 	0.4995	0.18639	0.74835	-0.06
Mof_C 	C 	0.3807	0.17173	0.72711	0.039
Mof_C 	C 	0.4589	0.19653	0.64901	-0.055
Mof_C 	C 	0.5816	0.21107	0.66691	0.169
Mof_C 	C 	0.796	0.25295	0.64646	0.195
Mof_C 	C 	0.6034	0.20737	0.71762	-0.094
Mof_C 	C 	0.8613	0.4166	0.64532	-0.061
Mof_C 	C 	0.8227	0.35822	0.62703	0.173
Mof_C 	C 	0.8048	0.34923	0.57625	-0.105
Mof_C 	C 	0.8761	0.457	0.56677	0.035
Mof_C 	C 	0.1194	0.02052	0.85507	-0.061
Mof_C 	C 	0.9966	0.01433	0.83776	0.17
Mof_C 	C 	0.9739	0.01554	0.78725	-0.088
Mof_C 	C 	0.0035	0.17418	0.74859	0.323
Mof_C 	C 	0.9893	0.1836	0.80378	-0.038
Mof_C 	C 	0.0931	0.19946	0.83484	-0.105
Mof_C 	C 	0.0706	0.20715	0.88484	0.171
Mof_C 	C 	0.2876	0.24265	0.90481	0.188
Mof_C 	C 	0.4354	0.46303	0.2005	0.351
Mof_C 	C 	0.3676	0.64325	0.96589	0.334
Mof_C 	C 	0.3329	0.65674	0.01804	-0.051
Mof_C 	C 	0.2944	0.60934	0.05119	-0.097
Mof_C 	C 	0.2733	0.62339	0.09995	0.169
Mof_C 	C 	0.3433	0.71624	0.03452	0.043
Mof_C 	C 	0.8778	0.47833	0.11372	-0.053
Mof_C 	C 	0.9978	0.4909	0.13399	0.163
Mof_C 	C 	0.2187	0.51892	0.12201	0.172
Mof_C 	C 	0.0109	0.48924	0.18487	-0.09
Mof_C 	C 	0.9039	0.47158	0.21377	-0.056
Mof_C 	C 	0.9148	0.46466	0.26899	0.336
Mof_C 	C 	0.7872	0.45893	0.19077	0.044
Mof_C 	C 	0.13716	0.04629	0.47367	0.047
Mof_C 	C 	0.1632	0.10196	0.49849	-0.061
Mof_C 	C 	0.15129	0.10235	0.55457	0.352
Mof_C 	C 	0.19041	0.15556	0.47049	-0.092
Mof_C 	C 	0.1845	0.15023	0.41907	0.165
Mof_C 	C 	0.1604	0.09289	0.39742	-0.052
Mof_C 	C 	0.4234	0.4732	0.25531	-0.062
Mof_C 	C 	0.3024	0.46463	0.27574	0.049
Mof_C 	C 	0.98968	0.32379	0.30335	0.343
Mof_C 	C 	0.2847	0.68395	0.11372	-0.052
Mof_C 	C 	0.886	0.62431	0.55425	0.375
Mof_C 	C 	0.8102	0.62549	0.50729	-0.064
Mof_C 	C 	0.7115	0.57722	0.49663	-0.087
Mof_C 	C 	0.6431	0.57903	0.45391	0.162
Mof_C 	C 	0.5842	0.48155	0.41975	0.182
Mof_C 	C 	0.6723	0.62922	0.42279	-0.051
Mof_C 	C 	0.8353	0.6733	0.47378	0.049
Mof_C 	C 	0.6778	0.10323	0.9897	0.32
Mof_C 	C 	0.6663	0.09977	0.04549	-0.042
Mof_C 	C 	0.553	0.30048	0.402	-0.058
Mof_C 	C 	0.6316	0.32376	0.32351	0.033
Mof_C 	C 	0.0005	0.31361	0.24835	-0.055
Mof_C 	C 	0.1193	0.32827	0.22711	0.037
Mof_C 	C 	0.0411	0.30347	0.14901	-0.054
Mof_C 	C 	0.9184	0.28893	0.16691	0.169
Mof_C 	C 	0.704	0.24705	0.14646	0.196
Mof_C 	C 	0.8966	0.29263	0.21762	-0.098
Mof_C 	C 	0.6387	0.0834	0.14532	-0.062
Mof_C 	C 	0.6773	0.14178	0.12703	0.173
Mof_C 	C 	0.6952	0.15077	0.07625	-0.106
Mof_C 	C 	0.6239	0.043	0.06677	0.035
Mof_C 	C 	0.3806	0.47948	0.35507	-0.06
Mof_C 	C 	0.5034	0.48567	0.33776	0.169
Mof_C 	C 	0.5261	0.48446	0.28725	-0.09
Mof_C 	C 	0.4965	0.32582	0.24859	0.327
Mof_C 	C 	0.5107	0.3164	0.30378	-0.042
Mof_C 	C 	0.4069	0.30054	0.33484	-0.102
Mof_C 	C 	0.4294	0.29285	0.38484	0.171
Mof_C 	C 	0.2124	0.25735	0.40481	0.188
Mof_N 	N 	0.27321	0.96344	0.3584	-0.192
Mof_N 	N 	0.63774	0.54137	0.07586	-0.193
Mof_N 	N 	0.781	0.96859	0.17575	-0.185
Mof_N 	N 	0.81832	0.22996	0.41852	-0.193
Mof_N 	N 	0.2673	0.17561	0.06752	-0.105
Mof_N 	N 	0.15339	0.81551	0.12806	-0.19
Mof_N 	N 	0.64087	0.82267	0.32159	-0.201
Mof_N 	N 	0.11273	0.53427	0.38403	-0.19
Mof_N 	N 	0.22679	0.53656	0.8584	-0.193
Mof_N 	N 	0.86226	0.95863	0.57586	-0.191
Mof_N 	N 	0.719	0.53141	0.67575	-0.185
Mof_N 	N 	0.68168	0.27004	0.91852	-0.193
Mof_N 	N 	0.2327	0.32439	0.56752	-0.104
Mof_N 	N 	0.34661	0.68449	0.62806	-0.191
Mof_N 	N 	0.85913	0.67733	0.82159	-0.201
Mof_N 	N 	0.38727	0.96573	0.88403	-0.189
Mof_N 	N 	0.72679	0.03656	0.6416	-0.193
Mof_N 	N 	0.36226	0.45863	0.92414	-0.193
Mof_N 	N 	0.219	0.03141	0.82425	-0.186
Mof_N 	N 	0.18168	0.77004	0.58148	-0.193
Mof_N 	N 	0.7327	0.82439	0.93248	-0.105
Mof_N 	N 	0.84661	0.18449	0.87194	-0.19
Mof_N 	N 	0.35913	0.17733	0.67841	-0.201
Mof_N 	N 	0.88727	0.46573	0.61597	-0.19
Mof_N 	N 	0.77321	0.46344	0.1416	-0.193
Mof_N 	N 	0.13774	0.04137	0.42414	-0.193
Mof_N 	N 	0.281	0.46859	0.32425	-0.185
Mof_N 	N 	0.31832	0.72996	0.08148	-0.193
Mof_N 	N 	0.7673	0.67561	0.43248	-0.105
Mof_N 	N 	0.65339	0.31551	0.37194	-0.191
Mof_N 	N 	0.14087	0.32267	0.17841	-0.201
Mof_N 	N 	0.61273	0.03427	0.11597	-0.191
Mof_O 	O 	0.84108	0.92875	0.31912	-0.409
Mof_O 	O 	0.0345	0.98775	0.32178	-0.392
Mof_O 	O 	0.0261	0.86453	0.36144	-1.224
Mof_O 	O 	0.84556	0.08807	0.54726	-0.403
Mof_O 	O 	0.91954	0.18805	0.55987	-0.333
Mof_O 	O 	0.59674	0.00331	0.39923	-0.234
Mof_O 	O 	0.7437	0.08068	0.36271	-0.231
Mof_O 	O 	0.698	0.6978	0.1144	-0.236
Mof_O 	O 	0.58336	0.55504	0.92752	-0.41
Mof_O 	O 	0.70578	0.64835	0.92148	-0.403
Mof_O 	O 	0.52616	0.97248	0.21393	-0.414
Mof_O 	O 	0.31557	0.95096	0.20637	-0.322
Mof_O 	O 	0.58389	0.85694	0.17658	-0.403
Mof_O 	O 	0.38965	0.79947	0.1747	-0.399
Mof_O 	O 	0.39613	0.91655	0.12253	-1.235
Mof_O 	O 	0.48107	0.16572	0.93899	-0.406
Mof_O 	O 	0.3428	0.08125	0.91671	-0.426
Mof_O 	O 	0.04342	0.03138	0.05773	-0.236
Mof_O 	O 	0.2162	0.65512	0.52988	-0.388
Mof_O 	O 	0.14565	0.55394	0.53352	-0.328
Mof_O 	O 	0.32767	0.77272	0.36902	-0.241
Mof_O 	O 	0.19566	0.68674	0.3373	-0.242
Mof_O 	O 	0.10737	0.99185	0.13151	-0.24
Mof_O 	O 	0.887	0.82224	0.2684	-0.395
Mof_O 	O 	0.09741	0.83743	0.27615	-0.329
Mof_O 	O 	0.83725	0.77912	0.0789	-0.238
Mof_O 	O 	0.65892	0.57125	0.81912	-0.41
Mof_O 	O 	0.4655	0.51225	0.82178	-0.395
Mof_O 	O 	0.4739	0.63547	0.86144	-1.225
Mof_O 	O 	0.65444	0.41193	0.04726	-0.403
Mof_O 	O 	0.58046	0.31195	0.05987	-0.333
Mof_O 	O 	0.90326	0.49669	0.89923	-0.23
Mof_O 	O 	0.7563	0.41932	0.86271	-0.231
Mof_O 	O 	0.802	0.8022	0.6144	-0.236
Mof_O 	O 	0.91664	0.94496	0.42752	-0.409
Mof_O 	O 	0.79422	0.85165	0.42148	-0.403
Mof_O 	O 	0.97384	0.52752	0.71393	-0.414
Mof_O 	O 	0.18443	0.54904	0.70637	-0.322
Mof_O 	O 	0.91611	0.64306	0.67658	-0.401
Mof_O 	O 	0.11035	0.70053	0.6747	-0.399
Mof_O 	O 	0.10387	0.58345	0.62253	-1.235
Mof_O 	O 	0.01893	0.33428	0.43899	-0.405
Mof_O 	O 	0.1572	0.41875	0.41671	-0.425
Mof_O 	O 	0.45658	0.46862	0.55773	-0.235
Mof_O 	O 	0.2838	0.84488	0.02988	-0.388
Mof_O 	O 	0.35435	0.94606	0.03352	-0.327
Mof_O 	O 	0.17233	0.72728	0.86902	-0.241
Mof_O 	O 	0.30434	0.81326	0.8373	-0.242
Mof_O 	O 	0.39263	0.50815	0.63151	-0.24
Mof_O 	O 	0.613	0.67776	0.7684	-0.396
Mof_O 	O 	0.40259	0.66257	0.77615	-0.331
Mof_O 	O 	0.66275	0.72088	0.5789	-0.237
Mof_O 	O 	0.15892	0.07125	0.68088	-0.41
Mof_O 	O 	0.9655	0.01225	0.67822	-0.395
Mof_O 	O 	0.9739	0.13547	0.63856	-1.224
Mof_O 	O 	0.15444	0.91193	0.45274	-0.402
Mof_O 	O 	0.08046	0.81195	0.44013	-0.333
Mof_O 	O 	0.40326	0.99669	0.60077	-0.23
Mof_O 	O 	0.2563	0.91932	0.63729	-0.232
Mof_O 	O 	0.302	0.3022	0.8856	-0.236
Mof_O 	O 	0.41664	0.44496	0.07248	-0.41
Mof_O 	O 	0.29422	0.35165	0.07852	-0.403
Mof_O 	O 	0.47384	0.02752	0.78607	-0.416
Mof_O 	O 	0.68443	0.04904	0.79363	-0.322
Mof_O 	O 	0.41611	0.14306	0.82342	-0.403
Mof_O 	O 	0.61035	0.20053	0.8253	-0.399
Mof_O 	O 	0.60387	0.08345	0.87747	-1.235
Mof_O 	O 	0.51893	0.83428	0.06101	-0.406
Mof_O 	O 	0.6572	0.91875	0.08329	-0.425
Mof_O 	O 	0.95658	0.96862	0.94227	-0.23
Mof_O 	O 	0.7838	0.34488	0.47012	-0.388
Mof_O 	O 	0.85435	0.44606	0.46648	-0.328
Mof_O 	O 	0.67233	0.22728	0.63098	-0.241
Mof_O 	O 	0.80434	0.31326	0.6627	-0.242
Mof_O 	O 	0.89263	0.00815	0.86849	-0.24
Mof_O 	O 	0.113	0.17776	0.7316	-0.395
Mof_O 	O 	0.90259	0.16257	0.72385	-0.329
Mof_O 	O 	0.16275	0.22088	0.9211	-0.238
Mof_O 	O 	0.34108	0.42875	0.18088	-0.41
Mof_O 	O 	0.5345	0.48775	0.17822	-0.395
Mof_O 	O 	0.5261	0.36453	0.13856	-1.225
Mof_O 	O 	0.34556	0.58807	0.95274	-0.403
Mof_O 	O 	0.41954	0.68805	0.94013	-0.333
Mof_O 	O 	0.09674	0.50331	0.10077	-0.23
Mof_O 	O 	0.2437	0.58068	0.13729	-0.231
Mof_O 	O 	0.198	0.1978	0.3856	-0.236
Mof_O 	O 	0.08336	0.05504	0.57248	-0.411
Mof_O 	O 	0.20578	0.14835	0.57852	-0.403
Mof_O 	O 	0.02616	0.47248	0.28607	-0.414
Mof_O 	O 	0.81557	0.45096	0.29363	-0.322
Mof_O 	O 	0.08389	0.35694	0.32342	-0.401
Mof_O 	O 	0.88965	0.29947	0.3253	-0.399
Mof_O 	O 	0.89613	0.41655	0.37747	-1.235
Mof_O 	O 	0.98107	0.66572	0.56101	-0.405
Mof_O 	O 	0.8428	0.58125	0.58329	-0.425
Mof_O 	O 	0.54342	0.53138	0.44227	-0.235
Mof_O 	O 	0.7162	0.15512	0.97012	-0.388
Mof_O 	O 	0.64565	0.05394	0.96648	-0.329
Mof_O 	O 	0.82767	0.27272	0.13098	-0.242
Mof_O 	O 	0.69566	0.18674	0.1627	-0.242
Mof_O 	O 	0.60737	0.49185	0.36849	-0.24
Mof_O 	O 	0.387	0.32224	0.2316	-0.396
Mof_O 	O 	0.59741	0.33743	0.22385	-0.331
Mof_O 	O 	0.33725	0.27912	0.4211	-0.237
_end
