data_functionalizedCrystal
_audit_creation_method	'EQeq! by Chris Wilmer'
_symmetry_space_group_name_H-M	'P1'
_symmetry_Int_Tables_number	1
_symmetry_cell_setting	triclinic
loop_
_symmetry_equiv_pos_as_xyz
  x,y,z
_cell_length_a	22.3819
_cell_length_b	22.3819
_cell_length_c	22.3819
_cell_angle_alpha	90
_cell_angle_beta	90
_cell_angle_gamma	90
loop_
_atom_site_label
_atom_site_type_symbol
_atom_site_fract_x
_atom_site_fract_y
_atom_site_fract_z
_atom_site_charge
Mof_N 	N 	0.5629	0.7166	0.8233	-0.304
Mof_N 	N 	0.634	0.6987	0.7602	-0.314
Mof_N 	N 	0.5778	0.6574	0.8236	-0.094
Mof_N 	N 	0.6222	0.6492	0.7879	-0.1
Mof_C 	C 	0.599	0.7421	0.7836	0.28
Mof_C 	C 	0.6041	0.8065	0.771	-0.83
Mof_H 	H 	0.6334	0.8128	0.7404	0.228
Mof_H 	H 	0.5661	0.8215	0.7578	0.237
Mof_H 	H 	0.616	0.8272	0.8067	0.243
Mof_N 	N 	0.0629	0.2166	0.3233	-0.309
Mof_N 	N 	0.134	0.1987	0.2602	-0.316
Mof_N 	N 	0.0778	0.1574	0.3236	-0.105
Mof_N 	N 	0.1222	0.1492	0.2879	-0.107
Mof_C 	C 	0.099	0.2421	0.2836	0.263
Mof_C 	C 	0.1041	0.3065	0.271	-0.794
Mof_H 	H 	0.1334	0.3128	0.2404	0.211
Mof_H 	H 	0.0661	0.3215	0.2578	0.216
Mof_H 	H 	0.116	0.3272	0.3067	0.226
Mof_N 	N 	0.9371	0.2834	0.3233	-0.298
Mof_N 	N 	0.866	0.3013	0.2602	-0.314
Mof_N 	N 	0.9222	0.3426	0.3236	-0.09
Mof_N 	N 	0.8778	0.3508	0.2879	-0.099
Mof_C 	C 	0.901	0.2579	0.2836	0.276
Mof_C 	C 	0.8959	0.1935	0.271	-0.814
Mof_H 	H 	0.8666	0.1872	0.2404	0.218
Mof_H 	H 	0.9339	0.1785	0.2578	0.233
Mof_H 	H 	0.884	0.1728	0.3067	0.233
Mof_N 	N 	0.4371	0.7834	0.8233	-0.305
Mof_N 	N 	0.366	0.8013	0.7602	-0.314
Mof_N 	N 	0.4222	0.8426	0.8236	-0.092
Mof_N 	N 	0.3778	0.8508	0.7879	-0.097
Mof_C 	C 	0.401	0.7579	0.7836	0.276
Mof_C 	C 	0.3959	0.6935	0.771	-0.818
Mof_H 	H 	0.3666	0.6872	0.7404	0.221
Mof_H 	H 	0.4339	0.6785	0.7578	0.231
Mof_H 	H 	0.384	0.6728	0.8067	0.236
Mof_N 	N 	0.4371	0.2166	0.6767	-0.306
Mof_N 	N 	0.366	0.1987	0.7398	-0.314
Mof_N 	N 	0.4222	0.1574	0.6764	-0.098
Mof_N 	N 	0.3778	0.1492	0.7121	-0.103
Mof_C 	C 	0.401	0.2421	0.7164	0.274
Mof_C 	C 	0.3959	0.3065	0.729	-0.816
Mof_H 	H 	0.3666	0.3128	0.7596	0.221
Mof_H 	H 	0.4339	0.3215	0.7422	0.231
Mof_H 	H 	0.384	0.3272	0.6933	0.234
Mof_N 	N 	0.9371	0.7166	0.1767	-0.299
Mof_N 	N 	0.866	0.6987	0.2398	-0.314
Mof_N 	N 	0.9222	0.6574	0.1764	-0.092
Mof_N 	N 	0.8778	0.6492	0.2121	-0.1
Mof_C 	C 	0.901	0.7421	0.2164	0.283
Mof_C 	C 	0.8959	0.8065	0.229	-0.835
Mof_H 	H 	0.8666	0.8128	0.2596	0.229
Mof_H 	H 	0.9339	0.8215	0.2422	0.245
Mof_H 	H 	0.884	0.8272	0.1933	0.243
Mof_N 	N 	0.0629	0.7834	0.1767	-0.309
Mof_N 	N 	0.134	0.8013	0.2398	-0.314
Mof_N 	N 	0.0778	0.8426	0.1764	-0.103
Mof_N 	N 	0.1222	0.8508	0.2121	-0.102
Mof_C 	C 	0.099	0.7579	0.2164	0.264
Mof_C 	C 	0.1041	0.6935	0.229	-0.795
Mof_H 	H 	0.1334	0.6872	0.2596	0.212
Mof_H 	H 	0.0661	0.6785	0.2422	0.218
Mof_H 	H 	0.116	0.6728	0.1933	0.225
Mof_N 	N 	0.5629	0.2834	0.6767	-0.305
Mof_N 	N 	0.634	0.3013	0.7398	-0.313
Mof_N 	N 	0.5778	0.3426	0.6764	-0.096
Mof_N 	N 	0.6222	0.3508	0.7121	-0.1
Mof_C 	C 	0.599	0.2579	0.7164	0.273
Mof_C 	C 	0.6041	0.1935	0.729	-0.809
Mof_H 	H 	0.6334	0.1872	0.7596	0.217
Mof_H 	H 	0.5661	0.1785	0.7422	0.227
Mof_H 	H 	0.616	0.1728	0.6933	0.231
Mof_N 	N 	0.8233	0.5629	0.7166	-0.305
Mof_N 	N 	0.7602	0.634	0.6987	-0.314
Mof_N 	N 	0.8236	0.5778	0.6574	-0.094
Mof_N 	N 	0.7879	0.6222	0.6492	-0.1
Mof_C 	C 	0.7836	0.599	0.7421	0.28
Mof_C 	C 	0.771	0.6041	0.8065	-0.83
Mof_H 	H 	0.7404	0.6334	0.8128	0.228
Mof_H 	H 	0.7578	0.5661	0.8215	0.237
Mof_H 	H 	0.8067	0.616	0.8272	0.243
Mof_N 	N 	0.3233	0.0629	0.2166	-0.309
Mof_N 	N 	0.2602	0.134	0.1987	-0.316
Mof_N 	N 	0.3236	0.0778	0.1574	-0.105
Mof_N 	N 	0.2879	0.1222	0.1492	-0.107
Mof_C 	C 	0.2836	0.099	0.2421	0.263
Mof_C 	C 	0.271	0.1041	0.3065	-0.794
Mof_H 	H 	0.2404	0.1334	0.3128	0.211
Mof_H 	H 	0.2578	0.0661	0.3215	0.216
Mof_H 	H 	0.3067	0.116	0.3272	0.226
Mof_N 	N 	0.3233	0.9371	0.2834	-0.298
Mof_N 	N 	0.2602	0.866	0.3013	-0.314
Mof_N 	N 	0.3236	0.9222	0.3426	-0.09
Mof_N 	N 	0.2879	0.8778	0.3508	-0.099
Mof_C 	C 	0.2836	0.901	0.2579	0.276
Mof_C 	C 	0.271	0.8959	0.1935	-0.814
Mof_H 	H 	0.2404	0.8666	0.1872	0.218
Mof_H 	H 	0.2578	0.9339	0.1785	0.233
Mof_H 	H 	0.3067	0.884	0.1728	0.233
Mof_N 	N 	0.8233	0.4371	0.7834	-0.305
Mof_N 	N 	0.7602	0.366	0.8013	-0.314
Mof_N 	N 	0.8236	0.4222	0.8426	-0.092
Mof_N 	N 	0.7879	0.3778	0.8508	-0.097
Mof_C 	C 	0.7836	0.401	0.7579	0.276
Mof_C 	C 	0.771	0.3959	0.6935	-0.818
Mof_H 	H 	0.7404	0.3666	0.6872	0.221
Mof_H 	H 	0.7578	0.4339	0.6785	0.231
Mof_H 	H 	0.8067	0.384	0.6728	0.236
Mof_N 	N 	0.6767	0.4371	0.2166	-0.306
Mof_N 	N 	0.7398	0.366	0.1987	-0.314
Mof_N 	N 	0.6764	0.4222	0.1574	-0.098
Mof_N 	N 	0.7121	0.3778	0.1492	-0.103
Mof_C 	C 	0.7164	0.401	0.2421	0.274
Mof_C 	C 	0.729	0.3959	0.3065	-0.816
Mof_H 	H 	0.7596	0.3666	0.3128	0.221
Mof_H 	H 	0.7422	0.4339	0.3215	0.231
Mof_H 	H 	0.6933	0.384	0.3272	0.234
Mof_N 	N 	0.1767	0.9371	0.7166	-0.299
Mof_N 	N 	0.2398	0.866	0.6987	-0.314
Mof_N 	N 	0.1764	0.9222	0.6574	-0.092
Mof_N 	N 	0.2121	0.8778	0.6492	-0.1
Mof_C 	C 	0.2164	0.901	0.7421	0.283
Mof_C 	C 	0.229	0.8959	0.8065	-0.835
Mof_H 	H 	0.2596	0.8666	0.8128	0.229
Mof_H 	H 	0.2422	0.9339	0.8215	0.245
Mof_H 	H 	0.1933	0.884	0.8272	0.243
Mof_N 	N 	0.1767	0.0629	0.7834	-0.309
Mof_N 	N 	0.2398	0.134	0.8013	-0.314
Mof_N 	N 	0.1764	0.0778	0.8426	-0.103
Mof_N 	N 	0.2121	0.1222	0.8508	-0.102
Mof_C 	C 	0.2164	0.099	0.7579	0.264
Mof_C 	C 	0.229	0.1041	0.6935	-0.795
Mof_H 	H 	0.2596	0.1334	0.6872	0.212
Mof_H 	H 	0.2422	0.0661	0.6785	0.218
Mof_H 	H 	0.1933	0.116	0.6728	0.225
Mof_N 	N 	0.6767	0.5629	0.2834	-0.305
Mof_N 	N 	0.7398	0.634	0.3013	-0.313
Mof_N 	N 	0.6764	0.5778	0.3426	-0.096
Mof_N 	N 	0.7121	0.6222	0.3508	-0.1
Mof_C 	C 	0.7164	0.599	0.2579	0.273
Mof_C 	C 	0.729	0.6041	0.1935	-0.809
Mof_H 	H 	0.7596	0.6334	0.1872	0.217
Mof_H 	H 	0.7422	0.5661	0.1785	0.227
Mof_H 	H 	0.6933	0.616	0.1728	0.231
Mof_N 	N 	0.7166	0.8233	0.5629	-0.305
Mof_N 	N 	0.6987	0.7602	0.634	-0.314
Mof_N 	N 	0.6574	0.8236	0.5778	-0.094
Mof_N 	N 	0.6492	0.7879	0.6222	-0.1
Mof_C 	C 	0.7421	0.7836	0.599	0.28
Mof_C 	C 	0.8065	0.771	0.6041	-0.83
Mof_H 	H 	0.8128	0.7404	0.6334	0.228
Mof_H 	H 	0.8215	0.7578	0.5661	0.237
Mof_H 	H 	0.8272	0.8067	0.616	0.243
Mof_N 	N 	0.2166	0.3233	0.0629	-0.309
Mof_N 	N 	0.1987	0.2602	0.134	-0.316
Mof_N 	N 	0.1574	0.3236	0.0778	-0.105
Mof_N 	N 	0.1492	0.2879	0.1222	-0.107
Mof_C 	C 	0.2421	0.2836	0.099	0.263
Mof_C 	C 	0.3065	0.271	0.1041	-0.794
Mof_H 	H 	0.3128	0.2404	0.1334	0.211
Mof_H 	H 	0.3215	0.2578	0.0661	0.216
Mof_H 	H 	0.3272	0.3067	0.116	0.226
Mof_N 	N 	0.2834	0.3233	0.9371	-0.298
Mof_N 	N 	0.3013	0.2602	0.866	-0.314
Mof_N 	N 	0.3426	0.3236	0.9222	-0.09
Mof_N 	N 	0.3508	0.2879	0.8778	-0.099
Mof_C 	C 	0.2579	0.2836	0.901	0.276
Mof_C 	C 	0.1935	0.271	0.8959	-0.814
Mof_H 	H 	0.1872	0.2404	0.8666	0.218
Mof_H 	H 	0.1785	0.2578	0.9339	0.233
Mof_H 	H 	0.1728	0.3067	0.884	0.233
Mof_N 	N 	0.7834	0.8233	0.4371	-0.305
Mof_N 	N 	0.8013	0.7602	0.366	-0.314
Mof_N 	N 	0.8426	0.8236	0.4222	-0.092
Mof_N 	N 	0.8508	0.7879	0.3778	-0.097
Mof_C 	C 	0.7579	0.7836	0.401	0.276
Mof_C 	C 	0.6935	0.771	0.3959	-0.818
Mof_H 	H 	0.6872	0.7404	0.3666	0.221
Mof_H 	H 	0.6785	0.7578	0.4339	0.231
Mof_H 	H 	0.6728	0.8067	0.384	0.236
Mof_N 	N 	0.2166	0.6767	0.4371	-0.306
Mof_N 	N 	0.1987	0.7398	0.366	-0.314
Mof_N 	N 	0.1574	0.6764	0.4222	-0.098
Mof_N 	N 	0.1492	0.7121	0.3778	-0.103
Mof_C 	C 	0.2421	0.7164	0.401	0.274
Mof_C 	C 	0.3065	0.729	0.3959	-0.816
Mof_H 	H 	0.3128	0.7596	0.3666	0.221
Mof_H 	H 	0.3215	0.7422	0.4339	0.231
Mof_H 	H 	0.3272	0.6933	0.384	0.234
Mof_N 	N 	0.7166	0.1767	0.9371	-0.299
Mof_N 	N 	0.6987	0.2398	0.866	-0.314
Mof_N 	N 	0.6574	0.1764	0.9222	-0.092
Mof_N 	N 	0.6492	0.2121	0.8778	-0.1
Mof_C 	C 	0.7421	0.2164	0.901	0.283
Mof_C 	C 	0.8065	0.229	0.8959	-0.835
Mof_H 	H 	0.8128	0.2596	0.8666	0.229
Mof_H 	H 	0.8215	0.2422	0.9339	0.245
Mof_H 	H 	0.8272	0.1933	0.884	0.243
Mof_N 	N 	0.7834	0.1767	0.0629	-0.309
Mof_N 	N 	0.8013	0.2398	0.134	-0.314
Mof_N 	N 	0.8426	0.1764	0.0778	-0.103
Mof_N 	N 	0.8508	0.2121	0.1222	-0.102
Mof_C 	C 	0.7579	0.2164	0.099	0.264
Mof_C 	C 	0.6935	0.229	0.1041	-0.795
Mof_H 	H 	0.6872	0.2596	0.1334	0.212
Mof_H 	H 	0.6785	0.2422	0.0661	0.218
Mof_H 	H 	0.6728	0.1933	0.116	0.225
Mof_N 	N 	0.2834	0.6767	0.5629	-0.305
Mof_N 	N 	0.3013	0.7398	0.634	-0.313
Mof_N 	N 	0.3426	0.6764	0.5778	-0.096
Mof_N 	N 	0.3508	0.7121	0.6222	-0.1
Mof_C 	C 	0.2579	0.7164	0.599	0.273
Mof_C 	C 	0.1935	0.729	0.6041	-0.809
Mof_H 	H 	0.1872	0.7596	0.6334	0.217
Mof_H 	H 	0.1785	0.7422	0.5661	0.227
Mof_H 	H 	0.1728	0.6933	0.616	0.231
Mof_N 	N 	0.9666	0.8129	0.0733	-0.313
Mof_N 	N 	0.9487	0.884	0.0102	-0.332
Mof_N 	N 	0.9074	0.8278	0.0736	-0.096
Mof_N 	N 	0.8992	0.8722	0.0379	-0.103
Mof_C 	C 	0.9921	0.849	0.0336	0.356
Mof_C 	C 	0.0565	0.8541	0.021	-1.052
Mof_H 	H 	0.0628	0.8834	0.9904	0.307
Mof_H 	H 	0.0715	0.8161	0.0078	0.286
Mof_H 	H 	0.0772	0.866	0.0567	0.295
Mof_N 	N 	0.4666	0.3129	0.5733	-0.305
Mof_N 	N 	0.4487	0.384	0.5102	-0.314
Mof_N 	N 	0.4074	0.3278	0.5736	-0.096
Mof_N 	N 	0.3992	0.3722	0.5379	-0.101
Mof_C 	C 	0.4921	0.349	0.5336	0.273
Mof_C 	C 	0.5565	0.3541	0.521	-0.814
Mof_H 	H 	0.5628	0.3834	0.4904	0.22
Mof_H 	H 	0.5715	0.3161	0.5078	0.229
Mof_H 	H 	0.5772	0.366	0.5567	0.234
Mof_N 	N 	0.5334	0.1871	0.5733	-0.305
Mof_N 	N 	0.5513	0.116	0.5102	-0.316
Mof_N 	N 	0.5926	0.1722	0.5736	-0.097
Mof_N 	N 	0.6008	0.1278	0.5379	-0.103
Mof_C 	C 	0.5079	0.151	0.5336	0.27
Mof_C 	C 	0.4435	0.1459	0.521	-0.805
Mof_H 	H 	0.4372	0.1166	0.4904	0.214
Mof_H 	H 	0.4285	0.1839	0.5078	0.226
Mof_H 	H 	0.4228	0.134	0.5567	0.228
Mof_N 	N 	0.0334	0.6871	0.0733	-0.311
Mof_N 	N 	0.0513	0.616	0.0102	-0.328
Mof_N 	N 	0.0926	0.6722	0.0736	-0.101
Mof_N 	N 	0.1008	0.6278	0.0379	-0.108
Mof_C 	C 	0.0079	0.651	0.0336	0.255
Mof_C 	C 	0.9435	0.6459	0.021	-0.867
Mof_H 	H 	0.9372	0.6166	0.9904	0.263
Mof_H 	H 	0.9285	0.6839	0.0078	0.244
Mof_H 	H 	0.9228	0.634	0.0567	0.251
Mof_N 	N 	0.4666	0.6871	0.9267	-0.297
Mof_N 	N 	0.4487	0.616	0.9898	-0.298
Mof_N 	N 	0.4074	0.6722	0.9264	-0.093
Mof_N 	N 	0.3992	0.6278	0.9621	-0.095
Mof_C 	C 	0.4921	0.651	0.9664	0.244
Mof_C 	C 	0.5565	0.6459	0.979	-0.672
Mof_H 	H 	0.5628	0.6166	0.0096	0.157
Mof_H 	H 	0.5715	0.6839	0.9922	0.197
Mof_H 	H 	0.5772	0.634	0.9433	0.198
Mof_N 	N 	0.9666	0.1871	0.4267	-0.304
Mof_N 	N 	0.9487	0.116	0.4898	-0.319
Mof_N 	N 	0.9074	0.1722	0.4264	-0.095
Mof_N 	N 	0.8992	0.1278	0.4621	-0.102
Mof_C 	C 	0.9921	0.151	0.4664	0.319
Mof_C 	C 	0.0565	0.1459	0.479	-0.893
Mof_H 	H 	0.0628	0.1166	0.5096	0.234
Mof_H 	H 	0.0715	0.1839	0.4922	0.247
Mof_H 	H 	0.0772	0.134	0.4433	0.249
Mof_N 	N 	0.0334	0.3129	0.4267	-0.303
Mof_N 	N 	0.0513	0.384	0.4898	-0.311
Mof_N 	N 	0.0926	0.3278	0.4264	-0.098
Mof_N 	N 	0.1008	0.3722	0.4621	-0.103
Mof_C 	C 	0.0079	0.349	0.4664	0.225
Mof_C 	C 	0.9435	0.3541	0.479	-0.725
Mof_H 	H 	0.9372	0.3834	0.5096	0.2
Mof_H 	H 	0.9285	0.3161	0.4922	0.209
Mof_H 	H 	0.9228	0.366	0.4433	0.214
Mof_N 	N 	0.5334	0.8129	0.9267	-0.298
Mof_N 	N 	0.5513	0.884	0.9898	-0.296
Mof_N 	N 	0.5926	0.8278	0.9264	-0.092
Mof_N 	N 	0.6008	0.8722	0.9621	-0.093
Mof_C 	C 	0.5079	0.849	0.9664	0.248
Mof_C 	C 	0.4435	0.8541	0.979	-0.68
Mof_H 	H 	0.4372	0.8834	0.0096	0.162
Mof_H 	H 	0.4285	0.8161	0.9922	0.199
Mof_H 	H 	0.4228	0.866	0.9433	0.202
Mof_N 	N 	0.8129	0.0733	0.9666	-0.313
Mof_N 	N 	0.884	0.0102	0.9487	-0.332
Mof_N 	N 	0.8278	0.0736	0.9074	-0.096
Mof_N 	N 	0.8722	0.0379	0.8992	-0.103
Mof_C 	C 	0.849	0.0336	0.9921	0.356
Mof_C 	C 	0.8541	0.021	0.0565	-1.052
Mof_H 	H 	0.8834	0.9904	0.0628	0.307
Mof_H 	H 	0.8161	0.0078	0.0715	0.286
Mof_H 	H 	0.866	0.0567	0.0772	0.295
Mof_N 	N 	0.3129	0.5733	0.4666	-0.305
Mof_N 	N 	0.384	0.5102	0.4487	-0.314
Mof_N 	N 	0.3278	0.5736	0.4074	-0.096
Mof_N 	N 	0.3722	0.5379	0.3992	-0.101
Mof_C 	C 	0.349	0.5336	0.4921	0.273
Mof_C 	C 	0.3541	0.521	0.5565	-0.814
Mof_H 	H 	0.3834	0.4904	0.5628	0.22
Mof_H 	H 	0.3161	0.5078	0.5715	0.229
Mof_H 	H 	0.366	0.5567	0.5772	0.234
Mof_N 	N 	0.1871	0.5733	0.5334	-0.305
Mof_N 	N 	0.116	0.5102	0.5513	-0.316
Mof_N 	N 	0.1722	0.5736	0.5926	-0.097
Mof_N 	N 	0.1278	0.5379	0.6008	-0.103
Mof_C 	C 	0.151	0.5336	0.5079	0.27
Mof_C 	C 	0.1459	0.521	0.4435	-0.805
Mof_H 	H 	0.1166	0.4904	0.4372	0.214
Mof_H 	H 	0.1839	0.5078	0.4285	0.226
Mof_H 	H 	0.134	0.5567	0.4228	0.228
Mof_N 	N 	0.6871	0.0733	0.0334	-0.311
Mof_N 	N 	0.616	0.0102	0.0513	-0.328
Mof_N 	N 	0.6722	0.0736	0.0926	-0.101
Mof_N 	N 	0.6278	0.0379	0.1008	-0.108
Mof_C 	C 	0.651	0.0336	0.0079	0.255
Mof_C 	C 	0.6459	0.021	0.9435	-0.867
Mof_H 	H 	0.6166	0.9904	0.9372	0.263
Mof_H 	H 	0.6839	0.0078	0.9285	0.244
Mof_H 	H 	0.634	0.0567	0.9228	0.251
Mof_N 	N 	0.6871	0.9267	0.4666	-0.297
Mof_N 	N 	0.616	0.9898	0.4487	-0.298
Mof_N 	N 	0.6722	0.9264	0.4074	-0.093
Mof_N 	N 	0.6278	0.9621	0.3992	-0.095
Mof_C 	C 	0.651	0.9664	0.4921	0.244
Mof_C 	C 	0.6459	0.979	0.5565	-0.672
Mof_H 	H 	0.6166	0.0096	0.5628	0.157
Mof_H 	H 	0.6839	0.9922	0.5715	0.197
Mof_H 	H 	0.634	0.9433	0.5772	0.198
Mof_N 	N 	0.1871	0.4267	0.9666	-0.304
Mof_N 	N 	0.116	0.4898	0.9487	-0.319
Mof_N 	N 	0.1722	0.4264	0.9074	-0.095
Mof_N 	N 	0.1278	0.4621	0.8992	-0.102
Mof_C 	C 	0.151	0.4664	0.9921	0.319
Mof_C 	C 	0.1459	0.479	0.0565	-0.893
Mof_H 	H 	0.1166	0.5096	0.0628	0.234
Mof_H 	H 	0.1839	0.4922	0.0715	0.247
Mof_H 	H 	0.134	0.4433	0.0772	0.249
Mof_N 	N 	0.3129	0.4267	0.0334	-0.303
Mof_N 	N 	0.384	0.4898	0.0513	-0.311
Mof_N 	N 	0.3278	0.4264	0.0926	-0.098
Mof_N 	N 	0.3722	0.4621	0.1008	-0.103
Mof_C 	C 	0.349	0.4664	0.0079	0.225
Mof_C 	C 	0.3541	0.479	0.9435	-0.725
Mof_H 	H 	0.3834	0.5096	0.9372	0.2
Mof_H 	H 	0.3161	0.4922	0.9285	0.209
Mof_H 	H 	0.366	0.4433	0.9228	0.214
Mof_N 	N 	0.8129	0.9267	0.5334	-0.298
Mof_N 	N 	0.884	0.9898	0.5513	-0.296
Mof_N 	N 	0.8278	0.9264	0.5926	-0.092
Mof_N 	N 	0.8722	0.9621	0.6008	-0.093
Mof_C 	C 	0.849	0.9664	0.5079	0.248
Mof_C 	C 	0.8541	0.979	0.4435	-0.68
Mof_H 	H 	0.8834	0.0096	0.4372	0.162
Mof_H 	H 	0.8161	0.9922	0.4285	0.199
Mof_H 	H 	0.866	0.9433	0.4228	0.202
Mof_N 	N 	0.0733	0.9666	0.8129	-0.313
Mof_N 	N 	0.0102	0.9487	0.884	-0.332
Mof_N 	N 	0.0736	0.9074	0.8278	-0.096
Mof_N 	N 	0.0379	0.8992	0.8722	-0.103
Mof_C 	C 	0.0336	0.9921	0.849	0.356
Mof_C 	C 	0.021	0.0565	0.8541	-1.052
Mof_H 	H 	0.9904	0.0628	0.8834	0.307
Mof_H 	H 	0.0078	0.0715	0.8161	0.286
Mof_H 	H 	0.0567	0.0772	0.866	0.295
Mof_N 	N 	0.5733	0.4666	0.3129	-0.305
Mof_N 	N 	0.5102	0.4487	0.384	-0.314
Mof_N 	N 	0.5736	0.4074	0.3278	-0.096
Mof_N 	N 	0.5379	0.3992	0.3722	-0.101
Mof_C 	C 	0.5336	0.4921	0.349	0.273
Mof_C 	C 	0.521	0.5565	0.3541	-0.814
Mof_H 	H 	0.4904	0.5628	0.3834	0.22
Mof_H 	H 	0.5078	0.5715	0.3161	0.229
Mof_H 	H 	0.5567	0.5772	0.366	0.234
Mof_N 	N 	0.5733	0.5334	0.1871	-0.305
Mof_N 	N 	0.5102	0.5513	0.116	-0.316
Mof_N 	N 	0.5736	0.5926	0.1722	-0.097
Mof_N 	N 	0.5379	0.6008	0.1278	-0.103
Mof_C 	C 	0.5336	0.5079	0.151	0.27
Mof_C 	C 	0.521	0.4435	0.1459	-0.805
Mof_H 	H 	0.4904	0.4372	0.1166	0.214
Mof_H 	H 	0.5078	0.4285	0.1839	0.226
Mof_H 	H 	0.5567	0.4228	0.134	0.228
Mof_N 	N 	0.0733	0.0334	0.6871	-0.311
Mof_N 	N 	0.0102	0.0513	0.616	-0.328
Mof_N 	N 	0.0736	0.0926	0.6722	-0.101
Mof_N 	N 	0.0379	0.1008	0.6278	-0.108
Mof_C 	C 	0.0336	0.0079	0.651	0.255
Mof_C 	C 	0.021	0.9435	0.6459	-0.867
Mof_H 	H 	0.9904	0.9372	0.6166	0.263
Mof_H 	H 	0.0078	0.9285	0.6839	0.244
Mof_H 	H 	0.0567	0.9228	0.634	0.251
Mof_N 	N 	0.9267	0.4666	0.6871	-0.297
Mof_N 	N 	0.9898	0.4487	0.616	-0.298
Mof_N 	N 	0.9264	0.4074	0.6722	-0.093
Mof_N 	N 	0.9621	0.3992	0.6278	-0.095
Mof_C 	C 	0.9664	0.4921	0.651	0.244
Mof_C 	C 	0.979	0.5565	0.6459	-0.672
Mof_H 	H 	0.0096	0.5628	0.6166	0.157
Mof_H 	H 	0.9922	0.5715	0.6839	0.197
Mof_H 	H 	0.9433	0.5772	0.634	0.198
Mof_N 	N 	0.4267	0.9666	0.1871	-0.304
Mof_N 	N 	0.4898	0.9487	0.116	-0.319
Mof_N 	N 	0.4264	0.9074	0.1722	-0.095
Mof_N 	N 	0.4621	0.8992	0.1278	-0.102
Mof_C 	C 	0.4664	0.9921	0.151	0.319
Mof_C 	C 	0.479	0.0565	0.1459	-0.893
Mof_H 	H 	0.5096	0.0628	0.1166	0.234
Mof_H 	H 	0.4922	0.0715	0.1839	0.247
Mof_H 	H 	0.4433	0.0772	0.134	0.249
Mof_N 	N 	0.4267	0.0334	0.3129	-0.303
Mof_N 	N 	0.4898	0.0513	0.384	-0.311
Mof_N 	N 	0.4264	0.0926	0.3278	-0.098
Mof_N 	N 	0.4621	0.1008	0.3722	-0.103
Mof_C 	C 	0.4664	0.0079	0.349	0.225
Mof_C 	C 	0.479	0.9435	0.3541	-0.725
Mof_H 	H 	0.5096	0.9372	0.3834	0.2
Mof_H 	H 	0.4922	0.9285	0.3161	0.209
Mof_H 	H 	0.4433	0.9228	0.366	0.214
Mof_N 	N 	0.9267	0.5334	0.8129	-0.298
Mof_N 	N 	0.9898	0.5513	0.884	-0.296
Mof_N 	N 	0.9264	0.5926	0.8278	-0.092
Mof_N 	N 	0.9621	0.6008	0.8722	-0.093
Mof_C 	C 	0.9664	0.5079	0.849	0.248
Mof_C 	C 	0.979	0.4435	0.8541	-0.68
Mof_H 	H 	0.0096	0.4372	0.8834	0.162
Mof_H 	H 	0.9922	0.4285	0.8161	0.199
Mof_H 	H 	0.9433	0.4228	0.866	0.202
Mof_Zn	Zn	0.5	0.75	0.875	1.178
Mof_Zn	Zn	-3.09685e-33	0.25	0.375	1.168
Mof_Zn	Zn	0.5	0.25	0.625	1.177
Mof_Zn	Zn	9.47442e-33	0.75	0.125	1.168
Mof_Zn	Zn	0.875	0.5	0.75	1.178
Mof_Zn	Zn	0.375	0	0.25	1.168
Mof_Zn	Zn	0.625	0.5	0.25	1.177
Mof_Zn	Zn	0.125	0	0.75	1.168
Mof_Zn	Zn	0.75	0.875	0.5	1.178
Mof_Zn	Zn	0.25	0.375	-0	1.168
Mof_Zn	Zn	0.25	0.625	0.5	1.177
Mof_Zn	Zn	0.75	0.125	-0	1.168
Mof_Zn	Zn	0.69677	0.69677	0.69677	1.139
Mof_Zn	Zn	0.19677	0.19677	0.19677	1.135
Mof_Zn	Zn	0.80323	0.30323	0.19677	1.138
Mof_Zn	Zn	0.30323	0.80323	0.69677	1.139
Mof_Zn	Zn	0.30323	0.19677	0.80323	1.138
Mof_Zn	Zn	0.80323	0.69677	0.30323	1.139
Mof_Zn	Zn	0.19677	0.80323	0.30323	1.138
Mof_Zn	Zn	0.69677	0.30323	0.80323	1.139
Mof_Zn	Zn	0.94677	0.94677	0.94677	1.156
Mof_Zn	Zn	0.44677	0.44677	0.44677	1.138
Mof_Zn	Zn	0.55323	0.05323	0.44677	1.132
Mof_Zn	Zn	0.05323	0.55323	0.94677	1.139
Mof_Zn	Zn	0.44677	0.55323	0.05323	1.132
Mof_Zn	Zn	0.94677	0.05323	0.55323	1.139
Mof_Zn	Zn	0.05323	0.44677	0.55323	1.132
Mof_Zn	Zn	0.55323	0.94677	0.05323	1.139
_end
