# CIF file generated by openbabel 3.1.0, see https://openbabel.org
data_I
_chemical_name_common 'image0'
_cell_length_a 11.6384
_cell_length_b 21.052
_cell_length_c 24.247
_cell_angle_alpha 114.959
_cell_angle_beta 102.95
_cell_angle_gamma 92.406
_space_group_name_H-M_alt 'P 1'
_space_group_name_Hall 'P 1'
loop_
    _symmetry_equiv_pos_as_xyz
    x,y,z
loop_
    _atom_site_label
    _atom_site_type_symbol
    _atom_site_fract_x
    _atom_site_fract_y
    _atom_site_fract_z
    _atom_site_occupancy
    Mn1      Mn       0.42036    0.17038    0.34079    1.000
    Mn2      Mn       0.66444    0.23569    0.29297    1.000
    Mn3      Mn       0.12852    0.05723    0.29299    1.000
    Mn4      Mn       0.87264    0.12270    0.24541    1.000
    S1       S        0.84310    0.46766    0.70245    1.000
    S2       S        0.34519    0.78946    0.08094    1.000
    S3       S        0.64070    0.76506    0.29748    1.000
    S4       S        0.23579    0.29147    0.08100    1.000
    O1       O        0.58220    0.21120    0.41290    1.000
    O2       O        0.66910    0.79850    0.58690    1.000
    O3       O        0.42800    0.06620    0.33573    1.000
    O4       O        0.59200    0.73050    0.66402    1.000
    O5       O        0.24400    0.12251    0.26355    1.000
    O6       O        0.51870    0.14077    0.26379    1.000
    O7       O        0.71310    0.27110    0.39004    1.000
    O8       O        0.46010    0.69530    0.70373    1.000
    O9       O        0.34220    0.78390    0.80114    1.000
    O10      O        0.69380    0.10920    0.25592    1.000
    O11      O        0.82290    0.88170    0.61014    1.000
    O12      O        0.25600    0.99080    0.29612    1.000
    O13      O        0.95820    0.01760    0.80130    1.000
    O14      O        0.06230    0.14680    0.25585    1.000
    O15      O        0.19000    0.84040    0.82249    1.000
    O16      O        0.13200    0.98140    0.82238    1.000
    O17      O        0.96960    0.49580    0.71610    1.000
    O18      O        0.80500    0.43870    0.74000    1.000
    O19      O        0.43050    0.74280    0.08515    1.000
    O20      O        0.23040    0.77910    0.09180    1.000
    O21      O        0.75240    0.77870    0.28370    1.000
    O22      O        0.56580    0.69810    0.25920    1.000
    O23      O        0.36090    0.31240    0.09177    1.000
    O24      O        0.15450    0.34230    0.08512    1.000
    C1       C        0.66740    0.26050    0.42750    1.000
    C2       C        0.71800    0.30710    0.49670    1.000
    C3       C        0.81060    0.36250    0.51690    1.000
    H1       H        0.84560    0.36810    0.48800    1.000
    C4       C        0.85020    0.40940    0.58050    1.000
    H2       H        0.91210    0.44630    0.59370    1.000
    C5       C        0.80120    0.40290    0.62390    1.000
    C6       C        0.71040    0.34700    0.60400    1.000
    H3       H        0.67680    0.34130    0.63330    1.000
    C7       C        0.66950    0.29970    0.54080    1.000
    H4       H        0.60850    0.26240    0.52790    1.000
    C8       C        0.75640    0.53360    0.70090    1.000
    C9       C        0.80480    0.58590    0.68420    1.000
    H5       H        0.88050    0.58630    0.67760    1.000
    C10      C        0.73540    0.63360    0.67860    1.000
    H6       H        0.76330    0.66630    0.66640    1.000
    C11      C        0.62600    0.63590    0.69020    1.000
    C12      C        0.58510    0.58780    0.70660    1.000
    H7       H        0.51120    0.58950    0.71550    1.000
    C13      C        0.65170    0.53490    0.71090    1.000
    H8       H        0.62050    0.50100    0.72090    1.000
    C14      C        0.55390    0.69090    0.68470    1.000
    C15      C        0.58230    0.09250    0.24300    1.000
    C16      C        0.52230    0.01680    0.20540    1.000
    C17      C        0.40170    0.00050    0.18750    1.000
    H9       H        0.35540    0.03640    0.19920    1.000
    C18      C        0.34710    0.93050    0.15190    1.000
    H10      H        0.26450    0.91940    0.14140    1.000
    C19      C        0.41480    0.87740    0.13190    1.000
    C20      C        0.53990    0.89450    0.14940    1.000
    H11      H        0.58650    0.85880    0.13670    1.000
    C21      C        0.59210    0.96280    0.18470    1.000
    H12      H        0.67460    0.97420    0.19540    1.000
    C22      C        0.32150    0.78790    0.00540    1.000
    C23      C        0.22690    0.82100    0.98740    1.000
    H13      H        0.17560    0.83930    0.01280    1.000
    C24      C        0.21280    0.82540    0.93240    1.000
    H14      H        0.14970    0.84610    0.91960    1.000
    C25      C        0.28980    0.80000    0.89410    1.000
    C26      C        0.38070    0.76650    0.91220    1.000
    H15      H        0.43100    0.74730    0.88650    1.000
    C27      C        0.39620    0.76160    0.96830    1.000
    H16      H        0.45840    0.74020    0.98090    1.000
    C28      C        0.27280    0.80750    0.83360    1.000
    C29      C        0.36830    0.00630    0.31500    1.000
    C30      C        0.43540    0.94560    0.30920    1.000
    C31      C        0.37850    0.88200    0.29470    1.000
    H17      H        0.29620    0.87540    0.28820    1.000
    C32      C        0.44060    0.82450    0.28890    1.000
    H18      H        0.39890    0.78030    0.27760    1.000
    C33      C        0.55570    0.83300    0.29930    1.000
    C34      C        0.62000    0.90100    0.31520    1.000
    H19      H        0.70230    0.90790    0.32140    1.000
    C35      C        0.55670    0.95400    0.32070    1.000
    H20      H        0.59740    0.99880    0.33290    1.000
    C36      C        0.67680    0.77940    0.37710    1.000
    C37      C        0.60670    0.74270    0.39640    1.000
    H21      H        0.54460    0.70730    0.36680    1.000
    C38      C        0.62780    0.75810    0.45830    1.000
    H22      H        0.57940    0.73350    0.47080    1.000
    C39      C        0.72120    0.81020    0.50310    1.000
    C40      C        0.79370    0.84570    0.48270    1.000
    H23      H        0.85720    0.88050    0.51170    1.000
    C41      C        0.77080    0.82900    0.42030    1.000
    H24      H        0.82030    0.85190    0.40680    1.000
    C42      C        0.74040    0.83350    0.57290    1.000
    C43      C        0.16140    0.15150    0.24370    1.000
    C44      C        0.18360    0.18830    0.20470    1.000
    C45      C        0.09270    0.22170    0.18440    1.000
    H25      H        0.02070    0.22070    0.19490    1.000
    C46      C        0.11070    0.25530    0.14950    1.000
    H26      H        0.05200    0.27870    0.13690    1.000
    C47      C        0.21690    0.25480    0.13240    1.000
    C48      C        0.30350    0.22130    0.15210    1.000
    H27      H        0.37540    0.22160    0.14140    1.000
    C49      C        0.28570    0.18740    0.18740    1.000
    H28      H        0.34440    0.16370    0.19950    1.000
    C50      C        0.18430    0.21740    0.00560    1.000
    C51      C        0.07090    0.20650    0.96850    1.000
    H29      H        0.02080    0.24010    0.98090    1.000
    C52      C        0.03130    0.14530    0.91230    1.000
    H30      H        0.95510    0.13830    0.88640    1.000
    C53      C        0.10500    0.09440    0.89470    1.000
    C54      C        0.21990    0.10660    0.93200    1.000
    H31      H        0.27010    0.07320    0.91920    1.000
    C55      C        0.26050    0.16600    0.98630    1.000
    H32      H        0.33790    0.17330    0.01120    1.000
    C56      C        0.06140    0.02560    0.83380    1.000
    Mn5      Mn       0.57964    0.82962    0.65921    1.000
    Mn6      Mn       0.33556    0.76431    0.70703    1.000
    Mn7      Mn       0.87148    0.94277    0.70701    1.000
    Mn8      Mn       0.12736    0.87730    0.75459    1.000
    S5       S        0.15690    0.53234    0.29755    1.000
    S6       S        0.65481    0.21054    0.91906    1.000
    S7       S        0.35930    0.23494    0.70252    1.000
    S8       S        0.76421    0.70853    0.91900    1.000
    O25      O        0.41780    0.78880    0.58710    1.000
    O26      O        0.33090    0.20150    0.41310    1.000
    O27      O        0.57200    0.93380    0.66427    1.000
    O28      O        0.40800    0.26950    0.33598    1.000
    O29      O        0.75600    0.87749    0.73645    1.000
    O30      O        0.48130    0.85923    0.73621    1.000
    O31      O        0.28690    0.72890    0.60996    1.000
    O32      O        0.53990    0.30470    0.29627    1.000
    O33      O        0.65780    0.21610    0.19886    1.000
    O34      O        0.30620    0.89080    0.74408    1.000
    O35      O        0.17710    0.11830    0.38986    1.000
    O36      O        0.74400    0.00920    0.70388    1.000
    O37      O        0.04180    0.98240    0.19870    1.000
    O38      O        0.93770    0.85320    0.74415    1.000
    O39      O        0.81000    0.15960    0.17751    1.000
    O40      O        0.86800    0.01860    0.17762    1.000
    O41      O        0.03040    0.50420    0.28390    1.000
    O42      O        0.19500    0.56130    0.26000    1.000
    O43      O        0.56950    0.25720    0.91485    1.000
    O44      O        0.76960    0.22090    0.90820    1.000
    O45      O        0.24760    0.22130    0.71630    1.000
    O46      O        0.43420    0.30190    0.74080    1.000
    O47      O        0.63910    0.68760    0.90823    1.000
    O48      O        0.84550    0.65770    0.91488    1.000
    C57      C        0.33260    0.73950    0.57250    1.000
    C58      C        0.28200    0.69290    0.50330    1.000
    C59      C        0.18940    0.63750    0.48310    1.000
    H33      H        0.15440    0.63190    0.51200    1.000
    C60      C        0.14980    0.59060    0.41950    1.000
    H34      H        0.08790    0.55370    0.40630    1.000
    C61      C        0.19880    0.59710    0.37610    1.000
    C62      C        0.28960    0.65300    0.39600    1.000
    H35      H        0.32320    0.65870    0.36670    1.000
    C63      C        0.33050    0.70030    0.45920    1.000
    H36      H        0.39150    0.73760    0.47210    1.000
    C64      C        0.24360    0.46640    0.29910    1.000
    C65      C        0.19520    0.41410    0.31580    1.000
    H37      H        0.11950    0.41370    0.32240    1.000
    C66      C        0.26460    0.36640    0.32140    1.000
    H38      H        0.23670    0.33370    0.33360    1.000
    C67      C        0.37400    0.36410    0.30980    1.000
    C68      C        0.41490    0.41220    0.29340    1.000
    H39      H        0.48880    0.41050    0.28450    1.000
    C69      C        0.34830    0.46510    0.28910    1.000
    H40      H        0.37950    0.49900    0.27910    1.000
    C70      C        0.44610    0.30910    0.31530    1.000
    C71      C        0.41770    0.90750    0.75700    1.000
    C72      C        0.47770    0.98320    0.79460    1.000
    C73      C        0.59830    0.99950    0.81250    1.000
    H41      H        0.64460    0.96360    0.80080    1.000
    C74      C        0.65290    0.06950    0.84810    1.000
    H42      H        0.73550    0.08060    0.85860    1.000
    C75      C        0.58520    0.12260    0.86810    1.000
    C76      C        0.46010    0.10550    0.85060    1.000
    H43      H        0.41350    0.14120    0.86330    1.000
    C77      C        0.40790    0.03720    0.81530    1.000
    H44      H        0.32540    0.02580    0.80460    1.000
    C78      C        0.67850    0.21210    0.99460    1.000
    C79      C        0.77310    0.17900    0.01260    1.000
    H45      H        0.82440    0.16070    0.98720    1.000
    C80      C        0.78720    0.17460    0.06760    1.000
    H46      H        0.85030    0.15390    0.08040    1.000
    C81      C        0.71020    0.20000    0.10590    1.000
    C82      C        0.61930    0.23350    0.08780    1.000
    H47      H        0.56900    0.25270    0.11350    1.000
    C83      C        0.60380    0.23840    0.03170    1.000
    H48      H        0.54160    0.25980    0.01910    1.000
    C84      C        0.72720    0.19250    0.16640    1.000
    C85      C        0.63170    0.99370    0.68500    1.000
    C86      C        0.56460    0.05440    0.69080    1.000
    C87      C        0.62150    0.11800    0.70530    1.000
    H49      H        0.70380    0.12460    0.71180    1.000
    C88      C        0.55940    0.17550    0.71110    1.000
    H50      H        0.60110    0.21970    0.72240    1.000
    C89      C        0.44430    0.16700    0.70070    1.000
    C90      C        0.38000    0.09900    0.68480    1.000
    H51      H        0.29770    0.09210    0.67860    1.000
    C91      C        0.44330    0.04600    0.67930    1.000
    H52      H        0.40260    0.00120    0.66710    1.000
    C92      C        0.32320    0.22060    0.62290    1.000
    C93      C        0.39330    0.25730    0.60360    1.000
    H53      H        0.45540    0.29270    0.63320    1.000
    C94      C        0.37220    0.24190    0.54170    1.000
    H54      H        0.42060    0.26650    0.52920    1.000
    C95      C        0.27880    0.18980    0.49690    1.000
    C96      C        0.20630    0.15430    0.51730    1.000
    H55      H        0.14280    0.11950    0.48830    1.000
    C97      C        0.22920    0.17100    0.57970    1.000
    H56      H        0.17970    0.14810    0.59320    1.000
    C98      C        0.25960    0.16650    0.42710    1.000
    C99      C        0.83860    0.84850    0.75630    1.000
    C100     C        0.81640    0.81170    0.79530    1.000
    C101     C        0.90730    0.77830    0.81560    1.000
    H57      H        0.97930    0.77930    0.80510    1.000
    C102     C        0.88930    0.74470    0.85050    1.000
    H58      H        0.94800    0.72130    0.86310    1.000
    C103     C        0.78310    0.74520    0.86760    1.000
    C104     C        0.69650    0.77870    0.84790    1.000
    H59      H        0.62460    0.77840    0.85860    1.000
    C105     C        0.71430    0.81260    0.81260    1.000
    H60      H        0.65560    0.83630    0.80050    1.000
    C106     C        0.81570    0.78260    0.99440    1.000
    C107     C        0.92910    0.79350    0.03150    1.000
    H61      H        0.97920    0.75990    0.01910    1.000
    C108     C        0.96870    0.85470    0.08770    1.000
    H62      H        0.04490    0.86170    0.11360    1.000
    C109     C        0.89500    0.90560    0.10530    1.000
    C110     C        0.78010    0.89340    0.06800    1.000
    H63      H        0.72990    0.92680    0.08080    1.000
    C111     C        0.73950    0.83400    0.01370    1.000
    H64      H        0.66210    0.82670    0.98880    1.000
    C112     C        0.93860    0.97440    0.16620    1.000
