# CIF file generated by openbabel 3.1.0, see https://openbabel.org
data_I
_chemical_name_common 'image0'
_cell_length_a 22.907
_cell_length_b 15.215
_cell_length_c 25.128
_cell_angle_alpha 90
_cell_angle_beta 102.677
_cell_angle_gamma 90
_space_group_name_H-M_alt 'P 1'
_space_group_name_Hall 'P 1'
loop_
    _symmetry_equiv_pos_as_xyz
    x,y,z
loop_
    _atom_site_label
    _atom_site_type_symbol
    _atom_site_fract_x
    _atom_site_fract_y
    _atom_site_fract_z
    _atom_site_occupancy
    Gd1      Gd       0.85954    0.23614    0.01439    1.000
    C1       C        0.73140    0.19440    0.90885    1.000
    C2       C        0.74460    0.16000    0.85660    1.000
    C3       C        0.80180    0.13250    0.85450    1.000
    H1       H        0.83250    0.13480    0.88560    1.000
    C4       C        0.81290    0.10160    0.80596    1.000
    C5       C        0.76940    0.09680    0.75743    1.000
    C6       C        0.71270    0.12530    0.76148    1.000
    C7       C        0.69980    0.15540    0.80976    1.000
    H2       H        0.66110    0.17260    0.81060    1.000
    C8       C        0.78350    0.06410    0.70513    1.000
    C9       C        0.78680    0.97540    0.69286    1.000
    C10      C        0.80190    0.94440    0.64588    1.000
    H3       H        0.80330    0.88430    0.63960    1.000
    C11      C        0.81490    0.00330    0.60836    1.000
    C12      C        0.81190    0.09210    0.61821    1.000
    H4       H        0.82040    0.13270    0.59330    1.000
    C13      C        0.79630    0.12050    0.66558    1.000
    C14      C        0.83530    0.96990    0.55865    1.000
    C15      C        0.87300    0.32510    0.89310    1.000
    C16      C        0.95920    0.26800    0.85630    1.000
    H5       H        0.96960    0.23220    0.88690    1.000
    C17      C        0.91030    0.32230    0.85010    1.000
    C18      C        0.89550    0.37460    0.80450    1.000
    H6       H        0.86210    0.41100    0.79930    1.000
    C19      C        0.93110    0.37240    0.76632    1.000
    C20      C        0.98090    0.31920    0.77090    1.000
    C21      C        0.99260    0.26690    0.81690    1.000
    N1       N        0.87468    0.07380    0.80773    1.000
    N2       N        0.66240    0.12200    0.71396    1.000
    N3       N        0.77690    0.90920    0.73279    1.000
    N4       N        0.79600    0.21590    0.67425    1.000
    N5       N        0.91380    0.42900    0.71950    1.000
    N6       N        0.03420    0.19140    0.81390    1.000
    O1       O        0.77431    0.19930    0.94925    1.000
    O2       O        0.67837    0.21470    0.90859    1.000
    O3       O        0.61570    0.16560    0.71720    1.000
    O4       O        0.67610    0.13860    0.66830    1.000
    O5       O        0.90790    0.06320    0.84930    1.000
    O6       O        0.89180    0.09120    0.76300    1.000
    O7       O        0.76960    0.25850    0.62880    1.000
    O8       O        0.82320    0.24070    0.72550    1.000
    O9       O        0.74311    0.92850    0.76268    1.000
    O10      O        0.80352    0.83890    0.73381    1.000
    O11      O        0.81671    0.89400    0.54239    1.000
    O12      O        0.86862    0.01740    0.53812    1.000
    O13      O        0.89297    0.28120    0.93568    1.000
    O14      O        0.82703    0.37090    0.88304    1.000
    O15      O        0.06240    0.17460    0.86320    1.000
    O16      O        0.04570    0.16300    0.77300    1.000
    O17      O        0.91530    0.38440    0.67470    1.000
    O18      O        0.88750    0.48790    0.71930    1.000
    N7       N        0.05470    0.22190    0.83720    1.000
    O19      O        0.61420    0.11220    0.71850    1.000
    O20      O        0.66510    0.07450    0.67640    1.000
    O21      O        0.91580    0.10230    0.84180    1.000
    O22      O        0.88170    0.00600    0.77960    1.000
    O23      O        0.79410    0.26570    0.63840    1.000
    O24      O        0.79600    0.24640    0.71570    1.000
    O25      O        0.05110    0.14880    0.85570    1.000
    O26      O        0.09980    0.25710    0.82830    1.000
    O27      O        0.96270    0.48790    0.71500    1.000
    O28      O        0.86650    0.45890    0.69910    1.000
    Gd2      Gd       0.35954    0.73614    0.01439    1.000
    C22      C        0.23140    0.69440    0.90885    1.000
    C23      C        0.24460    0.66000    0.85660    1.000
    C24      C        0.30180    0.63250    0.85450    1.000
    H7       H        0.33250    0.63480    0.88560    1.000
    C25      C        0.31290    0.60160    0.80596    1.000
    C26      C        0.26940    0.59680    0.75743    1.000
    C27      C        0.21270    0.62530    0.76148    1.000
    C28      C        0.19980    0.65540    0.80976    1.000
    H8       H        0.16110    0.67260    0.81060    1.000
    C29      C        0.28350    0.56410    0.70513    1.000
    C30      C        0.28680    0.47540    0.69286    1.000
    C31      C        0.30190    0.44440    0.64588    1.000
    H9       H        0.30330    0.38430    0.63960    1.000
    C32      C        0.31490    0.50330    0.60836    1.000
    C33      C        0.31190    0.59210    0.61821    1.000
    H10      H        0.32040    0.63270    0.59330    1.000
    C34      C        0.29630    0.62050    0.66558    1.000
    C35      C        0.33530    0.46990    0.55865    1.000
    C36      C        0.37300    0.82510    0.89310    1.000
    C37      C        0.45920    0.76800    0.85630    1.000
    H11      H        0.46960    0.73220    0.88690    1.000
    C38      C        0.41030    0.82230    0.85010    1.000
    C39      C        0.39550    0.87460    0.80450    1.000
    H12      H        0.36210    0.91100    0.79930    1.000
    C40      C        0.43110    0.87240    0.76632    1.000
    C41      C        0.48090    0.81920    0.77090    1.000
    C42      C        0.49260    0.76690    0.81690    1.000
    N8       N        0.37468    0.57380    0.80773    1.000
    N9       N        0.16240    0.62200    0.71396    1.000
    N10      N        0.27690    0.40920    0.73279    1.000
    N11      N        0.29600    0.71590    0.67425    1.000
    N12      N        0.41380    0.92900    0.71950    1.000
    N13      N        0.53420    0.69140    0.81390    1.000
    O29      O        0.27431    0.69930    0.94925    1.000
    O30      O        0.17837    0.71470    0.90859    1.000
    O31      O        0.11570    0.66560    0.71720    1.000
    O32      O        0.17610    0.63860    0.66830    1.000
    O33      O        0.40790    0.56320    0.84930    1.000
    O34      O        0.39180    0.59120    0.76300    1.000
    O35      O        0.26960    0.75850    0.62880    1.000
    O36      O        0.32320    0.74070    0.72550    1.000
    O37      O        0.24311    0.42850    0.76268    1.000
    O38      O        0.30352    0.33890    0.73381    1.000
    O39      O        0.31671    0.39400    0.54239    1.000
    O40      O        0.36862    0.51740    0.53812    1.000
    O41      O        0.39297    0.78120    0.93568    1.000
    O42      O        0.32703    0.87090    0.88304    1.000
    O43      O        0.56240    0.67460    0.86320    1.000
    O44      O        0.54570    0.66300    0.77300    1.000
    O45      O        0.41530    0.88440    0.67470    1.000
    O46      O        0.38750    0.98790    0.71930    1.000
    N14      N        0.55470    0.72190    0.83720    1.000
    O47      O        0.11420    0.61220    0.71850    1.000
    O48      O        0.16510    0.57450    0.67640    1.000
    O49      O        0.41580    0.60230    0.84180    1.000
    O50      O        0.38170    0.50600    0.77960    1.000
    O51      O        0.29410    0.76570    0.63840    1.000
    O52      O        0.29600    0.74640    0.71570    1.000
    O53      O        0.55110    0.64880    0.85570    1.000
    O54      O        0.59980    0.75710    0.82830    1.000
    O55      O        0.46270    0.98790    0.71500    1.000
    O56      O        0.36650    0.95890    0.69910    1.000
    Gd3      Gd       0.14046    0.23614    0.48561    1.000
    C43      C        0.26860    0.19440    0.59115    1.000
    C44      C        0.25540    0.16000    0.64340    1.000
    C45      C        0.19820    0.13250    0.64550    1.000
    H13      H        0.16750    0.13480    0.61440    1.000
    C46      C        0.18710    0.10160    0.69404    1.000
    C47      C        0.23060    0.09680    0.74257    1.000
    C48      C        0.28730    0.12530    0.73852    1.000
    C49      C        0.30020    0.15540    0.69024    1.000
    H14      H        0.33890    0.17260    0.68940    1.000
    C50      C        0.21650    0.06410    0.79487    1.000
    C51      C        0.21320    0.97540    0.80714    1.000
    C52      C        0.19810    0.94440    0.85412    1.000
    H15      H        0.19670    0.88430    0.86040    1.000
    C53      C        0.18510    0.00330    0.89164    1.000
    C54      C        0.18810    0.09210    0.88179    1.000
    H16      H        0.17960    0.13270    0.90670    1.000
    C55      C        0.20370    0.12050    0.83442    1.000
    C56      C        0.16470    0.96990    0.94135    1.000
    C57      C        0.12700    0.32510    0.60690    1.000
    C58      C        0.04080    0.26800    0.64370    1.000
    H17      H        0.03040    0.23220    0.61310    1.000
    C59      C        0.08970    0.32230    0.64990    1.000
    C60      C        0.10450    0.37460    0.69550    1.000
    H18      H        0.13790    0.41100    0.70070    1.000
    C61      C        0.06890    0.37240    0.73368    1.000
    C62      C        0.01910    0.31920    0.72910    1.000
    C63      C        0.00740    0.26690    0.68310    1.000
    N15      N        0.12532    0.07380    0.69227    1.000
    N16      N        0.33760    0.12200    0.78604    1.000
    N17      N        0.22310    0.90920    0.76721    1.000
    N18      N        0.20400    0.21590    0.82575    1.000
    N19      N        0.08620    0.42900    0.78050    1.000
    N20      N        0.96580    0.19140    0.68610    1.000
    O57      O        0.22569    0.19930    0.55075    1.000
    O58      O        0.32163    0.21470    0.59141    1.000
    O59      O        0.38430    0.16560    0.78280    1.000
    O60      O        0.32390    0.13860    0.83170    1.000
    O61      O        0.09210    0.06320    0.65070    1.000
    O62      O        0.10820    0.09120    0.73700    1.000
    O63      O        0.23040    0.25850    0.87120    1.000
    O64      O        0.17680    0.24070    0.77450    1.000
    O65      O        0.25689    0.92850    0.73732    1.000
    O66      O        0.19648    0.83890    0.76619    1.000
    O67      O        0.18329    0.89400    0.95761    1.000
    O68      O        0.13138    0.01740    0.96188    1.000
    O69      O        0.10703    0.28120    0.56432    1.000
    O70      O        0.17297    0.37090    0.61696    1.000
    O71      O        0.93760    0.17460    0.63680    1.000
    O72      O        0.95430    0.16300    0.72700    1.000
    O73      O        0.08470    0.38440    0.82530    1.000
    O74      O        0.11250    0.48790    0.78070    1.000
    N21      N        0.94530    0.22190    0.66280    1.000
    O75      O        0.38580    0.11220    0.78150    1.000
    O76      O        0.33490    0.07450    0.82360    1.000
    O77      O        0.08420    0.10230    0.65820    1.000
    O78      O        0.11830    0.00600    0.72040    1.000
    O79      O        0.20590    0.26570    0.86160    1.000
    O80      O        0.20400    0.24640    0.78430    1.000
    O81      O        0.94890    0.14880    0.64430    1.000
    O82      O        0.90020    0.25710    0.67170    1.000
    O83      O        0.03730    0.48790    0.78500    1.000
    O84      O        0.13350    0.45890    0.80090    1.000
    Gd4      Gd       0.64046    0.73614    0.48561    1.000
    C64      C        0.76860    0.69440    0.59115    1.000
    C65      C        0.75540    0.66000    0.64340    1.000
    C66      C        0.69820    0.63250    0.64550    1.000
    H19      H        0.66750    0.63480    0.61440    1.000
    C67      C        0.68710    0.60160    0.69404    1.000
    C68      C        0.73060    0.59680    0.74257    1.000
    C69      C        0.78730    0.62530    0.73852    1.000
    C70      C        0.80020    0.65540    0.69024    1.000
    H20      H        0.83890    0.67260    0.68940    1.000
    C71      C        0.71650    0.56410    0.79487    1.000
    C72      C        0.71320    0.47540    0.80714    1.000
    C73      C        0.69810    0.44440    0.85412    1.000
    H21      H        0.69670    0.38430    0.86040    1.000
    C74      C        0.68510    0.50330    0.89164    1.000
    C75      C        0.68810    0.59210    0.88179    1.000
    H22      H        0.67960    0.63270    0.90670    1.000
    C76      C        0.70370    0.62050    0.83442    1.000
    C77      C        0.66470    0.46990    0.94135    1.000
    C78      C        0.62700    0.82510    0.60690    1.000
    C79      C        0.54080    0.76800    0.64370    1.000
    H23      H        0.53040    0.73220    0.61310    1.000
    C80      C        0.58970    0.82230    0.64990    1.000
    C81      C        0.60450    0.87460    0.69550    1.000
    H24      H        0.63790    0.91100    0.70070    1.000
    C82      C        0.56890    0.87240    0.73368    1.000
    C83      C        0.51910    0.81920    0.72910    1.000
    C84      C        0.50740    0.76690    0.68310    1.000
    N22      N        0.62532    0.57380    0.69227    1.000
    N23      N        0.83760    0.62200    0.78604    1.000
    N24      N        0.72310    0.40920    0.76721    1.000
    N25      N        0.70400    0.71590    0.82575    1.000
    N26      N        0.58620    0.92900    0.78050    1.000
    N27      N        0.46580    0.69140    0.68610    1.000
    O85      O        0.72569    0.69930    0.55075    1.000
    O86      O        0.82163    0.71470    0.59141    1.000
    O87      O        0.88430    0.66560    0.78280    1.000
    O88      O        0.82390    0.63860    0.83170    1.000
    O89      O        0.59210    0.56320    0.65070    1.000
    O90      O        0.60820    0.59120    0.73700    1.000
    O91      O        0.73040    0.75850    0.87120    1.000
    O92      O        0.67680    0.74070    0.77450    1.000
    O93      O        0.75689    0.42850    0.73732    1.000
    O94      O        0.69648    0.33890    0.76619    1.000
    O95      O        0.68329    0.39400    0.95761    1.000
    O96      O        0.63138    0.51740    0.96188    1.000
    O97      O        0.60703    0.78120    0.56432    1.000
    O98      O        0.67297    0.87090    0.61696    1.000
    O99      O        0.43760    0.67460    0.63680    1.000
    O100     O        0.45430    0.66300    0.72700    1.000
    O101     O        0.58470    0.88440    0.82530    1.000
    O102     O        0.61250    0.98790    0.78070    1.000
    N28      N        0.44530    0.72190    0.66280    1.000
    O103     O        0.88580    0.61220    0.78150    1.000
    O104     O        0.83490    0.57450    0.82360    1.000
    O105     O        0.58420    0.60230    0.65820    1.000
    O106     O        0.61830    0.50600    0.72040    1.000
    O107     O        0.70590    0.76570    0.86160    1.000
    O108     O        0.70400    0.74640    0.78430    1.000
    O109     O        0.44890    0.64880    0.64430    1.000
    O110     O        0.40020    0.75710    0.67170    1.000
    O111     O        0.53730    0.98790    0.78500    1.000
    O112     O        0.63350    0.95890    0.80090    1.000
    Gd5      Gd       0.14046    0.76386    0.98561    1.000
    C85      C        0.26860    0.80560    0.09115    1.000
    C86      C        0.25540    0.84000    0.14340    1.000
    C87      C        0.19820    0.86750    0.14550    1.000
    H25      H        0.16750    0.86520    0.11440    1.000
    C88      C        0.18710    0.89840    0.19404    1.000
    C89      C        0.23060    0.90320    0.24257    1.000
    C90      C        0.28730    0.87470    0.23852    1.000
    C91      C        0.30020    0.84460    0.19024    1.000
    H26      H        0.33890    0.82740    0.18940    1.000
    C92      C        0.21650    0.93590    0.29487    1.000
    C93      C        0.21320    0.02460    0.30714    1.000
    C94      C        0.19810    0.05560    0.35412    1.000
    H27      H        0.19670    0.11570    0.36040    1.000
    C95      C        0.18510    0.99670    0.39164    1.000
    C96      C        0.18810    0.90790    0.38179    1.000
    H28      H        0.17960    0.86730    0.40670    1.000
    C97      C        0.20370    0.87950    0.33442    1.000
    C98      C        0.16470    0.03010    0.44135    1.000
    C99      C        0.12700    0.67490    0.10690    1.000
    C100     C        0.04080    0.73200    0.14370    1.000
    H29      H        0.03040    0.76780    0.11310    1.000
    C101     C        0.08970    0.67770    0.14990    1.000
    C102     C        0.10450    0.62540    0.19550    1.000
    H30      H        0.13790    0.58900    0.20070    1.000
    C103     C        0.06890    0.62760    0.23368    1.000
    C104     C        0.01910    0.68080    0.22910    1.000
    C105     C        0.00740    0.73310    0.18310    1.000
    N29      N        0.12532    0.92620    0.19227    1.000
    N30      N        0.33760    0.87800    0.28604    1.000
    N31      N        0.22310    0.09080    0.26721    1.000
    N32      N        0.20400    0.78410    0.32575    1.000
    N33      N        0.08620    0.57100    0.28050    1.000
    N34      N        0.96580    0.80860    0.18610    1.000
    O113     O        0.22569    0.80070    0.05075    1.000
    O114     O        0.32163    0.78530    0.09141    1.000
    O115     O        0.38430    0.83440    0.28280    1.000
    O116     O        0.32390    0.86140    0.33170    1.000
    O117     O        0.09210    0.93680    0.15070    1.000
    O118     O        0.10820    0.90880    0.23700    1.000
    O119     O        0.23040    0.74150    0.37120    1.000
    O120     O        0.17680    0.75930    0.27450    1.000
    O121     O        0.25689    0.07150    0.23732    1.000
    O122     O        0.19648    0.16110    0.26619    1.000
    O123     O        0.18329    0.10600    0.45761    1.000
    O124     O        0.13138    0.98260    0.46188    1.000
    O125     O        0.10703    0.71880    0.06432    1.000
    O126     O        0.17297    0.62910    0.11696    1.000
    O127     O        0.93760    0.82540    0.13680    1.000
    O128     O        0.95430    0.83700    0.22700    1.000
    O129     O        0.08470    0.61560    0.32530    1.000
    O130     O        0.11250    0.51210    0.28070    1.000
    N35      N        0.94530    0.77810    0.16280    1.000
    O131     O        0.38580    0.88780    0.28150    1.000
    O132     O        0.33490    0.92550    0.32360    1.000
    O133     O        0.08420    0.89770    0.15820    1.000
    O134     O        0.11830    0.99400    0.22040    1.000
    O135     O        0.20590    0.73430    0.36160    1.000
    O136     O        0.20400    0.75360    0.28430    1.000
    O137     O        0.94890    0.85120    0.14430    1.000
    O138     O        0.90020    0.74290    0.17170    1.000
    O139     O        0.03730    0.51210    0.28500    1.000
    O140     O        0.13350    0.54110    0.30090    1.000
    Gd6      Gd       0.64046    0.26386    0.98561    1.000
    C106     C        0.76860    0.30560    0.09115    1.000
    C107     C        0.75540    0.34000    0.14340    1.000
    C108     C        0.69820    0.36750    0.14550    1.000
    H31      H        0.66750    0.36520    0.11440    1.000
    C109     C        0.68710    0.39840    0.19404    1.000
    C110     C        0.73060    0.40320    0.24257    1.000
    C111     C        0.78730    0.37470    0.23852    1.000
    C112     C        0.80020    0.34460    0.19024    1.000
    H32      H        0.83890    0.32740    0.18940    1.000
    C113     C        0.71650    0.43590    0.29487    1.000
    C114     C        0.71320    0.52460    0.30714    1.000
    C115     C        0.69810    0.55560    0.35412    1.000
    H33      H        0.69670    0.61570    0.36040    1.000
    C116     C        0.68510    0.49670    0.39164    1.000
    C117     C        0.68810    0.40790    0.38179    1.000
    H34      H        0.67960    0.36730    0.40670    1.000
    C118     C        0.70370    0.37950    0.33442    1.000
    C119     C        0.66470    0.53010    0.44135    1.000
    C120     C        0.62700    0.17490    0.10690    1.000
    C121     C        0.54080    0.23200    0.14370    1.000
    H35      H        0.53040    0.26780    0.11310    1.000
    C122     C        0.58970    0.17770    0.14990    1.000
    C123     C        0.60450    0.12540    0.19550    1.000
    H36      H        0.63790    0.08900    0.20070    1.000
    C124     C        0.56890    0.12760    0.23368    1.000
    C125     C        0.51910    0.18080    0.22910    1.000
    C126     C        0.50740    0.23310    0.18310    1.000
    N36      N        0.62532    0.42620    0.19227    1.000
    N37      N        0.83760    0.37800    0.28604    1.000
    N38      N        0.72310    0.59080    0.26721    1.000
    N39      N        0.70400    0.28410    0.32575    1.000
    N40      N        0.58620    0.07100    0.28050    1.000
    N41      N        0.46580    0.30860    0.18610    1.000
    O141     O        0.72569    0.30070    0.05075    1.000
    O142     O        0.82163    0.28530    0.09141    1.000
    O143     O        0.88430    0.33440    0.28280    1.000
    O144     O        0.82390    0.36140    0.33170    1.000
    O145     O        0.59210    0.43680    0.15070    1.000
    O146     O        0.60820    0.40880    0.23700    1.000
    O147     O        0.73040    0.24150    0.37120    1.000
    O148     O        0.67680    0.25930    0.27450    1.000
    O149     O        0.75689    0.57150    0.23732    1.000
    O150     O        0.69648    0.66110    0.26619    1.000
    O151     O        0.68329    0.60600    0.45761    1.000
    O152     O        0.63138    0.48260    0.46188    1.000
    O153     O        0.60703    0.21880    0.06432    1.000
    O154     O        0.67297    0.12910    0.11696    1.000
    O155     O        0.43760    0.32540    0.13680    1.000
    O156     O        0.45430    0.33700    0.22700    1.000
    O157     O        0.58470    0.11560    0.32530    1.000
    O158     O        0.61250    0.01210    0.28070    1.000
    N42      N        0.44530    0.27810    0.16280    1.000
    O159     O        0.88580    0.38780    0.28150    1.000
    O160     O        0.83490    0.42550    0.32360    1.000
    O161     O        0.58420    0.39770    0.15820    1.000
    O162     O        0.61830    0.49400    0.22040    1.000
    O163     O        0.70590    0.23430    0.36160    1.000
    O164     O        0.70400    0.25360    0.28430    1.000
    O165     O        0.44890    0.35120    0.14430    1.000
    O166     O        0.40020    0.24290    0.17170    1.000
    O167     O        0.53730    0.01210    0.28500    1.000
    O168     O        0.63350    0.04110    0.30090    1.000
    Gd7      Gd       0.85954    0.76386    0.51439    1.000
    C127     C        0.73140    0.80560    0.40885    1.000
    C128     C        0.74460    0.84000    0.35660    1.000
    C129     C        0.80180    0.86750    0.35450    1.000
    H37      H        0.83250    0.86520    0.38560    1.000
    C130     C        0.81290    0.89840    0.30596    1.000
    C131     C        0.76940    0.90320    0.25743    1.000
    C132     C        0.71270    0.87470    0.26148    1.000
    C133     C        0.69980    0.84460    0.30976    1.000
    H38      H        0.66110    0.82740    0.31060    1.000
    C134     C        0.78350    0.93590    0.20513    1.000
    C135     C        0.78680    0.02460    0.19286    1.000
    C136     C        0.80190    0.05560    0.14588    1.000
    H39      H        0.80330    0.11570    0.13960    1.000
    C137     C        0.81490    0.99670    0.10836    1.000
    C138     C        0.81190    0.90790    0.11821    1.000
    H40      H        0.82040    0.86730    0.09330    1.000
    C139     C        0.79630    0.87950    0.16558    1.000
    C140     C        0.83530    0.03010    0.05865    1.000
    C141     C        0.87300    0.67490    0.39310    1.000
    C142     C        0.95920    0.73200    0.35630    1.000
    H41      H        0.96960    0.76780    0.38690    1.000
    C143     C        0.91030    0.67770    0.35010    1.000
    C144     C        0.89550    0.62540    0.30450    1.000
    H42      H        0.86210    0.58900    0.29930    1.000
    C145     C        0.93110    0.62760    0.26632    1.000
    C146     C        0.98090    0.68080    0.27090    1.000
    C147     C        0.99260    0.73310    0.31690    1.000
    N43      N        0.87468    0.92620    0.30773    1.000
    N44      N        0.66240    0.87800    0.21396    1.000
    N45      N        0.77690    0.09080    0.23279    1.000
    N46      N        0.79600    0.78410    0.17425    1.000
    N47      N        0.91380    0.57100    0.21950    1.000
    N48      N        0.03420    0.80860    0.31390    1.000
    O169     O        0.77431    0.80070    0.44925    1.000
    O170     O        0.67837    0.78530    0.40859    1.000
    O171     O        0.61570    0.83440    0.21720    1.000
    O172     O        0.67610    0.86140    0.16830    1.000
    O173     O        0.90790    0.93680    0.34930    1.000
    O174     O        0.89180    0.90880    0.26300    1.000
    O175     O        0.76960    0.74150    0.12880    1.000
    O176     O        0.82320    0.75930    0.22550    1.000
    O177     O        0.74311    0.07150    0.26268    1.000
    O178     O        0.80352    0.16110    0.23381    1.000
    O179     O        0.81671    0.10600    0.04239    1.000
    O180     O        0.86862    0.98260    0.03812    1.000
    O181     O        0.89297    0.71880    0.43568    1.000
    O182     O        0.82703    0.62910    0.38304    1.000
    O183     O        0.06240    0.82540    0.36320    1.000
    O184     O        0.04570    0.83700    0.27300    1.000
    O185     O        0.91530    0.61560    0.17470    1.000
    O186     O        0.88750    0.51210    0.21930    1.000
    N49      N        0.05470    0.77810    0.33720    1.000
    O187     O        0.61420    0.88780    0.21850    1.000
    O188     O        0.66510    0.92550    0.17640    1.000
    O189     O        0.91580    0.89770    0.34180    1.000
    O190     O        0.88170    0.99400    0.27960    1.000
    O191     O        0.79410    0.73430    0.13840    1.000
    O192     O        0.79600    0.75360    0.21570    1.000
    O193     O        0.05110    0.85120    0.35570    1.000
    O194     O        0.09980    0.74290    0.32830    1.000
    O195     O        0.96270    0.51210    0.21500    1.000
    O196     O        0.86650    0.54110    0.19910    1.000
    Gd8      Gd       0.35954    0.26386    0.51439    1.000
    C148     C        0.23140    0.30560    0.40885    1.000
    C149     C        0.24460    0.34000    0.35660    1.000
    C150     C        0.30180    0.36750    0.35450    1.000
    H43      H        0.33250    0.36520    0.38560    1.000
    C151     C        0.31290    0.39840    0.30596    1.000
    C152     C        0.26940    0.40320    0.25743    1.000
    C153     C        0.21270    0.37470    0.26148    1.000
    C154     C        0.19980    0.34460    0.30976    1.000
    H44      H        0.16110    0.32740    0.31060    1.000
    C155     C        0.28350    0.43590    0.20513    1.000
    C156     C        0.28680    0.52460    0.19286    1.000
    C157     C        0.30190    0.55560    0.14588    1.000
    H45      H        0.30330    0.61570    0.13960    1.000
    C158     C        0.31490    0.49670    0.10836    1.000
    C159     C        0.31190    0.40790    0.11821    1.000
    H46      H        0.32040    0.36730    0.09330    1.000
    C160     C        0.29630    0.37950    0.16558    1.000
    C161     C        0.33530    0.53010    0.05865    1.000
    C162     C        0.37300    0.17490    0.39310    1.000
    C163     C        0.45920    0.23200    0.35630    1.000
    H47      H        0.46960    0.26780    0.38690    1.000
    C164     C        0.41030    0.17770    0.35010    1.000
    C165     C        0.39550    0.12540    0.30450    1.000
    H48      H        0.36210    0.08900    0.29930    1.000
    C166     C        0.43110    0.12760    0.26632    1.000
    C167     C        0.48090    0.18080    0.27090    1.000
    C168     C        0.49260    0.23310    0.31690    1.000
    N50      N        0.37468    0.42620    0.30773    1.000
    N51      N        0.16240    0.37800    0.21396    1.000
    N52      N        0.27690    0.59080    0.23279    1.000
    N53      N        0.29600    0.28410    0.17425    1.000
    N54      N        0.41380    0.07100    0.21950    1.000
    N55      N        0.53420    0.30860    0.31390    1.000
    O197     O        0.27431    0.30070    0.44925    1.000
    O198     O        0.17837    0.28530    0.40859    1.000
    O199     O        0.11570    0.33440    0.21720    1.000
    O200     O        0.17610    0.36140    0.16830    1.000
    O201     O        0.40790    0.43680    0.34930    1.000
    O202     O        0.39180    0.40880    0.26300    1.000
    O203     O        0.26960    0.24150    0.12880    1.000
    O204     O        0.32320    0.25930    0.22550    1.000
    O205     O        0.24311    0.57150    0.26268    1.000
    O206     O        0.30352    0.66110    0.23381    1.000
    O207     O        0.31671    0.60600    0.04239    1.000
    O208     O        0.36862    0.48260    0.03812    1.000
    O209     O        0.39297    0.21880    0.43568    1.000
    O210     O        0.32703    0.12910    0.38304    1.000
    O211     O        0.56240    0.32540    0.36320    1.000
    O212     O        0.54570    0.33700    0.27300    1.000
    O213     O        0.41530    0.11560    0.17470    1.000
    O214     O        0.38750    0.01210    0.21930    1.000
    N56      N        0.55470    0.27810    0.33720    1.000
    O215     O        0.11420    0.38780    0.21850    1.000
    O216     O        0.16510    0.42550    0.17640    1.000
    O217     O        0.41580    0.39770    0.34180    1.000
    O218     O        0.38170    0.49400    0.27960    1.000
    O219     O        0.29410    0.23430    0.13840    1.000
    O220     O        0.29600    0.25360    0.21570    1.000
    O221     O        0.55110    0.35120    0.35570    1.000
    O222     O        0.59980    0.24290    0.32830    1.000
    O223     O        0.46270    0.01210    0.21500    1.000
    O224     O        0.36650    0.04110    0.19910    1.000
