data_functionalizedCrystal
_audit_creation_method	'EQeq! by Chris Wilmer'
_symmetry_space_group_name_H-M	'P1'
_symmetry_Int_Tables_number	1
_symmetry_cell_setting	triclinic
loop_
_symmetry_equiv_pos_as_xyz
  x,y,z
_cell_length_a	10.3039
_cell_length_b	24.9425
_cell_length_c	11.574
_cell_angle_alpha	90
_cell_angle_beta	93.197
_cell_angle_gamma	90
loop_
_atom_site_label
_atom_site_type_symbol
_atom_site_fract_x
_atom_site_fract_y
_atom_site_fract_z
_atom_site_charge
Mof_Zn	Zn	0.56823	0.22009	0.41441	1.17
Mof_Zn	Zn	0.06993	0.14678	0.43502	1.201
Mof_O 	O 	0.762	0.19164	0.4199	-0.486
Mof_O 	O 	0.8839	0.11711	0.4272	-0.45
Mof_O 	O 	0.2628	0.17874	0.4451	-0.464
Mof_O 	O 	0.3796	0.25003	0.4005	-0.476
Mof_N 	N 	0.6347	0.30147	0.4389	-0.255
Mof_N 	N 	0.8485	0.56755	0.5548	-0.241
Mof_N 	N 	0.0646	0.1394	0.2394	-0.229
Mof_N 	N 	0.0663	0.14466	0.6257	-0.235
Mof_N 	N 	0.5354	0.13638	0.4023	-0.329
Mof_H 	H 	0.4746	0.1266	0.4537	0.096
Mof_H 	H 	0.5024	0.1281	0.329	0.087
Mof_N 	N 	0.7276	0.90999	0.1681	-0.311
Mof_H 	H 	0.6545	0.8925	0.1411	0.107
Mof_H 	H 	0.7932	0.8859	0.1809	0.107
Mof_H 	H 	0.7509	0.9345	0.1148	0.107
Mof_N 	N 	0.0375	0.23065	0.4242	-0.321
Mof_H 	H 	0.9636	0.2373	0.3781	0.104
Mof_H 	H 	0.025	0.2441	0.4968	0.098
Mof_N 	N 	0.1894	0.44545	0.2257	-0.314
Mof_H 	H 	0.1985	0.4123	0.1942	0.112
Mof_H 	H 	0.2636	0.4646	0.2181	0.108
Mof_H 	H 	0.1214	0.4627	0.1884	0.112
Mof_C 	C 	0.5721	0.34315	0.3901	0.057
Mof_H 	H 	0.5006	0.3366	0.3365	-0.014
Mof_C 	C 	0.6079	0.39617	0.4148	-0.122
Mof_H 	H 	0.5605	0.4249	0.379	0.058
Mof_C 	C 	0.7122	0.4066	0.4913	0.039
Mof_C 	C 	0.7785	0.36297	0.5417	-0.122
Mof_H 	H 	0.8515	0.3684	0.5942	0.057
Mof_C 	C 	0.736	0.31163	0.5139	0.051
Mof_H 	H 	0.7807	0.2821	0.5496	-0.019
Mof_C 	C 	0.7558	0.55603	0.473	0.069
Mof_H 	H 	0.7195	0.5847	0.428	-0.012
Mof_C 	C 	0.7106	0.50566	0.4503	-0.131
Mof_H 	H 	0.647	0.4998	0.389	0.061
Mof_C 	C 	0.7575	0.46277	0.5168	0.046
Mof_C 	C 	0.8495	0.47439	0.6051	-0.128
Mof_H 	H 	0.8823	0.4467	0.6549	0.06
Mof_C 	C 	0.8935	0.52661	0.6205	0.067
Mof_H 	H 	0.9583	0.5337	0.6801	-0.007
Mof_C 	C 	0.1705	0.1508	0.1826	0.061
Mof_H 	H 	0.2486	0.1586	0.2269	-0.019
Mof_C 	C 	0.1735	0.1521	0.0637	-0.127
Mof_H 	H 	0.2512	0.1619	0.0286	0.057
Mof_C 	C 	0.0629	0.13896	0.9954	0.043
Mof_C 	C 	0.9555	0.12388	0.054	-0.128
Mof_H 	H 	0.8789	0.1121	0.012	0.059
Mof_C 	C 	0.9589	0.12576	0.1723	0.062
Mof_H 	H 	0.8819	0.1169	0.2094	-0.004
Mof_C 	C 	0.1414	0.17658	0.6934	0.062
Mof_H 	H 	0.1968	0.2011	0.6572	-0.013
Mof_C 	C 	0.1437	0.17624	0.8118	-0.126
Mof_H 	H 	0.199	0.2001	0.8555	0.057
Mof_C 	C 	0.0632	0.14021	0.8679	0.04
Mof_C 	C 	0.9853	0.10713	0.7973	-0.125
Mof_H 	H 	0.93	0.0817	0.8306	0.059
Mof_C 	C 	0.9881	0.1111	0.68	0.063
Mof_H 	H 	0.9313	0.0888	0.6339	-0.001
Mof_C 	C 	0.7762	0.14177	0.4243	0.34
Mof_C 	C 	0.657	0.10546	0.4278	-0.121
Mof_H 	H 	0.654	0.0922	0.5091	0.052
Mof_C 	C 	0.6704	0.05621	0.3512	-0.08
Mof_H 	H 	0.6645	0.068	0.2694	0.042
Mof_H 	H 	0.7583	0.0409	0.367	0.06
Mof_C 	C 	0.5725	0.0125	0.3652	-0.054
Mof_H 	H 	0.484	0.0281	0.3616	0.043
Mof_H 	H 	0.5881	0.9954	0.4419	0.035
Mof_C 	C 	0.5818	0.9697	0.2692	-0.145
Mof_H 	H 	0.5065	0.9452	0.2719	0.06
Mof_H 	H 	0.5765	0.9878	0.1929	0.056
Mof_C 	C 	0.7015	0.9383	0.2801	0.002
Mof_H 	H 	0.6945	0.9114	0.3423	0.018
Mof_H 	H 	0.7754	0.9622	0.3021	0.018
Mof_C 	C 	0.2738	0.22627	0.4116	0.347
Mof_C 	C 	0.15	0.25806	0.3751	-0.111
Mof_H 	H 	0.1378	0.2542	0.2892	0.048
Mof_C 	C 	0.1606	0.31792	0.3992	-0.082
Mof_H 	H 	0.1613	0.3239	0.4838	0.047
Mof_H 	H 	0.2441	0.3312	0.3721	0.055
Mof_C 	C 	0.0507	0.34975	0.341	-0.06
Mof_H 	H 	0.9671	0.3332	0.3599	0.04
Mof_H 	H 	0.0572	0.3475	0.2561	0.034
Mof_C 	C 	0.0497	0.40914	0.3768	-0.147
Mof_H 	H 	0.9726	0.4265	0.338	0.066
Mof_H 	H 	0.0394	0.411	0.4613	0.065
Mof_C 	C 	0.1645	0.44	0.3504	0.015
Mof_H 	H 	0.2414	0.423	0.3902	0.015
Mof_H 	H 	0.1561	0.4764	0.3834	0.015
Mof_Zn	Zn	0.43177	0.72009	0.58559	1.171
Mof_Zn	Zn	0.93007	0.64678	0.56498	1.202
Mof_O 	O 	0.238	0.69164	0.5801	-0.486
Mof_O 	O 	0.1161	0.61711	0.5728	-0.451
Mof_O 	O 	0.7372	0.67874	0.5549	-0.464
Mof_O 	O 	0.6204	0.75003	0.5995	-0.476
Mof_N 	N 	0.3653	0.80147	0.5611	-0.256
Mof_N 	N 	0.1515	0.06755	0.4452	-0.24
Mof_N 	N 	0.9354	0.6394	0.7606	-0.229
Mof_N 	N 	0.9337	0.64466	0.3743	-0.235
Mof_N 	N 	0.4646	0.63638	0.5977	-0.328
Mof_H 	H 	0.5254	0.6266	0.5463	0.096
Mof_H 	H 	0.4976	0.6281	0.671	0.087
Mof_N 	N 	0.2724	0.40999	0.8319	-0.309
Mof_H 	H 	0.3455	0.3925	0.8589	0.108
Mof_H 	H 	0.2068	0.3859	0.8191	0.107
Mof_H 	H 	0.2491	0.4345	0.8852	0.108
Mof_N 	N 	0.9625	0.73065	0.5758	-0.32
Mof_H 	H 	0.0364	0.7373	0.6219	0.104
Mof_H 	H 	0.975	0.7441	0.5032	0.098
Mof_N 	N 	0.8106	0.94545	0.7743	-0.313
Mof_H 	H 	0.8015	0.9123	0.8058	0.111
Mof_H 	H 	0.7364	0.9646	0.7819	0.107
Mof_H 	H 	0.8786	0.9627	0.8116	0.111
Mof_C 	C 	0.4279	0.84315	0.6099	0.059
Mof_H 	H 	0.4994	0.8366	0.6635	-0.014
Mof_C 	C 	0.3921	0.89617	0.5852	-0.126
Mof_H 	H 	0.4395	0.9249	0.621	0.059
Mof_C 	C 	0.2878	0.9066	0.5087	0.044
Mof_C 	C 	0.2215	0.86297	0.4583	-0.125
Mof_H 	H 	0.1485	0.8684	0.4058	0.058
Mof_C 	C 	0.264	0.81163	0.4861	0.052
Mof_H 	H 	0.2193	0.7821	0.4504	-0.02
Mof_C 	C 	0.2442	0.05603	0.527	0.058
Mof_H 	H 	0.2805	0.0847	0.572	-0.007
Mof_C 	C 	0.2894	0.00566	0.5497	-0.104
Mof_H 	H 	0.353	0.9998	0.611	0.049
Mof_C 	C 	0.2425	0.96277	0.4832	0.033
Mof_C 	C 	0.1505	0.97439	0.3949	-0.13
Mof_H 	H 	0.1177	0.9467	0.3451	0.06
Mof_C 	C 	0.1065	0.02661	0.3795	0.072
Mof_H 	H 	0.0417	0.0337	0.3199	-0.007
Mof_C 	C 	0.8295	0.6508	0.8174	0.061
Mof_H 	H 	0.7514	0.6586	0.7731	-0.019
Mof_C 	C 	0.8265	0.6521	0.9363	-0.127
Mof_H 	H 	0.7488	0.6619	0.9714	0.057
Mof_C 	C 	0.9371	0.63896	0.0046	0.042
Mof_C 	C 	0.0445	0.62388	0.946	-0.127
Mof_H 	H 	0.1211	0.6121	0.988	0.058
Mof_C 	C 	0.0411	0.62576	0.8277	0.062
Mof_H 	H 	0.1181	0.6169	0.7906	-0.004
Mof_C 	C 	0.8586	0.67658	0.3066	0.062
Mof_H 	H 	0.8032	0.7011	0.3428	-0.013
Mof_C 	C 	0.8563	0.67624	0.1882	-0.126
Mof_H 	H 	0.801	0.7001	0.1445	0.057
Mof_C 	C 	0.9368	0.64021	0.1321	0.04
Mof_C 	C 	0.0147	0.60713	0.2027	-0.125
Mof_H 	H 	0.07	0.5817	0.1694	0.058
Mof_C 	C 	0.0119	0.6111	0.32	0.062
Mof_H 	H 	0.0687	0.5888	0.3661	-0.002
Mof_C 	C 	0.2238	0.64177	0.5757	0.342
Mof_C 	C 	0.343	0.60546	0.5722	-0.128
Mof_H 	H 	0.346	0.5922	0.4909	0.053
Mof_C 	C 	0.3296	0.55621	0.6488	-0.063
Mof_H 	H 	0.3355	0.568	0.7306	0.037
Mof_H 	H 	0.2417	0.5409	0.633	0.053
Mof_C 	C 	0.4275	0.5125	0.6348	-0.087
Mof_H 	H 	0.516	0.5281	0.6384	0.051
Mof_H 	H 	0.4119	0.4954	0.5581	0.048
Mof_C 	C 	0.4182	0.4697	0.7308	-0.122
Mof_H 	H 	0.4935	0.4452	0.7281	0.054
Mof_H 	H 	0.4235	0.4878	0.8071	0.052
Mof_C 	C 	0.2985	0.4383	0.7199	-0.01
Mof_H 	H 	0.3055	0.4114	0.6577	0.021
Mof_H 	H 	0.2246	0.4622	0.6979	0.024
Mof_C 	C 	0.7262	0.72627	0.5884	0.347
Mof_C 	C 	0.85	0.75806	0.6249	-0.111
Mof_H 	H 	0.8622	0.7542	0.7108	0.048
Mof_C 	C 	0.8394	0.81792	0.6008	-0.082
Mof_H 	H 	0.8387	0.8239	0.5162	0.047
Mof_H 	H 	0.7559	0.8312	0.6279	0.055
Mof_C 	C 	0.9493	0.84975	0.659	-0.06
Mof_H 	H 	0.0329	0.8332	0.6401	0.04
Mof_H 	H 	0.9428	0.8475	0.7439	0.033
Mof_C 	C 	0.9503	0.90914	0.6232	-0.147
Mof_H 	H 	0.0274	0.9265	0.662	0.065
Mof_H 	H 	0.9606	0.911	0.5387	0.065
Mof_C 	C 	0.8355	0.94	0.6496	0.015
Mof_H 	H 	0.7586	0.923	0.6098	0.015
Mof_H 	H 	0.8439	0.9764	0.6166	0.014
_end
