data_functionalizedCrystal
_audit_creation_method	'EQeq! by Chris Wilmer'
_symmetry_space_group_name_H-M	'P1'
_symmetry_Int_Tables_number	1
_symmetry_cell_setting	triclinic
loop_
_symmetry_equiv_pos_as_xyz
  x,y,z
_cell_length_a	9.8618
_cell_length_b	11.705
_cell_length_c	17.5577
_cell_angle_alpha	78.366
_cell_angle_beta	84.12
_cell_angle_gamma	84.769
loop_
_atom_site_label
_atom_site_type_symbol
_atom_site_fract_x
_atom_site_fract_y
_atom_site_fract_z
_atom_site_charge
Mof_Ag	Ag	0.4307	0.11595	0.93473	0.468
Mof_Ag	Ag	0.24097	0.09975	0.52075	0.618
Mof_S 	S 	0.82942	0.92743	0.93279	-0.062
Mof_S 	S 	0.92174	0.15501	0.92474	-0.023
Mof_S 	S 	0.65656	0.09632	0.01522	-0.184
Mof_S 	S 	0.18892	0.10378	0.82984	-0.079
Mof_S 	S 	0.07723	0.83781	0.84374	-0.01
Mof_S 	S 	0.56559	0.39424	0.84337	-0.059
Mof_S 	S 	0.40018	0.56344	0.91645	-0.007
Mof_S 	S 	0.32999	0.31487	0.95657	-0.121
Mof_S 	S 	0.57273	0.76378	0.84528	-0.04
Mof_S 	S 	0.76301	0.56997	0.75576	-0.037
Mof_N 	N 	0.1191	0.1939	0.6145	-0.225
Mof_N 	N 	0.8752	0.922	0.5769	-0.236
Mof_N 	N 	0.3566	0.9511	0.5902	-0.247
Mof_N 	N 	0.6676	0.7257	0.5426	-0.223
Mof_C 	C 	0.7955	0.0605	0.9586	0.01
Mof_C 	C 	0.0291	0.0626	0.8748	-0.002
Mof_C 	C 	0.9854	0.9542	0.8789	-0.001
Mof_C 	C 	0.1564	0.2597	0.7948	0.008
Mof_C 	C 	0.0519	0.2913	0.7345	-0.334
Mof_C 	C 	0.0897	0.2384	0.6664	0.153
Mof_C 	C 	0.9782	0.829	0.7635	-0.059
Mof_C 	C 	0.0107	0.9272	0.6952	-0.286
Mof_C 	C 	0.934	0.9242	0.6286	0.132
Mof_C 	C 	0.4272	0.42	0.9066	0.012
Mof_C 	C 	0.5363	0.6175	0.8519	-0.007
Mof_C 	C 	0.6131	0.5382	0.8165	0.001
Mof_C 	C 	0.4566	0.8398	0.7747	-0
Mof_C 	C 	0.5099	0.8256	0.6922	-0.359
Mof_C 	C 	0.4228	0.8943	0.6341	0.152
Mof_C 	C 	0.7573	0.4809	0.6825	-0.016
Mof_C 	C 	0.6442	0.5183	0.6276	-0.31
Mof_C 	C 	0.6583	0.6349	0.5795	0.142
Mof_H 	H 	0.248	0.287	0.772	0.011
Mof_H 	H 	0.128	0.297	0.838	0.025
Mof_H 	H 	0.044	0.371	0.718	0.132
Mof_H 	H 	0.965	0.267	0.756	0.129
Mof_H 	H 	0.883	0.833	0.78	0.049
Mof_H 	H 	0.004	0.757	0.753	0.049
Mof_H 	H 	0.101	0.922	0.68	0.115
Mof_H 	H 	0.992	0.001	0.71	0.111
Mof_H 	H 	0.456	0.921	0.78	0.015
Mof_H 	H 	0.371	0.81	0.79	0.031
Mof_H 	H 	0.511	0.747	0.689	0.143
Mof_H 	H 	0.594	0.853	0.679	0.139
Mof_H 	H 	0.75	0.393	0.707	0.02
Mof_H 	H 	0.838	0.49	0.652	0.026
Mof_H 	H 	0.559	0.519	0.655	0.123
Mof_H 	H 	0.649	0.466	0.593	0.112
Mof_Ag	Ag	0.5693	0.88405	0.06527	0.469
Mof_Ag	Ag	0.75903	0.90025	0.47925	0.619
Mof_S 	S 	0.17058	0.07257	0.06721	-0.062
Mof_S 	S 	0.07826	0.84499	0.07526	-0.023
Mof_S 	S 	0.34344	0.90368	0.98478	-0.184
Mof_S 	S 	0.81108	0.89622	0.17016	-0.079
Mof_S 	S 	0.92277	0.16219	0.15626	-0.01
Mof_S 	S 	0.43441	0.60576	0.15663	-0.059
Mof_S 	S 	0.59982	0.43656	0.08355	-0.007
Mof_S 	S 	0.67001	0.68513	0.04343	-0.121
Mof_S 	S 	0.42727	0.23622	0.15472	-0.04
Mof_S 	S 	0.23699	0.43003	0.24424	-0.037
Mof_N 	N 	0.8809	0.8061	0.3855	-0.225
Mof_N 	N 	0.1248	0.078	0.4231	-0.236
Mof_N 	N 	0.6434	0.0489	0.4098	-0.247
Mof_N 	N 	0.3324	0.2743	0.4574	-0.223
Mof_C 	C 	0.2045	0.9395	0.0414	0.01
Mof_C 	C 	0.9709	0.9374	0.1252	-0.002
Mof_C 	C 	0.0146	0.0458	0.1211	-0.001
Mof_C 	C 	0.8436	0.7403	0.2052	0.008
Mof_C 	C 	0.9481	0.7087	0.2655	-0.334
Mof_C 	C 	0.9103	0.7616	0.3336	0.153
Mof_C 	C 	0.0218	0.171	0.2365	-0.059
Mof_C 	C 	0.9893	0.0728	0.3048	-0.286
Mof_C 	C 	0.066	0.0758	0.3714	0.132
Mof_C 	C 	0.5728	0.58	0.0934	0.012
Mof_C 	C 	0.4637	0.3825	0.1481	-0.007
Mof_C 	C 	0.3869	0.4618	0.1835	0.001
Mof_C 	C 	0.5434	0.1602	0.2253	-0
Mof_C 	C 	0.4901	0.1744	0.3078	-0.359
Mof_C 	C 	0.5772	0.1057	0.3659	0.152
Mof_C 	C 	0.2427	0.5191	0.3175	-0.016
Mof_C 	C 	0.3558	0.4817	0.3724	-0.31
Mof_C 	C 	0.3417	0.3651	0.4205	0.142
Mof_H 	H 	0.752	0.713	0.228	0.011
Mof_H 	H 	0.872	0.703	0.162	0.025
Mof_H 	H 	0.956	0.629	0.282	0.132
Mof_H 	H 	0.035	0.733	0.244	0.129
Mof_H 	H 	0.117	0.167	0.22	0.049
Mof_H 	H 	0.996	0.243	0.247	0.049
Mof_H 	H 	0.899	0.078	0.32	0.115
Mof_H 	H 	0.008	0.999	0.29	0.111
Mof_H 	H 	0.544	0.079	0.22	0.015
Mof_H 	H 	0.629	0.19	0.21	0.031
Mof_H 	H 	0.489	0.253	0.311	0.143
Mof_H 	H 	0.406	0.147	0.321	0.139
Mof_H 	H 	0.25	0.607	0.293	0.02
Mof_H 	H 	0.162	0.51	0.348	0.026
Mof_H 	H 	0.441	0.481	0.345	0.123
Mof_H 	H 	0.351	0.534	0.407	0.112
_end
