# CIF file generated by openbabel 3.1.0, see https://openbabel.org
data_I
_chemical_name_common 'image0'
_cell_length_a 13.872
_cell_length_b 13.872
_cell_length_c 9.435
_cell_angle_alpha 90
_cell_angle_beta 90
_cell_angle_gamma 120
_space_group_name_H-M_alt 'P 1'
_space_group_name_Hall 'P 1'
loop_
    _symmetry_equiv_pos_as_xyz
    x,y,z
loop_
    _atom_site_label
    _atom_site_type_symbol
    _atom_site_fract_x
    _atom_site_fract_y
    _atom_site_fract_z
    _atom_site_occupancy
    Sc1      Sc       0.56150    0.85530    0.40794    1.000
    O1       O        0.70020    0.89090    0.28620    1.000
    P1       P        0.81621    0.98484    0.24528    1.000
    O2       O        0.86110    0.94340    0.12840    1.000
    O3       O        0.89280    0.03060    0.37570    1.000
    O4       O        0.80580    0.08380    0.17700    1.000
    O5       O        0.57630    0.00650    0.35530    1.000
    P2       P        0.63175    0.12651    0.39669    1.000
    O6       O        0.69880    0.19530    0.26250    1.000
    O7       O        0.45060    0.83530    0.56820    1.000
    O8       O        0.56450    0.71630    0.48400    1.000
    O9       O        0.44480    0.76550    0.26050    1.000
    Sc2      Sc       0.14470    0.70620    0.40794    1.000
    O10      O        0.10910    0.80930    0.28620    1.000
    P3       P        0.01516    0.83137    0.24528    1.000
    O11      O        0.05660    0.91770    0.12840    1.000
    O12      O        0.96940    0.86220    0.37570    1.000
    O13      O        0.91620    0.72200    0.17700    1.000
    O14      O        0.99350    0.56980    0.35530    1.000
    P4       P        0.87349    0.50524    0.39669    1.000
    O15      O        0.80470    0.50350    0.26250    1.000
    O16      O        0.16470    0.61530    0.56820    1.000
    O17      O        0.28370    0.84820    0.48400    1.000
    O18      O        0.23450    0.67930    0.26050    1.000
    Sc3      Sc       0.29380    0.43850    0.40794    1.000
    O19      O        0.19070    0.29980    0.28620    1.000
    P5       P        0.16863    0.18379    0.24528    1.000
    O20      O        0.08230    0.13890    0.12840    1.000
    O21      O        0.13780    0.10720    0.37570    1.000
    O22      O        0.27800    0.19420    0.17700    1.000
    O23      O        0.43020    0.42370    0.35530    1.000
    P6       P        0.49476    0.36825    0.39669    1.000
    O24      O        0.49650    0.30120    0.26250    1.000
    O25      O        0.38470    0.54940    0.56820    1.000
    O26      O        0.15180    0.43550    0.48400    1.000
    O27      O        0.32070    0.55520    0.26050    1.000
    Sc4      Sc       0.43850    0.14470    0.59206    1.000
    O28      O        0.29980    0.10910    0.71380    1.000
    P7       P        0.18379    0.01516    0.75472    1.000
    O29      O        0.13890    0.05660    0.87160    1.000
    O30      O        0.10720    0.96940    0.62430    1.000
    O31      O        0.19420    0.91620    0.82300    1.000
    O32      O        0.42370    0.99350    0.64470    1.000
    P8       P        0.36825    0.87349    0.60331    1.000
    O33      O        0.30120    0.80470    0.73750    1.000
    O34      O        0.54940    0.16470    0.43180    1.000
    O35      O        0.43550    0.28370    0.51600    1.000
    O36      O        0.55520    0.23450    0.73950    1.000
    Sc5      Sc       0.85530    0.29380    0.59206    1.000
    O37      O        0.89090    0.19070    0.71380    1.000
    P9       P        0.98484    0.16863    0.75472    1.000
    O38      O        0.94340    0.08230    0.87160    1.000
    O39      O        0.03060    0.13780    0.62430    1.000
    O40      O        0.08380    0.27800    0.82300    1.000
    O41      O        0.00650    0.43020    0.64470    1.000
    P10      P        0.12651    0.49476    0.60331    1.000
    O42      O        0.19530    0.49650    0.73750    1.000
    O43      O        0.83530    0.38470    0.43180    1.000
    O44      O        0.71630    0.15180    0.51600    1.000
    O45      O        0.76550    0.32070    0.73950    1.000
    Sc6      Sc       0.70620    0.56150    0.59206    1.000
    O46      O        0.80930    0.70020    0.71380    1.000
    P11      P        0.83137    0.81621    0.75472    1.000
    O47      O        0.91770    0.86110    0.87160    1.000
    O48      O        0.86220    0.89280    0.62430    1.000
    O49      O        0.72200    0.80580    0.82300    1.000
    O50      O        0.56980    0.57630    0.64470    1.000
    P12      P        0.50524    0.63175    0.60331    1.000
    O51      O        0.50350    0.69880    0.73750    1.000
    O52      O        0.61530    0.45060    0.43180    1.000
    O53      O        0.84820    0.56450    0.51600    1.000
    O54      O        0.67930    0.44480    0.73950    1.000
    Sc7      Sc       0.00000    0.00000    0.00000    1.000
    Sc8      Sc       0.00000    0.00000    0.50000    1.000
    P13      P        0.33333    0.66667    0.21570    1.000
    O55      O        0.33333    0.66667    0.04690    1.000
    P14      P        0.66667    0.33333    0.78430    1.000
    O56      O        0.66667    0.33333    0.95310    1.000
