data_functionalizedCrystal
_audit_creation_method	'EQeq! by Chris Wilmer'
_symmetry_space_group_name_H-M	'P1'
_symmetry_Int_Tables_number	1
_symmetry_cell_setting	triclinic
loop_
_symmetry_equiv_pos_as_xyz
  x,y,z
_cell_length_a	12.699
_cell_length_b	14.2602
_cell_length_c	15.9462
_cell_angle_alpha	96.8968
_cell_angle_beta	113.465
_cell_angle_gamma	90
loop_
_atom_site_label
_atom_site_type_symbol
_atom_site_fract_x
_atom_site_fract_y
_atom_site_fract_z
_atom_site_charge
Mof_Eu	Eu	0.38488	0.45756	0.37104	2.097
Mof_Eu	Eu	0.01384	0.04244	0.62896	2.056
Mof_Eu	Eu	0.61512	0.54244	0.62896	2.096
Mof_Eu	Eu	0.98616	0.95756	0.37104	2.055
Mof_H 	H 	0.1513	0.5933	0.0836	0.019
Mof_H 	H 	0.1107	0.6423	0.9424	0.067
Mof_H 	H 	0.4323	0.5985	0.9706	0.079
Mof_H 	H 	0.4703	0.5429	0.1088	0.024
Mof_H 	H 	0.157	0.664	0.824	0.03
Mof_H 	H 	0.3677	0.5726	0.6862	0.034
Mof_H 	H 	0.1609	0.7748	0.718	0.052
Mof_H 	H 	0.1687	0.6989	0.4692	0.007
Mof_H 	H 	0.0677	0.9067	0.9164	0.016
Mof_H 	H 	0.1683	0.8577	0.0576	0.072
Mof_H 	H 	0.4617	0.9015	0.0294	0.082
Mof_H 	H 	0.3615	0.9571	0.8912	0.02
Mof_H 	H 	0.333	0.836	0.176	0.031
Mof_H 	H 	0.6815	0.9274	0.3138	0.031
Mof_H 	H 	0.4429	0.7252	0.282	0.05
Mof_H 	H 	0.6995	0.8011	0.5308	0.005
Mof_H 	H 	0.8487	0.4067	0.9164	0.019
Mof_H 	H 	0.8893	0.3577	0.0576	0.067
Mof_H 	H 	0.5677	0.4015	0.0294	0.079
Mof_H 	H 	0.5297	0.4571	0.8912	0.024
Mof_H 	H 	0.843	0.336	0.176	0.03
Mof_H 	H 	0.6323	0.4274	0.3138	0.034
Mof_H 	H 	0.8391	0.2252	0.282	0.052
Mof_H 	H 	0.8313	0.3011	0.5308	0.007
Mof_H 	H 	0.9323	0.0933	0.0836	0.016
Mof_H 	H 	0.8317	0.1423	0.9424	0.072
Mof_H 	H 	0.5383	0.0985	0.9706	0.082
Mof_H 	H 	0.6385	0.0429	0.1088	0.02
Mof_H 	H 	0.667	0.164	0.824	0.031
Mof_H 	H 	0.3185	0.0726	0.6862	0.031
Mof_H 	H 	0.5571	0.2748	0.718	0.05
Mof_H 	H 	0.3005	0.1989	0.4692	0.005
Mof_C 	C 	0.3443	0.5239	0.2002	0.329
Mof_C 	C 	0.317	0.5648	0.111	-0.114
Mof_C 	C 	0.2079	0.5939	0.0606	0.044
Mof_C 	C 	0.1841	0.6235	0.9762	-0.135
Mof_C 	C 	0.2657	0.6261	0.9408	0.074
Mof_C 	C 	0.3749	0.5966	0.9928	-0.127
Mof_C 	C 	0.3982	0.5647	0.0762	0.045
Mof_C 	C 	0.2362	0.654	0.8472	-0.008
Mof_C 	C 	0.3159	0.5649	0.5078	0.436
Mof_C 	C 	0.2744	0.6251	0.5684	-0.161
Mof_C 	C 	0.3122	0.6155	0.6612	-0.017
Mof_C 	C 	0.2685	0.6689	0.7172	0.04
Mof_C 	C 	0.191	0.7383	0.6814	-0.014
Mof_C 	C 	0.1594	0.7515	0.5884	-0.154
Mof_C 	C 	0.1959	0.6932	0.5316	0.082
Mof_C 	C 	0.0799	0.8279	0.5488	0.49
Mof_C 	C 	0.1441	0.9761	0.7998	0.331
Mof_C 	C 	0.206	0.9352	0.889	-0.122
Mof_C 	C 	0.1473	0.9061	0.9394	0.057
Mof_C 	C 	0.2079	0.8765	0.0238	-0.147
Mof_C 	C 	0.3249	0.8739	0.0592	0.083
Mof_C 	C 	0.3821	0.9034	0.0072	-0.142
Mof_C 	C 	0.322	0.9353	0.9238	0.06
Mof_C 	C 	0.389	0.846	0.1528	-0.013
Mof_C 	C 	0.8081	0.9351	0.4922	0.434
Mof_C 	C 	0.706	0.8749	0.4316	-0.163
Mof_C 	C 	0.651	0.8845	0.3388	-0.015
Mof_C 	C 	0.5513	0.8311	0.2828	0.038
Mof_C 	C 	0.5096	0.7617	0.3186	-0.012
Mof_C 	C 	0.571	0.7485	0.4116	-0.158
Mof_C 	C 	0.6643	0.8068	0.4684	0.084
Mof_C 	C 	0.5311	0.6721	0.4512	0.494
Mof_C 	C 	0.6557	0.4761	0.7998	0.329
Mof_C 	C 	0.683	0.4352	0.889	-0.114
Mof_C 	C 	0.7921	0.4061	0.9394	0.044
Mof_C 	C 	0.8159	0.3765	0.0238	-0.135
Mof_C 	C 	0.7343	0.3739	0.0592	0.074
Mof_C 	C 	0.6251	0.4034	0.0072	-0.127
Mof_C 	C 	0.6018	0.4353	0.9238	0.045
Mof_C 	C 	0.7638	0.346	0.1528	-0.008
Mof_C 	C 	0.6841	0.4351	0.4922	0.436
Mof_C 	C 	0.7256	0.3749	0.4316	-0.161
Mof_C 	C 	0.6878	0.3845	0.3388	-0.017
Mof_C 	C 	0.7315	0.3311	0.2828	0.04
Mof_C 	C 	0.809	0.2617	0.3186	-0.014
Mof_C 	C 	0.8406	0.2485	0.4116	-0.154
Mof_C 	C 	0.8041	0.3068	0.4684	0.082
Mof_C 	C 	0.9201	0.1721	0.4512	0.49
Mof_C 	C 	0.8559	0.0239	0.2002	0.331
Mof_C 	C 	0.794	0.0648	0.111	-0.122
Mof_C 	C 	0.8527	0.0939	0.0606	0.057
Mof_C 	C 	0.7921	0.1235	0.9762	-0.147
Mof_C 	C 	0.6751	0.1261	0.9408	0.083
Mof_C 	C 	0.6179	0.0966	0.9928	-0.142
Mof_C 	C 	0.678	0.0647	0.0762	0.06
Mof_C 	C 	0.611	0.154	0.8472	-0.013
Mof_C 	C 	0.1919	0.0649	0.5078	0.434
Mof_C 	C 	0.294	0.1251	0.5684	-0.163
Mof_C 	C 	0.349	0.1155	0.6612	-0.015
Mof_C 	C 	0.4487	0.1689	0.7172	0.038
Mof_C 	C 	0.4904	0.2383	0.6814	-0.012
Mof_C 	C 	0.429	0.2515	0.5884	-0.158
Mof_C 	C 	0.3357	0.1932	0.5316	0.084
Mof_C 	C 	0.4689	0.3279	0.5488	0.494
Mof_N 	N 	0.3037	0.6501	0.8094	-0.116
Mof_N 	N 	0.4943	0.8499	0.1906	-0.116
Mof_N 	N 	0.6963	0.3499	0.1906	-0.116
Mof_N 	N 	0.5057	0.1501	0.8094	-0.116
Mof_O 	O 	0.2628	0.52	0.2284	-0.456
Mof_O 	O 	0.4414	0.5004	0.2466	-0.449
Mof_O 	O 	0.4142	0.529	0.5404	-0.625
Mof_O 	O 	0.2533	0.5449	0.424	-0.491
Mof_O 	O 	0.0561	0.8379	0.4672	-0.569
Mof_O 	O 	0.0441	0.8769	0.6028	-0.488
Mof_O 	O 	0.0344	0.98	0.7716	-0.446
Mof_O 	O 	0.1948	0.9996	0.7534	-0.441
Mof_O 	O 	0.8738	0.971	0.4596	-0.623
Mof_O 	O 	0.8293	0.9551	0.576	-0.49
Mof_O 	O 	0.5889	0.6621	0.5328	-0.581
Mof_O 	O 	0.4413	0.6231	0.3972	-0.499
Mof_O 	O 	0.7372	0.48	0.7716	-0.456
Mof_O 	O 	0.5586	0.4996	0.7534	-0.449
Mof_O 	O 	0.5858	0.471	0.4596	-0.625
Mof_O 	O 	0.7467	0.4551	0.576	-0.491
Mof_O 	O 	0.9439	0.1621	0.5328	-0.569
Mof_O 	O 	0.9559	0.1231	0.3972	-0.488
Mof_O 	O 	0.9656	0.02	0.2284	-0.446
Mof_O 	O 	0.8052	0.0004	0.2466	-0.441
Mof_O 	O 	0.1262	0.029	0.5404	-0.623
Mof_O 	O 	0.1707	0.0449	0.424	-0.49
Mof_O 	O 	0.4111	0.3379	0.4672	-0.581
Mof_O 	O 	0.5587	0.3769	0.6028	-0.499
_end
