# CIF file generated by openbabel 3.1.0, see https://openbabel.org
data_I
_chemical_name_common 'WUNSEE_charged'
_cell_length_a 15.869
_cell_length_b 15.869
_cell_length_c 21.649
_cell_angle_alpha 90
_cell_angle_beta 90
_cell_angle_gamma 90
_space_group_name_H-M_alt 'P 1'
_space_group_name_Hall 'P 1'
loop_
    _symmetry_equiv_pos_as_xyz
    x,y,z
loop_
    _atom_site_label
    _atom_site_type_symbol
    _atom_site_fract_x
    _atom_site_fract_y
    _atom_site_fract_z
    _atom_site_occupancy
    Cd1      Cd       0.44158    0.44158    0.00000    1.000
    Cd2      Cd       0.55842    0.55842    0.50000    1.000
    Cd3      Cd       0.05842    0.94158    0.25000    1.000
    Cd4      Cd       0.94158    0.05842    0.75000    1.000
    H1       H        0.34130    0.56030    0.90840    1.000
    H2       H        0.23420    0.65420    0.89350    1.000
    H3       H        0.15110    0.59940    0.06310    1.000
    H4       H        0.26150    0.50700    0.07340    1.000
    H5       H        0.03480    0.66260    0.03730    1.000
    H6       H        0.93490    0.76690    0.02920    1.000
    H7       H        0.95150    0.87500    0.95730    1.000
    H8       H        0.17280    0.77570    0.90510    1.000
    H9       H        0.20170    0.99160    0.71040    1.000
    H10      H        0.29930    0.08610    0.66650    1.000
    H11      H        0.34970    0.19670    0.72090    1.000
    H12      H        0.19620    0.13920    0.86150    1.000
    H13      H        0.41200    0.28570    0.78370    1.000
    H14      H        0.46070    0.38980    0.84990    1.000
    H15      H        0.26960    0.35960    0.95850    1.000
    H16      H        0.21380    0.25950    0.89610    1.000
    H17      H        0.23350    0.93400    0.92300    1.000
    H18      H        0.26750    0.95370    0.86240    1.000
    H19      H        0.65870    0.43970    0.40840    1.000
    H20      H        0.76580    0.34580    0.39350    1.000
    H21      H        0.84890    0.40060    0.56310    1.000
    H22      H        0.73850    0.49300    0.57340    1.000
    H23      H        0.96520    0.33740    0.53730    1.000
    H24      H        0.06510    0.23310    0.52920    1.000
    H25      H        0.04850    0.12500    0.45730    1.000
    H26      H        0.82720    0.22430    0.40510    1.000
    H27      H        0.79830    0.00840    0.21040    1.000
    H28      H        0.70070    0.91390    0.16650    1.000
    H29      H        0.65030    0.80330    0.22090    1.000
    H30      H        0.80380    0.86080    0.36150    1.000
    H31      H        0.58800    0.71430    0.28370    1.000
    H32      H        0.53930    0.61020    0.34990    1.000
    H33      H        0.73040    0.64040    0.45850    1.000
    H34      H        0.78620    0.74050    0.39610    1.000
    H35      H        0.76650    0.06600    0.42300    1.000
    H36      H        0.73250    0.04630    0.36240    1.000
    H37      H        0.93970    0.84130    0.15840    1.000
    H38      H        0.84580    0.73420    0.14350    1.000
    H39      H        0.90060    0.65110    0.31310    1.000
    H40      H        0.99300    0.76150    0.32340    1.000
    H41      H        0.83740    0.53480    0.28730    1.000
    H42      H        0.73310    0.43490    0.27920    1.000
    H43      H        0.62500    0.45150    0.20730    1.000
    H44      H        0.72430    0.67280    0.15510    1.000
    H45      H        0.50840    0.70170    0.96040    1.000
    H46      H        0.41390    0.79930    0.91650    1.000
    H47      H        0.30330    0.84970    0.97090    1.000
    H48      H        0.36080    0.69620    0.11150    1.000
    H49      H        0.21430    0.91200    0.03370    1.000
    H50      H        0.11020    0.96070    0.09990    1.000
    H51      H        0.14040    0.76960    0.20850    1.000
    H52      H        0.24050    0.71380    0.14610    1.000
    H53      H        0.56600    0.73350    0.17300    1.000
    H54      H        0.54630    0.76750    0.11240    1.000
    H55      H        0.06030    0.15870    0.65840    1.000
    H56      H        0.15420    0.26580    0.64350    1.000
    H57      H        0.09940    0.34890    0.81310    1.000
    H58      H        0.00700    0.23850    0.82340    1.000
    H59      H        0.16260    0.46520    0.78730    1.000
    H60      H        0.26690    0.56510    0.77920    1.000
    H61      H        0.37500    0.54850    0.70730    1.000
    H62      H        0.27570    0.32720    0.65510    1.000
    H63      H        0.49160    0.29830    0.46040    1.000
    H64      H        0.58610    0.20070    0.41650    1.000
    H65      H        0.69670    0.15030    0.47090    1.000
    H66      H        0.63920    0.30380    0.61150    1.000
    H67      H        0.78570    0.08800    0.53370    1.000
    H68      H        0.88980    0.03930    0.59990    1.000
    H69      H        0.85960    0.23040    0.70850    1.000
    H70      H        0.75950    0.28620    0.64610    1.000
    H71      H        0.43400    0.26650    0.67300    1.000
    H72      H        0.45370    0.23250    0.61240    1.000
    H73      H        0.15870    0.06030    0.34160    1.000
    H74      H        0.26580    0.15420    0.35650    1.000
    H75      H        0.34890    0.09940    0.18690    1.000
    H76      H        0.23850    0.00700    0.17660    1.000
    H77      H        0.46520    0.16260    0.21270    1.000
    H78      H        0.56510    0.26690    0.22080    1.000
    H79      H        0.54850    0.37500    0.29270    1.000
    H80      H        0.32720    0.27570    0.34490    1.000
    H81      H        0.29830    0.49160    0.53960    1.000
    H82      H        0.20070    0.58610    0.58350    1.000
    H83      H        0.15030    0.69670    0.52910    1.000
    H84      H        0.30380    0.63920    0.38850    1.000
    H85      H        0.08800    0.78570    0.46630    1.000
    H86      H        0.03930    0.88980    0.40010    1.000
    H87      H        0.23040    0.85960    0.29150    1.000
    H88      H        0.28620    0.75950    0.35390    1.000
    H89      H        0.26650    0.43400    0.32700    1.000
    H90      H        0.23250    0.45370    0.38760    1.000
    H91      H        0.84130    0.93970    0.84160    1.000
    H92      H        0.73420    0.84580    0.85650    1.000
    H93      H        0.65110    0.90060    0.68690    1.000
    H94      H        0.76150    0.99300    0.67660    1.000
    H95      H        0.53480    0.83740    0.71270    1.000
    H96      H        0.43490    0.73310    0.72080    1.000
    H97      H        0.45150    0.62500    0.79270    1.000
    H98      H        0.67280    0.72430    0.84490    1.000
    H99      H        0.70170    0.50840    0.03960    1.000
    H100     H        0.79930    0.41390    0.08350    1.000
    H101     H        0.84970    0.30330    0.02910    1.000
    H102     H        0.69620    0.36080    0.88850    1.000
    H103     H        0.91200    0.21430    0.96630    1.000
    H104     H        0.96070    0.11020    0.90010    1.000
    H105     H        0.76960    0.14040    0.79150    1.000
    H106     H        0.71380    0.24050    0.85390    1.000
    H107     H        0.73350    0.56600    0.82700    1.000
    H108     H        0.76750    0.54630    0.88760    1.000
    H109     H        0.56030    0.34130    0.09160    1.000
    H110     H        0.65420    0.23420    0.10650    1.000
    H111     H        0.59940    0.15110    0.93690    1.000
    H112     H        0.50700    0.26150    0.92660    1.000
    H113     H        0.66260    0.03480    0.96270    1.000
    H114     H        0.76690    0.93490    0.97080    1.000
    H115     H        0.87500    0.95150    0.04270    1.000
    H116     H        0.77570    0.17280    0.09490    1.000
    H117     H        0.99160    0.20170    0.28960    1.000
    H118     H        0.08610    0.29930    0.33350    1.000
    H119     H        0.19670    0.34970    0.27910    1.000
    H120     H        0.13920    0.19620    0.13850    1.000
    H121     H        0.28570    0.41200    0.21630    1.000
    H122     H        0.38980    0.46070    0.15010    1.000
    H123     H        0.35960    0.26960    0.04150    1.000
    H124     H        0.25950    0.21380    0.10390    1.000
    H125     H        0.93400    0.23350    0.07700    1.000
    H126     H        0.95370    0.26750    0.13760    1.000
    H127     H        0.43970    0.65870    0.59160    1.000
    H128     H        0.34580    0.76580    0.60650    1.000
    H129     H        0.40060    0.84890    0.43690    1.000
    H130     H        0.49300    0.73850    0.42660    1.000
    H131     H        0.33740    0.96520    0.46270    1.000
    H132     H        0.23310    0.06510    0.47080    1.000
    H133     H        0.12500    0.04850    0.54270    1.000
    H134     H        0.22430    0.82720    0.59490    1.000
    H135     H        0.00840    0.79830    0.78960    1.000
    H136     H        0.91390    0.70070    0.83350    1.000
    H137     H        0.80330    0.65030    0.77910    1.000
    H138     H        0.86080    0.80380    0.63850    1.000
    H139     H        0.71430    0.58800    0.71630    1.000
    H140     H        0.61020    0.53930    0.65010    1.000
    H141     H        0.64040    0.73040    0.54150    1.000
    H142     H        0.74050    0.78620    0.60390    1.000
    H143     H        0.06600    0.76650    0.57700    1.000
    H144     H        0.04630    0.73250    0.63760    1.000
    C1       C        0.30320    0.56890    0.94040    1.000
    C2       C        0.23890    0.62610    0.93110    1.000
    C3       C        0.18100    0.64170    0.97810    1.000
    C4       C        0.18990    0.59380    0.03120    1.000
    C5       C        0.25660    0.53750    0.03700    1.000
    C6       C        0.11530    0.70750    0.97190    1.000
    C7       C        0.04250    0.70610    0.00910    1.000
    C8       C        0.98250    0.76840    0.00420    1.000
    C9       C        0.99290    0.83400    0.96170    1.000
    C10      C        0.06620    0.83730    0.92600    1.000
    C11      C        0.12530    0.77410    0.93030    1.000
    C12      C        0.07470    0.90650    0.88270    1.000
    C13      C        0.12610    0.00300    0.82030    1.000
    C14      C        0.18890    0.05810    0.79000    1.000
    C15      C        0.21960    0.03910    0.73180    1.000
    C16      C        0.27950    0.09550    0.70630    1.000
    C17      C        0.30860    0.16250    0.73850    1.000
    C18      C        0.27860    0.18160    0.79700    1.000
    C19      C        0.21770    0.12790    0.82240    1.000
    C20      C        0.30890    0.25410    0.83460    1.000
    C21      C        0.38270    0.29780    0.81980    1.000
    C22      C        0.41200    0.36060    0.86050    1.000
    C23      C        0.29990    0.34310    0.92370    1.000
    C24      C        0.26610    0.28230    0.88650    1.000
    C25      C        0.69680    0.43110    0.44040    1.000
    C26      C        0.76110    0.37390    0.43110    1.000
    C27      C        0.81900    0.35830    0.47810    1.000
    C28      C        0.81010    0.40620    0.53120    1.000
    C29      C        0.74340    0.46250    0.53700    1.000
    C30      C        0.88470    0.29250    0.47190    1.000
    C31      C        0.95750    0.29390    0.50910    1.000
    C32      C        0.01750    0.23160    0.50420    1.000
    C33      C        0.00710    0.16600    0.46170    1.000
    C34      C        0.93380    0.16270    0.42600    1.000
    C35      C        0.87470    0.22590    0.43030    1.000
    C36      C        0.92530    0.09350    0.38270    1.000
    C37      C        0.87390    0.99700    0.32030    1.000
    C38      C        0.81110    0.94190    0.29000    1.000
    C39      C        0.78040    0.96090    0.23180    1.000
    C40      C        0.72050    0.90450    0.20630    1.000
    C41      C        0.69140    0.83750    0.23850    1.000
    C42      C        0.72140    0.81840    0.29700    1.000
    C43      C        0.78230    0.87210    0.32240    1.000
    C44      C        0.69110    0.74590    0.33460    1.000
    C45      C        0.61730    0.70220    0.31980    1.000
    C46      C        0.58800    0.63940    0.36050    1.000
    C47      C        0.70010    0.65690    0.42370    1.000
    C48      C        0.73390    0.71770    0.38650    1.000
    C49      C        0.93110    0.80320    0.19040    1.000
    C50      C        0.87390    0.73890    0.18110    1.000
    C51      C        0.85830    0.68100    0.22810    1.000
    C52      C        0.90620    0.68990    0.28120    1.000
    C53      C        0.96250    0.75660    0.28700    1.000
    C54      C        0.79250    0.61530    0.22190    1.000
    C55      C        0.79390    0.54250    0.25910    1.000
    C56      C        0.73160    0.48250    0.25420    1.000
    C57      C        0.66600    0.49290    0.21170    1.000
    C58      C        0.66270    0.56620    0.17600    1.000
    C59      C        0.72590    0.62530    0.18030    1.000
    C60      C        0.59350    0.57470    0.13270    1.000
    C61      C        0.49700    0.62610    0.07030    1.000
    C62      C        0.44190    0.68890    0.04000    1.000
    C63      C        0.46090    0.71960    0.98180    1.000
    C64      C        0.40450    0.77950    0.95630    1.000
    C65      C        0.33750    0.80860    0.98850    1.000
    C66      C        0.31840    0.77860    0.04700    1.000
    C67      C        0.37210    0.71770    0.07240    1.000
    C68      C        0.24590    0.80890    0.08460    1.000
    C69      C        0.20220    0.88270    0.06980    1.000
    C70      C        0.13940    0.91200    0.11050    1.000
    C71      C        0.15690    0.79990    0.17370    1.000
    C72      C        0.21770    0.76610    0.13650    1.000
    C73      C        0.06890    0.19680    0.69040    1.000
    C74      C        0.12610    0.26110    0.68110    1.000
    C75      C        0.14170    0.31900    0.72810    1.000
    C76      C        0.09380    0.31010    0.78120    1.000
    C77      C        0.03750    0.24340    0.78700    1.000
    C78      C        0.20750    0.38470    0.72190    1.000
    C79      C        0.20610    0.45750    0.75910    1.000
    C80      C        0.26840    0.51750    0.75420    1.000
    C81      C        0.33400    0.50710    0.71170    1.000
    C82      C        0.33730    0.43380    0.67600    1.000
    C83      C        0.27410    0.37470    0.68030    1.000
    C84      C        0.40650    0.42530    0.63270    1.000
    C85      C        0.50300    0.37390    0.57030    1.000
    C86      C        0.55810    0.31110    0.54000    1.000
    C87      C        0.53910    0.28040    0.48180    1.000
    C88      C        0.59550    0.22050    0.45630    1.000
    C89      C        0.66250    0.19140    0.48850    1.000
    C90      C        0.68160    0.22140    0.54700    1.000
    C91      C        0.62790    0.28230    0.57240    1.000
    C92      C        0.75410    0.19110    0.58460    1.000
    C93      C        0.79780    0.11730    0.56980    1.000
    C94      C        0.86060    0.08800    0.61050    1.000
    C95      C        0.84310    0.20010    0.67370    1.000
    C96      C        0.78230    0.23390    0.63650    1.000
    C97      C        0.19680    0.06890    0.30960    1.000
    C98      C        0.26110    0.12610    0.31890    1.000
    C99      C        0.31900    0.14170    0.27190    1.000
    C100     C        0.31010    0.09380    0.21880    1.000
    C101     C        0.24340    0.03750    0.21300    1.000
    C102     C        0.38470    0.20750    0.27810    1.000
    C103     C        0.45750    0.20610    0.24090    1.000
    C104     C        0.51750    0.26840    0.24580    1.000
    C105     C        0.50710    0.33400    0.28830    1.000
    C106     C        0.43380    0.33730    0.32400    1.000
    C107     C        0.37470    0.27410    0.31970    1.000
    C108     C        0.42530    0.40650    0.36730    1.000
    C109     C        0.37390    0.50300    0.42970    1.000
    C110     C        0.31110    0.55810    0.46000    1.000
    C111     C        0.28040    0.53910    0.51820    1.000
    C112     C        0.22050    0.59550    0.54370    1.000
    C113     C        0.19140    0.66250    0.51150    1.000
    C114     C        0.22140    0.68160    0.45300    1.000
    C115     C        0.28230    0.62790    0.42760    1.000
    C116     C        0.19110    0.75410    0.41540    1.000
    C117     C        0.11730    0.79780    0.43020    1.000
    C118     C        0.08800    0.86060    0.38950    1.000
    C119     C        0.20010    0.84310    0.32630    1.000
    C120     C        0.23390    0.78230    0.36350    1.000
    C121     C        0.80320    0.93110    0.80960    1.000
    C122     C        0.73890    0.87390    0.81890    1.000
    C123     C        0.68100    0.85830    0.77190    1.000
    C124     C        0.68990    0.90620    0.71880    1.000
    C125     C        0.75660    0.96250    0.71300    1.000
    C126     C        0.61530    0.79250    0.77810    1.000
    C127     C        0.54250    0.79390    0.74090    1.000
    C128     C        0.48250    0.73160    0.74580    1.000
    C129     C        0.49290    0.66600    0.78830    1.000
    C130     C        0.56620    0.66270    0.82400    1.000
    C131     C        0.62530    0.72590    0.81970    1.000
    C132     C        0.57470    0.59350    0.86730    1.000
    C133     C        0.62610    0.49700    0.92970    1.000
    C134     C        0.68890    0.44190    0.96000    1.000
    C135     C        0.71960    0.46090    0.01820    1.000
    C136     C        0.77950    0.40450    0.04370    1.000
    C137     C        0.80860    0.33750    0.01150    1.000
    C138     C        0.77860    0.31840    0.95300    1.000
    C139     C        0.71770    0.37210    0.92760    1.000
    C140     C        0.80890    0.24590    0.91540    1.000
    C141     C        0.88270    0.20220    0.93020    1.000
    C142     C        0.91200    0.13940    0.88950    1.000
    C143     C        0.79990    0.15690    0.82630    1.000
    C144     C        0.76610    0.21770    0.86350    1.000
    C145     C        0.56890    0.30320    0.05960    1.000
    C146     C        0.62610    0.23890    0.06890    1.000
    C147     C        0.64170    0.18100    0.02190    1.000
    C148     C        0.59380    0.18990    0.96880    1.000
    C149     C        0.53750    0.25660    0.96300    1.000
    C150     C        0.70750    0.11530    0.02810    1.000
    C151     C        0.70610    0.04250    0.99090    1.000
    C152     C        0.76840    0.98250    0.99580    1.000
    C153     C        0.83400    0.99290    0.03830    1.000
    C154     C        0.83730    0.06620    0.07400    1.000
    C155     C        0.77410    0.12530    0.06970    1.000
    C156     C        0.90650    0.07470    0.11730    1.000
    C157     C        0.00300    0.12610    0.17970    1.000
    C158     C        0.05810    0.18890    0.21000    1.000
    C159     C        0.03910    0.21960    0.26820    1.000
    C160     C        0.09550    0.27950    0.29370    1.000
    C161     C        0.16250    0.30860    0.26150    1.000
    C162     C        0.18160    0.27860    0.20300    1.000
    C163     C        0.12790    0.21770    0.17760    1.000
    C164     C        0.25410    0.30890    0.16540    1.000
    C165     C        0.29780    0.38270    0.18020    1.000
    C166     C        0.36060    0.41200    0.13950    1.000
    C167     C        0.34310    0.29990    0.07630    1.000
    C168     C        0.28230    0.26610    0.11350    1.000
    C169     C        0.43110    0.69680    0.55960    1.000
    C170     C        0.37390    0.76110    0.56890    1.000
    C171     C        0.35830    0.81900    0.52190    1.000
    C172     C        0.40620    0.81010    0.46880    1.000
    C173     C        0.46250    0.74340    0.46300    1.000
    C174     C        0.29250    0.88470    0.52810    1.000
    C175     C        0.29390    0.95750    0.49090    1.000
    C176     C        0.23160    0.01750    0.49580    1.000
    C177     C        0.16600    0.00710    0.53830    1.000
    C178     C        0.16270    0.93380    0.57400    1.000
    C179     C        0.22590    0.87470    0.56970    1.000
    C180     C        0.09350    0.92530    0.61730    1.000
    C181     C        0.99700    0.87390    0.67970    1.000
    C182     C        0.94190    0.81110    0.71000    1.000
    C183     C        0.96090    0.78040    0.76820    1.000
    C184     C        0.90450    0.72050    0.79370    1.000
    C185     C        0.83750    0.69140    0.76150    1.000
    C186     C        0.81840    0.72140    0.70300    1.000
    C187     C        0.87210    0.78230    0.67760    1.000
    C188     C        0.74590    0.69110    0.66540    1.000
    C189     C        0.70220    0.61730    0.68020    1.000
    C190     C        0.63940    0.58800    0.63950    1.000
    C191     C        0.65690    0.70010    0.57630    1.000
    C192     C        0.71770    0.73390    0.61350    1.000
    N1       N        0.31430    0.52500    0.99240    1.000
    N2       N        0.01130    0.94490    0.85540    1.000
    N3       N        0.04400    0.00520    0.81650    1.000
    N4       N        0.14790    0.94210    0.86170    1.000
    N5       N        0.23010    0.92260    0.88290    1.000
    N6       N        0.37430    0.38030    0.91290    1.000
    N7       N        0.68570    0.47500    0.49240    1.000
    N8       N        0.98870    0.05510    0.35540    1.000
    N9       N        0.95600    0.99480    0.31650    1.000
    N10      N        0.85210    0.05790    0.36170    1.000
    N11      N        0.76990    0.07740    0.38290    1.000
    N12      N        0.62570    0.61970    0.41290    1.000
    N13      N        0.97500    0.81430    0.24240    1.000
    N14      N        0.55510    0.51130    0.10540    1.000
    N15      N        0.49480    0.54400    0.06650    1.000
    N16      N        0.55790    0.64790    0.11170    1.000
    N17      N        0.57740    0.73010    0.13290    1.000
    N18      N        0.11970    0.87430    0.16290    1.000
    N19      N        0.02500    0.18570    0.74240    1.000
    N20      N        0.44490    0.48870    0.60540    1.000
    N21      N        0.50520    0.45600    0.56650    1.000
    N22      N        0.44210    0.35210    0.61170    1.000
    N23      N        0.42260    0.26990    0.63290    1.000
    N24      N        0.88030    0.12570    0.66290    1.000
    N25      N        0.18570    0.02500    0.25760    1.000
    N26      N        0.48870    0.44490    0.39460    1.000
    N27      N        0.45600    0.50520    0.43350    1.000
    N28      N        0.35210    0.44210    0.38830    1.000
    N29      N        0.26990    0.42260    0.36710    1.000
    N30      N        0.12570    0.88030    0.33710    1.000
    N31      N        0.81430    0.97500    0.75760    1.000
    N32      N        0.51130    0.55510    0.89460    1.000
    N33      N        0.54400    0.49480    0.93350    1.000
    N34      N        0.64790    0.55790    0.88830    1.000
    N35      N        0.73010    0.57740    0.86710    1.000
    N36      N        0.87430    0.11970    0.83710    1.000
    N37      N        0.52500    0.31430    0.00760    1.000
    N38      N        0.94490    0.01130    0.14460    1.000
    N39      N        0.00520    0.04400    0.18350    1.000
    N40      N        0.94210    0.14790    0.13830    1.000
    N41      N        0.92260    0.23010    0.11710    1.000
    N42      N        0.38030    0.37430    0.08710    1.000
    N43      N        0.47500    0.68570    0.50760    1.000
    N44      N        0.05510    0.98870    0.64460    1.000
    N45      N        0.99480    0.95600    0.68350    1.000
    N46      N        0.05790    0.85210    0.63830    1.000
    N47      N        0.07740    0.76990    0.61710    1.000
    N48      N        0.61970    0.62570    0.58710    1.000
    Cl1      Cl       0.11991    0.11991    0.00000    1.000
    O1       O        0.19000    0.11020    0.03180    1.000
    O2       O        0.13230    0.06500    0.95650    1.000
    O3       O        0.11020    0.19000    0.96820    1.000
    O4       O        0.06500    0.13230    0.04350    1.000
    Cl2      Cl       0.88009    0.88009    0.50000    1.000
    O5       O        0.81000    0.88980    0.53180    1.000
    O6       O        0.86770    0.93500    0.45650    1.000
    O7       O        0.88980    0.81000    0.46820    1.000
    O8       O        0.93500    0.86770    0.54350    1.000
    Cl3      Cl       0.38009    0.61991    0.25000    1.000
    O9       O        0.38980    0.69000    0.28180    1.000
    O10      O        0.43500    0.63230    0.20650    1.000
    O11      O        0.31000    0.61020    0.21820    1.000
    O12      O        0.36770    0.56500    0.29350    1.000
    Cl4      Cl       0.61991    0.38009    0.75000    1.000
    O13      O        0.61020    0.31000    0.78180    1.000
    O14      O        0.56500    0.36770    0.70650    1.000
    O15      O        0.69000    0.38980    0.71820    1.000
    O16      O        0.63230    0.43500    0.79350    1.000
