# CIF file generated by openbabel 3.1.0, see https://openbabel.org
data_I
_chemical_name_common 'image0'
_cell_length_a 7.4942
_cell_length_b 7.7257
_cell_length_c 17.852
_cell_angle_alpha 90
_cell_angle_beta 97.74
_cell_angle_gamma 90
_space_group_name_H-M_alt 'P 1'
_space_group_name_Hall 'P 1'
loop_
    _symmetry_equiv_pos_as_xyz
    x,y,z
loop_
    _atom_site_label
    _atom_site_type_symbol
    _atom_site_fract_x
    _atom_site_fract_y
    _atom_site_fract_z
    _atom_site_occupancy
    Co1      Co       0.12893    0.05357    0.36354    1.000
    Co2      Co       0.78476    0.80520    0.30831    1.000
    P1       P        0.94660    0.42370    0.31096    1.000
    O1       O        0.90820    0.95430    0.40740    1.000
    O2       O        0.07360    0.30800    0.36240    1.000
    O3       O        0.01200    0.44000    0.23310    1.000
    O4       O        0.30170    0.84770    0.38340    1.000
    O5       O        0.35130    0.13440    0.30150    1.000
    O6       O        0.79590    0.90440    0.51580    1.000
    O7       O        0.55820    0.74030    0.35660    1.000
    O8       O        0.92300    0.59870    0.34530    1.000
    O9       O        0.61340    0.02000    0.27670    1.000
    O10      O        0.75120    0.33900    0.29970    1.000
    H1       H        0.75620    0.24240    0.28100    1.000
    C1       C        0.91410    0.95740    0.47860    1.000
    C2       C        0.44070    0.85610    0.35240    1.000
    C3       C        0.47050    0.01900    0.30530    1.000
    Co3      Co       0.87107    0.55357    0.13646    1.000
    Co4      Co       0.21524    0.30520    0.19169    1.000
    P2       P        0.05340    0.92370    0.18904    1.000
    O11      O        0.09180    0.45430    0.09260    1.000
    O12      O        0.92640    0.80800    0.13760    1.000
    O13      O        0.98800    0.94000    0.26690    1.000
    O14      O        0.69830    0.34770    0.11660    1.000
    O15      O        0.64870    0.63440    0.19850    1.000
    O16      O        0.20410    0.40440    0.98420    1.000
    O17      O        0.44180    0.24030    0.14340    1.000
    O18      O        0.07700    0.09870    0.15470    1.000
    O19      O        0.38660    0.52000    0.22330    1.000
    O20      O        0.24880    0.83900    0.20030    1.000
    H2       H        0.24380    0.74240    0.21900    1.000
    C4       C        0.08590    0.45740    0.02140    1.000
    C5       C        0.55930    0.35610    0.14760    1.000
    C6       C        0.52950    0.51900    0.19470    1.000
    Co5      Co       0.87107    0.94643    0.63646    1.000
    Co6      Co       0.21524    0.19480    0.69169    1.000
    P3       P        0.05340    0.57630    0.68904    1.000
    O21      O        0.09180    0.04570    0.59260    1.000
    O22      O        0.92640    0.69200    0.63760    1.000
    O23      O        0.98800    0.56000    0.76690    1.000
    O24      O        0.69830    0.15230    0.61660    1.000
    O25      O        0.64870    0.86560    0.69850    1.000
    O26      O        0.20410    0.09560    0.48420    1.000
    O27      O        0.44180    0.25970    0.64340    1.000
    O28      O        0.07700    0.40130    0.65470    1.000
    O29      O        0.38660    0.98000    0.72330    1.000
    O30      O        0.24880    0.66100    0.70030    1.000
    H3       H        0.24380    0.75760    0.71900    1.000
    C7       C        0.08590    0.04260    0.52140    1.000
    C8       C        0.55930    0.14390    0.64760    1.000
    C9       C        0.52950    0.98100    0.69470    1.000
    Co7      Co       0.12893    0.44643    0.86354    1.000
    Co8      Co       0.78476    0.69480    0.80831    1.000
    P4       P        0.94660    0.07630    0.81096    1.000
    O31      O        0.90820    0.54570    0.90740    1.000
    O32      O        0.07360    0.19200    0.86240    1.000
    O33      O        0.01200    0.06000    0.73310    1.000
    O34      O        0.30170    0.65230    0.88340    1.000
    O35      O        0.35130    0.36560    0.80150    1.000
    O36      O        0.79590    0.59560    0.01580    1.000
    O37      O        0.55820    0.75970    0.85660    1.000
    O38      O        0.92300    0.90130    0.84530    1.000
    O39      O        0.61340    0.48000    0.77670    1.000
    O40      O        0.75120    0.16100    0.79970    1.000
    H4       H        0.75620    0.25760    0.78100    1.000
    C10      C        0.91410    0.54260    0.97860    1.000
    C11      C        0.44070    0.64390    0.85240    1.000
    C12      C        0.47050    0.48100    0.80530    1.000
