data_functionalizedCrystal
_audit_creation_method	'EQeq! by Chris Wilmer'
_symmetry_space_group_name_H-M	'P1'
_symmetry_Int_Tables_number	1
_symmetry_cell_setting	triclinic
loop_
_symmetry_equiv_pos_as_xyz
  x,y,z
_cell_length_a	14.952
_cell_length_b	18.584
_cell_length_c	30.2316
_cell_angle_alpha	98.8197
_cell_angle_beta	92.0868
_cell_angle_gamma	111.615
loop_
_atom_site_label
_atom_site_type_symbol
_atom_site_fract_x
_atom_site_fract_y
_atom_site_fract_z
_atom_site_charge
Mof_Zn	Zn	0.46501	0.67401	0.21501	1.167
Mof_Zn	Zn	0.55641	0.29671	0.02771	1.166
Mof_Zn	Zn	0.04889	0.84358	0.90797	1.165
Mof_Zn	Zn	0.17652	0.64262	0.73952	1.164
Mof_Zn	Zn	0.71437	0.24375	0.56625	1.166
Mof_Zn	Zn	0.79265	0.84137	0.40367	1.166
Mof_H 	H 	0.3343	0.7481	0.2575	-0.012
Mof_H 	H 	0.1705	0.728	0.2569	0.085
Mof_H 	H 	0.1146	0.5431	0.1567	0.084
Mof_H 	H 	0.2786	0.5646	0.1601	-0.006
Mof_H 	H 	0.6905	0.7085	0.3241	-0.011
Mof_H 	H 	0.7244	0.6232	0.2698	0.083
Mof_H 	H 	0.0063	0.7465	0.3069	0.098
Mof_H 	H 	0.9598	0.8203	0.362	-0.008
Mof_H 	H 	0.7636	0.344	0.06	0.002
Mof_H 	H 	0.8756	0.4294	0.1171	0.081
Mof_H 	H 	0.6735	0.4959	0.1746	0.094
Mof_H 	H 	0.5697	0.4113	0.1148	-0.003
Mof_H 	H 	0.6217	0.182	0.9722	-0.017
Mof_H 	H 	0.666	0.0773	0.9714	0.09
Mof_H 	H 	0.5662	0.0684	0.093	0.09
Mof_H 	H 	0.542	0.1816	0.0909	-0.016
Mof_H 	H 	0.9503	0.8044	0.9879	-0.011
Mof_H 	H 	0.8154	0.8111	0.0221	0.083
Mof_H 	H 	0.8486	0.0039	0.9624	0.075
Mof_H 	H 	0.9717	0.9784	0.9267	-0.007
Mof_H 	H 	0.4559	0.8147	0.185	-0.027
Mof_H 	H 	0.5031	0.8933	0.1332	0.084
Mof_H 	H 	0.6563	0.7661	0.0914	0.077
Mof_H 	H 	0.593	0.6846	0.1403	-0.012
Mof_H 	H 	0.86	0.8269	0.8666	-0.009
Mof_H 	H 	0.7288	0.7422	0.8142	0.087
Mof_H 	H 	0.8753	0.5929	0.7963	0.086
Mof_H 	H 	0.9959	0.6828	0.8494	-0.018
Mof_H 	H 	0.253	0.5299	0.6811	-0.012
Mof_H 	H 	0.3964	0.5096	0.6776	0.083
Mof_H 	H 	0.5141	0.6815	0.7844	0.087
Mof_H 	H 	0.3653	0.6898	0.7892	-0.016
Mof_H 	H 	0.8172	0.359	0.6511	-0.002
Mof_H 	H 	0.7944	0.4536	0.7027	0.09
Mof_H 	H 	0.5362	0.407	0.6365	0.081
Mof_H 	H 	0.5701	0.3177	0.5821	0.003
Mof_H 	H 	0.5297	0.1508	0.4979	0.012
Mof_H 	H 	0.3928	0.0396	0.4957	0.071
Mof_H 	H 	0.459	0.0302	0.6227	0.085
Mof_H 	H 	0.6067	0.1284	0.6223	-0.014
Mof_H 	H 	0.8652	0.7654	0.4699	-0.012
Mof_H 	H 	0.9912	0.7755	0.5205	0.082
Mof_H 	H 	0.1363	0.9814	0.4756	0.072
Mof_H 	H 	0.9974	0.9638	0.4313	-0.008
Mof_H 	H 	0.3093	0.7912	0.7201	-0.022
Mof_H 	H 	0.3501	0.8505	0.6583	0.086
Mof_H 	H 	0.0899	0.7167	0.5958	0.083
Mof_H 	H 	0.0724	0.6377	0.6506	-0.007
Mof_C 	C 	0.2879	0.7046	0.2378	0.069
Mof_C 	C 	0.1917	0.6932	0.2378	-0.124
Mof_C 	C 	0.1278	0.629	0.2088	0.064
Mof_C 	C 	0.1593	0.5837	0.1787	-0.124
Mof_C 	C 	0.2559	0.5969	0.1803	0.071
Mof_C 	C 	0.0198	0.6093	0.2083	0.106
Mof_C 	C 	0.8985	0.6349	0.2438	0.096
Mof_C 	C 	0.8671	0.5449	0.182	0.101
Mof_C 	C 	0.7553	0.7118	0.3232	0.078
Mof_C 	C 	0.7755	0.6646	0.2887	-0.137
Mof_C 	C 	0.8694	0.6775	0.2817	0.071
Mof_C 	C 	0.9397	0.735	0.3102	-0.137
Mof_C 	C 	0.9103	0.776	0.3442	0.089
Mof_C 	C 	0.7444	0.3754	0.0825	0.067
Mof_C 	C 	0.811	0.4272	0.1165	-0.117
Mof_C 	C 	0.7897	0.476	0.1497	0.049
Mof_C 	C 	0.6953	0.468	0.1512	-0.132
Mof_C 	C 	0.6349	0.4154	0.1153	0.082
Mof_C 	C 	0.6122	0.1594	0.9986	0.101
Mof_C 	C 	0.6376	0.0952	0.9962	-0.142
Mof_C 	C 	0.6184	0.0596	0.0329	0.073
Mof_C 	C 	0.581	0.0926	0.0673	-0.143
Mof_C 	C 	0.5643	0.1595	0.0652	0.096
Mof_C 	C 	0.6478	0.9889	0.0395	0.095
Mof_C 	C 	0.7366	0.9231	0.022	0.098
Mof_C 	C 	0.6359	0.8909	0.075	0.093
Mof_C 	C 	0.9232	0.8405	0.9806	0.066
Mof_C 	C 	0.8477	0.8473	0.0034	-0.113
Mof_C 	C 	0.8215	0.9094	0.9976	0.053
Mof_C 	C 	0.8662	0.9613	0.9671	-0.123
Mof_C 	C 	0.9366	0.9437	0.9456	0.076
Mof_C 	C 	0.4969	0.8025	0.1644	0.106
Mof_C 	C 	0.5273	0.8529	0.1343	-0.133
Mof_C 	C 	0.5938	0.8436	0.1056	0.053
Mof_C 	C 	0.6128	0.7782	0.1105	-0.123
Mof_C 	C 	0.5755	0.7288	0.1403	0.076
Mof_C 	C 	0.8611	0.7782	0.8519	0.066
Mof_C 	C 	0.7835	0.7298	0.8206	-0.118
Mof_C 	C 	0.7936	0.6611	0.7994	0.069
Mof_C 	C 	0.8709	0.6409	0.8101	-0.143
Mof_C 	C 	0.9411	0.6946	0.842	0.093
Mof_C 	C 	0.7104	0.6081	0.7637	0.091
Mof_C 	C 	0.5632	0.5746	0.7314	0.105
Mof_C 	C 	0.6503	0.5058	0.7072	0.09
Mof_C 	C 	0.3054	0.5593	0.7035	0.082
Mof_C 	C 	0.3911	0.5472	0.7014	-0.131
Mof_C 	C 	0.4685	0.5883	0.7329	0.068
Mof_C 	C 	0.4602	0.6465	0.7642	-0.129
Mof_C 	C 	0.3721	0.6527	0.7655	0.075
Mof_C 	C 	0.7596	0.3689	0.6476	0.065
Mof_C 	C 	0.7454	0.4253	0.6786	-0.116
Mof_C 	C 	0.664	0.4426	0.6763	0.041
Mof_C 	C 	0.5953	0.3994	0.6398	-0.105
Mof_C 	C 	0.6151	0.3441	0.6079	0.064
Mof_C 	C 	0.5183	0.124	0.5227	0.035
Mof_C 	C 	0.4361	0.059	0.5224	-0.098
Mof_C 	C 	0.4117	0.0198	0.5578	0.045
Mof_C 	C 	0.4753	0.0511	0.596	-0.118
Mof_C 	C 	0.562	0.1123	0.5962	0.076
Mof_C 	C 	0.3216	0.9547	0.556	0.085
Mof_C 	C 	0.1624	0.8949	0.533	0.096
Mof_C 	C 	0.2262	0.8546	0.5901	0.103
Mof_C 	C 	0.9212	0.8123	0.4732	0.077
Mof_C 	C 	0.9957	0.8147	0.5029	-0.119
Mof_C 	C 	0.0768	0.881	0.5036	0.045
Mof_C 	C 	0.0786	0.937	0.4758	-0.116
Mof_C 	C 	0.9959	0.9259	0.4494	0.071
Mof_C 	C 	0.271	0.7705	0.692	0.079
Mof_C 	C 	0.2876	0.8117	0.6586	-0.127
Mof_C 	C 	0.2179	0.8004	0.6251	0.071
Mof_C 	C 	0.1382	0.7313	0.6204	-0.116
Mof_C 	C 	0.1296	0.6833	0.6521	0.064
Mof_I 	I 	0.53519	0.75751	0.29261	-0.397
Mof_I 	I 	0.48502	0.54523	0.18541	-0.367
Mof_I 	I 	0.62347	0.35227	0.95937	-0.382
Mof_I 	I 	0.39027	0.27057	0.05817	-0.359
Mof_I 	I 	0.12353	0.76964	0.95147	-0.373
Mof_I 	I 	0.13476	0.95538	0.86703	-0.355
Mof_I 	I 	0.20261	0.7391	0.81328	-0.405
Mof_I 	I 	0.02395	0.52169	0.71392	-0.381
Mof_I 	I 	0.8394	0.20285	0.60323	-0.38
Mof_I 	I 	0.72621	0.29513	0.49228	-0.36
Mof_I 	I 	0.6475	0.76539	0.44045	-0.382
Mof_I 	I 	0.81757	0.96003	0.36782	-0.358
Mof_N 	N 	0.3174	0.656	0.2106	-0.266
Mof_N 	N 	0.9929	0.6517	0.2409	-0.134
Mof_N 	N 	0.8303	0.5773	0.2153	-0.143
Mof_N 	N 	0.9557	0.5546	0.1775	-0.146
Mof_N 	N 	0.8212	0.7615	0.3553	-0.273
Mof_N 	N 	0.6528	0.3696	0.0814	-0.274
Mof_N 	N 	0.5772	0.1964	0.0302	-0.292
Mof_N 	N 	0.7145	0.9828	0.0125	-0.148
Mof_N 	N 	0.7014	0.876	0.0509	-0.141
Mof_N 	N 	0.6062	0.9483	0.0692	-0.141
Mof_N 	N 	0.9599	0.8819	0.9489	-0.269
Mof_N 	N 	0.515	0.7409	0.1692	-0.295
Mof_N 	N 	0.9385	0.76	0.8628	-0.273
Mof_N 	N 	0.632	0.6263	0.7626	-0.133
Mof_N 	N 	0.5666	0.5165	0.7022	-0.143
Mof_N 	N 	0.7262	0.5458	0.7371	-0.137
Mof_N 	N 	0.2954	0.6112	0.7363	-0.276
Mof_N 	N 	0.6939	0.3276	0.6126	-0.272
Mof_N 	N 	0.5869	0.1501	0.562	-0.268
Mof_N 	N 	0.2473	0.9476	0.5269	-0.147
Mof_N 	N 	0.1509	0.8438	0.5611	-0.134
Mof_N 	N 	0.3174	0.9082	0.588	-0.128
Mof_N 	N 	0.914	0.8641	0.4484	-0.27
Mof_N 	N 	0.2009	0.7002	0.6849	-0.271
Mof_Zn	Zn	0.53499	0.32599	0.78499	1.166
Mof_Zn	Zn	0.44359	0.70329	0.97229	1.165
Mof_Zn	Zn	0.95111	0.15642	0.09203	1.164
Mof_Zn	Zn	0.82348	0.35738	0.26048	1.163
Mof_Zn	Zn	0.28563	0.75625	0.43375	1.165
Mof_Zn	Zn	0.20735	0.15863	0.59633	1.165
Mof_H 	H 	0.6657	0.2519	0.7425	-0.013
Mof_H 	H 	0.8295	0.272	0.7431	0.084
Mof_H 	H 	0.8854	0.4569	0.8433	0.083
Mof_H 	H 	0.7214	0.4354	0.8399	-0.007
Mof_H 	H 	0.3095	0.2915	0.6759	-0.012
Mof_H 	H 	0.2756	0.3768	0.7302	0.082
Mof_H 	H 	0.9937	0.2535	0.6931	0.098
Mof_H 	H 	0.0402	0.1797	0.638	-0.008
Mof_H 	H 	0.2364	0.656	0.94	0.002
Mof_H 	H 	0.1244	0.5706	0.8829	0.081
Mof_H 	H 	0.3265	0.5041	0.8254	0.094
Mof_H 	H 	0.4303	0.5887	0.8852	-0.003
Mof_H 	H 	0.3783	0.818	0.0278	-0.017
Mof_H 	H 	0.334	0.9227	0.0286	0.09
Mof_H 	H 	0.4338	0.9316	0.907	0.09
Mof_H 	H 	0.458	0.8184	0.9091	-0.016
Mof_H 	H 	0.0497	0.1956	0.0121	-0.011
Mof_H 	H 	0.1846	0.1889	0.9779	0.083
Mof_H 	H 	0.1514	0.9961	0.0376	0.075
Mof_H 	H 	0.0283	0.0216	0.0733	-0.007
Mof_H 	H 	0.5441	0.1853	0.815	-0.027
Mof_H 	H 	0.4969	0.1067	0.8668	0.084
Mof_H 	H 	0.3437	0.2339	0.9086	0.077
Mof_H 	H 	0.407	0.3154	0.8597	-0.012
Mof_H 	H 	0.14	0.1731	0.1334	-0.009
Mof_H 	H 	0.2712	0.2578	0.1858	0.087
Mof_H 	H 	0.1247	0.4071	0.2037	0.086
Mof_H 	H 	0.0041	0.3172	0.1506	-0.018
Mof_H 	H 	0.747	0.4701	0.3189	-0.012
Mof_H 	H 	0.6036	0.4904	0.3224	0.083
Mof_H 	H 	0.4859	0.3185	0.2156	0.087
Mof_H 	H 	0.6347	0.3102	0.2108	-0.016
Mof_H 	H 	0.1828	0.641	0.3489	-0.002
Mof_H 	H 	0.2056	0.5464	0.2973	0.09
Mof_H 	H 	0.4638	0.593	0.3635	0.081
Mof_H 	H 	0.4299	0.6823	0.4179	0.003
Mof_H 	H 	0.4703	0.8492	0.5021	0.012
Mof_H 	H 	0.6072	0.9604	0.5043	0.071
Mof_H 	H 	0.541	0.9698	0.3773	0.085
Mof_H 	H 	0.3933	0.8716	0.3777	-0.014
Mof_H 	H 	0.1348	0.2346	0.5301	-0.012
Mof_H 	H 	0.0088	0.2245	0.4795	0.082
Mof_H 	H 	0.8637	0.0186	0.5244	0.072
Mof_H 	H 	0.0026	0.0362	0.5687	-0.008
Mof_H 	H 	0.6907	0.2088	0.2799	-0.022
Mof_H 	H 	0.6499	0.1495	0.3417	0.086
Mof_H 	H 	0.9101	0.2833	0.4042	0.083
Mof_H 	H 	0.9276	0.3623	0.3494	-0.007
Mof_C 	C 	0.7121	0.2954	0.7622	0.069
Mof_C 	C 	0.8083	0.3068	0.7622	-0.124
Mof_C 	C 	0.8722	0.371	0.7912	0.064
Mof_C 	C 	0.8407	0.4163	0.8213	-0.124
Mof_C 	C 	0.7441	0.4031	0.8197	0.071
Mof_C 	C 	0.9802	0.3907	0.7917	0.106
Mof_C 	C 	0.1015	0.3651	0.7562	0.096
Mof_C 	C 	0.1329	0.4551	0.818	0.101
Mof_C 	C 	0.2447	0.2882	0.6768	0.078
Mof_C 	C 	0.2245	0.3354	0.7113	-0.137
Mof_C 	C 	0.1306	0.3225	0.7183	0.071
Mof_C 	C 	0.0603	0.265	0.6898	-0.137
Mof_C 	C 	0.0897	0.224	0.6558	0.089
Mof_C 	C 	0.2556	0.6246	0.9175	0.067
Mof_C 	C 	0.189	0.5728	0.8835	-0.117
Mof_C 	C 	0.2103	0.524	0.8503	0.049
Mof_C 	C 	0.3047	0.532	0.8488	-0.132
Mof_C 	C 	0.3651	0.5846	0.8847	0.082
Mof_C 	C 	0.3878	0.8406	0.0014	0.101
Mof_C 	C 	0.3624	0.9048	0.0038	-0.142
Mof_C 	C 	0.3816	0.9404	0.9671	0.073
Mof_C 	C 	0.419	0.9074	0.9327	-0.143
Mof_C 	C 	0.4357	0.8405	0.9348	0.096
Mof_C 	C 	0.3522	0.0111	0.9605	0.095
Mof_C 	C 	0.2634	0.0769	0.978	0.098
Mof_C 	C 	0.3641	0.1091	0.925	0.093
Mof_C 	C 	0.0768	0.1595	0.0194	0.066
Mof_C 	C 	0.1523	0.1527	0.9966	-0.113
Mof_C 	C 	0.1785	0.0906	0.0024	0.053
Mof_C 	C 	0.1338	0.0387	0.0329	-0.123
Mof_C 	C 	0.0634	0.0563	0.0544	0.076
Mof_C 	C 	0.5031	0.1975	0.8356	0.106
Mof_C 	C 	0.4727	0.1471	0.8657	-0.133
Mof_C 	C 	0.4062	0.1564	0.8944	0.053
Mof_C 	C 	0.3872	0.2218	0.8895	-0.123
Mof_C 	C 	0.4245	0.2712	0.8597	0.076
Mof_C 	C 	0.1389	0.2218	0.1481	0.066
Mof_C 	C 	0.2165	0.2702	0.1794	-0.118
Mof_C 	C 	0.2064	0.3389	0.2006	0.069
Mof_C 	C 	0.1291	0.3591	0.1899	-0.143
Mof_C 	C 	0.0589	0.3054	0.158	0.093
Mof_C 	C 	0.2896	0.3919	0.2363	0.091
Mof_C 	C 	0.4368	0.4254	0.2686	0.105
Mof_C 	C 	0.3497	0.4942	0.2928	0.09
Mof_C 	C 	0.6946	0.4407	0.2965	0.082
Mof_C 	C 	0.6089	0.4528	0.2986	-0.131
Mof_C 	C 	0.5315	0.4117	0.2671	0.068
Mof_C 	C 	0.5398	0.3535	0.2358	-0.129
Mof_C 	C 	0.6279	0.3473	0.2345	0.075
Mof_C 	C 	0.2404	0.6311	0.3524	0.065
Mof_C 	C 	0.2546	0.5747	0.3214	-0.116
Mof_C 	C 	0.336	0.5574	0.3237	0.041
Mof_C 	C 	0.4047	0.6006	0.3602	-0.105
Mof_C 	C 	0.3849	0.6559	0.3921	0.064
Mof_C 	C 	0.4817	0.876	0.4773	0.035
Mof_C 	C 	0.5639	0.941	0.4776	-0.098
Mof_C 	C 	0.5883	0.9802	0.4422	0.045
Mof_C 	C 	0.5247	0.9489	0.404	-0.118
Mof_C 	C 	0.438	0.8877	0.4038	0.076
Mof_C 	C 	0.6784	0.0453	0.444	0.085
Mof_C 	C 	0.8376	0.1051	0.467	0.096
Mof_C 	C 	0.7738	0.1454	0.4099	0.103
Mof_C 	C 	0.0788	0.1877	0.5268	0.077
Mof_C 	C 	0.0043	0.1853	0.4971	-0.119
Mof_C 	C 	0.9232	0.119	0.4964	0.045
Mof_C 	C 	0.9214	0.063	0.5242	-0.116
Mof_C 	C 	0.0041	0.0741	0.5506	0.071
Mof_C 	C 	0.729	0.2295	0.308	0.079
Mof_C 	C 	0.7124	0.1883	0.3414	-0.127
Mof_C 	C 	0.7821	0.1996	0.3749	0.071
Mof_C 	C 	0.8618	0.2687	0.3796	-0.116
Mof_C 	C 	0.8704	0.3167	0.3479	0.064
Mof_I 	I 	0.46481	0.24249	0.70739	-0.397
Mof_I 	I 	0.51498	0.45477	0.81459	-0.367
Mof_I 	I 	0.37653	0.64773	0.04063	-0.382
Mof_I 	I 	0.60973	0.72943	0.94183	-0.359
Mof_I 	I 	0.87647	0.23036	0.04853	-0.373
Mof_I 	I 	0.86524	0.04462	0.13297	-0.355
Mof_I 	I 	0.79739	0.2609	0.18672	-0.405
Mof_I 	I 	0.97605	0.47831	0.28608	-0.381
Mof_I 	I 	0.1606	0.79715	0.39677	-0.38
Mof_I 	I 	0.27379	0.70487	0.50772	-0.36
Mof_I 	I 	0.3525	0.23461	0.55955	-0.382
Mof_I 	I 	0.18243	0.03997	0.63218	-0.358
Mof_N 	N 	0.6826	0.344	0.7894	-0.266
Mof_N 	N 	0.0071	0.3483	0.7591	-0.134
Mof_N 	N 	0.1697	0.4227	0.7847	-0.143
Mof_N 	N 	0.0443	0.4454	0.8225	-0.146
Mof_N 	N 	0.1788	0.2385	0.6447	-0.273
Mof_N 	N 	0.3472	0.6304	0.9186	-0.274
Mof_N 	N 	0.4228	0.8036	0.9698	-0.292
Mof_N 	N 	0.2855	0.0172	0.9875	-0.148
Mof_N 	N 	0.2986	0.124	0.9491	-0.141
Mof_N 	N 	0.3938	0.0517	0.9308	-0.141
Mof_N 	N 	0.0401	0.1181	0.0511	-0.269
Mof_N 	N 	0.485	0.2591	0.8308	-0.295
Mof_N 	N 	0.0615	0.24	0.1372	-0.273
Mof_N 	N 	0.368	0.3737	0.2374	-0.133
Mof_N 	N 	0.4334	0.4835	0.2978	-0.143
Mof_N 	N 	0.2738	0.4542	0.2629	-0.137
Mof_N 	N 	0.7046	0.3888	0.2637	-0.276
Mof_N 	N 	0.3061	0.6724	0.3874	-0.272
Mof_N 	N 	0.4131	0.8499	0.438	-0.268
Mof_N 	N 	0.7527	0.0524	0.4731	-0.147
Mof_N 	N 	0.8491	0.1562	0.4389	-0.134
Mof_N 	N 	0.6826	0.0918	0.412	-0.128
Mof_N 	N 	0.086	0.1359	0.5516	-0.27
Mof_N 	N 	0.7991	0.2998	0.3151	-0.271
_end
