# CIF file generated by openbabel 3.1.0, see https://openbabel.org
data_I
_chemical_name_common 'image0'
_cell_length_a 13.6823
_cell_length_b 12.6063
_cell_length_c 12.7535
_cell_angle_alpha 90
_cell_angle_beta 116.988
_cell_angle_gamma 90
_space_group_name_H-M_alt 'P 1'
_space_group_name_Hall 'P 1'
loop_
    _symmetry_equiv_pos_as_xyz
    x,y,z
loop_
    _atom_site_label
    _atom_site_type_symbol
    _atom_site_fract_x
    _atom_site_fract_y
    _atom_site_fract_z
    _atom_site_occupancy
    F1       F        0.18940    0.09120    0.12580    1.000
    F2       F        0.16700    0.40200    0.13890    1.000
    Fe1      Fe       0.18006    0.24542    0.12798    1.000
    Fe2      Fe       0.69238    0.25105    0.30898    1.000
    Fe3      Fe       0.26061    0.99931    0.04243    1.000
    Co1      Co       0.25234    0.49943    0.28919    1.000
    O1       O        0.20300    0.23060    0.29370    1.000
    O2       O        0.15930    0.23580    0.46490    1.000
    O3       O        0.34170    0.25290    0.18690    1.000
    O4       O        0.01950    0.23730    0.07310    1.000
    O5       O        0.31250    0.73210    0.84780    1.000
    O6       O        0.53600    0.22640    0.24140    1.000
    O7       O        0.29400    0.73730    0.03080    1.000
    O8       O        0.85480    0.22920    0.87780    1.000
    F3       F        0.32490    0.90290    0.19060    1.000
    F4       F        0.27570    0.59960    0.18160    1.000
    O9       O        0.32100    0.90940    0.94330    1.000
    O10      O        0.88200    0.08960    0.03550    1.000
    O11      O        0.40570    0.08040    0.13300    1.000
    O12      O        0.20330    0.40610    0.38890    1.000
    P1       P        0.15311    0.29538    0.35831    1.000
    P2       P        0.34674    0.79149    0.96213    1.000
    P3       P        0.93561    0.16221    0.98099    1.000
    P4       P        0.42255    0.19829    0.15185    1.000
    H1       H        0.04800    0.30800    0.28500    1.000
    H2       H        0.45400    0.78170    0.02500    1.000
    H3       H        0.99000    0.10200    0.94100    1.000
    H4       H        0.40800    0.23300    0.04900    1.000
    O13      O        0.02700    0.30600    0.26700    1.000
    O14      O        0.46900    0.77500    0.02500    1.000
    O15      O        0.97500    0.10300    0.90400    1.000
    F5       F        0.81060    0.59120    0.37420    1.000
    F6       F        0.83300    0.90200    0.36110    1.000
    Fe4      Fe       0.81994    0.74542    0.37202    1.000
    Fe5      Fe       0.30762    0.75105    0.19102    1.000
    Fe6      Fe       0.73939    0.49931    0.45757    1.000
    Co2      Co       0.74766    0.99943    0.21081    1.000
    O16      O        0.79700    0.73060    0.20630    1.000
    O17      O        0.84070    0.73580    0.03510    1.000
    O18      O        0.65830    0.75290    0.31310    1.000
    O19      O        0.98050    0.73730    0.42690    1.000
    O20      O        0.68750    0.23210    0.65220    1.000
    O21      O        0.46400    0.72640    0.25860    1.000
    O22      O        0.70600    0.23730    0.46920    1.000
    O23      O        0.14520    0.72920    0.62220    1.000
    F7       F        0.67510    0.40290    0.30940    1.000
    F8       F        0.72430    0.09960    0.31840    1.000
    O24      O        0.67900    0.40940    0.55670    1.000
    O25      O        0.11800    0.58960    0.46450    1.000
    O26      O        0.59430    0.58040    0.36700    1.000
    O27      O        0.79670    0.90610    0.11110    1.000
    P5       P        0.84689    0.79538    0.14169    1.000
    P6       P        0.65326    0.29149    0.53787    1.000
    P7       P        0.06439    0.66221    0.51901    1.000
    P8       P        0.57745    0.69829    0.34815    1.000
    H5       H        0.95200    0.80800    0.21500    1.000
    H6       H        0.54600    0.28170    0.47500    1.000
    H7       H        0.01000    0.60200    0.55900    1.000
    H8       H        0.59200    0.73300    0.45100    1.000
    O28      O        0.97300    0.80600    0.23300    1.000
    O29      O        0.53100    0.27500    0.47500    1.000
    O30      O        0.02500    0.60300    0.59600    1.000
    F9       F        0.81060    0.90880    0.87420    1.000
    F10      F        0.83300    0.59800    0.86110    1.000
    Fe7      Fe       0.81994    0.75458    0.87202    1.000
    Fe8      Fe       0.30762    0.74895    0.69102    1.000
    Fe9      Fe       0.73939    0.00069    0.95757    1.000
    Co3      Co       0.74766    0.50057    0.71081    1.000
    O31      O        0.79700    0.76940    0.70630    1.000
    O32      O        0.84070    0.76420    0.53510    1.000
    O33      O        0.65830    0.74710    0.81310    1.000
    O34      O        0.98050    0.76270    0.92690    1.000
    O35      O        0.68750    0.26790    0.15220    1.000
    O36      O        0.46400    0.77360    0.75860    1.000
    O37      O        0.70600    0.26270    0.96920    1.000
    O38      O        0.14520    0.77080    0.12220    1.000
    F11      F        0.67510    0.09710    0.80940    1.000
    F12      F        0.72430    0.40040    0.81840    1.000
    O39      O        0.67900    0.09060    0.05670    1.000
    O40      O        0.11800    0.91040    0.96450    1.000
    O41      O        0.59430    0.91960    0.86700    1.000
    O42      O        0.79670    0.59390    0.61110    1.000
    P9       P        0.84689    0.70462    0.64169    1.000
    P10      P        0.65326    0.20851    0.03787    1.000
    P11      P        0.06439    0.83779    0.01901    1.000
    P12      P        0.57745    0.80171    0.84815    1.000
    H9       H        0.95200    0.69200    0.71500    1.000
    H10      H        0.54600    0.21830    0.97500    1.000
    H11      H        0.01000    0.89800    0.05900    1.000
    H12      H        0.59200    0.76700    0.95100    1.000
    O43      O        0.97300    0.69400    0.73300    1.000
    O44      O        0.53100    0.22500    0.97500    1.000
    O45      O        0.02500    0.89700    0.09600    1.000
    F13      F        0.18940    0.40880    0.62580    1.000
    F14      F        0.16700    0.09800    0.63890    1.000
    Fe10     Fe       0.18006    0.25458    0.62798    1.000
    Fe11     Fe       0.69238    0.24895    0.80898    1.000
    Fe12     Fe       0.26061    0.50069    0.54243    1.000
    Co4      Co       0.25234    0.00057    0.78919    1.000
    O46      O        0.20300    0.26940    0.79370    1.000
    O47      O        0.15930    0.26420    0.96490    1.000
    O48      O        0.34170    0.24710    0.68690    1.000
    O49      O        0.01950    0.26270    0.57310    1.000
    O50      O        0.31250    0.76790    0.34780    1.000
    O51      O        0.53600    0.27360    0.74140    1.000
    O52      O        0.29400    0.76270    0.53080    1.000
    O53      O        0.85480    0.27080    0.37780    1.000
    F15      F        0.32490    0.59710    0.69060    1.000
    F16      F        0.27570    0.90040    0.68160    1.000
    O54      O        0.32100    0.59060    0.44330    1.000
    O55      O        0.88200    0.41040    0.53550    1.000
    O56      O        0.40570    0.41960    0.63300    1.000
    O57      O        0.20330    0.09390    0.88890    1.000
    P13      P        0.15311    0.20462    0.85831    1.000
    P14      P        0.34674    0.70851    0.46213    1.000
    P15      P        0.93561    0.33779    0.48099    1.000
    P16      P        0.42255    0.30171    0.65185    1.000
    H13      H        0.04800    0.19200    0.78500    1.000
    H14      H        0.45400    0.71830    0.52500    1.000
    H15      H        0.99000    0.39800    0.44100    1.000
    H16      H        0.40800    0.26700    0.54900    1.000
    O58      O        0.02700    0.19400    0.76700    1.000
    O59      O        0.46900    0.72500    0.52500    1.000
    O60      O        0.97500    0.39700    0.40400    1.000
