data_functionalizedCrystal
_audit_creation_method	'EQeq! by Chris Wilmer'
_symmetry_space_group_name_H-M	'P1'
_symmetry_Int_Tables_number	1
_symmetry_cell_setting	triclinic
loop_
_symmetry_equiv_pos_as_xyz
  x,y,z
_cell_length_a	9.001
_cell_length_b	11.966
_cell_length_c	15.106
_cell_angle_alpha	90
_cell_angle_beta	99.66
_cell_angle_gamma	90
loop_
_atom_site_label
_atom_site_type_symbol
_atom_site_fract_x
_atom_site_fract_y
_atom_site_fract_z
_atom_site_charge
Mof_Fe	Fe	0.14982	0.41598	0.03243	0.69
Mof_Na	Na	0.75706	0.46918	0.17119	2.744
Mof_O 	O 	0.7619	0.2756	0.1088	-0.544
Mof_O 	O 	0.9413	0.3943	0.08625	-0.597
Mof_O 	O 	0.218	0.2793	0.11365	-0.412
Mof_O 	O 	0.0891	0.5234	0.92495	-0.387
Mof_O 	O 	0.3796	0.4765	0.0639	-0.439
Mof_O 	O 	0.923	0.5637	0.80383	-0.707
Mof_O 	O 	0.3811	0.141	0.14528	-0.627
Mof_O 	O 	0.6048	0.4963	0.02336	-0.65
Mof_N 	N 	0.9787	0.3068	0.93105	-0.062
Mof_N 	N 	0.2964	0.3155	0.94373	-0.113
Mof_C 	C 	0.0569	0.2309	0.8759	-0.168
Mof_H 	H 	0.9915	0.2159	0.8193	0.049
Mof_H 	H 	0.0785	0.1605	0.9071	0.058
Mof_C 	C 	0.2023	0.2823	0.8579	0.037
Mof_H 	H 	0.2565	0.2288	0.8271	-0.049
Mof_H 	H 	0.1803	0.3474	0.8196	-0.016
Mof_C 	C 	0.8854	0.2421	0.9845	0.001
Mof_H 	H 	0.9354	0.1722	0.0035	-0.011
Mof_H 	H 	0.7891	0.2248	0.9478	0.05
Mof_C 	C 	0.86	0.3083	0.0664	0.241
Mof_C 	C 	0.3188	0.212	0.0932	0.303
Mof_C 	C 	0.3583	0.2181	0.9989	-0.026
Mof_H 	H 	0.4672	0.2192	0.0041	-0.021
Mof_H 	H 	0.3224	0.1504	0.9669	0.033
Mof_C 	C 	0.8883	0.393	0.8756	-0.305
Mof_H 	H 	0.8	0.4099	0.9021	0.083
Mof_H 	H 	0.8538	0.3625	0.8162	0.029
Mof_C 	C 	0.9733	0.5006	0.8663	0.504
Mof_C 	C 	0.4185	0.3917	0.9282	-0.167
Mof_H 	H 	0.3813	0.4418	0.879	0.061
Mof_H 	H 	0.5007	0.3485	0.9114	0.07
Mof_C 	C 	0.4759	0.4592	0.0115	0.336
Mof_Fe	Fe	0.64982	0.91598	0.03243	0.711
Mof_Na	Na	0.25706	0.96918	0.17119	2.72
Mof_O 	O 	0.2619	0.7756	0.1088	-0.547
Mof_O 	O 	0.4413	0.8943	0.08625	-0.605
Mof_O 	O 	0.718	0.7793	0.11365	-0.405
Mof_O 	O 	0.5891	0.0234	0.92495	-0.361
Mof_O 	O 	0.8796	0.9765	0.0639	-0.438
Mof_O 	O 	0.423	0.0637	0.80383	-0.697
Mof_O 	O 	0.8811	0.641	0.14528	-0.621
Mof_O 	O 	0.1048	0.9963	0.02336	-0.67
Mof_N 	N 	0.4787	0.8068	0.93105	-0.093
Mof_N 	N 	0.7964	0.8155	0.94373	-0.112
Mof_C 	C 	0.5569	0.7309	0.8759	-0.064
Mof_H 	H 	0.4915	0.7159	0.8193	0
Mof_H 	H 	0.5785	0.6605	0.9071	0.038
Mof_C 	C 	0.7023	0.7823	0.8579	-0.009
Mof_H 	H 	0.7565	0.7288	0.8271	-0.03
Mof_H 	H 	0.6803	0.8474	0.8196	0.008
Mof_C 	C 	0.3854	0.7421	0.9845	0.031
Mof_H 	H 	0.4354	0.6722	0.0035	-0.033
Mof_H 	H 	0.2891	0.7248	0.9478	0.04
Mof_C 	C 	0.36	0.8083	0.0664	0.227
Mof_C 	C 	0.8188	0.712	0.0932	0.298
Mof_C 	C 	0.8583	0.7181	0.9989	-0.012
Mof_H 	H 	0.9672	0.7192	0.0041	-0.019
Mof_H 	H 	0.8224	0.6504	0.9669	0.034
Mof_C 	C 	0.3883	0.893	0.8756	-0.277
Mof_H 	H 	0.3	0.9099	0.9021	0.076
Mof_H 	H 	0.3538	0.8625	0.8162	0.021
Mof_C 	C 	0.4733	0.0006	0.8663	0.455
Mof_C 	C 	0.9185	0.8917	0.9282	-0.123
Mof_H 	H 	0.8813	0.9418	0.879	0.057
Mof_H 	H 	0.0007	0.8485	0.9114	0.038
Mof_C 	C 	0.9759	0.9592	0.0115	0.355
Mof_Fe	Fe	0.14982	0.58402	0.53243	0.784
Mof_Na	Na	0.75706	0.53082	0.67119	2.771
Mof_O 	O 	0.7619	0.7244	0.6088	-0.573
Mof_O 	O 	0.9413	0.6057	0.58625	-0.62
Mof_O 	O 	0.218	0.7207	0.61365	-0.438
Mof_O 	O 	0.0891	0.4766	0.42495	-0.436
Mof_O 	O 	0.3796	0.5235	0.5639	-0.454
Mof_O 	O 	0.923	0.4363	0.30383	-0.711
Mof_O 	O 	0.3811	0.859	0.64528	-0.653
Mof_O 	O 	0.6048	0.5037	0.52336	-0.652
Mof_N 	N 	0.9787	0.6932	0.43105	-0.05
Mof_N 	N 	0.2964	0.6845	0.44373	-0.089
Mof_C 	C 	0.0569	0.7691	0.3759	-0.171
Mof_H 	H 	0.9915	0.7841	0.3193	0.049
Mof_H 	H 	0.0785	0.8395	0.4071	0.042
Mof_C 	C 	0.2023	0.7177	0.3579	0.022
Mof_H 	H 	0.2565	0.7712	0.3271	-0.044
Mof_H 	H 	0.1803	0.6526	0.3196	-0.014
Mof_C 	C 	0.8854	0.7579	0.4845	-0.256
Mof_H 	H 	0.9354	0.8278	0.5035	0.112
Mof_H 	H 	0.7891	0.7752	0.4478	0.106
Mof_C 	C 	0.86	0.6917	0.5664	0.366
Mof_C 	C 	0.3188	0.788	0.5932	0.426
Mof_C 	C 	0.3583	0.7819	0.4989	-0.294
Mof_H 	H 	0.4672	0.7808	0.5041	0.111
Mof_H 	H 	0.3224	0.8496	0.4669	0.094
Mof_C 	C 	0.8883	0.607	0.3756	-0.32
Mof_H 	H 	0.8	0.5901	0.4021	0.072
Mof_H 	H 	0.8538	0.6375	0.3162	0.033
Mof_C 	C 	0.9733	0.4994	0.3663	0.508
Mof_C 	C 	0.4185	0.6083	0.4282	-0.283
Mof_H 	H 	0.3813	0.5582	0.379	0.084
Mof_H 	H 	0.5007	0.6515	0.4114	0.086
Mof_C 	C 	0.4759	0.5408	0.5115	0.422
Mof_Fe	Fe	0.64982	0.08402	0.53243	0.804
Mof_Na	Na	0.25706	0.03082	0.67119	2.723
Mof_O 	O 	0.2619	0.2244	0.6088	-0.578
Mof_O 	O 	0.4413	0.1057	0.58625	-0.629
Mof_O 	O 	0.718	0.2207	0.61365	-0.434
Mof_O 	O 	0.5891	0.9766	0.42495	-0.405
Mof_O 	O 	0.8796	0.0235	0.5639	-0.455
Mof_O 	O 	0.423	0.9363	0.30383	-0.706
Mof_O 	O 	0.8811	0.359	0.64528	-0.655
Mof_O 	O 	0.1048	0.0037	0.52336	-0.673
Mof_N 	N 	0.4787	0.1932	0.43105	-0.078
Mof_N 	N 	0.7964	0.1845	0.44373	-0.087
Mof_C 	C 	0.5569	0.2691	0.3759	-0.065
Mof_H 	H 	0.4915	0.2841	0.3193	-0.001
Mof_H 	H 	0.5785	0.3395	0.4071	0.018
Mof_C 	C 	0.7023	0.2177	0.3579	-0.027
Mof_H 	H 	0.7565	0.2712	0.3271	-0.025
Mof_H 	H 	0.6803	0.1526	0.3196	0.008
Mof_C 	C 	0.3854	0.2579	0.4845	-0.251
Mof_H 	H 	0.4354	0.3278	0.5035	0.1
Mof_H 	H 	0.2891	0.2752	0.4478	0.101
Mof_C 	C 	0.36	0.1917	0.5664	0.363
Mof_C 	C 	0.8188	0.288	0.5932	0.43
Mof_C 	C 	0.8583	0.2819	0.4989	-0.297
Mof_H 	H 	0.9672	0.2808	0.5041	0.121
Mof_H 	H 	0.8224	0.3496	0.4669	0.096
Mof_C 	C 	0.3883	0.107	0.3756	-0.309
Mof_H 	H 	0.3	0.0901	0.4021	0.067
Mof_H 	H 	0.3538	0.1375	0.3162	0.027
Mof_C 	C 	0.4733	0.9994	0.3663	0.474
Mof_C 	C 	0.9185	0.1083	0.4282	-0.241
Mof_H 	H 	0.8813	0.0582	0.379	0.077
Mof_H 	H 	0.0007	0.1515	0.4114	0.052
Mof_C 	C 	0.9759	0.0408	0.5115	0.444
_end
