# CIF file generated by openbabel 3.1.0, see https://openbabel.org
data_I
_chemical_name_common 'image0'
_cell_length_a 30.778
_cell_length_b 15.587
_cell_length_c 22.103
_cell_angle_alpha 90
_cell_angle_beta 132.995
_cell_angle_gamma 90
_space_group_name_H-M_alt 'P 1'
_space_group_name_Hall 'P 1'
loop_
    _symmetry_equiv_pos_as_xyz
    x,y,z
loop_
    _atom_site_label
    _atom_site_type_symbol
    _atom_site_fract_x
    _atom_site_fract_y
    _atom_site_fract_z
    _atom_site_occupancy
    O1       O        0.94370    0.15100    0.07850    1.000
    O2       O        0.86500    0.96920    0.88220    1.000
    O3       O        0.88860    0.88620    0.71630    1.000
    O4       O        0.72300    0.34510    0.79520    1.000
    O5       O        0.02070    0.22240    0.11670    1.000
    O6       O        0.82370    0.09500    0.87100    1.000
    O7       O        0.75510    0.23400    0.87540    1.000
    O8       O        0.85330    0.95200    0.60260    1.000
    N1       N        0.84120    0.99680    0.74560    1.000
    N2       N        0.86680    0.27050    0.96470    1.000
    La1      La       0.83093    0.12717    0.98695    1.000
    La2      La       0.89000    0.85695    0.82964    1.000
    C1       C        0.81630    0.05200    0.76100    1.000
    C2       C        0.77490    0.11520    0.70550    1.000
    H1       H        0.75590    0.15040    0.71540    1.000
    C3       C        0.76500    0.12000    0.63300    1.000
    H2       H        0.73750    0.16130    0.59420    1.000
    C4       C        0.78760    0.07700    0.61600    1.000
    H3       H        0.77940    0.08680    0.56800    1.000
    C5       C        0.82910    0.00800    0.67400    1.000
    C6       C        0.83970    0.03600    0.84880    1.000
    C7       C        0.85940    0.94800    0.66360    1.000
    C8       C        0.92370    0.28500    0.01200    1.000
    C9       C        0.94280    0.35600    0.00000    1.000
    H4       H        0.98330    0.36390    0.03200    1.000
    C10      C        0.90420    0.41400    0.94210    1.000
    H5       H        0.91720    0.46330    0.93510    1.000
    C11      C        0.84400    0.39800    0.89300    1.000
    H6       H        0.81570    0.43770    0.85360    1.000
    C12      C        0.82550    0.32400    0.90200    1.000
    C13      C        0.96720    0.21400    0.07700    1.000
    C14      C        0.76090    0.30000    0.85200    1.000
    W1       W        0.05289    0.63581    0.44889    1.000
    W2       W        0.92446    0.52400    0.29000    1.000
    W3       W        0.12765    0.52431    0.40849    1.000
    W4       W        0.92366    0.74750    0.29010    1.000
    W5       W        0.12993    0.74712    0.40853    1.000
    O9       O        0.96870    0.43700    0.29620    1.000
    O10      O        0.10240    0.71890    0.45890    1.000
    O11      O        0.07370    0.43400    0.35500    1.000
    O12      O        0.86730    0.51000    0.17100    1.000
    O13      O        0.10240    0.55600    0.46200    1.000
    O14      O        0.89560    0.64000    0.27810    1.000
    O15      O        0.99430    0.72200    0.39800    1.000
    O16      O        0.99470    0.55230    0.40120    1.000
    O17      O        0.96200    0.71100    0.23400    1.000
    O18      O        0.16000    0.64000    0.43020    1.000
    O19      O        0.96600    0.84200    0.29400    1.000
    O20      O        0.07700    0.84000    0.36100    1.000
    O21      O        0.86530    0.75600    0.17200    1.000
    O22      O        0.94900    0.64000    0.16100    1.000
    O23      O        0.03940    0.55300    0.27200    1.000
    O24      O        0.98410    0.63500    0.29900    1.000
    O25      O        0.44370    0.65100    0.07850    1.000
    O26      O        0.36500    0.46920    0.88220    1.000
    O27      O        0.38860    0.38620    0.71630    1.000
    O28      O        0.22300    0.84510    0.79520    1.000
    O29      O        0.52070    0.72240    0.11670    1.000
    O30      O        0.32370    0.59500    0.87100    1.000
    O31      O        0.25510    0.73400    0.87540    1.000
    O32      O        0.35330    0.45200    0.60260    1.000
    N3       N        0.34120    0.49680    0.74560    1.000
    N4       N        0.36680    0.77050    0.96470    1.000
    La3      La       0.33093    0.62717    0.98695    1.000
    La4      La       0.39000    0.35695    0.82964    1.000
    C15      C        0.31630    0.55200    0.76100    1.000
    C16      C        0.27490    0.61520    0.70550    1.000
    H7       H        0.25590    0.65040    0.71540    1.000
    C17      C        0.26500    0.62000    0.63300    1.000
    H8       H        0.23750    0.66130    0.59420    1.000
    C18      C        0.28760    0.57700    0.61600    1.000
    H9       H        0.27940    0.58680    0.56800    1.000
    C19      C        0.32910    0.50800    0.67400    1.000
    C20      C        0.33970    0.53600    0.84880    1.000
    C21      C        0.35940    0.44800    0.66360    1.000
    C22      C        0.42370    0.78500    0.01200    1.000
    C23      C        0.44280    0.85600    0.00000    1.000
    H10      H        0.48330    0.86390    0.03200    1.000
    C24      C        0.40420    0.91400    0.94210    1.000
    H11      H        0.41720    0.96330    0.93510    1.000
    C25      C        0.34400    0.89800    0.89300    1.000
    H12      H        0.31570    0.93770    0.85360    1.000
    C26      C        0.32550    0.82400    0.90200    1.000
    C27      C        0.46720    0.71400    0.07700    1.000
    C28      C        0.26090    0.80000    0.85200    1.000
    W6       W        0.55289    0.13581    0.44889    1.000
    W7       W        0.42446    0.02400    0.29000    1.000
    W8       W        0.62765    0.02431    0.40849    1.000
    W9       W        0.42366    0.24750    0.29010    1.000
    W10      W        0.62993    0.24712    0.40853    1.000
    O33      O        0.46870    0.93700    0.29620    1.000
    O34      O        0.60240    0.21890    0.45890    1.000
    O35      O        0.57370    0.93400    0.35500    1.000
    O36      O        0.36730    0.01000    0.17100    1.000
    O37      O        0.60240    0.05600    0.46200    1.000
    O38      O        0.39560    0.14000    0.27810    1.000
    O39      O        0.49430    0.22200    0.39800    1.000
    O40      O        0.49470    0.05230    0.40120    1.000
    O41      O        0.46200    0.21100    0.23400    1.000
    O42      O        0.66000    0.14000    0.43020    1.000
    O43      O        0.46600    0.34200    0.29400    1.000
    O44      O        0.57700    0.34000    0.36100    1.000
    O45      O        0.36530    0.25600    0.17200    1.000
    O46      O        0.44900    0.14000    0.16100    1.000
    O47      O        0.53940    0.05300    0.27200    1.000
    O48      O        0.48410    0.13500    0.29900    1.000
    O49      O        0.05630    0.15100    0.42150    1.000
    O50      O        0.13500    0.96920    0.61780    1.000
    O51      O        0.11140    0.88620    0.78370    1.000
    O52      O        0.27700    0.34510    0.70480    1.000
    O53      O        0.97930    0.22240    0.38330    1.000
    O54      O        0.17630    0.09500    0.62900    1.000
    O55      O        0.24490    0.23400    0.62460    1.000
    O56      O        0.14670    0.95200    0.89740    1.000
    N5       N        0.15880    0.99680    0.75440    1.000
    N6       N        0.13320    0.27050    0.53530    1.000
    La5      La       0.16907    0.12717    0.51305    1.000
    La6      La       0.11000    0.85695    0.67036    1.000
    C29      C        0.18370    0.05200    0.73900    1.000
    C30      C        0.22510    0.11520    0.79450    1.000
    H13      H        0.24410    0.15040    0.78460    1.000
    C31      C        0.23500    0.12000    0.86700    1.000
    H14      H        0.26250    0.16130    0.90580    1.000
    C32      C        0.21240    0.07700    0.88400    1.000
    H15      H        0.22060    0.08680    0.93200    1.000
    C33      C        0.17090    0.00800    0.82600    1.000
    C34      C        0.16030    0.03600    0.65120    1.000
    C35      C        0.14060    0.94800    0.83640    1.000
    C36      C        0.07630    0.28500    0.48800    1.000
    C37      C        0.05720    0.35600    0.50000    1.000
    H16      H        0.01670    0.36390    0.46800    1.000
    C38      C        0.09580    0.41400    0.55790    1.000
    H17      H        0.08280    0.46330    0.56490    1.000
    C39      C        0.15600    0.39800    0.60700    1.000
    H18      H        0.18430    0.43770    0.64640    1.000
    C40      C        0.17450    0.32400    0.59800    1.000
    C41      C        0.03280    0.21400    0.42300    1.000
    C42      C        0.23910    0.30000    0.64800    1.000
    W11      W        0.94711    0.63581    0.05111    1.000
    W12      W        0.07554    0.52400    0.21000    1.000
    W13      W        0.87235    0.52431    0.09151    1.000
    W14      W        0.07634    0.74750    0.20990    1.000
    W15      W        0.87007    0.74712    0.09147    1.000
    O57      O        0.03130    0.43700    0.20380    1.000
    O58      O        0.89760    0.71890    0.04110    1.000
    O59      O        0.92630    0.43400    0.14500    1.000
    O60      O        0.13270    0.51000    0.32900    1.000
    O61      O        0.89760    0.55600    0.03800    1.000
    O62      O        0.10440    0.64000    0.22190    1.000
    O63      O        0.00570    0.72200    0.10200    1.000
    O64      O        0.00530    0.55230    0.09880    1.000
    O65      O        0.03800    0.71100    0.26600    1.000
    O66      O        0.84000    0.64000    0.06980    1.000
    O67      O        0.03400    0.84200    0.20600    1.000
    O68      O        0.92300    0.84000    0.13900    1.000
    O69      O        0.13470    0.75600    0.32800    1.000
    O70      O        0.05100    0.64000    0.33900    1.000
    O71      O        0.96060    0.55300    0.22800    1.000
    O72      O        0.01590    0.63500    0.20100    1.000
    O73      O        0.55630    0.65100    0.42150    1.000
    O74      O        0.63500    0.46920    0.61780    1.000
    O75      O        0.61140    0.38620    0.78370    1.000
    O76      O        0.77700    0.84510    0.70480    1.000
    O77      O        0.47930    0.72240    0.38330    1.000
    O78      O        0.67630    0.59500    0.62900    1.000
    O79      O        0.74490    0.73400    0.62460    1.000
    O80      O        0.64670    0.45200    0.89740    1.000
    N7       N        0.65880    0.49680    0.75440    1.000
    N8       N        0.63320    0.77050    0.53530    1.000
    La7      La       0.66907    0.62717    0.51305    1.000
    La8      La       0.61000    0.35695    0.67036    1.000
    C43      C        0.68370    0.55200    0.73900    1.000
    C44      C        0.72510    0.61520    0.79450    1.000
    H19      H        0.74410    0.65040    0.78460    1.000
    C45      C        0.73500    0.62000    0.86700    1.000
    H20      H        0.76250    0.66130    0.90580    1.000
    C46      C        0.71240    0.57700    0.88400    1.000
    H21      H        0.72060    0.58680    0.93200    1.000
    C47      C        0.67090    0.50800    0.82600    1.000
    C48      C        0.66030    0.53600    0.65120    1.000
    C49      C        0.64060    0.44800    0.83640    1.000
    C50      C        0.57630    0.78500    0.48800    1.000
    C51      C        0.55720    0.85600    0.50000    1.000
    H22      H        0.51670    0.86390    0.46800    1.000
    C52      C        0.59580    0.91400    0.55790    1.000
    H23      H        0.58280    0.96330    0.56490    1.000
    C53      C        0.65600    0.89800    0.60700    1.000
    H24      H        0.68430    0.93770    0.64640    1.000
    C54      C        0.67450    0.82400    0.59800    1.000
    C55      C        0.53280    0.71400    0.42300    1.000
    C56      C        0.73910    0.80000    0.64800    1.000
    W16      W        0.44711    0.13581    0.05111    1.000
    W17      W        0.57554    0.02400    0.21000    1.000
    W18      W        0.37235    0.02431    0.09151    1.000
    W19      W        0.57634    0.24750    0.20990    1.000
    W20      W        0.37007    0.24712    0.09147    1.000
    O81      O        0.53130    0.93700    0.20380    1.000
    O82      O        0.39760    0.21890    0.04110    1.000
    O83      O        0.42630    0.93400    0.14500    1.000
    O84      O        0.63270    0.01000    0.32900    1.000
    O85      O        0.39760    0.05600    0.03800    1.000
    O86      O        0.60440    0.14000    0.22190    1.000
    O87      O        0.50570    0.22200    0.10200    1.000
    O88      O        0.50530    0.05230    0.09880    1.000
    O89      O        0.53800    0.21100    0.26600    1.000
    O90      O        0.34000    0.14000    0.06980    1.000
    O91      O        0.53400    0.34200    0.20600    1.000
    O92      O        0.42300    0.34000    0.13900    1.000
    O93      O        0.63470    0.25600    0.32800    1.000
    O94      O        0.55100    0.14000    0.33900    1.000
    O95      O        0.46060    0.05300    0.22800    1.000
    O96      O        0.51590    0.13500    0.20100    1.000
    O97      O        0.05630    0.84900    0.92150    1.000
    O98      O        0.13500    0.03080    0.11780    1.000
    O99      O        0.11140    0.11380    0.28370    1.000
    O100     O        0.27700    0.65490    0.20480    1.000
    O101     O        0.97930    0.77760    0.88330    1.000
    O102     O        0.17630    0.90500    0.12900    1.000
    O103     O        0.24490    0.76600    0.12460    1.000
    O104     O        0.14670    0.04800    0.39740    1.000
    N9       N        0.15880    0.00320    0.25440    1.000
    N10      N        0.13320    0.72950    0.03530    1.000
    La9      La       0.16907    0.87283    0.01305    1.000
    La10     La       0.11000    0.14305    0.17036    1.000
    C57      C        0.18370    0.94800    0.23900    1.000
    C58      C        0.22510    0.88480    0.29450    1.000
    H25      H        0.24410    0.84960    0.28460    1.000
    C59      C        0.23500    0.88000    0.36700    1.000
    H26      H        0.26250    0.83870    0.40580    1.000
    C60      C        0.21240    0.92300    0.38400    1.000
    H27      H        0.22060    0.91320    0.43200    1.000
    C61      C        0.17090    0.99200    0.32600    1.000
    C62      C        0.16030    0.96400    0.15120    1.000
    C63      C        0.14060    0.05200    0.33640    1.000
    C64      C        0.07630    0.71500    0.98800    1.000
    C65      C        0.05720    0.64400    0.00000    1.000
    H28      H        0.01670    0.63610    0.96800    1.000
    C66      C        0.09580    0.58600    0.05790    1.000
    H29      H        0.08280    0.53670    0.06490    1.000
    C67      C        0.15600    0.60200    0.10700    1.000
    H30      H        0.18430    0.56230    0.14640    1.000
    C68      C        0.17450    0.67600    0.09800    1.000
    C69      C        0.03280    0.78600    0.92300    1.000
    C70      C        0.23910    0.70000    0.14800    1.000
    W21      W        0.94711    0.36419    0.55111    1.000
    W22      W        0.07554    0.47600    0.71000    1.000
    W23      W        0.87235    0.47569    0.59151    1.000
    W24      W        0.07634    0.25250    0.70990    1.000
    W25      W        0.87007    0.25288    0.59147    1.000
    O105     O        0.03130    0.56300    0.70380    1.000
    O106     O        0.89760    0.28110    0.54110    1.000
    O107     O        0.92630    0.56600    0.64500    1.000
    O108     O        0.13270    0.49000    0.82900    1.000
    O109     O        0.89760    0.44400    0.53800    1.000
    O110     O        0.10440    0.36000    0.72190    1.000
    O111     O        0.00570    0.27800    0.60200    1.000
    O112     O        0.00530    0.44770    0.59880    1.000
    O113     O        0.03800    0.28900    0.76600    1.000
    O114     O        0.84000    0.36000    0.56980    1.000
    O115     O        0.03400    0.15800    0.70600    1.000
    O116     O        0.92300    0.16000    0.63900    1.000
    O117     O        0.13470    0.24400    0.82800    1.000
    O118     O        0.05100    0.36000    0.83900    1.000
    O119     O        0.96060    0.44700    0.72800    1.000
    O120     O        0.01590    0.36500    0.70100    1.000
    O121     O        0.55630    0.34900    0.92150    1.000
    O122     O        0.63500    0.53080    0.11780    1.000
    O123     O        0.61140    0.61380    0.28370    1.000
    O124     O        0.77700    0.15490    0.20480    1.000
    O125     O        0.47930    0.27760    0.88330    1.000
    O126     O        0.67630    0.40500    0.12900    1.000
    O127     O        0.74490    0.26600    0.12460    1.000
    O128     O        0.64670    0.54800    0.39740    1.000
    N11      N        0.65880    0.50320    0.25440    1.000
    N12      N        0.63320    0.22950    0.03530    1.000
    La11     La       0.66907    0.37283    0.01305    1.000
    La12     La       0.61000    0.64305    0.17036    1.000
    C71      C        0.68370    0.44800    0.23900    1.000
    C72      C        0.72510    0.38480    0.29450    1.000
    H31      H        0.74410    0.34960    0.28460    1.000
    C73      C        0.73500    0.38000    0.36700    1.000
    H32      H        0.76250    0.33870    0.40580    1.000
    C74      C        0.71240    0.42300    0.38400    1.000
    H33      H        0.72060    0.41320    0.43200    1.000
    C75      C        0.67090    0.49200    0.32600    1.000
    C76      C        0.66030    0.46400    0.15120    1.000
    C77      C        0.64060    0.55200    0.33640    1.000
    C78      C        0.57630    0.21500    0.98800    1.000
    C79      C        0.55720    0.14400    0.00000    1.000
    H34      H        0.51670    0.13610    0.96800    1.000
    C80      C        0.59580    0.08600    0.05790    1.000
    H35      H        0.58280    0.03670    0.06490    1.000
    C81      C        0.65600    0.10200    0.10700    1.000
    H36      H        0.68430    0.06230    0.14640    1.000
    C82      C        0.67450    0.17600    0.09800    1.000
    C83      C        0.53280    0.28600    0.92300    1.000
    C84      C        0.73910    0.20000    0.14800    1.000
    W26      W        0.44711    0.86419    0.55111    1.000
    W27      W        0.57554    0.97600    0.71000    1.000
    W28      W        0.37235    0.97569    0.59151    1.000
    W29      W        0.57634    0.75250    0.70990    1.000
    W30      W        0.37007    0.75288    0.59147    1.000
    O129     O        0.53130    0.06300    0.70380    1.000
    O130     O        0.39760    0.78110    0.54110    1.000
    O131     O        0.42630    0.06600    0.64500    1.000
    O132     O        0.63270    0.99000    0.82900    1.000
    O133     O        0.39760    0.94400    0.53800    1.000
    O134     O        0.60440    0.86000    0.72190    1.000
    O135     O        0.50570    0.77800    0.60200    1.000
    O136     O        0.50530    0.94770    0.59880    1.000
    O137     O        0.53800    0.78900    0.76600    1.000
    O138     O        0.34000    0.86000    0.56980    1.000
    O139     O        0.53400    0.65800    0.70600    1.000
    O140     O        0.42300    0.66000    0.63900    1.000
    O141     O        0.63470    0.74400    0.82800    1.000
    O142     O        0.55100    0.86000    0.83900    1.000
    O143     O        0.46060    0.94700    0.72800    1.000
    O144     O        0.51590    0.86500    0.70100    1.000
    O145     O        0.94370    0.84900    0.57850    1.000
    O146     O        0.86500    0.03080    0.38220    1.000
    O147     O        0.88860    0.11380    0.21630    1.000
    O148     O        0.72300    0.65490    0.29520    1.000
    O149     O        0.02070    0.77760    0.61670    1.000
    O150     O        0.82370    0.90500    0.37100    1.000
    O151     O        0.75510    0.76600    0.37540    1.000
    O152     O        0.85330    0.04800    0.10260    1.000
    N13      N        0.84120    0.00320    0.24560    1.000
    N14      N        0.86680    0.72950    0.46470    1.000
    La13     La       0.83093    0.87283    0.48695    1.000
    La14     La       0.89000    0.14305    0.32964    1.000
    C85      C        0.81630    0.94800    0.26100    1.000
    C86      C        0.77490    0.88480    0.20550    1.000
    H37      H        0.75590    0.84960    0.21540    1.000
    C87      C        0.76500    0.88000    0.13300    1.000
    H38      H        0.73750    0.83870    0.09420    1.000
    C88      C        0.78760    0.92300    0.11600    1.000
    H39      H        0.77940    0.91320    0.06800    1.000
    C89      C        0.82910    0.99200    0.17400    1.000
    C90      C        0.83970    0.96400    0.34880    1.000
    C91      C        0.85940    0.05200    0.16360    1.000
    C92      C        0.92370    0.71500    0.51200    1.000
    C93      C        0.94280    0.64400    0.50000    1.000
    H40      H        0.98330    0.63610    0.53200    1.000
    C94      C        0.90420    0.58600    0.44210    1.000
    H41      H        0.91720    0.53670    0.43510    1.000
    C95      C        0.84400    0.60200    0.39300    1.000
    H42      H        0.81570    0.56230    0.35360    1.000
    C96      C        0.82550    0.67600    0.40200    1.000
    C97      C        0.96720    0.78600    0.57700    1.000
    C98      C        0.76090    0.70000    0.35200    1.000
    W31      W        0.05289    0.36419    0.94889    1.000
    W32      W        0.92446    0.47600    0.79000    1.000
    W33      W        0.12765    0.47569    0.90849    1.000
    W34      W        0.92366    0.25250    0.79010    1.000
    W35      W        0.12993    0.25288    0.90853    1.000
    O153     O        0.96870    0.56300    0.79620    1.000
    O154     O        0.10240    0.28110    0.95890    1.000
    O155     O        0.07370    0.56600    0.85500    1.000
    O156     O        0.86730    0.49000    0.67100    1.000
    O157     O        0.10240    0.44400    0.96200    1.000
    O158     O        0.89560    0.36000    0.77810    1.000
    O159     O        0.99430    0.27800    0.89800    1.000
    O160     O        0.99470    0.44770    0.90120    1.000
    O161     O        0.96200    0.28900    0.73400    1.000
    O162     O        0.16000    0.36000    0.93020    1.000
    O163     O        0.96600    0.15800    0.79400    1.000
    O164     O        0.07700    0.16000    0.86100    1.000
    O165     O        0.86530    0.24400    0.67200    1.000
    O166     O        0.94900    0.36000    0.66100    1.000
    O167     O        0.03940    0.44700    0.77200    1.000
    O168     O        0.98410    0.36500    0.79900    1.000
    O169     O        0.44370    0.34900    0.57850    1.000
    O170     O        0.36500    0.53080    0.38220    1.000
    O171     O        0.38860    0.61380    0.21630    1.000
    O172     O        0.22300    0.15490    0.29520    1.000
    O173     O        0.52070    0.27760    0.61670    1.000
    O174     O        0.32370    0.40500    0.37100    1.000
    O175     O        0.25510    0.26600    0.37540    1.000
    O176     O        0.35330    0.54800    0.10260    1.000
    N15      N        0.34120    0.50320    0.24560    1.000
    N16      N        0.36680    0.22950    0.46470    1.000
    La15     La       0.33093    0.37283    0.48695    1.000
    La16     La       0.39000    0.64305    0.32964    1.000
    C99      C        0.31630    0.44800    0.26100    1.000
    C100     C        0.27490    0.38480    0.20550    1.000
    H43      H        0.25590    0.34960    0.21540    1.000
    C101     C        0.26500    0.38000    0.13300    1.000
    H44      H        0.23750    0.33870    0.09420    1.000
    C102     C        0.28760    0.42300    0.11600    1.000
    H45      H        0.27940    0.41320    0.06800    1.000
    C103     C        0.32910    0.49200    0.17400    1.000
    C104     C        0.33970    0.46400    0.34880    1.000
    C105     C        0.35940    0.55200    0.16360    1.000
    C106     C        0.42370    0.21500    0.51200    1.000
    C107     C        0.44280    0.14400    0.50000    1.000
    H46      H        0.48330    0.13610    0.53200    1.000
    C108     C        0.40420    0.08600    0.44210    1.000
    H47      H        0.41720    0.03670    0.43510    1.000
    C109     C        0.34400    0.10200    0.39300    1.000
    H48      H        0.31570    0.06230    0.35360    1.000
    C110     C        0.32550    0.17600    0.40200    1.000
    C111     C        0.46720    0.28600    0.57700    1.000
    C112     C        0.26090    0.20000    0.35200    1.000
    W36      W        0.55289    0.86419    0.94889    1.000
    W37      W        0.42446    0.97600    0.79000    1.000
    W38      W        0.62765    0.97569    0.90849    1.000
    W39      W        0.42366    0.75250    0.79010    1.000
    W40      W        0.62993    0.75288    0.90853    1.000
    O177     O        0.46870    0.06300    0.79620    1.000
    O178     O        0.60240    0.78110    0.95890    1.000
    O179     O        0.57370    0.06600    0.85500    1.000
    O180     O        0.36730    0.99000    0.67100    1.000
    O181     O        0.60240    0.94400    0.96200    1.000
    O182     O        0.39560    0.86000    0.77810    1.000
    O183     O        0.49430    0.77800    0.89800    1.000
    O184     O        0.49470    0.94770    0.90120    1.000
    O185     O        0.46200    0.78900    0.73400    1.000
    O186     O        0.66000    0.86000    0.93020    1.000
    O187     O        0.46600    0.65800    0.79400    1.000
    O188     O        0.57700    0.66000    0.86100    1.000
    O189     O        0.36530    0.74400    0.67200    1.000
    O190     O        0.44900    0.86000    0.66100    1.000
    O191     O        0.53940    0.94700    0.77200    1.000
    O192     O        0.48410    0.86500    0.79900    1.000
    K1       K        0.00000    0.13640    0.25000    1.000
    W41      W        0.00000    0.41112    0.25000    1.000
    W42      W        0.00000    0.85826    0.25000    1.000
    B1       B        0.00000    0.63200    0.25000    1.000
    O193     O        0.00000    0.30100    0.25000    1.000
    O194     O        0.00000    0.96000    0.25000    1.000
    K2       K        0.50000    0.63640    0.25000    1.000
    W43      W        0.50000    0.91112    0.25000    1.000
    W44      W        0.50000    0.35826    0.25000    1.000
    B2       B        0.50000    0.13200    0.25000    1.000
    O195     O        0.50000    0.80100    0.25000    1.000
    O196     O        0.50000    0.46000    0.25000    1.000
    K3       K        0.00000    0.86360    0.75000    1.000
    W45      W        0.00000    0.58888    0.75000    1.000
    W46      W        0.00000    0.14174    0.75000    1.000
    B3       B        0.00000    0.36800    0.75000    1.000
    O197     O        0.00000    0.69900    0.75000    1.000
    O198     O        0.00000    0.04000    0.75000    1.000
    K4       K        0.50000    0.36360    0.75000    1.000
    W47      W        0.50000    0.08888    0.75000    1.000
    W48      W        0.50000    0.64174    0.75000    1.000
    B4       B        0.50000    0.86800    0.75000    1.000
    O199     O        0.50000    0.19900    0.75000    1.000
    O200     O        0.50000    0.54000    0.75000    1.000
