data_functionalizedCrystal
_audit_creation_method	'EQeq! by Chris Wilmer'
_symmetry_space_group_name_H-M	'P1'
_symmetry_Int_Tables_number	1
_symmetry_cell_setting	triclinic
loop_
_symmetry_equiv_pos_as_xyz
  x,y,z
_cell_length_a	22.012
_cell_length_b	7.778
_cell_length_c	19.724
_cell_angle_alpha	90
_cell_angle_beta	90
_cell_angle_gamma	90
loop_
_atom_site_label
_atom_site_type_symbol
_atom_site_fract_x
_atom_site_fract_y
_atom_site_fract_z
_atom_site_charge
Mof_Nd	Nd	0.2811	0.4228	0.0552	2.444
Mof_O 	O 	0.2376	0.1924	0.1243	-0.697
Mof_O 	O 	0.1803	0.0015	0.1746	-0.465
Mof_O 	O 	0.2507	0.3321	0.4807	-0.67
Mof_O 	O 	0.1794	0.1654	0.4391	-0.486
Mof_C 	C 	0.2006	0.1495	0.1717	0.406
Mof_C 	C 	0.1974	0.2888	0.2286	0.126
Mof_C 	C 	0.1533	0.2403	0.2838	0.07
Mof_O 	O 	0.361	0.2164	0.0753	-0.577
Mof_C 	C 	0.438	0.0041	0.0704	-0.132
Mof_C 	C 	0.1409	0.3801	0.3351	0.102
Mof_C 	C 	0.1942	0.4269	0.3799	-0.066
Mof_C 	C 	0.1643	0.278	0.2144	-0.221
Mof_C 	C 	0.1965	0.294	0.2835	-0.062
Mof_C 	C 	0.1613	0.418	0.3292	-0.088
Mof_C 	C 	0.1988	0.4612	0.3927	-0.018
Mof_C 	C 	0.208	0.3018	0.4366	0.388
Mof_O 	O 	0.3323	0.9467	0.0557	-0.556
Mof_C 	C 	0.3721	0.0606	0.0682	0.502
Mof_C 	C 	0.4666	0.0255	0.0011	0.009
Mof_Nd	Nd	0.2189	0.0772	0.5552	2.442
Mof_O 	O 	0.2624	0.3076	0.6243	-0.7
Mof_O 	O 	0.3197	0.4985	0.6746	-0.468
Mof_O 	O 	0.2493	0.1679	0.9807	-0.668
Mof_O 	O 	0.3206	0.3346	0.9391	-0.486
Mof_C 	C 	0.2994	0.3505	0.6717	0.406
Mof_C 	C 	0.3026	0.2112	0.7286	0.126
Mof_C 	C 	0.3467	0.2597	0.7838	0.071
Mof_O 	O 	0.139	0.2836	0.5753	-0.577
Mof_C 	C 	0.062	0.4959	0.5704	-0.132
Mof_C 	C 	0.3591	0.1199	0.8351	0.101
Mof_C 	C 	0.3058	0.0731	0.8799	-0.066
Mof_C 	C 	0.3357	0.222	0.7144	-0.222
Mof_C 	C 	0.3035	0.206	0.7835	-0.062
Mof_C 	C 	0.3387	0.082	0.8292	-0.089
Mof_C 	C 	0.3012	0.0388	0.8927	-0.018
Mof_C 	C 	0.292	0.1982	0.9366	0.387
Mof_O 	O 	0.1677	0.5533	0.5557	-0.554
Mof_C 	C 	0.1279	0.4394	0.5682	0.499
Mof_C 	C 	0.0334	0.4745	0.5011	0.007
Mof_Nd	Nd	0.7189	0.4228	0.4448	2.445
Mof_O 	O 	0.7624	0.1924	0.3757	-0.699
Mof_O 	O 	0.8197	0.0015	0.3254	-0.467
Mof_O 	O 	0.7493	0.3321	0.0193	-0.667
Mof_O 	O 	0.8206	0.1654	0.0609	-0.483
Mof_C 	C 	0.7994	0.1495	0.3283	0.406
Mof_C 	C 	0.8026	0.2888	0.2714	0.118
Mof_C 	C 	0.8467	0.2403	0.2162	0.07
Mof_O 	O 	0.639	0.2164	0.4247	-0.577
Mof_C 	C 	0.562	0.0041	0.4296	-0.132
Mof_C 	C 	0.8591	0.3801	0.1649	0.098
Mof_C 	C 	0.8058	0.4269	0.1201	-0.064
Mof_C 	C 	0.8357	0.278	0.2856	-0.215
Mof_C 	C 	0.8035	0.294	0.2165	-0.058
Mof_C 	C 	0.8387	0.418	0.1708	-0.084
Mof_C 	C 	0.8012	0.4612	0.1073	-0.019
Mof_C 	C 	0.792	0.3018	0.0634	0.388
Mof_O 	O 	0.6677	0.9467	0.4443	-0.555
Mof_C 	C 	0.6279	0.0606	0.4318	0.5
Mof_C 	C 	0.5334	0.0255	0.4989	0.007
Mof_Nd	Nd	0.7811	0.0772	0.9448	2.432
Mof_O 	O 	0.7376	0.3076	0.8757	-0.699
Mof_O 	O 	0.6803	0.4985	0.8254	-0.468
Mof_O 	O 	0.7507	0.1679	0.5193	-0.67
Mof_O 	O 	0.6794	0.3346	0.5609	-0.486
Mof_C 	C 	0.7006	0.3505	0.8283	0.406
Mof_C 	C 	0.6974	0.2112	0.7714	0.123
Mof_C 	C 	0.6533	0.2597	0.7162	0.07
Mof_O 	O 	0.861	0.2836	0.9247	-0.577
Mof_C 	C 	0.938	0.4959	0.9296	-0.133
Mof_C 	C 	0.6409	0.1199	0.6649	0.1
Mof_C 	C 	0.6942	0.0731	0.6201	-0.066
Mof_C 	C 	0.6643	0.222	0.7856	-0.22
Mof_C 	C 	0.6965	0.206	0.7165	-0.061
Mof_C 	C 	0.6613	0.082	0.6708	-0.087
Mof_C 	C 	0.6988	0.0388	0.6073	-0.019
Mof_C 	C 	0.708	0.1982	0.5634	0.388
Mof_O 	O 	0.8323	0.5533	0.9443	-0.554
Mof_C 	C 	0.8721	0.4394	0.9318	0.498
Mof_C 	C 	0.9666	0.4745	0.9989	0.006
Mof_Nd	Nd	0.7189	0.5772	0.9448	2.443
Mof_O 	O 	0.7624	0.8076	0.8757	-0.698
Mof_O 	O 	0.8197	0.9985	0.8254	-0.465
Mof_O 	O 	0.7493	0.6679	0.5193	-0.67
Mof_O 	O 	0.8206	0.8346	0.5609	-0.486
Mof_C 	C 	0.7994	0.8505	0.8283	0.406
Mof_C 	C 	0.8026	0.7112	0.7714	0.126
Mof_C 	C 	0.8467	0.7597	0.7162	0.07
Mof_O 	O 	0.639	0.7836	0.9247	-0.577
Mof_C 	C 	0.562	0.9959	0.9296	-0.132
Mof_C 	C 	0.8591	0.6199	0.6649	0.102
Mof_C 	C 	0.8058	0.5731	0.6201	-0.066
Mof_C 	C 	0.8357	0.722	0.7856	-0.221
Mof_C 	C 	0.8035	0.706	0.7165	-0.062
Mof_C 	C 	0.8387	0.582	0.6708	-0.088
Mof_C 	C 	0.8012	0.5388	0.6073	-0.018
Mof_C 	C 	0.792	0.6982	0.5634	0.388
Mof_O 	O 	0.6677	0.0533	0.9443	-0.556
Mof_C 	C 	0.6279	0.9394	0.9318	0.502
Mof_C 	C 	0.5334	0.9745	0.9989	0.009
Mof_Nd	Nd	0.7811	0.9228	0.4448	2.442
Mof_O 	O 	0.7376	0.6924	0.3757	-0.7
Mof_O 	O 	0.6803	0.5015	0.3254	-0.468
Mof_O 	O 	0.7507	0.8321	0.0193	-0.668
Mof_O 	O 	0.6794	0.6654	0.0609	-0.486
Mof_C 	C 	0.7006	0.6495	0.3283	0.406
Mof_C 	C 	0.6974	0.7888	0.2714	0.126
Mof_C 	C 	0.6533	0.7403	0.2162	0.071
Mof_O 	O 	0.861	0.7164	0.4247	-0.577
Mof_C 	C 	0.938	0.5041	0.4296	-0.132
Mof_C 	C 	0.6409	0.8801	0.1649	0.101
Mof_C 	C 	0.6942	0.9269	0.1201	-0.066
Mof_C 	C 	0.6643	0.778	0.2856	-0.222
Mof_C 	C 	0.6965	0.794	0.2165	-0.062
Mof_C 	C 	0.6613	0.918	0.1708	-0.089
Mof_C 	C 	0.6988	0.9612	0.1073	-0.018
Mof_C 	C 	0.708	0.8018	0.0634	0.387
Mof_O 	O 	0.8323	0.4467	0.4443	-0.554
Mof_C 	C 	0.8721	0.5606	0.4318	0.499
Mof_C 	C 	0.9666	0.5255	0.4989	0.007
Mof_Nd	Nd	0.2811	0.5772	0.5552	2.445
Mof_O 	O 	0.2376	0.8076	0.6243	-0.699
Mof_O 	O 	0.1803	0.9985	0.6746	-0.467
Mof_O 	O 	0.2507	0.6679	0.9807	-0.667
Mof_O 	O 	0.1794	0.8346	0.9391	-0.483
Mof_C 	C 	0.2006	0.8505	0.6717	0.406
Mof_C 	C 	0.1974	0.7112	0.7286	0.118
Mof_C 	C 	0.1533	0.7597	0.7838	0.07
Mof_O 	O 	0.361	0.7836	0.5753	-0.577
Mof_C 	C 	0.438	0.9959	0.5704	-0.132
Mof_C 	C 	0.1409	0.6199	0.8351	0.098
Mof_C 	C 	0.1942	0.5731	0.8799	-0.064
Mof_C 	C 	0.1643	0.722	0.7144	-0.215
Mof_C 	C 	0.1965	0.706	0.7835	-0.058
Mof_C 	C 	0.1613	0.582	0.8292	-0.084
Mof_C 	C 	0.1988	0.5388	0.8927	-0.019
Mof_C 	C 	0.208	0.6982	0.9366	0.388
Mof_O 	O 	0.3323	0.0533	0.5557	-0.555
Mof_C 	C 	0.3721	0.9394	0.5682	0.5
Mof_C 	C 	0.4666	0.9745	0.5011	0.007
Mof_Nd	Nd	0.2189	0.9228	0.0552	2.432
Mof_O 	O 	0.2624	0.6924	0.1243	-0.699
Mof_O 	O 	0.3197	0.5015	0.1746	-0.468
Mof_O 	O 	0.2493	0.8321	0.4807	-0.67
Mof_O 	O 	0.3206	0.6654	0.4391	-0.486
Mof_C 	C 	0.2994	0.6495	0.1717	0.406
Mof_C 	C 	0.3026	0.7888	0.2286	0.123
Mof_C 	C 	0.3467	0.7403	0.2838	0.07
Mof_O 	O 	0.139	0.7164	0.0753	-0.577
Mof_C 	C 	0.062	0.5041	0.0704	-0.133
Mof_C 	C 	0.3591	0.8801	0.3351	0.1
Mof_C 	C 	0.3058	0.9269	0.3799	-0.066
Mof_C 	C 	0.3357	0.778	0.2144	-0.22
Mof_C 	C 	0.3035	0.794	0.2835	-0.061
Mof_C 	C 	0.3387	0.918	0.3292	-0.087
Mof_C 	C 	0.3012	0.9612	0.3927	-0.019
Mof_C 	C 	0.292	0.8018	0.4366	0.388
Mof_O 	O 	0.1677	0.4467	0.0557	-0.554
Mof_C 	C 	0.1279	0.5606	0.0682	0.498
Mof_C 	C 	0.0334	0.5255	0.0011	0.006
_end
