# CIF file generated by openbabel 3.1.0, see https://openbabel.org
data_I
_chemical_name_common 'QOSKAM_clean'
_cell_length_a 13.934
_cell_length_b 20.494
_cell_length_c 30.722
_cell_angle_alpha 90
_cell_angle_beta 90
_cell_angle_gamma 98.71
_space_group_name_H-M_alt 'P 1'
_space_group_name_Hall 'P 1'
loop_
    _symmetry_equiv_pos_as_xyz
    x,y,z
loop_
    _atom_site_label
    _atom_site_type_symbol
    _atom_site_fract_x
    _atom_site_fract_y
    _atom_site_fract_z
    _atom_site_occupancy
    Tb1      Tb       0.46102    0.60445    0.81033    1.000
    Tb2      Tb       0.53898    0.39555    0.18967    1.000
    Tb3      Tb       0.96102    0.10445    0.68967    1.000
    Tb4      Tb       0.02372    0.87476    0.05070    1.000
    Tb5      Tb       0.47628    0.62524    0.55070    1.000
    Tb6      Tb       0.03898    0.89555    0.31033    1.000
    Tb7      Tb       0.52372    0.37476    0.44930    1.000
    Tb8      Tb       0.97628    0.12524    0.94930    1.000
    Cu1      Cu       0.49162    0.72003    0.02191    1.000
    Cu2      Cu       0.99162    0.22003    0.47809    1.000
    Cu3      Cu       0.00473    0.24205    0.15768    1.000
    Cu4      Cu       0.50473    0.74205    0.34232    1.000
    Cu5      Cu       0.97341    0.61174    0.18444    1.000
    Cu6      Cu       0.52659    0.88826    0.68444    1.000
    Cu7      Cu       0.99527    0.75795    0.84232    1.000
    Cu8      Cu       0.00838    0.77997    0.52191    1.000
    Cu9      Cu       0.50838    0.27997    0.97809    1.000
    Cu10     Cu       0.47341    0.11174    0.31556    1.000
    Cu11     Cu       0.02659    0.38826    0.81556    1.000
    Cu12     Cu       0.49527    0.25795    0.65768    1.000
    H1       H        0.70740    0.79500    0.33150    1.000
    H2       H        0.40830    0.63510    0.28150    1.000
    H3       H        0.18430    0.71990    0.53090    1.000
    H4       H        0.20100    0.77000    0.38480    1.000
    H5       H        0.80430    0.29450    0.93330    1.000
    H6       H        0.22060    0.45750    0.79420    1.000
    H7       H        0.35610    0.95230    0.67410    1.000
    H8       H        0.31390    0.22060    0.96090    1.000
    H9       H        0.59170    0.36490    0.71850    1.000
    H10      H        0.19570    0.70550    0.06670    1.000
    H11      H        0.14390    0.54770    0.17410    1.000
    H12      H        0.32080    0.41090    0.87940    1.000
    H13      H        0.81390    0.72060    0.53910    1.000
    H14      H        0.07470    0.79470    0.42730    1.000
    H15      H        0.01200    0.03600    0.90900    1.000
    H16      H        0.84010    0.30560    0.17900    1.000
    H17      H        0.29900    0.73000    0.88480    1.000
    H18      H        0.31570    0.78010    0.03090    1.000
    H19      H        0.19780    0.27000    0.01910    1.000
    H20      H        0.92990    0.70560    0.25270    1.000
    H21      H        0.98800    0.96400    0.09100    1.000
    H22      H        0.72060    0.95750    0.70580    1.000
    H23      H        0.79900    0.23000    0.61520    1.000
    H24      H        0.76180    0.11020    0.25570    1.000
    H25      H        0.88600    0.95300    0.08100    1.000
    H26      H        0.45770    0.38790    0.91600    1.000
    H27      H        0.70100    0.27000    0.11520    1.000
    H28      H        0.30430    0.79450    0.56670    1.000
    H29      H        0.61400    0.54700    0.58100    1.000
    H30      H        0.69780    0.77000    0.48090    1.000
    H31      H        0.26180    0.61020    0.24430    1.000
    H32      H        0.57010    0.79440    0.75270    1.000
    H33      H        0.70070    0.77260    0.79400    1.000
    H34      H        0.27940    0.04250    0.29420    1.000
    H35      H        0.11400    0.04700    0.91900    1.000
    H36      H        0.07010    0.29440    0.74730    1.000
    H37      H        0.06010    0.24040    0.06130    1.000
    H38      H        0.04230    0.11210    0.41600    1.000
    H39      H        0.44750    0.81120    0.60630    1.000
    H40      H        0.34010    0.80560    0.32100    1.000
    H41      H        0.82080    0.91090    0.62060    1.000
    H42      H        0.81570    0.28010    0.46910    1.000
    H43      H        0.90830    0.13510    0.21850    1.000
    H44      H        0.51200    0.53600    0.59100    1.000
    H45      H        0.00600    0.20200    0.86900    1.000
    H46      H        0.57470    0.29470    0.07270    1.000
    H47      H        0.30220    0.23000    0.51910    1.000
    H48      H        0.77940    0.54250    0.20580    1.000
    H49      H        0.79260    0.70500    0.83150    1.000
    H50      H        0.20740    0.29500    0.16850    1.000
    H51      H        0.56010    0.74040    0.43870    1.000
    H52      H        0.94750    0.31120    0.89370    1.000
    H53      H        0.48800    0.46400    0.40900    1.000
    H54      H        0.65990    0.19440    0.67900    1.000
    H55      H        0.49400    0.29800    0.36900    1.000
    H56      H        0.67920    0.58910    0.12060    1.000
    H57      H        0.64390    0.04770    0.32590    1.000
    H58      H        0.68430    0.21990    0.96910    1.000
    H59      H        0.20070    0.27260    0.70600    1.000
    H60      H        0.50600    0.70200    0.63100    1.000
    H61      H        0.73820    0.38980    0.75570    1.000
    H62      H        0.69570    0.20550    0.43330    1.000
    H63      H        0.42530    0.70530    0.92730    1.000
    H64      H        0.95770    0.88790    0.58400    1.000
    H65      H        0.80220    0.73000    0.98090    1.000
    H66      H        0.68610    0.77940    0.03910    1.000
    H67      H        0.55250    0.18880    0.39370    1.000
    H68      H        0.09170    0.86490    0.78150    1.000
    H69      H        0.15990    0.69440    0.82100    1.000
    H70      H        0.29930    0.22740    0.20600    1.000
    H71      H        0.92530    0.20530    0.57270    1.000
    H72      H        0.79930    0.72740    0.29400    1.000
    H73      H        0.99400    0.79800    0.13100    1.000
    H74      H        0.18610    0.27940    0.46090    1.000
    H75      H        0.23820    0.88980    0.74430    1.000
    H76      H        0.42990    0.20560    0.24730    1.000
    H77      H        0.43990    0.25960    0.56130    1.000
    H78      H        0.29260    0.20500    0.66850    1.000
    H79      H        0.17920    0.08910    0.37940    1.000
    H80      H        0.05250    0.68880    0.10630    1.000
    H81      H        0.38600    0.45300    0.41900    1.000
    H82      H        0.85610    0.45230    0.82590    1.000
    H83      H        0.54230    0.61210    0.08400    1.000
    H84      H        0.93990    0.75960    0.93870    1.000
    C1       C        0.20620    0.14560    0.22570    1.000
    C2       C        0.13660    0.83440    0.78240    1.000
    C3       C        0.74190    0.08680    0.37070    1.000
    C4       C        0.85020    0.20890    0.09610    1.000
    C5       C        0.84940    0.14400    0.43080    1.000
    C6       C        0.19930    0.75940    0.41500    1.000
    C7       C        0.20930    0.69440    0.26180    1.000
    C8       C        0.88390    0.82960    0.36010    1.000
    C9       C        0.68850    0.23090    0.99920    1.000
    C10      C        0.60980    0.54140    0.24170    1.000
    C11      C        0.88050    0.74270    0.92480    1.000
    C12      C        0.65060    0.35600    0.93080    1.000
    C13      C        0.76750    0.21590    0.02260    1.000
    C14      C        0.60090    0.64240    0.08210    1.000
    C15      C        0.14980    0.79110    0.90390    1.000
    C16      C        0.76710    0.24770    0.71420    1.000
    C17      C        0.72740    0.27050    0.56690    1.000
    C18      C        0.79070    0.30560    0.73820    1.000
    C19      C        0.11610    0.17040    0.63990    1.000
    C20      C        0.13960    0.22180    0.93150    1.000
    C21      C        0.29380    0.35440    0.72570    1.000
    C22      C        0.84500    0.41990    0.84810    1.000
    C23      C        0.31460    0.26000    0.94450    1.000
    C24      C        0.75910    0.13460    0.40310    1.000
    C25      C        0.10150    0.66250    0.11250    1.000
    C26      C        0.29070    0.80560    0.76180    1.000
    C27      C        0.26710    0.74770    0.78580    1.000
    C28      C        0.68250    0.62840    0.10400    1.000
    C29      C        0.89020    0.95860    0.74170    1.000
    C30      C        0.88300    0.31710    0.76470    1.000
    C31      C        0.27260    0.72950    0.43310    1.000
    C32      C        0.68540    0.74000    0.05550    1.000
    C33      C        0.87790    0.81590    0.45950    1.000
    C34      C        0.77060    0.72880    0.07580    1.000
    C35      C        0.12210    0.18410    0.54050    1.000
    C36      C        0.62400    0.27400    0.05960    1.000
    C37      C        0.15490    0.81260    0.00170    1.000
    C38      C        0.61700    0.18290    0.26470    1.000
    C39      C        0.17700    0.73490    0.80590    1.000
    C40      C        0.23250    0.78410    0.97740    1.000
    C41      C        0.31150    0.76910    0.00080    1.000
    C42      C        0.77590    0.15020    0.23970    1.000
    C43      C        0.29380    0.21140    0.63790    1.000
    C44      C        0.76940    0.67220    0.10160    1.000
    C45      C        0.34940    0.64400    0.06920    1.000
    C46      C        0.18540    0.24000    0.44450    1.000
    C47      C        0.24190    0.58680    0.12930    1.000
    C48      C        0.27590    0.65020    0.26030    1.000
    C49      C        0.15060    0.85600    0.56920    1.000
    C50      C        0.18340    0.95570    0.64290    1.000
    C51      C        0.62920    0.82420    0.75130    1.000
    C52      C        0.38390    0.32960    0.13990    1.000
    C53      C        0.62210    0.68410    0.95950    1.000
    C54      C        0.37080    0.17580    0.24870    1.000
    C55      C        0.18850    0.73090    0.50080    1.000
    C56      C        0.26750    0.71590    0.47740    1.000
    C57      C        0.15500    0.58010    0.15190    1.000
    C58      C        0.79040    0.79850    0.43080    1.000
    C59      C        0.74090    0.36540    0.90310    1.000
    C60      C        0.20670    0.31080    0.72390    1.000
    C61      C        0.32300    0.76510    0.30590    1.000
    C62      C        0.11950    0.25730    0.07520    1.000
    C63      C        0.29330    0.18920    0.22390    1.000
    C64      C        0.81750    0.87160    0.60400    1.000
    C65      C        0.70670    0.69430    0.88550    1.000
    C66      C        0.20670    0.19430    0.61450    1.000
    C67      C        0.20620    0.28860    0.13790    1.000
    C68      C        0.81460    0.76000    0.55550    1.000
    C69      C        0.85610    0.66550    0.12950    1.000
    C70      C        0.67700    0.23490    0.69410    1.000
    C71      C        0.20140    0.09030    0.25240    1.000
    C72      C        0.79330    0.80570    0.38550    1.000
    C73      C        0.87600    0.22600    0.55960    1.000
    C74      C        0.78310    0.58040    0.22380    1.000
    C75      C        0.64980    0.29110    0.59610    1.000
    C76      C        0.37790    0.31590    0.04050    1.000
    C77      C        0.82300    0.26510    0.19410    1.000
    C78      C        0.12400    0.77400    0.44040    1.000
    C79      C        0.34500    0.91990    0.65190    1.000
    C80      C        0.70670    0.81080    0.77610    1.000
    C81      C        0.81660    0.04430    0.35710    1.000
    C82      C        0.89850    0.33750    0.88750    1.000
    C83      C        0.79380    0.85440    0.77430    1.000
    C84      C        0.31660    0.54430    0.14290    1.000
    C85      C        0.39850    0.83750    0.61250    1.000
    C86      C        0.80070    0.24060    0.58500    1.000
    C87      C        0.39020    0.45860    0.75830    1.000
    C88      C        0.72410    0.34980    0.73970    1.000
    C89      C        0.70140    0.59030    0.24760    1.000
    C90      C        0.68670    0.17260    0.41130    1.000
    C91      C        0.23290    0.75230    0.28580    1.000
    C92      C        0.81150    0.26910    0.49920    1.000
    C93      C        0.65500    0.08010    0.34810    1.000
    C94      C        0.14390    0.33450    0.87050    1.000
    C95      C        0.71690    0.91960    0.72380    1.000
    C96      C        0.87080    0.67580    0.25130    1.000
    C97      C        0.21690    0.41960    0.77620    1.000
    C98      C        0.39910    0.35760    0.91790    1.000
    C99      C        0.25810    0.91320    0.62930    1.000
    C100     C        0.18250    0.12840    0.39600    1.000
    C101     C        0.83590    0.19840    0.70810    1.000
    C102     C        0.73060    0.82780    0.60160    1.000
    C103     C        0.28310    0.08040    0.27620    1.000
    C104     C        0.27060    0.22880    0.42420    1.000
    C105     C        0.64390    0.83450    0.62950    1.000
    C106     C        0.73250    0.28410    0.52260    1.000
    C107     C        0.12920    0.32420    0.74870    1.000
    C108     C        0.81330    0.32740    0.91130    1.000
    C109     C        0.36340    0.66560    0.28240    1.000
    C110     C        0.37500    0.34200    0.69550    1.000
    C111     C        0.75810    0.41320    0.87070    1.000
    C112     C        0.73290    0.25230    0.21420    1.000
    C113     C        0.23060    0.32780    0.89840    1.000
    C114     C        0.79330    0.68920    0.27610    1.000
    C115     C        0.22410    0.84980    0.76030    1.000
    C116     C        0.38050    0.24270    0.57520    1.000
    C117     C        0.62500    0.65800    0.30450    1.000
    C118     C        0.35610    0.16550    0.37050    1.000
    C119     C        0.38300    0.81710    0.73530    1.000
    C120     C        0.25910    0.63460    0.09690    1.000
    C121     C        0.29040    0.29850    0.06920    1.000
    C122     C        0.63660    0.33440    0.71760    1.000
    C123     C        0.16410    0.80160    0.29190    1.000
    C124     C        0.29810    0.22540    0.54990    1.000
    C125     C        0.79810    0.72540    0.95010    1.000
    C126     C        0.79380    0.71140    0.86210    1.000
    C127     C        0.70190    0.77460    0.45010    1.000
    C128     C        0.29860    0.40970    0.75240    1.000
    C129     C        0.61610    0.67040    0.86010    1.000
    C130     C        0.70960    0.70150    0.93080    1.000
    C131     C        0.79860    0.90970    0.74760    1.000
    C132     C        0.63960    0.72180    0.56850    1.000
    C133     C        0.35020    0.70890    0.40390    1.000
    C134     C        0.10090    0.14240    0.41790    1.000
    C135     C        0.37600    0.72600    0.94040    1.000
    C136     C        0.34510    0.68740    0.50170    1.000
    C137     C        0.20190    0.27460    0.04990    1.000
    C138     C        0.33590    0.69840    0.79190    1.000
    C139     C        0.61950    0.75730    0.42480    1.000
    C140     C        0.36040    0.27820    0.43150    1.000
    C141     C        0.69930    0.25940    0.08500    1.000
    C142     C        0.84510    0.18740    0.99830    1.000
    C143     C        0.77260    0.22950    0.06690    1.000
    C144     C        0.70930    0.19440    0.23820    1.000
    C145     C        0.22740    0.77050    0.93310    1.000
    C146     C        0.29330    0.30570    0.11450    1.000
    C147     C        0.24090    0.86540    0.59690    1.000
    C148     C        0.22940    0.27120    0.92420    1.000
    C149     C        0.26940    0.17220    0.39840    1.000
    C150     C        0.10980    0.04140    0.25830    1.000
    C151     C        0.20960    0.20150    0.56920    1.000
    C152     C        0.66410    0.30160    0.20810    1.000
    C153     C        0.31330    0.82740    0.58870    1.000
    C154     C        0.89910    0.85760    0.58210    1.000
    C155     C        0.70620    0.78860    0.36210    1.000
    C156     C        0.18670    0.67260    0.08870    1.000
    C157     C        0.30070    0.74060    0.91500    1.000
    C158     C        0.86340    0.16560    0.21760    1.000
    C159     C        0.12500    0.15800    0.19550    1.000
    C160     C        0.65490    0.31260    0.49830    1.000
    C161     C        0.11700    0.68290    0.23530    1.000
    C162     C        0.68340    0.45570    0.85710    1.000
    C163     C        0.31750    0.37160    0.89600    1.000
    C164     C        0.86040    0.77820    0.06850    1.000
    C165     C        0.60150    0.16250    0.38750    1.000
    C166     C        0.70620    0.64560    0.27430    1.000
    C167     C        0.87500    0.84200    0.80450    1.000
    C168     C        0.72940    0.77120    0.57580    1.000
    N1       N        0.37890    0.23630    0.61888    1.000
    N2       N        0.11290    0.77810    0.80488    1.000
    N3       N        0.63340    0.87760    0.72541    1.000
    N4       N        0.13340    0.37760    0.77459    1.000
    N5       N        0.61290    0.27810    0.69512    1.000
    N6       N        0.88220    0.24010    0.51670    1.000
    N7       N        0.88710    0.22190    0.19512    1.000
    N8       N        0.87890    0.73630    0.88112    1.000
    N9       N        0.36660    0.12240    0.27459    1.000
    N10      N        0.10230    0.19770    0.44194    1.000
    N11      N        0.38220    0.74010    0.98330    1.000
    N12      N        0.91430    0.38260    0.85626    1.000
    N13      N        0.08570    0.61740    0.14374    1.000
    N14      N        0.61780    0.25990    0.01670    1.000
    N15      N        0.39770    0.30230    0.94194    1.000
    N16      N        0.41430    0.88260    0.64374    1.000
    N17      N        0.12110    0.26370    0.11888    1.000
    N18      N        0.60230    0.69770    0.05806    1.000
    N19      N        0.86660    0.62240    0.22541    1.000
    N20      N        0.89770    0.80230    0.55806    1.000
    N21      N        0.38710    0.72190    0.30488    1.000
    N22      N        0.62110    0.76370    0.38112    1.000
    N23      N        0.11780    0.75990    0.48330    1.000
    N24      N        0.58570    0.11740    0.35626    1.000
    O1       O        0.14100    0.16250    0.92160    1.000
    O2       O        0.93270    0.75980    0.05032    1.000
    O3       O        0.57890    0.32190    0.51734    1.000
    O4       O        0.62070    0.48470    0.22870    1.000
    O5       O        0.41550    0.29260    0.70336    1.000
    O6       O        0.12070    0.98470    0.27130    1.000
    O7       O        0.61010    0.62080    0.33670    1.000
    O8       O        0.85900    0.83750    0.07840    1.000
    O9       O        0.58130    0.73230    0.97132    1.000
    O10      O        0.80840    0.13900    0.71750    1.000
    O11      O        0.58450    0.70740    0.29664    1.000
    O12      O        0.36880    0.59910    0.04590    1.000
    O13      O        0.62420    0.89170    0.63593    1.000
    O14      O        0.10000    0.28260    0.85418    1.000
    O15      O        0.05640    0.03450    0.92730    1.000
    O16      O        0.56730    0.74020    0.55032    1.000
    O17      O        0.60100    0.29870    0.92926    1.000
    O18      O        0.53770    0.65430    0.88001    1.000
    O19      O        0.12420    0.39170    0.86407    1.000
    O20      O        0.91730    0.25410    0.10779    1.000
    O21      O        0.21300    0.01410    0.65370    1.000
    O22      O        0.87930    0.01530    0.72870    1.000
    O23      O        0.16050    0.84910    0.89090    1.000
    O24      O        0.37580    0.10830    0.36407    1.000
    O25      O        0.37930    0.51530    0.77130    1.000
    O26      O        0.09680    0.92820    0.64370    1.000
    O27      O        0.66050    0.34910    0.60910    1.000
    O28      O        0.03050    0.06040    0.25010    1.000
    O29      O        0.53820    0.32750    0.37833    1.000
    O30      O        0.41870    0.26770    0.02868    1.000
    O31      O        0.46180    0.67250    0.62167    1.000
    O32      O        0.11010    0.12080    0.16330    1.000
    O33      O        0.08130    0.23230    0.52868    1.000
    O34      O        0.53050    0.56040    0.24990    1.000
    O35      O        0.06730    0.24020    0.94968    1.000
    O36      O        0.41730    0.75410    0.39221    1.000
    O37      O        0.96230    0.84570    0.38001    1.000
    O38      O        0.92110    0.17810    0.01734    1.000
    O39      O        0.03820    0.82750    0.12167    1.000
    O40      O        0.87800    0.83290    0.31916    1.000
    O41      O        0.09860    0.12680    0.52795    1.000
    O42      O        0.91800    0.21780    0.69113    1.000
    O43      O        0.30840    0.63900    0.78250    1.000
    O44      O        0.91870    0.76770    0.47132    1.000
    O45      O        0.07230    0.62400    0.23319    1.000
    O46      O        0.35900    0.33750    0.42160    1.000
    O47      O        0.94360    0.96550    0.07270    1.000
    O48      O        0.90000    0.71740    0.14582    1.000
    O49      O        0.43270    0.25980    0.44968    1.000
    O50      O        0.39900    0.70130    0.07074    1.000
    O51      O        0.38990    0.37920    0.66330    1.000
    O52      O        0.28700    0.48590    0.15370    1.000
    O53      O        0.08450    0.20740    0.20336    1.000
    O54      O        0.88990    0.87920    0.83670    1.000
    O55      O        0.59140    0.23110    0.28364    1.000
    O56      O        0.86880    0.09910    0.45410    1.000
    O57      O        0.07890    0.82190    0.98266    1.000
    O58      O        0.10100    0.79870    0.57074    1.000
    O59      O        0.71300    0.51410    0.84630    1.000
    O60      O        0.59860    0.62680    0.97205    1.000
    O61      O        0.13120    0.90090    0.54590    1.000
    O62      O        0.57230    0.12400    0.26681    1.000
    O63      O        0.58270    0.24590    0.60779    1.000
    O64      O        0.33950    0.65090    0.39090    1.000
    O65      O        0.60000    0.78260    0.64582    1.000
    O66      O        0.46950    0.43960    0.75010    1.000
    O67      O        0.59680    0.42820    0.85630    1.000
    O68      O        0.40320    0.57180    0.14370    1.000
    O69      O        0.90860    0.26890    0.78364    1.000
    O70      O        0.33180    0.67420    0.54152    1.000
    O71      O        0.62200    0.66710    0.81916    1.000
    O72      O        0.55640    0.53450    0.57270    1.000
    O73      O        0.41800    0.71780    0.80887    1.000
    O74      O        0.08200    0.78220    0.30887    1.000
    O75      O        0.66820    0.32580    0.45848    1.000
    O76      O        0.16820    0.82580    0.04152    1.000
    O77      O        0.63120    0.40090    0.95410    1.000
    O78      O        0.78700    0.98590    0.34630    1.000
    O79      O        0.46230    0.34570    0.11999    1.000
    O80      O        0.12200    0.16710    0.68084    1.000
    O81      O        0.69160    0.36100    0.21750    1.000
    O82      O        0.90320    0.07180    0.35630    1.000
    O83      O        0.19160    0.86100    0.28250    1.000
    O84      O        0.89900    0.20130    0.42926    1.000
    O85      O        0.91550    0.79260    0.79664    1.000
    O86      O        0.40000    0.21740    0.35418    1.000
    O87      O        0.37800    0.33290    0.18084    1.000
    O88      O        0.42110    0.67810    0.48266    1.000
    O89      O        0.58200    0.28220    0.19113    1.000
    O90      O        0.87580    0.60830    0.13593    1.000
    O91      O        0.96950    0.93960    0.74990    1.000
    O92      O        0.40860    0.76890    0.71636    1.000
    O93      O        0.44360    0.46550    0.42730    1.000
    O94      O        0.92770    0.37600    0.76681    1.000
    O95      O        0.09140    0.73110    0.21636    1.000
    O96      O        0.96180    0.17250    0.87833    1.000
    O97      O        0.64100    0.66250    0.57840    1.000
    O98      O        0.03770    0.15430    0.61999    1.000
    O99      O        0.83180    0.17420    0.95848    1.000
    O100     O        0.83950    0.15090    0.10910    1.000
    O101     O        0.42770    0.87600    0.73319    1.000
    O102     O        0.90140    0.87320    0.47205    1.000
    O103     O        0.08270    0.74590    0.89221    1.000
    O104     O        0.40140    0.37320    0.02795    1.000
