# CIF file generated by openbabel 3.1.0, see https://openbabel.org
data_I
_chemical_name_common 'image0'
_cell_length_a 11.3018
_cell_length_b 10.3583
_cell_length_c 21.3661
_cell_angle_alpha 90
_cell_angle_beta 95.066
_cell_angle_gamma 90
_space_group_name_H-M_alt 'P 1'
_space_group_name_Hall 'P 1'
loop_
    _symmetry_equiv_pos_as_xyz
    x,y,z
loop_
    _atom_site_label
    _atom_site_type_symbol
    _atom_site_fract_x
    _atom_site_fract_y
    _atom_site_fract_z
    _atom_site_occupancy
    C1       C        0.79810    0.00980    0.52480    1.000
    H1       H        0.80350    0.06920    0.49250    1.000
    C2       C        0.87680    0.90880    0.52980    1.000
    H2       H        0.93290    0.89950    0.50070    1.000
    C3       C        0.87250    0.82080    0.57810    1.000
    C4       C        0.78680    0.83900    0.61950    1.000
    H3       H        0.78100    0.78260    0.65300    1.000
    C5       C        0.71030    0.94120    0.61064    1.000
    H4       H        0.65240    0.95200    0.63850    1.000
    C6       C        0.95610    0.71080    0.58490    1.000
    C7       C        0.17020    0.56480    0.51690    1.000
    C8       C        0.26050    0.46320    0.52340    1.000
    C9       C        0.27650    0.38300    0.57470    1.000
    H5       H        0.22530    0.38810    0.60640    1.000
    C10      C        0.36810    0.29520    0.57920    1.000
    H6       H        0.37690    0.24150    0.61420    1.000
    C11      C        0.42690    0.35840    0.48457    1.000
    H7       H        0.47780    0.35000    0.45290    1.000
    C12      C        0.33680    0.44710    0.47705    1.000
    H8       H        0.32710    0.49650    0.44060    1.000
    C13      C        0.61800    0.13130    0.35564    1.000
    C14      C        0.65720    0.25220    0.33867    1.000
    H9       H        0.67350    0.31510    0.36930    1.000
    C15      C        0.67210    0.27960    0.27667    1.000
    H10      H        0.69820    0.36110    0.26590    1.000
    C16      C        0.64870    0.18720    0.23009    1.000
    C17      C        0.61350    0.06640    0.24868    1.000
    C18      C        0.59720    0.03640    0.31006    1.000
    H11      H        0.57280    0.95430    0.32080    1.000
    C19      C        0.66070    0.22180    0.16181    1.000
    C20      C        0.59620    0.09960    0.42262    1.000
    N1       N        0.71500    0.02640    0.56378    1.000
    N2       N        0.02930    0.69340    0.54530    1.000
    N3       N        0.10410    0.58690    0.56012    1.000
    N4       N        0.44490    0.28350    0.53550    1.000
    N5       N        0.58850    0.96440    0.20250    1.000
    O1       O        0.62080    0.18850    0.46279    1.000
    O2       O        0.55740    0.99210    0.43435    1.000
    O3       O        0.58990    0.30810    0.14012    1.000
    O4       O        0.73550    0.16640    0.13296    1.000
    O5       O        0.53800    0.99190    0.15148    1.000
    O6       O        0.61550    0.85350    0.21650    1.000
    Cu1      Cu       0.58435    0.15969    0.54935    1.000
    H12      H        0.16000    0.62300    0.48100    1.000
    H13      H        0.95000    0.65200    0.62100    1.000
    C21      C        0.79810    0.49020    0.02480    1.000
    H14      H        0.80350    0.43080    0.99250    1.000
    C22      C        0.87680    0.59120    0.02980    1.000
    H15      H        0.93290    0.60050    0.00070    1.000
    C23      C        0.87250    0.67920    0.07810    1.000
    C24      C        0.78680    0.66100    0.11950    1.000
    H16      H        0.78100    0.71740    0.15300    1.000
    C25      C        0.71030    0.55880    0.11064    1.000
    H17      H        0.65240    0.54800    0.13850    1.000
    C26      C        0.95610    0.78920    0.08490    1.000
    C27      C        0.17020    0.93520    0.01690    1.000
    C28      C        0.26050    0.03680    0.02340    1.000
    C29      C        0.27650    0.11700    0.07470    1.000
    H18      H        0.22530    0.11190    0.10640    1.000
    C30      C        0.36810    0.20480    0.07920    1.000
    H19      H        0.37690    0.25850    0.11420    1.000
    C31      C        0.42690    0.14160    0.98457    1.000
    H20      H        0.47780    0.15000    0.95290    1.000
    C32      C        0.33680    0.05290    0.97705    1.000
    H21      H        0.32710    0.00350    0.94060    1.000
    C33      C        0.61800    0.36870    0.85564    1.000
    C34      C        0.65720    0.24780    0.83867    1.000
    H22      H        0.67350    0.18490    0.86930    1.000
    C35      C        0.67210    0.22040    0.77667    1.000
    H23      H        0.69820    0.13890    0.76590    1.000
    C36      C        0.64870    0.31280    0.73009    1.000
    C37      C        0.61350    0.43360    0.74868    1.000
    C38      C        0.59720    0.46360    0.81006    1.000
    H24      H        0.57280    0.54570    0.82080    1.000
    C39      C        0.66070    0.27820    0.66181    1.000
    C40      C        0.59620    0.40040    0.92262    1.000
    N6       N        0.71500    0.47360    0.06378    1.000
    N7       N        0.02930    0.80660    0.04530    1.000
    N8       N        0.10410    0.91310    0.06012    1.000
    N9       N        0.44490    0.21650    0.03550    1.000
    N10      N        0.58850    0.53560    0.70250    1.000
    O7       O        0.62080    0.31150    0.96279    1.000
    O8       O        0.55740    0.50790    0.93435    1.000
    O9       O        0.58990    0.19190    0.64012    1.000
    O10      O        0.73550    0.33360    0.63296    1.000
    O11      O        0.53800    0.50810    0.65148    1.000
    O12      O        0.61550    0.64650    0.71650    1.000
    Cu2      Cu       0.58435    0.34031    0.04935    1.000
    H25      H        0.16000    0.87700    0.98100    1.000
    H26      H        0.95000    0.84800    0.12100    1.000
    C41      C        0.20190    0.50980    0.97520    1.000
    H27      H        0.19650    0.56920    0.00750    1.000
    C42      C        0.12320    0.40880    0.97020    1.000
    H28      H        0.06710    0.39950    0.99930    1.000
    C43      C        0.12750    0.32080    0.92190    1.000
    C44      C        0.21320    0.33900    0.88050    1.000
    H29      H        0.21900    0.28260    0.84700    1.000
    C45      C        0.28970    0.44120    0.88936    1.000
    H30      H        0.34760    0.45200    0.86150    1.000
    C46      C        0.04390    0.21080    0.91510    1.000
    C47      C        0.82980    0.06480    0.98310    1.000
    C48      C        0.73950    0.96320    0.97660    1.000
    C49      C        0.72350    0.88300    0.92530    1.000
    H31      H        0.77470    0.88810    0.89360    1.000
    C50      C        0.63190    0.79520    0.92080    1.000
    H32      H        0.62310    0.74150    0.88580    1.000
    C51      C        0.57310    0.85840    0.01543    1.000
    H33      H        0.52220    0.85000    0.04710    1.000
    C52      C        0.66320    0.94710    0.02295    1.000
    H34      H        0.67290    0.99650    0.05940    1.000
    C53      C        0.38200    0.63130    0.14436    1.000
    C54      C        0.34280    0.75220    0.16133    1.000
    H35      H        0.32650    0.81510    0.13070    1.000
    C55      C        0.32790    0.77960    0.22333    1.000
    H36      H        0.30180    0.86110    0.23410    1.000
    C56      C        0.35130    0.68720    0.26991    1.000
    C57      C        0.38650    0.56640    0.25132    1.000
    C58      C        0.40280    0.53640    0.18994    1.000
    H37      H        0.42720    0.45430    0.17920    1.000
    C59      C        0.33930    0.72180    0.33819    1.000
    C60      C        0.40380    0.59960    0.07738    1.000
    N11      N        0.28500    0.52640    0.93622    1.000
    N12      N        0.97070    0.19340    0.95470    1.000
    N13      N        0.89590    0.08690    0.93988    1.000
    N14      N        0.55510    0.78350    0.96450    1.000
    N15      N        0.41150    0.46440    0.29750    1.000
    O13      O        0.37920    0.68850    0.03721    1.000
    O14      O        0.44260    0.49210    0.06565    1.000
    O15      O        0.41010    0.80810    0.35988    1.000
    O16      O        0.26450    0.66640    0.36704    1.000
    O17      O        0.46200    0.49190    0.34852    1.000
    O18      O        0.38450    0.35350    0.28350    1.000
    Cu3      Cu       0.41565    0.65969    0.95065    1.000
    H38      H        0.84000    0.12300    0.01900    1.000
    H39      H        0.05000    0.15200    0.87900    1.000
    C61      C        0.20190    0.99020    0.47520    1.000
    H40      H        0.19650    0.93080    0.50750    1.000
    C62      C        0.12320    0.09120    0.47020    1.000
    H41      H        0.06710    0.10050    0.49930    1.000
    C63      C        0.12750    0.17920    0.42190    1.000
    C64      C        0.21320    0.16100    0.38050    1.000
    H42      H        0.21900    0.21740    0.34700    1.000
    C65      C        0.28970    0.05880    0.38936    1.000
    H43      H        0.34760    0.04800    0.36150    1.000
    C66      C        0.04390    0.28920    0.41510    1.000
    C67      C        0.82980    0.43520    0.48310    1.000
    C68      C        0.73950    0.53680    0.47660    1.000
    C69      C        0.72350    0.61700    0.42530    1.000
    H44      H        0.77470    0.61190    0.39360    1.000
    C70      C        0.63190    0.70480    0.42080    1.000
    H45      H        0.62310    0.75850    0.38580    1.000
    C71      C        0.57310    0.64160    0.51543    1.000
    H46      H        0.52220    0.65000    0.54710    1.000
    C72      C        0.66320    0.55290    0.52295    1.000
    H47      H        0.67290    0.50350    0.55940    1.000
    C73      C        0.38200    0.86870    0.64436    1.000
    C74      C        0.34280    0.74780    0.66133    1.000
    H48      H        0.32650    0.68490    0.63070    1.000
    C75      C        0.32790    0.72040    0.72333    1.000
    H49      H        0.30180    0.63890    0.73410    1.000
    C76      C        0.35130    0.81280    0.76991    1.000
    C77      C        0.38650    0.93360    0.75132    1.000
    C78      C        0.40280    0.96360    0.68994    1.000
    H50      H        0.42720    0.04570    0.67920    1.000
    C79      C        0.33930    0.77820    0.83819    1.000
    C80      C        0.40380    0.90040    0.57738    1.000
    N16      N        0.28500    0.97360    0.43622    1.000
    N17      N        0.97070    0.30660    0.45470    1.000
    N18      N        0.89590    0.41310    0.43988    1.000
    N19      N        0.55510    0.71650    0.46450    1.000
    N20      N        0.41150    0.03560    0.79750    1.000
    O19      O        0.37920    0.81150    0.53721    1.000
    O20      O        0.44260    0.00790    0.56565    1.000
    O21      O        0.41010    0.69190    0.85988    1.000
    O22      O        0.26450    0.83360    0.86704    1.000
    O23      O        0.46200    0.00810    0.84852    1.000
    O24      O        0.38450    0.14650    0.78350    1.000
    Cu4      Cu       0.41565    0.84031    0.45065    1.000
    H51      H        0.84000    0.37700    0.51900    1.000
    H52      H        0.05000    0.34800    0.37900    1.000
