data_functionalizedCrystal
_audit_creation_method	'EQeq! by Chris Wilmer'
_symmetry_space_group_name_H-M	'P1'
_symmetry_Int_Tables_number	1
_symmetry_cell_setting	triclinic
loop_
_symmetry_equiv_pos_as_xyz
  x,y,z
_cell_length_a	11.3197
_cell_length_b	11.3197
_cell_length_c	37.354
_cell_angle_alpha	90
_cell_angle_beta	90
_cell_angle_gamma	94.4707
loop_
_atom_site_label
_atom_site_type_symbol
_atom_site_fract_x
_atom_site_fract_y
_atom_site_fract_z
_atom_site_charge
Mof_Cd	Cd	0.09802	0.69322	0.3521	0.47
Mof_Cd	Cd	0.38221	0.97935	0.33569	0.44
Mof_Cd	Cd	0.40198	0.80678	0.8521	0.469
Mof_Cd	Cd	0.11779	0.52065	0.83569	0.44
Mof_Cd	Cd	0.19322	0.59802	0.1479	0.469
Mof_Cd	Cd	0.47935	0.88221	0.16431	0.44
Mof_Cd	Cd	0.30678	0.90198	0.6479	0.47
Mof_Cd	Cd	0.02065	0.61779	0.66431	0.44
Mof_Cd	Cd	0.90198	0.30678	0.6479	0.47
Mof_Cd	Cd	0.61779	0.02065	0.66431	0.44
Mof_Cd	Cd	0.59802	0.19322	0.1479	0.469
Mof_Cd	Cd	0.88221	0.47935	0.16431	0.44
Mof_Cd	Cd	0.80678	0.40198	0.8521	0.469
Mof_Cd	Cd	0.52065	0.11779	0.83569	0.44
Mof_Cd	Cd	0.69322	0.09802	0.3521	0.47
Mof_Cd	Cd	0.97935	0.38221	0.33569	0.44
Mof_Cd	Cd	0.53842	0.53842	0.34886	0.529
Mof_Cd	Cd	0.96158	0.96158	0.84886	0.531
Mof_Cd	Cd	0.03842	0.03842	0.15114	0.531
Mof_Cd	Cd	0.46158	0.46158	0.65114	0.529
Mof_H 	H 	0.2439	0.5829	0.4202	0.036
Mof_H 	H 	0.9794	0.7848	0.421	0.013
Mof_H 	H 	0.227	0.559	0.4823	0.092
Mof_H 	H 	0.9629	0.7697	0.4831	0.088
Mof_H 	H 	0.2109	0.5623	0.6004	0.037
Mof_H 	H 	0.2253	0.5609	0.5383	0.095
Mof_H 	H 	0.9201	0.7281	0.5935	0.011
Mof_H 	H 	0.9341	0.7345	0.5323	0.092
Mof_H 	H 	0.2561	0.9171	0.9202	0.036
Mof_H 	H 	0.5206	0.7152	0.921	0.014
Mof_H 	H 	0.273	0.941	0.9823	0.092
Mof_H 	H 	0.5371	0.7303	0.9831	0.088
Mof_H 	H 	0.2891	0.9377	0.1004	0.037
Mof_H 	H 	0.2747	0.9391	0.0383	0.095
Mof_H 	H 	0.5799	0.7719	0.0935	0.011
Mof_H 	H 	0.5659	0.7655	0.0323	0.092
Mof_H 	H 	0.0829	0.7439	0.0798	0.036
Mof_H 	H 	0.2848	0.4794	0.079	0.014
Mof_H 	H 	0.059	0.727	0.0177	0.092
Mof_H 	H 	0.2697	0.4629	0.0169	0.088
Mof_H 	H 	0.0623	0.7109	0.8996	0.037
Mof_H 	H 	0.0609	0.7253	0.9617	0.095
Mof_H 	H 	0.2281	0.4201	0.9065	0.011
Mof_H 	H 	0.2345	0.4341	0.9677	0.092
Mof_H 	H 	0.4171	0.7561	0.5798	0.036
Mof_H 	H 	0.2152	0.0206	0.579	0.013
Mof_H 	H 	0.441	0.773	0.5177	0.092
Mof_H 	H 	0.2303	0.0371	0.5169	0.088
Mof_H 	H 	0.4377	0.7891	0.3996	0.037
Mof_H 	H 	0.4391	0.7747	0.4617	0.095
Mof_H 	H 	0.2719	0.0799	0.4065	0.011
Mof_H 	H 	0.2655	0.0659	0.4677	0.092
Mof_H 	H 	0.7561	0.4171	0.5798	0.036
Mof_H 	H 	0.0206	0.2152	0.579	0.013
Mof_H 	H 	0.773	0.441	0.5177	0.092
Mof_H 	H 	0.0371	0.2303	0.5169	0.088
Mof_H 	H 	0.7891	0.4377	0.3996	0.037
Mof_H 	H 	0.7747	0.4391	0.4617	0.095
Mof_H 	H 	0.0799	0.2719	0.4065	0.011
Mof_H 	H 	0.0659	0.2655	0.4677	0.092
Mof_H 	H 	0.7439	0.0829	0.0798	0.036
Mof_H 	H 	0.4794	0.2848	0.079	0.014
Mof_H 	H 	0.727	0.059	0.0177	0.092
Mof_H 	H 	0.4629	0.2697	0.0169	0.088
Mof_H 	H 	0.7109	0.0623	0.8996	0.037
Mof_H 	H 	0.7253	0.0609	0.9617	0.095
Mof_H 	H 	0.4201	0.2281	0.9065	0.011
Mof_H 	H 	0.4341	0.2345	0.9677	0.092
Mof_H 	H 	0.9171	0.2561	0.9202	0.036
Mof_H 	H 	0.7152	0.5206	0.921	0.014
Mof_H 	H 	0.941	0.273	0.9823	0.092
Mof_H 	H 	0.7303	0.5371	0.9831	0.088
Mof_H 	H 	0.9377	0.2891	0.1004	0.037
Mof_H 	H 	0.9391	0.2747	0.0383	0.095
Mof_H 	H 	0.7719	0.5799	0.0935	0.011
Mof_H 	H 	0.7655	0.5659	0.0323	0.092
Mof_H 	H 	0.5829	0.2439	0.4202	0.036
Mof_H 	H 	0.7848	0.9794	0.421	0.013
Mof_H 	H 	0.559	0.227	0.4823	0.092
Mof_H 	H 	0.7697	0.9629	0.4831	0.088
Mof_H 	H 	0.5623	0.2109	0.6004	0.037
Mof_H 	H 	0.5609	0.2253	0.5383	0.095
Mof_H 	H 	0.7281	0.9201	0.5935	0.011
Mof_H 	H 	0.7345	0.9341	0.5323	0.092
Mof_H 	H 	0.5152	0.0152	0.25	0.041
Mof_H 	H 	0.9848	0.4848	0.75	0.041
Mof_H 	H 	0.4848	0.9848	0.75	0.041
Mof_H 	H 	0.0152	0.5152	0.25	0.041
Mof_H 	H 	0.9836	0.9836	0.3572	0.005
Mof_H 	H 	0.1011	0.1011	0.3252	0.012
Mof_H 	H 	0.5164	0.5164	0.8572	0.006
Mof_H 	H 	0.3989	0.3989	0.8252	0.011
Mof_H 	H 	0.4836	0.4836	0.1428	0.006
Mof_H 	H 	0.6011	0.6011	0.1748	0.011
Mof_H 	H 	0.0164	0.0164	0.6428	0.005
Mof_H 	H 	0.8989	0.8989	0.6748	0.012
Mof_C 	C 	0.2242	0.779	0.2949	0.279
Mof_C 	C 	0.3079	0.8309	0.2672	0.005
Mof_C 	C 	0.8228	0.6144	0.3434	0.31
Mof_C 	C 	0.8308	0.743	0.3477	-0.009
Mof_C 	C 	0.4617	0.2517	0.353	0.254
Mof_C 	C 	0.3345	0.2495	0.3454	-0.001
Mof_C 	C 	0.1847	0.6209	0.4328	0.069
Mof_C 	C 	0.0327	0.7381	0.4332	0.095
Mof_C 	C 	0.0965	0.6609	0.4889	0.065
Mof_C 	C 	0.0832	0.6532	0.5288	0.068
Mof_C 	C 	0.1751	0.6077	0.4702	-0.124
Mof_C 	C 	0.0209	0.7291	0.4707	-0.127
Mof_C 	C 	0.152	0.5968	0.5867	0.076
Mof_C 	C 	0.1625	0.5983	0.5494	-0.122
Mof_C 	C 	0.9847	0.6933	0.5826	0.087
Mof_C 	C 	0.9929	0.6985	0.5457	-0.136
Mof_C 	C 	0.2758	0.721	0.7949	0.279
Mof_C 	C 	0.1921	0.6691	0.7672	0.005
Mof_C 	C 	0.6772	0.8856	0.8434	0.31
Mof_C 	C 	0.6692	0.757	0.8477	-0.009
Mof_C 	C 	0.0383	0.2483	0.853	0.25
Mof_C 	C 	0.1655	0.2505	0.8454	-0
Mof_C 	C 	0.3153	0.8791	0.9328	0.069
Mof_C 	C 	0.4673	0.7619	0.9332	0.093
Mof_C 	C 	0.4035	0.8391	0.9889	0.065
Mof_C 	C 	0.4168	0.8468	0.0288	0.068
Mof_C 	C 	0.3249	0.8923	0.9702	-0.124
Mof_C 	C 	0.4791	0.7709	0.9707	-0.127
Mof_C 	C 	0.348	0.9032	0.0867	0.076
Mof_C 	C 	0.3375	0.9017	0.0494	-0.122
Mof_C 	C 	0.5153	0.8067	0.0826	0.086
Mof_C 	C 	0.5071	0.8015	0.0457	-0.136
Mof_C 	C 	0.279	0.7242	0.2051	0.279
Mof_C 	C 	0.3309	0.8079	0.2328	0.005
Mof_C 	C 	0.1144	0.3228	0.1566	0.31
Mof_C 	C 	0.243	0.3308	0.1523	-0.009
Mof_C 	C 	0.7517	0.9617	0.147	0.25
Mof_C 	C 	0.7495	0.8345	0.1546	-0
Mof_C 	C 	0.1209	0.6847	0.0672	0.069
Mof_C 	C 	0.2381	0.5327	0.0668	0.093
Mof_C 	C 	0.1609	0.5965	0.0111	0.065
Mof_C 	C 	0.1532	0.5832	0.9712	0.068
Mof_C 	C 	0.1077	0.6751	0.0298	-0.124
Mof_C 	C 	0.2291	0.5209	0.0293	-0.127
Mof_C 	C 	0.0968	0.652	0.9133	0.076
Mof_C 	C 	0.0983	0.6625	0.9506	-0.122
Mof_C 	C 	0.1933	0.4847	0.9174	0.086
Mof_C 	C 	0.1985	0.4929	0.9543	-0.136
Mof_C 	C 	0.221	0.7758	0.7051	0.279
Mof_C 	C 	0.1691	0.6921	0.7328	0.005
Mof_C 	C 	0.3856	0.1772	0.6566	0.31
Mof_C 	C 	0.257	0.1692	0.6523	-0.009
Mof_C 	C 	0.7483	0.5383	0.647	0.254
Mof_C 	C 	0.7505	0.6655	0.6546	-0.001
Mof_C 	C 	0.3791	0.8153	0.5672	0.069
Mof_C 	C 	0.2619	0.9673	0.5668	0.095
Mof_C 	C 	0.3391	0.9035	0.5111	0.065
Mof_C 	C 	0.3468	0.9168	0.4712	0.068
Mof_C 	C 	0.3923	0.8249	0.5298	-0.124
Mof_C 	C 	0.2709	0.9791	0.5293	-0.127
Mof_C 	C 	0.4032	0.848	0.4133	0.076
Mof_C 	C 	0.4017	0.8375	0.4506	-0.122
Mof_C 	C 	0.3067	0.0153	0.4174	0.087
Mof_C 	C 	0.3015	0.0071	0.4543	-0.136
Mof_C 	C 	0.7758	0.221	0.7051	0.279
Mof_C 	C 	0.6921	0.1691	0.7328	0.005
Mof_C 	C 	0.1772	0.3856	0.6566	0.31
Mof_C 	C 	0.1692	0.257	0.6523	-0.009
Mof_C 	C 	0.5383	0.7483	0.647	0.254
Mof_C 	C 	0.6655	0.7505	0.6546	-0.001
Mof_C 	C 	0.8153	0.3791	0.5672	0.069
Mof_C 	C 	0.9673	0.2619	0.5668	0.095
Mof_C 	C 	0.9035	0.3391	0.5111	0.065
Mof_C 	C 	0.9168	0.3468	0.4712	0.068
Mof_C 	C 	0.8249	0.3923	0.5298	-0.124
Mof_C 	C 	0.9791	0.2709	0.5293	-0.127
Mof_C 	C 	0.848	0.4032	0.4133	0.076
Mof_C 	C 	0.8375	0.4017	0.4506	-0.122
Mof_C 	C 	0.0153	0.3067	0.4174	0.087
Mof_C 	C 	0.0071	0.3015	0.4543	-0.136
Mof_C 	C 	0.7242	0.279	0.2051	0.279
Mof_C 	C 	0.8079	0.3309	0.2328	0.005
Mof_C 	C 	0.3228	0.1144	0.1566	0.31
Mof_C 	C 	0.3308	0.243	0.1523	-0.009
Mof_C 	C 	0.9617	0.7517	0.147	0.25
Mof_C 	C 	0.8345	0.7495	0.1546	-0
Mof_C 	C 	0.6847	0.1209	0.0672	0.069
Mof_C 	C 	0.5327	0.2381	0.0668	0.093
Mof_C 	C 	0.5965	0.1609	0.0111	0.065
Mof_C 	C 	0.5832	0.1532	0.9712	0.068
Mof_C 	C 	0.6751	0.1077	0.0298	-0.124
Mof_C 	C 	0.5209	0.2291	0.0293	-0.127
Mof_C 	C 	0.652	0.0968	0.9133	0.076
Mof_C 	C 	0.6625	0.0983	0.9506	-0.122
Mof_C 	C 	0.4847	0.1933	0.9174	0.086
Mof_C 	C 	0.4929	0.1985	0.9543	-0.136
Mof_C 	C 	0.721	0.2758	0.7949	0.279
Mof_C 	C 	0.6691	0.1921	0.7672	0.005
Mof_C 	C 	0.8856	0.6772	0.8434	0.31
Mof_C 	C 	0.757	0.6692	0.8477	-0.009
Mof_C 	C 	0.2483	0.0383	0.853	0.25
Mof_C 	C 	0.2505	0.1655	0.8454	-0
Mof_C 	C 	0.8791	0.3153	0.9328	0.069
Mof_C 	C 	0.7619	0.4673	0.9332	0.093
Mof_C 	C 	0.8391	0.4035	0.9889	0.065
Mof_C 	C 	0.8468	0.4168	0.0288	0.068
Mof_C 	C 	0.8923	0.3249	0.9702	-0.124
Mof_C 	C 	0.7709	0.4791	0.9707	-0.127
Mof_C 	C 	0.9032	0.348	0.0867	0.076
Mof_C 	C 	0.9017	0.3375	0.0494	-0.122
Mof_C 	C 	0.8067	0.5153	0.0826	0.086
Mof_C 	C 	0.8015	0.5071	0.0457	-0.136
Mof_C 	C 	0.779	0.2242	0.2949	0.279
Mof_C 	C 	0.8309	0.3079	0.2672	0.005
Mof_C 	C 	0.6144	0.8228	0.3434	0.31
Mof_C 	C 	0.743	0.8308	0.3477	-0.009
Mof_C 	C 	0.2517	0.4617	0.353	0.254
Mof_C 	C 	0.2495	0.3345	0.3454	-0.001
Mof_C 	C 	0.6209	0.1847	0.4328	0.069
Mof_C 	C 	0.7381	0.0327	0.4332	0.095
Mof_C 	C 	0.6609	0.0965	0.4889	0.065
Mof_C 	C 	0.6532	0.0832	0.5288	0.068
Mof_C 	C 	0.6077	0.1751	0.4702	-0.124
Mof_C 	C 	0.7291	0.0209	0.4707	-0.127
Mof_C 	C 	0.5968	0.152	0.5867	0.076
Mof_C 	C 	0.5983	0.1625	0.5494	-0.122
Mof_C 	C 	0.6933	0.9847	0.5826	0.087
Mof_C 	C 	0.6985	0.9929	0.5457	-0.136
Mof_C 	C 	0.4534	0.9534	0.25	0.096
Mof_C 	C 	0.0466	0.5466	0.75	0.096
Mof_C 	C 	0.5466	0.0466	0.75	0.096
Mof_C 	C 	0.9534	0.4534	0.25	0.096
Mof_C 	C 	0.9222	0.9222	0.3542	0.091
Mof_C 	C 	0.1612	0.1612	0.3311	0.093
Mof_C 	C 	0.5778	0.5778	0.8542	0.091
Mof_C 	C 	0.3388	0.3388	0.8311	0.093
Mof_C 	C 	0.4222	0.4222	0.1458	0.091
Mof_C 	C 	0.6612	0.6612	0.1689	0.093
Mof_C 	C 	0.0778	0.0778	0.6458	0.091
Mof_C 	C 	0.8388	0.8388	0.6689	0.093
Mof_N 	N 	0.3861	0.9247	0.2792	-0.131
Mof_N 	N 	0.9396	0.8044	0.3518	-0.131
Mof_N 	N 	0.277	0.1462	0.3361	-0.135
Mof_N 	N 	0.1086	0.6884	0.4143	-0.151
Mof_N 	N 	0.0604	0.643	0.6039	-0.147
Mof_N 	N 	0.1139	0.5753	0.7792	-0.131
Mof_N 	N 	0.5604	0.6956	0.8518	-0.131
Mof_N 	N 	0.223	0.3538	0.8361	-0.136
Mof_N 	N 	0.3914	0.8116	0.9143	-0.151
Mof_N 	N 	0.4396	0.857	0.1039	-0.147
Mof_N 	N 	0.4247	0.8861	0.2208	-0.131
Mof_N 	N 	0.3044	0.4396	0.1482	-0.131
Mof_N 	N 	0.6462	0.777	0.1639	-0.136
Mof_N 	N 	0.1884	0.6086	0.0857	-0.151
Mof_N 	N 	0.143	0.5604	0.8961	-0.147
Mof_N 	N 	0.0753	0.6139	0.7208	-0.131
Mof_N 	N 	0.1956	0.0604	0.6482	-0.131
Mof_N 	N 	0.8538	0.723	0.6639	-0.135
Mof_N 	N 	0.3116	0.8914	0.5857	-0.151
Mof_N 	N 	0.357	0.9396	0.3961	-0.147
Mof_N 	N 	0.6139	0.0753	0.7208	-0.131
Mof_N 	N 	0.0604	0.1956	0.6482	-0.131
Mof_N 	N 	0.723	0.8538	0.6639	-0.135
Mof_N 	N 	0.8914	0.3116	0.5857	-0.151
Mof_N 	N 	0.9396	0.357	0.3961	-0.147
Mof_N 	N 	0.8861	0.4247	0.2208	-0.131
Mof_N 	N 	0.4396	0.3044	0.1482	-0.131
Mof_N 	N 	0.777	0.6462	0.1639	-0.136
Mof_N 	N 	0.6086	0.1884	0.0857	-0.151
Mof_N 	N 	0.5604	0.143	0.8961	-0.147
Mof_N 	N 	0.5753	0.1139	0.7792	-0.131
Mof_N 	N 	0.6956	0.5604	0.8518	-0.131
Mof_N 	N 	0.3538	0.223	0.8361	-0.136
Mof_N 	N 	0.8116	0.3914	0.9143	-0.151
Mof_N 	N 	0.857	0.4396	0.1039	-0.147
Mof_N 	N 	0.9247	0.3861	0.2792	-0.131
Mof_N 	N 	0.8044	0.9396	0.3518	-0.131
Mof_N 	N 	0.1462	0.277	0.3361	-0.135
Mof_N 	N 	0.6884	0.1086	0.4143	-0.151
Mof_N 	N 	0.643	0.0604	0.6039	-0.147
Mof_O 	O 	0.2365	0.8215	0.327	-0.29
Mof_O 	O 	0.151	0.6942	0.2882	-0.233
Mof_O 	O 	0.9276	0.5794	0.3439	-0.287
Mof_O 	O 	0.7315	0.5483	0.3398	-0.274
Mof_O 	O 	0.5267	0.3439	0.3613	-0.248
Mof_O 	O 	0.5155	0.1473	0.3515	-0.263
Mof_O 	O 	0.2635	0.6785	0.827	-0.29
Mof_O 	O 	0.349	0.8058	0.7882	-0.234
Mof_O 	O 	0.5724	0.9206	0.8439	-0.286
Mof_O 	O 	0.7685	0.9517	0.8398	-0.273
Mof_O 	O 	0.9733	0.1561	0.8613	-0.246
Mof_O 	O 	0.9845	0.3527	0.8515	-0.262
Mof_O 	O 	0.3215	0.7365	0.173	-0.29
Mof_O 	O 	0.1942	0.651	0.2118	-0.234
Mof_O 	O 	0.0794	0.4276	0.1561	-0.286
Mof_O 	O 	0.0483	0.2315	0.1602	-0.273
Mof_O 	O 	0.8439	0.0267	0.1387	-0.246
Mof_O 	O 	0.6473	0.0155	0.1485	-0.262
Mof_O 	O 	0.1785	0.7635	0.673	-0.29
Mof_O 	O 	0.3058	0.849	0.7118	-0.233
Mof_O 	O 	0.4206	0.0724	0.6561	-0.287
Mof_O 	O 	0.4517	0.2685	0.6602	-0.274
Mof_O 	O 	0.6561	0.4733	0.6387	-0.248
Mof_O 	O 	0.8527	0.4845	0.6485	-0.263
Mof_O 	O 	0.7635	0.1785	0.673	-0.29
Mof_O 	O 	0.849	0.3058	0.7118	-0.233
Mof_O 	O 	0.0724	0.4206	0.6561	-0.287
Mof_O 	O 	0.2685	0.4517	0.6602	-0.274
Mof_O 	O 	0.4733	0.6561	0.6387	-0.248
Mof_O 	O 	0.4845	0.8527	0.6485	-0.263
Mof_O 	O 	0.7365	0.3215	0.173	-0.29
Mof_O 	O 	0.651	0.1942	0.2118	-0.234
Mof_O 	O 	0.4276	0.0794	0.1561	-0.286
Mof_O 	O 	0.2315	0.0483	0.1602	-0.273
Mof_O 	O 	0.0267	0.8439	0.1387	-0.246
Mof_O 	O 	0.0155	0.6473	0.1485	-0.262
Mof_O 	O 	0.6785	0.2635	0.827	-0.29
Mof_O 	O 	0.8058	0.349	0.7882	-0.234
Mof_O 	O 	0.9206	0.5724	0.8439	-0.286
Mof_O 	O 	0.9517	0.7685	0.8398	-0.273
Mof_O 	O 	0.1561	0.9733	0.8613	-0.246
Mof_O 	O 	0.3527	0.9845	0.8515	-0.262
Mof_O 	O 	0.8215	0.2365	0.327	-0.29
Mof_O 	O 	0.6942	0.151	0.2882	-0.233
Mof_O 	O 	0.5794	0.9276	0.3439	-0.287
Mof_O 	O 	0.5483	0.7315	0.3398	-0.274
Mof_O 	O 	0.3439	0.5267	0.3613	-0.248
Mof_O 	O 	0.1473	0.5155	0.3515	-0.263
Mof_O 	O 	0.57	0.57	0.4075	-0.144
Mof_O 	O 	0.4967	0.4967	0.2905	-0.147
Mof_O 	O 	0.93	0.93	0.9075	-0.144
Mof_O 	O 	0.0033	0.0033	0.7905	-0.15
Mof_O 	O 	0.07	0.07	0.0925	-0.144
Mof_O 	O 	0.9967	0.9967	0.2095	-0.15
Mof_O 	O 	0.43	0.43	0.5925	-0.144
Mof_O 	O 	0.5033	0.5033	0.7095	-0.147
Mof_N 	N 	0.7	0.7	0.4807	0.048
Mof_O 	O 	0.616	0.616	0.4862	-0.106
Mof_O 	O 	0.7461	0.7461	0.5055	-0.145
Mof_O 	O 	0.7283	0.7283	0.4477	-0.115
Mof_N 	N 	0.8	0.8	0.9807	0.048
Mof_O 	O 	0.884	0.884	0.9862	-0.107
Mof_O 	O 	0.7539	0.7539	0.0055	-0.145
Mof_O 	O 	0.7717	0.7717	0.9477	-0.115
Mof_N 	N 	0.2	0.2	0.0193	0.048
Mof_O 	O 	0.116	0.116	0.0138	-0.107
Mof_O 	O 	0.2461	0.2461	0.9945	-0.145
Mof_O 	O 	0.2283	0.2283	0.0523	-0.115
Mof_N 	N 	0.3	0.3	0.5193	0.048
Mof_O 	O 	0.384	0.384	0.5138	-0.106
Mof_O 	O 	0.2539	0.2539	0.4945	-0.145
Mof_O 	O 	0.2717	0.2717	0.5523	-0.115
_end
