# CIF file generated by openbabel 3.1.0, see https://openbabel.org
data_I
_chemical_name_common 'image0'
_cell_length_a 22.803
_cell_length_b 13.4571
_cell_length_c 15.5637
_cell_angle_alpha 90
_cell_angle_beta 93.761
_cell_angle_gamma 90
_space_group_name_H-M_alt 'P 1'
_space_group_name_Hall 'P 1'
loop_
    _symmetry_equiv_pos_as_xyz
    x,y,z
loop_
    _atom_site_label
    _atom_site_type_symbol
    _atom_site_fract_x
    _atom_site_fract_y
    _atom_site_fract_z
    _atom_site_occupancy
    Mg1      Mg       0.74815    0.19108    0.74504    1.000
    Mg2      Mg       0.84600    0.97119    0.76204    1.000
    Mg3      Mg       0.90580    0.22721    0.73406    1.000
    S1       S        0.73022    0.88479    0.99951    1.000
    S2       S        0.82555    0.45765    0.49698    1.000
    C1       C        0.64950    0.00890    0.95820    1.000
    C2       C        0.71680    0.41510    0.46830    1.000
    C3       C        0.98320    0.91460    0.53650    1.000
    C4       C        0.97870    0.17530    0.96430    1.000
    C5       C        0.96740    0.00750    0.55980    1.000
    C6       C        0.66800    0.88170    0.05810    1.000
    C7       C        0.62830    0.95080    0.03130    1.000
    C8       C        0.70320    0.97980    0.93560    1.000
    C9       C        0.92870    0.03760    0.62970    1.000
    C10      C        0.96460    0.08020    0.93860    1.000
    C11      C        0.66510    0.81330    0.13220    1.000
    C12      C        0.92110    0.04660    0.86820    1.000
    C13      C        0.73810    0.35350    0.53710    1.000
    C14      C        0.73730    0.02200    0.86670    1.000
    C15      C        0.83270    0.31600    0.62650    1.000
    C16      C        0.75480    0.55170    0.37090    1.000
    C17      C        0.75990    0.47700    0.43940    1.000
    C18      C        0.79580    0.36730    0.55940    1.000
    O1       O        0.92370    0.12820    0.64090    1.000
    O2       O        0.78510    0.98100    0.85440    1.000
    O3       O        0.71070    0.54730    0.31680    1.000
    O4       O        0.71430    0.09190    0.82500    1.000
    O5       O        0.90650    0.96790    0.66990    1.000
    O6       O        0.61840    0.81840    0.17050    1.000
    O7       O        0.89593    0.10800    0.81650    1.000
    O8       O        0.91030    0.95610    0.86370    1.000
    O9       O        0.70820    0.75920    0.15120    1.000
    O10      O        0.88690    0.33770    0.63600    1.000
    O11      O        0.79180    0.61910    0.36760    1.000
    O12      O        0.81070    0.25260    0.67350    1.000
    Mg4      Mg       0.24815    0.69108    0.74504    1.000
    Mg5      Mg       0.34600    0.47119    0.76204    1.000
    Mg6      Mg       0.40580    0.72721    0.73406    1.000
    S3       S        0.23022    0.38479    0.99951    1.000
    S4       S        0.32555    0.95765    0.49698    1.000
    C19      C        0.14950    0.50890    0.95820    1.000
    C20      C        0.21680    0.91510    0.46830    1.000
    C21      C        0.48320    0.41460    0.53650    1.000
    C22      C        0.47870    0.67530    0.96430    1.000
    C23      C        0.46740    0.50750    0.55980    1.000
    C24      C        0.16800    0.38170    0.05810    1.000
    C25      C        0.12830    0.45080    0.03130    1.000
    C26      C        0.20320    0.47980    0.93560    1.000
    C27      C        0.42870    0.53760    0.62970    1.000
    C28      C        0.46460    0.58020    0.93860    1.000
    C29      C        0.16510    0.31330    0.13220    1.000
    C30      C        0.42110    0.54660    0.86820    1.000
    C31      C        0.23810    0.85350    0.53710    1.000
    C32      C        0.23730    0.52200    0.86670    1.000
    C33      C        0.33270    0.81600    0.62650    1.000
    C34      C        0.25480    0.05170    0.37090    1.000
    C35      C        0.25990    0.97700    0.43940    1.000
    C36      C        0.29580    0.86730    0.55940    1.000
    O13      O        0.42370    0.62820    0.64090    1.000
    O14      O        0.28510    0.48100    0.85440    1.000
    O15      O        0.21070    0.04730    0.31680    1.000
    O16      O        0.21430    0.59190    0.82500    1.000
    O17      O        0.40650    0.46790    0.66990    1.000
    O18      O        0.11840    0.31840    0.17050    1.000
    O19      O        0.39593    0.60800    0.81650    1.000
    O20      O        0.41030    0.45610    0.86370    1.000
    O21      O        0.20820    0.25920    0.15120    1.000
    O22      O        0.38690    0.83770    0.63600    1.000
    O23      O        0.29180    0.11910    0.36760    1.000
    O24      O        0.31070    0.75260    0.67350    1.000
    Mg7      Mg       0.25185    0.19108    0.25496    1.000
    Mg8      Mg       0.15400    0.97119    0.23796    1.000
    Mg9      Mg       0.09420    0.22721    0.26594    1.000
    S5       S        0.26978    0.88479    0.00049    1.000
    S6       S        0.17445    0.45765    0.50302    1.000
    C37      C        0.35050    0.00890    0.04180    1.000
    C38      C        0.28320    0.41510    0.53170    1.000
    C39      C        0.01680    0.91460    0.46350    1.000
    C40      C        0.02130    0.17530    0.03570    1.000
    C41      C        0.03260    0.00750    0.44020    1.000
    C42      C        0.33200    0.88170    0.94190    1.000
    C43      C        0.37170    0.95080    0.96870    1.000
    C44      C        0.29680    0.97980    0.06440    1.000
    C45      C        0.07130    0.03760    0.37030    1.000
    C46      C        0.03540    0.08020    0.06140    1.000
    C47      C        0.33490    0.81330    0.86780    1.000
    C48      C        0.07890    0.04660    0.13180    1.000
    C49      C        0.26190    0.35350    0.46290    1.000
    C50      C        0.26270    0.02200    0.13330    1.000
    C51      C        0.16730    0.31600    0.37350    1.000
    C52      C        0.24520    0.55170    0.62910    1.000
    C53      C        0.24010    0.47700    0.56060    1.000
    C54      C        0.20420    0.36730    0.44060    1.000
    O25      O        0.07630    0.12820    0.35910    1.000
    O26      O        0.21490    0.98100    0.14560    1.000
    O27      O        0.28930    0.54730    0.68320    1.000
    O28      O        0.28570    0.09190    0.17500    1.000
    O29      O        0.09350    0.96790    0.33010    1.000
    O30      O        0.38160    0.81840    0.82950    1.000
    O31      O        0.10407    0.10800    0.18350    1.000
    O32      O        0.08970    0.95610    0.13630    1.000
    O33      O        0.29180    0.75920    0.84880    1.000
    O34      O        0.11310    0.33770    0.36400    1.000
    O35      O        0.20820    0.61910    0.63240    1.000
    O36      O        0.18930    0.25260    0.32650    1.000
    Mg10     Mg       0.75185    0.69108    0.25496    1.000
    Mg11     Mg       0.65400    0.47119    0.23796    1.000
    Mg12     Mg       0.59420    0.72721    0.26594    1.000
    S7       S        0.76978    0.38479    0.00049    1.000
    S8       S        0.67445    0.95765    0.50302    1.000
    C55      C        0.85050    0.50890    0.04180    1.000
    C56      C        0.78320    0.91510    0.53170    1.000
    C57      C        0.51680    0.41460    0.46350    1.000
    C58      C        0.52130    0.67530    0.03570    1.000
    C59      C        0.53260    0.50750    0.44020    1.000
    C60      C        0.83200    0.38170    0.94190    1.000
    C61      C        0.87170    0.45080    0.96870    1.000
    C62      C        0.79680    0.47980    0.06440    1.000
    C63      C        0.57130    0.53760    0.37030    1.000
    C64      C        0.53540    0.58020    0.06140    1.000
    C65      C        0.83490    0.31330    0.86780    1.000
    C66      C        0.57890    0.54660    0.13180    1.000
    C67      C        0.76190    0.85350    0.46290    1.000
    C68      C        0.76270    0.52200    0.13330    1.000
    C69      C        0.66730    0.81600    0.37350    1.000
    C70      C        0.74520    0.05170    0.62910    1.000
    C71      C        0.74010    0.97700    0.56060    1.000
    C72      C        0.70420    0.86730    0.44060    1.000
    O37      O        0.57630    0.62820    0.35910    1.000
    O38      O        0.71490    0.48100    0.14560    1.000
    O39      O        0.78930    0.04730    0.68320    1.000
    O40      O        0.78570    0.59190    0.17500    1.000
    O41      O        0.59350    0.46790    0.33010    1.000
    O42      O        0.88160    0.31840    0.82950    1.000
    O43      O        0.60407    0.60800    0.18350    1.000
    O44      O        0.58970    0.45610    0.13630    1.000
    O45      O        0.79180    0.25920    0.84880    1.000
    O46      O        0.61310    0.83770    0.36400    1.000
    O47      O        0.70820    0.11910    0.63240    1.000
    O48      O        0.68930    0.75260    0.32650    1.000
    S9       S        0.00000    0.09549    0.50000    1.000
    S10      S        0.50000    0.59549    0.50000    1.000
    S11      S        0.00000    0.99283    0.00000    1.000
    S12      S        0.50000    0.49283    0.00000    1.000
