data_functionalizedCrystal
_audit_creation_method	'EQeq! by Chris Wilmer'
_symmetry_space_group_name_H-M	'P1'
_symmetry_Int_Tables_number	1
_symmetry_cell_setting	triclinic
loop_
_symmetry_equiv_pos_as_xyz
  x,y,z
_cell_length_a	25.8297
_cell_length_b	8.756
_cell_length_c	17.7432
_cell_angle_alpha	90
_cell_angle_beta	99.951
_cell_angle_gamma	90
loop_
_atom_site_label
_atom_site_type_symbol
_atom_site_fract_x
_atom_site_fract_y
_atom_site_fract_z
_atom_site_charge
Mof_U 	U 	0.43326	0.59178	0.35847	0.018
Mof_U 	U 	0.25451	0.34909	0.40032	0.07
Mof_C 	C 	0.37456	0.5151	0.1095	-0.201
Mof_H 	H 	0.3658	0.6144	0.1308	0.145
Mof_H 	H 	0.3783	0.5334	0.0556	0.146
Mof_C 	C 	0.3155	0.3731	0.1867	-0.179
Mof_H 	H 	0.3462	0.321	0.2171	0.119
Mof_H 	H 	0.2857	0.3001	0.1801	0.125
Mof_C 	C 	0.33065	0.2642	0.065	-0.208
Mof_H 	H 	0.3014	0.1972	0.0737	0.144
Mof_H 	H 	0.3639	0.2112	0.0857	0.123
Mof_F 	F 	0.23279	0.1321	0.46641	-0.31
Mof_N 	N 	0.32812	0.4101	0.109	-0.097
Mof_H 	H 	0.3002	0.466	0.08	0.183
Mof_O 	O 	0.43693	0.4568	0.2463	-0.183
Mof_O 	O 	0.47483	0.5797	0.1385	-0.162
Mof_O 	O 	0.4506	0.3005	0.1315	-0.307
Mof_H 	H 	0.437	0.2283	0.164	0.182
Mof_O 	O 	0.34733	0.5936	0.2926	-0.17
Mof_O 	O 	0.25783	0.4716	0.28612	-0.173
Mof_O 	O 	0.27386	0.6555	0.18543	-0.159
Mof_O 	O 	0.28498	0.4047	0.9388	-0.171
Mof_O 	O 	0.30686	0.13	0.9312	-0.413
Mof_H 	H 	0.336	0.062	0.938	0.175
Mof_O 	O 	0.38037	0.3232	0.9456	-0.189
Mof_P 	P 	0.439	0.45588	0.16175	0.435
Mof_P 	P 	0.29844	0.53666	0.24144	0.411
Mof_P 	P 	0.32701	0.289	0.96306	0.458
Mof_H 	H 	0.316	0.088	0.886	0.184
Mof_U 	U 	0.93326	0.09178	0.35847	0.019
Mof_U 	U 	0.75451	0.84909	0.40032	0.071
Mof_C 	C 	0.87456	0.0151	0.1095	-0.199
Mof_H 	H 	0.8658	0.1144	0.1308	0.145
Mof_H 	H 	0.8783	0.0334	0.0556	0.146
Mof_C 	C 	0.8155	0.8731	0.1867	-0.179
Mof_H 	H 	0.8462	0.821	0.2171	0.119
Mof_H 	H 	0.7857	0.8001	0.1801	0.125
Mof_C 	C 	0.83065	0.7642	0.065	-0.208
Mof_H 	H 	0.8014	0.6972	0.0737	0.144
Mof_H 	H 	0.8639	0.7112	0.0857	0.123
Mof_F 	F 	0.73279	0.6321	0.46641	-0.31
Mof_N 	N 	0.82812	0.9101	0.109	-0.097
Mof_H 	H 	0.8002	0.966	0.08	0.183
Mof_O 	O 	0.93693	0.9568	0.2463	-0.183
Mof_O 	O 	0.97483	0.0797	0.1385	-0.161
Mof_O 	O 	0.9506	0.8005	0.1315	-0.307
Mof_H 	H 	0.937	0.7283	0.164	0.182
Mof_O 	O 	0.84733	0.0936	0.2926	-0.17
Mof_O 	O 	0.75783	0.9716	0.28612	-0.173
Mof_O 	O 	0.77386	0.1555	0.18543	-0.159
Mof_O 	O 	0.78498	0.9047	0.9388	-0.17
Mof_O 	O 	0.80686	0.63	0.9312	-0.413
Mof_H 	H 	0.836	0.562	0.938	0.175
Mof_O 	O 	0.88037	0.8232	0.9456	-0.189
Mof_P 	P 	0.939	0.95588	0.16175	0.435
Mof_P 	P 	0.79844	0.03666	0.24144	0.412
Mof_P 	P 	0.82701	0.789	0.96306	0.458
Mof_H 	H 	0.816	0.588	0.886	0.184
Mof_U 	U 	0.56674	0.59178	0.14153	0.019
Mof_U 	U 	0.74549	0.34909	0.09968	0.071
Mof_C 	C 	0.62544	0.5151	0.3905	-0.2
Mof_H 	H 	0.6342	0.6144	0.3692	0.146
Mof_H 	H 	0.6217	0.5334	0.4444	0.146
Mof_C 	C 	0.6845	0.3731	0.3133	-0.179
Mof_H 	H 	0.6538	0.321	0.2829	0.119
Mof_H 	H 	0.7143	0.3001	0.3199	0.125
Mof_C 	C 	0.66935	0.2642	0.435	-0.208
Mof_H 	H 	0.6986	0.1972	0.4263	0.144
Mof_H 	H 	0.6361	0.2112	0.4143	0.123
Mof_F 	F 	0.76721	0.1321	0.03359	-0.31
Mof_N 	N 	0.67188	0.4101	0.391	-0.097
Mof_H 	H 	0.6998	0.466	0.42	0.183
Mof_O 	O 	0.56307	0.4568	0.2537	-0.183
Mof_O 	O 	0.52517	0.5797	0.3615	-0.162
Mof_O 	O 	0.5494	0.3005	0.3685	-0.307
Mof_H 	H 	0.563	0.2283	0.336	0.182
Mof_O 	O 	0.65267	0.5936	0.2074	-0.17
Mof_O 	O 	0.74217	0.4716	0.21388	-0.173
Mof_O 	O 	0.72614	0.6555	0.31457	-0.159
Mof_O 	O 	0.71502	0.4047	0.5612	-0.171
Mof_O 	O 	0.69314	0.13	0.5688	-0.413
Mof_H 	H 	0.664	0.062	0.562	0.175
Mof_O 	O 	0.61963	0.3232	0.5544	-0.189
Mof_P 	P 	0.561	0.45588	0.33825	0.435
Mof_P 	P 	0.70156	0.53666	0.25856	0.411
Mof_P 	P 	0.67299	0.289	0.53694	0.458
Mof_H 	H 	0.684	0.088	0.614	0.184
Mof_U 	U 	0.06674	0.09178	0.14153	0.019
Mof_U 	U 	0.24549	0.84909	0.09968	0.07
Mof_C 	C 	0.12544	0.0151	0.3905	-0.2
Mof_H 	H 	0.1342	0.1144	0.3692	0.146
Mof_H 	H 	0.1217	0.0334	0.4444	0.146
Mof_C 	C 	0.1845	0.8731	0.3133	-0.179
Mof_H 	H 	0.1538	0.821	0.2829	0.119
Mof_H 	H 	0.2143	0.8001	0.3199	0.125
Mof_C 	C 	0.16935	0.7642	0.435	-0.208
Mof_H 	H 	0.1986	0.6972	0.4263	0.144
Mof_H 	H 	0.1361	0.7112	0.4143	0.123
Mof_F 	F 	0.26721	0.6321	0.03359	-0.311
Mof_N 	N 	0.17188	0.9101	0.391	-0.097
Mof_H 	H 	0.1998	0.966	0.42	0.183
Mof_O 	O 	0.06307	0.9568	0.2537	-0.184
Mof_O 	O 	0.02517	0.0797	0.3615	-0.161
Mof_O 	O 	0.0494	0.8005	0.3685	-0.307
Mof_H 	H 	0.063	0.7283	0.336	0.182
Mof_O 	O 	0.15267	0.0936	0.2074	-0.17
Mof_O 	O 	0.24217	0.9716	0.21388	-0.173
Mof_O 	O 	0.22614	0.1555	0.31457	-0.159
Mof_O 	O 	0.21502	0.9047	0.5612	-0.171
Mof_O 	O 	0.19314	0.63	0.5688	-0.413
Mof_H 	H 	0.164	0.562	0.562	0.175
Mof_O 	O 	0.11963	0.8232	0.5544	-0.189
Mof_P 	P 	0.061	0.95588	0.33825	0.435
Mof_P 	P 	0.20156	0.03666	0.25856	0.412
Mof_P 	P 	0.17299	0.789	0.53694	0.458
Mof_H 	H 	0.184	0.588	0.614	0.184
Mof_U 	U 	0.56674	0.40822	0.64153	0.019
Mof_U 	U 	0.74549	0.65091	0.59968	0.071
Mof_C 	C 	0.62544	0.4849	0.8905	-0.2
Mof_H 	H 	0.6342	0.3856	0.8692	0.146
Mof_H 	H 	0.6217	0.4666	0.9444	0.146
Mof_C 	C 	0.6845	0.6269	0.8133	-0.179
Mof_H 	H 	0.6538	0.679	0.7829	0.119
Mof_H 	H 	0.7143	0.6999	0.8199	0.125
Mof_C 	C 	0.66935	0.7358	0.935	-0.208
Mof_H 	H 	0.6986	0.8028	0.9263	0.144
Mof_H 	H 	0.6361	0.7888	0.9143	0.123
Mof_F 	F 	0.76721	0.8679	0.53359	-0.31
Mof_N 	N 	0.67188	0.5899	0.891	-0.097
Mof_H 	H 	0.6998	0.534	0.92	0.183
Mof_O 	O 	0.56307	0.5432	0.7537	-0.183
Mof_O 	O 	0.52517	0.4203	0.8615	-0.162
Mof_O 	O 	0.5494	0.6995	0.8685	-0.307
Mof_H 	H 	0.563	0.7717	0.836	0.182
Mof_O 	O 	0.65267	0.4064	0.7074	-0.17
Mof_O 	O 	0.74217	0.5284	0.71388	-0.173
Mof_O 	O 	0.72614	0.3445	0.81457	-0.159
Mof_O 	O 	0.71502	0.5953	0.0612	-0.171
Mof_O 	O 	0.69314	0.87	0.0688	-0.413
Mof_H 	H 	0.664	0.938	0.062	0.175
Mof_O 	O 	0.61963	0.6768	0.0544	-0.189
Mof_P 	P 	0.561	0.54412	0.83825	0.435
Mof_P 	P 	0.70156	0.46334	0.75856	0.411
Mof_P 	P 	0.67299	0.711	0.03694	0.458
Mof_H 	H 	0.684	0.912	0.114	0.184
Mof_U 	U 	0.06674	0.90822	0.64153	0.019
Mof_U 	U 	0.24549	0.15091	0.59968	0.071
Mof_C 	C 	0.12544	0.9849	0.8905	-0.199
Mof_H 	H 	0.1342	0.8856	0.8692	0.145
Mof_H 	H 	0.1217	0.9666	0.9444	0.146
Mof_C 	C 	0.1845	0.1269	0.8133	-0.179
Mof_H 	H 	0.1538	0.179	0.7829	0.119
Mof_H 	H 	0.2143	0.1999	0.8199	0.125
Mof_C 	C 	0.16935	0.2358	0.935	-0.208
Mof_H 	H 	0.1986	0.3028	0.9263	0.144
Mof_H 	H 	0.1361	0.2888	0.9143	0.123
Mof_F 	F 	0.26721	0.3679	0.53359	-0.31
Mof_N 	N 	0.17188	0.0899	0.891	-0.097
Mof_H 	H 	0.1998	0.034	0.92	0.183
Mof_O 	O 	0.06307	0.0432	0.7537	-0.183
Mof_O 	O 	0.02517	0.9203	0.8615	-0.161
Mof_O 	O 	0.0494	0.1995	0.8685	-0.307
Mof_H 	H 	0.063	0.2717	0.836	0.182
Mof_O 	O 	0.15267	0.9064	0.7074	-0.17
Mof_O 	O 	0.24217	0.0284	0.71388	-0.173
Mof_O 	O 	0.22614	0.8445	0.81457	-0.159
Mof_O 	O 	0.21502	0.0953	0.0612	-0.17
Mof_O 	O 	0.19314	0.37	0.0688	-0.413
Mof_H 	H 	0.164	0.438	0.062	0.175
Mof_O 	O 	0.11963	0.1768	0.0544	-0.189
Mof_P 	P 	0.061	0.04412	0.83825	0.435
Mof_P 	P 	0.20156	0.96334	0.75856	0.412
Mof_P 	P 	0.17299	0.211	0.03694	0.458
Mof_H 	H 	0.184	0.412	0.114	0.184
Mof_U 	U 	0.43326	0.40822	0.85847	0.019
Mof_U 	U 	0.25451	0.65091	0.90032	0.071
Mof_C 	C 	0.37456	0.4849	0.6095	-0.2
Mof_H 	H 	0.3658	0.3856	0.6308	0.146
Mof_H 	H 	0.3783	0.4666	0.5556	0.146
Mof_C 	C 	0.3155	0.6269	0.6867	-0.179
Mof_H 	H 	0.3462	0.679	0.7171	0.119
Mof_H 	H 	0.2857	0.6999	0.6801	0.125
Mof_C 	C 	0.33065	0.7358	0.565	-0.208
Mof_H 	H 	0.3014	0.8028	0.5737	0.144
Mof_H 	H 	0.3639	0.7888	0.5857	0.123
Mof_F 	F 	0.23279	0.8679	0.96641	-0.31
Mof_N 	N 	0.32812	0.5899	0.609	-0.097
Mof_H 	H 	0.3002	0.534	0.58	0.183
Mof_O 	O 	0.43693	0.5432	0.7463	-0.183
Mof_O 	O 	0.47483	0.4203	0.6385	-0.162
Mof_O 	O 	0.4506	0.6995	0.6315	-0.307
Mof_H 	H 	0.437	0.7717	0.664	0.182
Mof_O 	O 	0.34733	0.4064	0.7926	-0.17
Mof_O 	O 	0.25783	0.5284	0.78612	-0.173
Mof_O 	O 	0.27386	0.3445	0.68543	-0.159
Mof_O 	O 	0.28498	0.5953	0.4388	-0.171
Mof_O 	O 	0.30686	0.87	0.4312	-0.413
Mof_H 	H 	0.336	0.938	0.438	0.175
Mof_O 	O 	0.38037	0.6768	0.4456	-0.189
Mof_P 	P 	0.439	0.54412	0.66175	0.435
Mof_P 	P 	0.29844	0.46334	0.74144	0.411
Mof_P 	P 	0.32701	0.711	0.46306	0.458
Mof_H 	H 	0.316	0.912	0.386	0.184
Mof_U 	U 	0.93326	0.90822	0.85847	0.019
Mof_U 	U 	0.75451	0.15091	0.90032	0.07
Mof_C 	C 	0.87456	0.9849	0.6095	-0.2
Mof_H 	H 	0.8658	0.8856	0.6308	0.146
Mof_H 	H 	0.8783	0.9666	0.5556	0.146
Mof_C 	C 	0.8155	0.1269	0.6867	-0.179
Mof_H 	H 	0.8462	0.179	0.7171	0.119
Mof_H 	H 	0.7857	0.1999	0.6801	0.125
Mof_C 	C 	0.83065	0.2358	0.565	-0.208
Mof_H 	H 	0.8014	0.3028	0.5737	0.144
Mof_H 	H 	0.8639	0.2888	0.5857	0.123
Mof_F 	F 	0.73279	0.3679	0.96641	-0.311
Mof_N 	N 	0.82812	0.0899	0.609	-0.097
Mof_H 	H 	0.8002	0.034	0.58	0.183
Mof_O 	O 	0.93693	0.0432	0.7463	-0.184
Mof_O 	O 	0.97483	0.9203	0.6385	-0.161
Mof_O 	O 	0.9506	0.1995	0.6315	-0.307
Mof_H 	H 	0.937	0.2717	0.664	0.182
Mof_O 	O 	0.84733	0.9064	0.7926	-0.17
Mof_O 	O 	0.75783	0.0284	0.78612	-0.173
Mof_O 	O 	0.77386	0.8445	0.68543	-0.159
Mof_O 	O 	0.78498	0.0953	0.4388	-0.171
Mof_O 	O 	0.80686	0.37	0.4312	-0.413
Mof_H 	H 	0.836	0.438	0.438	0.175
Mof_O 	O 	0.88037	0.1768	0.4456	-0.189
Mof_P 	P 	0.939	0.04412	0.66175	0.435
Mof_P 	P 	0.79844	0.96334	0.74144	0.412
Mof_P 	P 	0.82701	0.211	0.46306	0.458
Mof_H 	H 	0.816	0.412	0.386	0.184
_end
