# CIF file generated by openbabel 3.1.0, see https://openbabel.org
data_I
_chemical_name_common 'image0'
_cell_length_a 26.633
_cell_length_b 26.633
_cell_length_c 5.1305
_cell_angle_alpha 90
_cell_angle_beta 90
_cell_angle_gamma 90
_space_group_name_H-M_alt 'P 1'
_space_group_name_Hall 'P 1'
loop_
    _symmetry_equiv_pos_as_xyz
    x,y,z
loop_
    _atom_site_label
    _atom_site_type_symbol
    _atom_site_fract_x
    _atom_site_fract_y
    _atom_site_fract_z
    _atom_site_occupancy
    Zn1      Zn       0.27287    0.21413    0.91490    1.000
    O1       O        0.22110    0.25330    0.08800    1.000
    H1       H        0.20040    0.26430    0.97560    1.000
    N1       N        0.25410    0.14250    0.90100    1.000
    C1       C        0.26800    0.10410    0.04200    1.000
    H2       H        0.29330    0.10660    0.16610    1.000
    N2       N        0.24330    0.06040    0.99690    1.000
    C2       C        0.21400    0.12180    0.73870    1.000
    O2       O        0.27630    0.83280    0.37000    1.000
    C3       C        0.18440    0.14350    0.54850    1.000
    H3       H        0.18820    0.17720    0.50540    1.000
    O3       O        0.32090    0.86940    0.66500    1.000
    C4       C        0.14890    0.11420    0.42340    1.000
    C5       C        0.11950    0.13650    0.23380    1.000
    H4       H        0.12430    0.17030    0.19500    1.000
    C6       C        0.08280    0.10940    0.09900    1.000
    H5       H        0.06300    0.12430    0.97130    1.000
    C7       C        0.07740    0.05880    0.16590    1.000
    H6       H        0.05330    0.03960    0.08030    1.000
    C8       C        0.10700    0.03650    0.35700    1.000
    H7       H        0.10230    0.00270    0.39720    1.000
    C9       C        0.14350    0.06370    0.48990    1.000
    C10      C        0.17290    0.04110    0.68150    1.000
    H8       H        0.16900    0.00740    0.72550    1.000
    C11      C        0.20850    0.07130    0.80350    1.000
    C12      C        0.25810    0.01260    0.10300    1.000
    C13      C        0.28680    0.92300    0.32100    1.000
    C14      C        0.27860    0.01100    0.35100    1.000
    H9       H        0.28250    0.04090    0.44310    1.000
    C15      C        0.29320    0.96670    0.46400    1.000
    H10      H        0.30690    0.96600    0.63120    1.000
    C16      C        0.26670    0.92250    0.07400    1.000
    H11      H        0.26290    0.89270    0.98260    1.000
    C17      C        0.25250    0.96790    0.96800    1.000
    H12      H        0.23870    0.96850    0.80140    1.000
    C18      C        0.29910    0.87190    0.43600    1.000
    O4       O        0.34830    0.86990    0.46700    1.000
    C19      C        0.30810    0.00440    0.16400    1.000
    H13      H        0.33160    0.02950    0.12970    1.000
    C20      C        0.32400    0.95910    0.27500    1.000
    H14      H        0.35750    0.95330    0.31570    1.000
    C21      C        0.23560    0.92770    0.26600    1.000
    H15      H        0.21200    0.90270    0.29750    1.000
    C22      C        0.22400    0.97440    0.15600    1.000
    H16      H        0.19050    0.98040    0.11550    1.000
    Zn2      Zn       0.77287    0.71413    0.41490    1.000
    O5       O        0.72110    0.75330    0.58800    1.000
    H17      H        0.70040    0.76430    0.47560    1.000
    N3       N        0.75410    0.64250    0.40100    1.000
    C23      C        0.76800    0.60410    0.54200    1.000
    H18      H        0.79330    0.60660    0.66610    1.000
    N4       N        0.74330    0.56040    0.49690    1.000
    C24      C        0.71400    0.62180    0.23870    1.000
    O6       O        0.77630    0.33280    0.87000    1.000
    C25      C        0.68440    0.64350    0.04850    1.000
    H19      H        0.68820    0.67720    0.00540    1.000
    O7       O        0.82090    0.36940    0.16500    1.000
    C26      C        0.64890    0.61420    0.92340    1.000
    C27      C        0.61950    0.63650    0.73380    1.000
    H20      H        0.62430    0.67030    0.69500    1.000
    C28      C        0.58280    0.60940    0.59900    1.000
    H21      H        0.56300    0.62430    0.47130    1.000
    C29      C        0.57740    0.55880    0.66590    1.000
    H22      H        0.55330    0.53960    0.58030    1.000
    C30      C        0.60700    0.53650    0.85700    1.000
    H23      H        0.60230    0.50270    0.89720    1.000
    C31      C        0.64350    0.56370    0.98990    1.000
    C32      C        0.67290    0.54110    0.18150    1.000
    H24      H        0.66900    0.50740    0.22550    1.000
    C33      C        0.70850    0.57130    0.30350    1.000
    C34      C        0.75810    0.51260    0.60300    1.000
    C35      C        0.78680    0.42300    0.82100    1.000
    C36      C        0.77860    0.51100    0.85100    1.000
    H25      H        0.78250    0.54090    0.94310    1.000
    C37      C        0.79320    0.46670    0.96400    1.000
    H26      H        0.80690    0.46600    0.13120    1.000
    C38      C        0.76670    0.42250    0.57400    1.000
    H27      H        0.76290    0.39270    0.48260    1.000
    C39      C        0.75250    0.46790    0.46800    1.000
    H28      H        0.73870    0.46850    0.30140    1.000
    C40      C        0.79910    0.37190    0.93600    1.000
    O8       O        0.84830    0.36990    0.96700    1.000
    C41      C        0.80810    0.50440    0.66400    1.000
    H29      H        0.83160    0.52950    0.62970    1.000
    C42      C        0.82400    0.45910    0.77500    1.000
    H30      H        0.85750    0.45330    0.81570    1.000
    C43      C        0.73560    0.42770    0.76600    1.000
    H31      H        0.71200    0.40270    0.79750    1.000
    C44      C        0.72400    0.47440    0.65600    1.000
    H32      H        0.69050    0.48040    0.61550    1.000
    Zn3      Zn       0.72713    0.78587    0.91490    1.000
    O9       O        0.77890    0.74670    0.08800    1.000
    H33      H        0.79960    0.73570    0.97560    1.000
    N5       N        0.74590    0.85750    0.90100    1.000
    C45      C        0.73200    0.89590    0.04200    1.000
    H34      H        0.70670    0.89340    0.16610    1.000
    N6       N        0.75670    0.93960    0.99690    1.000
    C46      C        0.78600    0.87820    0.73870    1.000
    O10      O        0.72370    0.16720    0.37000    1.000
    C47      C        0.81560    0.85650    0.54850    1.000
    H35      H        0.81180    0.82280    0.50540    1.000
    O11      O        0.67910    0.13060    0.66500    1.000
    C48      C        0.85110    0.88580    0.42340    1.000
    C49      C        0.88050    0.86350    0.23380    1.000
    H36      H        0.87570    0.82970    0.19500    1.000
    C50      C        0.91720    0.89060    0.09900    1.000
    H37      H        0.93700    0.87570    0.97130    1.000
    C51      C        0.92260    0.94120    0.16590    1.000
    H38      H        0.94670    0.96040    0.08030    1.000
    C52      C        0.89300    0.96350    0.35700    1.000
    H39      H        0.89770    0.99730    0.39720    1.000
    C53      C        0.85650    0.93630    0.48990    1.000
    C54      C        0.82710    0.95890    0.68150    1.000
    H40      H        0.83100    0.99260    0.72550    1.000
    C55      C        0.79150    0.92870    0.80350    1.000
    C56      C        0.74190    0.98740    0.10300    1.000
    C57      C        0.71320    0.07700    0.32100    1.000
    C58      C        0.72140    0.98900    0.35100    1.000
    H41      H        0.71750    0.95910    0.44310    1.000
    C59      C        0.70680    0.03330    0.46400    1.000
    H42      H        0.69310    0.03400    0.63120    1.000
    C60      C        0.73330    0.07750    0.07400    1.000
    H43      H        0.73710    0.10730    0.98260    1.000
    C61      C        0.74750    0.03210    0.96800    1.000
    H44      H        0.76130    0.03150    0.80140    1.000
    C62      C        0.70090    0.12810    0.43600    1.000
    O12      O        0.65170    0.13010    0.46700    1.000
    C63      C        0.69190    0.99560    0.16400    1.000
    H45      H        0.66840    0.97050    0.12970    1.000
    C64      C        0.67600    0.04090    0.27500    1.000
    H46      H        0.64250    0.04670    0.31570    1.000
    C65      C        0.76440    0.07230    0.26600    1.000
    H47      H        0.78800    0.09730    0.29750    1.000
    C66      C        0.77600    0.02560    0.15600    1.000
    H48      H        0.80950    0.01960    0.11550    1.000
    Zn4      Zn       0.22713    0.28587    0.41490    1.000
    O13      O        0.27890    0.24670    0.58800    1.000
    H49      H        0.29960    0.23570    0.47560    1.000
    N7       N        0.24590    0.35750    0.40100    1.000
    C67      C        0.23200    0.39590    0.54200    1.000
    H50      H        0.20670    0.39340    0.66610    1.000
    N8       N        0.25670    0.43960    0.49690    1.000
    C68      C        0.28600    0.37820    0.23870    1.000
    O14      O        0.22370    0.66720    0.87000    1.000
    C69      C        0.31560    0.35650    0.04850    1.000
    H51      H        0.31180    0.32280    0.00540    1.000
    O15      O        0.17910    0.63060    0.16500    1.000
    C70      C        0.35110    0.38580    0.92340    1.000
    C71      C        0.38050    0.36350    0.73380    1.000
    H52      H        0.37570    0.32970    0.69500    1.000
    C72      C        0.41720    0.39060    0.59900    1.000
    H53      H        0.43700    0.37570    0.47130    1.000
    C73      C        0.42260    0.44120    0.66590    1.000
    H54      H        0.44670    0.46040    0.58030    1.000
    C74      C        0.39300    0.46350    0.85700    1.000
    H55      H        0.39770    0.49730    0.89720    1.000
    C75      C        0.35650    0.43630    0.98990    1.000
    C76      C        0.32710    0.45890    0.18150    1.000
    H56      H        0.33100    0.49260    0.22550    1.000
    C77      C        0.29150    0.42870    0.30350    1.000
    C78      C        0.24190    0.48740    0.60300    1.000
    C79      C        0.21320    0.57700    0.82100    1.000
    C80      C        0.22140    0.48900    0.85100    1.000
    H57      H        0.21750    0.45910    0.94310    1.000
    C81      C        0.20680    0.53330    0.96400    1.000
    H58      H        0.19310    0.53400    0.13120    1.000
    C82      C        0.23330    0.57750    0.57400    1.000
    H59      H        0.23710    0.60730    0.48260    1.000
    C83      C        0.24750    0.53210    0.46800    1.000
    H60      H        0.26130    0.53150    0.30140    1.000
    C84      C        0.20090    0.62810    0.93600    1.000
    O16      O        0.15170    0.63010    0.96700    1.000
    C85      C        0.19190    0.49560    0.66400    1.000
    H61      H        0.16840    0.47050    0.62970    1.000
    C86      C        0.17600    0.54090    0.77500    1.000
    H62      H        0.14250    0.54670    0.81570    1.000
    C87      C        0.26440    0.57230    0.76600    1.000
    H63      H        0.28800    0.59730    0.79750    1.000
    C88      C        0.27600    0.52560    0.65600    1.000
    H64      H        0.30950    0.51960    0.61550    1.000
    Zn5      Zn       0.21413    0.72713    0.08510    1.000
    O17      O        0.25330    0.77890    0.91200    1.000
    H65      H        0.26430    0.79960    0.02440    1.000
    N9       N        0.14250    0.74590    0.09900    1.000
    C89      C        0.10410    0.73200    0.95800    1.000
    H66      H        0.10660    0.70670    0.83390    1.000
    N10      N        0.06040    0.75670    0.00310    1.000
    C90      C        0.12180    0.78600    0.26130    1.000
    O18      O        0.83280    0.72370    0.63000    1.000
    C91      C        0.14350    0.81560    0.45150    1.000
    H67      H        0.17720    0.81180    0.49460    1.000
    O19      O        0.86940    0.67910    0.33500    1.000
    C92      C        0.11420    0.85110    0.57660    1.000
    C93      C        0.13650    0.88050    0.76620    1.000
    H68      H        0.17030    0.87570    0.80500    1.000
    C94      C        0.10940    0.91720    0.90100    1.000
    H69      H        0.12430    0.93700    0.02870    1.000
    C95      C        0.05880    0.92260    0.83410    1.000
    H70      H        0.03960    0.94670    0.91970    1.000
    C96      C        0.03650    0.89300    0.64300    1.000
    H71      H        0.00270    0.89770    0.60280    1.000
    C97      C        0.06370    0.85650    0.51010    1.000
    C98      C        0.04110    0.82710    0.31850    1.000
    H72      H        0.00740    0.83100    0.27450    1.000
    C99      C        0.07130    0.79150    0.19650    1.000
    C100     C        0.01260    0.74190    0.89700    1.000
    C101     C        0.92300    0.71320    0.67900    1.000
    C102     C        0.01100    0.72140    0.64900    1.000
    H73      H        0.04090    0.71750    0.55690    1.000
    C103     C        0.96670    0.70680    0.53600    1.000
    H74      H        0.96600    0.69310    0.36880    1.000
    C104     C        0.92250    0.73330    0.92600    1.000
    H75      H        0.89270    0.73710    0.01740    1.000
    C105     C        0.96790    0.74750    0.03200    1.000
    H76      H        0.96850    0.76130    0.19860    1.000
    C106     C        0.87190    0.70090    0.56400    1.000
    O20      O        0.86990    0.65170    0.53300    1.000
    C107     C        0.00440    0.69190    0.83600    1.000
    H77      H        0.02950    0.66840    0.87030    1.000
    C108     C        0.95910    0.67600    0.72500    1.000
    H78      H        0.95330    0.64250    0.68430    1.000
    C109     C        0.92770    0.76440    0.73400    1.000
    H79      H        0.90270    0.78800    0.70250    1.000
    C110     C        0.97440    0.77600    0.84400    1.000
    H80      H        0.98040    0.80950    0.88450    1.000
    Zn6      Zn       0.71413    0.22713    0.58510    1.000
    O21      O        0.75330    0.27890    0.41200    1.000
    H81      H        0.76430    0.29960    0.52440    1.000
    N11      N        0.64250    0.24590    0.59900    1.000
    C111     C        0.60410    0.23200    0.45800    1.000
    H82      H        0.60660    0.20670    0.33390    1.000
    N12      N        0.56040    0.25670    0.50310    1.000
    C112     C        0.62180    0.28600    0.76130    1.000
    O22      O        0.33280    0.22370    0.13000    1.000
    C113     C        0.64350    0.31560    0.95150    1.000
    H83      H        0.67720    0.31180    0.99460    1.000
    O23      O        0.36940    0.17910    0.83500    1.000
    C114     C        0.61420    0.35110    0.07660    1.000
    C115     C        0.63650    0.38050    0.26620    1.000
    H84      H        0.67030    0.37570    0.30500    1.000
    C116     C        0.60940    0.41720    0.40100    1.000
    H85      H        0.62430    0.43700    0.52870    1.000
    C117     C        0.55880    0.42260    0.33410    1.000
    H86      H        0.53960    0.44670    0.41970    1.000
    C118     C        0.53650    0.39300    0.14300    1.000
    H87      H        0.50270    0.39770    0.10280    1.000
    C119     C        0.56370    0.35650    0.01010    1.000
    C120     C        0.54110    0.32710    0.81850    1.000
    H88      H        0.50740    0.33100    0.77450    1.000
    C121     C        0.57130    0.29150    0.69650    1.000
    C122     C        0.51260    0.24190    0.39700    1.000
    C123     C        0.42300    0.21320    0.17900    1.000
    C124     C        0.51100    0.22140    0.14900    1.000
    H89      H        0.54090    0.21750    0.05690    1.000
    C125     C        0.46670    0.20680    0.03600    1.000
    H90      H        0.46600    0.19310    0.86880    1.000
    C126     C        0.42250    0.23330    0.42600    1.000
    H91      H        0.39270    0.23710    0.51740    1.000
    C127     C        0.46790    0.24750    0.53200    1.000
    H92      H        0.46850    0.26130    0.69860    1.000
    C128     C        0.37190    0.20090    0.06400    1.000
    O24      O        0.36990    0.15170    0.03300    1.000
    C129     C        0.50440    0.19190    0.33600    1.000
    H93      H        0.52950    0.16840    0.37030    1.000
    C130     C        0.45910    0.17600    0.22500    1.000
    H94      H        0.45330    0.14250    0.18430    1.000
    C131     C        0.42770    0.26440    0.23400    1.000
    H95      H        0.40270    0.28800    0.20250    1.000
    C132     C        0.47440    0.27600    0.34400    1.000
    H96      H        0.48040    0.30950    0.38450    1.000
    Zn7      Zn       0.78587    0.27287    0.08510    1.000
    O25      O        0.74670    0.22110    0.91200    1.000
    H97      H        0.73570    0.20040    0.02440    1.000
    N13      N        0.85750    0.25410    0.09900    1.000
    C133     C        0.89590    0.26800    0.95800    1.000
    H98      H        0.89340    0.29330    0.83390    1.000
    N14      N        0.93960    0.24330    0.00310    1.000
    C134     C        0.87820    0.21400    0.26130    1.000
    O26      O        0.16720    0.27630    0.63000    1.000
    C135     C        0.85650    0.18440    0.45150    1.000
    H99      H        0.82280    0.18820    0.49460    1.000
    O27      O        0.13060    0.32090    0.33500    1.000
    C136     C        0.88580    0.14890    0.57660    1.000
    C137     C        0.86350    0.11950    0.76620    1.000
    H100     H        0.82970    0.12430    0.80500    1.000
    C138     C        0.89060    0.08280    0.90100    1.000
    H101     H        0.87570    0.06300    0.02870    1.000
    C139     C        0.94120    0.07740    0.83410    1.000
    H102     H        0.96040    0.05330    0.91970    1.000
    C140     C        0.96350    0.10700    0.64300    1.000
    H103     H        0.99730    0.10230    0.60280    1.000
    C141     C        0.93630    0.14350    0.51010    1.000
    C142     C        0.95890    0.17290    0.31850    1.000
    H104     H        0.99260    0.16900    0.27450    1.000
    C143     C        0.92870    0.20850    0.19650    1.000
    C144     C        0.98740    0.25810    0.89700    1.000
    C145     C        0.07700    0.28680    0.67900    1.000
    C146     C        0.98900    0.27860    0.64900    1.000
    H105     H        0.95910    0.28250    0.55690    1.000
    C147     C        0.03330    0.29320    0.53600    1.000
    H106     H        0.03400    0.30690    0.36880    1.000
    C148     C        0.07750    0.26670    0.92600    1.000
    H107     H        0.10730    0.26290    0.01740    1.000
    C149     C        0.03210    0.25250    0.03200    1.000
    H108     H        0.03150    0.23870    0.19860    1.000
    C150     C        0.12810    0.29910    0.56400    1.000
    O28      O        0.13010    0.34830    0.53300    1.000
    C151     C        0.99560    0.30810    0.83600    1.000
    H109     H        0.97050    0.33160    0.87030    1.000
    C152     C        0.04090    0.32400    0.72500    1.000
    H110     H        0.04670    0.35750    0.68430    1.000
    C153     C        0.07230    0.23560    0.73400    1.000
    H111     H        0.09730    0.21200    0.70250    1.000
    C154     C        0.02560    0.22400    0.84400    1.000
    H112     H        0.01960    0.19050    0.88450    1.000
    Zn8      Zn       0.28587    0.77287    0.58510    1.000
    O29      O        0.24670    0.72110    0.41200    1.000
    H113     H        0.23570    0.70040    0.52440    1.000
    N15      N        0.35750    0.75410    0.59900    1.000
    C155     C        0.39590    0.76800    0.45800    1.000
    H114     H        0.39340    0.79330    0.33390    1.000
    N16      N        0.43960    0.74330    0.50310    1.000
    C156     C        0.37820    0.71400    0.76130    1.000
    O30      O        0.66720    0.77630    0.13000    1.000
    C157     C        0.35650    0.68440    0.95150    1.000
    H115     H        0.32280    0.68820    0.99460    1.000
    O31      O        0.63060    0.82090    0.83500    1.000
    C158     C        0.38580    0.64890    0.07660    1.000
    C159     C        0.36350    0.61950    0.26620    1.000
    H116     H        0.32970    0.62430    0.30500    1.000
    C160     C        0.39060    0.58280    0.40100    1.000
    H117     H        0.37570    0.56300    0.52870    1.000
    C161     C        0.44120    0.57740    0.33410    1.000
    H118     H        0.46040    0.55330    0.41970    1.000
    C162     C        0.46350    0.60700    0.14300    1.000
    H119     H        0.49730    0.60230    0.10280    1.000
    C163     C        0.43630    0.64350    0.01010    1.000
    C164     C        0.45890    0.67290    0.81850    1.000
    H120     H        0.49260    0.66900    0.77450    1.000
    C165     C        0.42870    0.70850    0.69650    1.000
    C166     C        0.48740    0.75810    0.39700    1.000
    C167     C        0.57700    0.78680    0.17900    1.000
    C168     C        0.48900    0.77860    0.14900    1.000
    H121     H        0.45910    0.78250    0.05690    1.000
    C169     C        0.53330    0.79320    0.03600    1.000
    H122     H        0.53400    0.80690    0.86880    1.000
    C170     C        0.57750    0.76670    0.42600    1.000
    H123     H        0.60730    0.76290    0.51740    1.000
    C171     C        0.53210    0.75250    0.53200    1.000
    H124     H        0.53150    0.73870    0.69860    1.000
    C172     C        0.62810    0.79910    0.06400    1.000
    O32      O        0.63010    0.84830    0.03300    1.000
    C173     C        0.49560    0.80810    0.33600    1.000
    H125     H        0.47050    0.83160    0.37030    1.000
    C174     C        0.54090    0.82400    0.22500    1.000
    H126     H        0.54670    0.85750    0.18430    1.000
    C175     C        0.57230    0.73560    0.23400    1.000
    H127     H        0.59730    0.71200    0.20250    1.000
    C176     C        0.52560    0.72400    0.34400    1.000
    H128     H        0.51960    0.69050    0.38450    1.000
