data_functionalizedCrystal
_audit_creation_method	'EQeq! by Chris Wilmer'
_symmetry_space_group_name_H-M	'P1'
_symmetry_Int_Tables_number	1
_symmetry_cell_setting	triclinic
loop_
_symmetry_equiv_pos_as_xyz
  x,y,z
_cell_length_a	12.602
_cell_length_b	15.129
_cell_length_c	18.549
_cell_angle_alpha	90
_cell_angle_beta	96.599
_cell_angle_gamma	90
loop_
_atom_site_label
_atom_site_type_symbol
_atom_site_fract_x
_atom_site_fract_y
_atom_site_fract_z
_atom_site_charge
Mof_N 	N 	0.43016	0.59657	0.83126	-0.302
Mof_C 	C 	0.3977	0.68017	0.8267	0.106
Mof_H 	H 	0.4085	0.7126	0.7856	-0.045
Mof_C 	C 	0.3483	0.72074	0.88085	-0.191
Mof_H 	H 	0.3275	0.7796	0.8758	0.092
Mof_C 	C 	0.32984	0.6743	0.94232	0.129
Mof_C 	C 	0.3653	0.58783	0.94679	-0.196
Mof_H 	H 	0.3562	0.5541	0.9875	0.093
Mof_C 	C 	0.4138	0.55186	0.8913	0.106
Mof_H 	H 	0.4365	0.4934	0.8955	-0.047
Mof_C 	C 	0.2726	0.71105	0.0004	-0.075
Mof_H 	H 	0.2682	0.6759	0.0411	0.058
Mof_N 	N 	0.56984	0.59657	0.66874	-0.302
Mof_C 	C 	0.6023	0.68017	0.6733	0.111
Mof_H 	H 	0.5915	0.7126	0.7144	-0.045
Mof_C 	C 	0.6517	0.72074	0.61915	-0.197
Mof_H 	H 	0.6725	0.7796	0.6242	0.096
Mof_C 	C 	0.67016	0.6743	0.55768	0.139
Mof_C 	C 	0.6347	0.58783	0.55321	-0.203
Mof_H 	H 	0.6438	0.5541	0.5125	0.096
Mof_C 	C 	0.5862	0.55186	0.6087	0.111
Mof_H 	H 	0.5635	0.4934	0.6045	-0.048
Mof_C 	C 	0.7274	0.71105	0.4996	-0.09
Mof_H 	H 	0.7318	0.6759	0.4589	0.063
Mof_N 	N 	0.06984	0.90343	0.16874	-0.312
Mof_C 	C 	0.1023	0.81983	0.1733	0.109
Mof_H 	H 	0.0915	0.7874	0.2144	-0.056
Mof_C 	C 	0.1517	0.77926	0.11915	-0.209
Mof_H 	H 	0.1725	0.7204	0.1242	0.096
Mof_C 	C 	0.17016	0.8257	0.05768	0.143
Mof_C 	C 	0.1347	0.91217	0.05321	-0.214
Mof_H 	H 	0.1438	0.9459	0.0125	0.093
Mof_C 	C 	0.0862	0.94814	0.1087	0.106
Mof_H 	H 	0.0635	0.0066	0.1045	-0.059
Mof_C 	C 	0.2274	0.78895	0.9996	-0.109
Mof_H 	H 	0.2318	0.8241	0.9589	0.065
Mof_N 	N 	0.93016	0.90343	0.33126	-0.288
Mof_C 	C 	0.8977	0.81983	0.3267	0.115
Mof_H 	H 	0.9085	0.7874	0.2856	-0.033
Mof_C 	C 	0.8483	0.77926	0.38085	-0.191
Mof_H 	H 	0.8275	0.7204	0.3758	0.096
Mof_C 	C 	0.82984	0.8257	0.44232	0.143
Mof_C 	C 	0.8653	0.91217	0.44679	-0.196
Mof_H 	H 	0.8562	0.9459	0.4875	0.102
Mof_C 	C 	0.9138	0.94814	0.3913	0.116
Mof_H 	H 	0.9365	0.0066	0.3955	-0.035
Mof_C 	C 	0.7726	0.78895	0.5004	-0.086
Mof_H 	H 	0.7682	0.8241	0.5411	0.064
Mof_Zn	Zn	0.5	0.53745	0.75	1.152
Mof_Zn	Zn	-8.09034e-18	0.96255	0.25	1.135
Mof_N 	N 	0.93016	0.09657	0.83126	-0.287
Mof_C 	C 	0.8977	0.18017	0.8267	0.112
Mof_H 	H 	0.9085	0.2126	0.7856	-0.032
Mof_C 	C 	0.8483	0.22074	0.88085	-0.185
Mof_H 	H 	0.8275	0.2796	0.8758	0.094
Mof_C 	C 	0.82984	0.1743	0.94232	0.133
Mof_C 	C 	0.8653	0.08783	0.94679	-0.19
Mof_H 	H 	0.8562	0.0541	0.9875	0.099
Mof_C 	C 	0.9138	0.05186	0.8913	0.113
Mof_H 	H 	0.9365	0.9934	0.8955	-0.034
Mof_C 	C 	0.7726	0.21105	0.0004	-0.07
Mof_H 	H 	0.7682	0.1759	0.0411	0.06
Mof_N 	N 	0.06984	0.09657	0.66874	-0.311
Mof_C 	C 	0.1023	0.18017	0.6733	0.106
Mof_H 	H 	0.0915	0.2126	0.7144	-0.055
Mof_C 	C 	0.1517	0.22074	0.61915	-0.203
Mof_H 	H 	0.1725	0.2796	0.6242	0.094
Mof_C 	C 	0.17016	0.1743	0.55768	0.134
Mof_C 	C 	0.1347	0.08783	0.55321	-0.208
Mof_H 	H 	0.1438	0.0541	0.5125	0.091
Mof_C 	C 	0.0862	0.05186	0.6087	0.104
Mof_H 	H 	0.0635	0.9934	0.6045	-0.059
Mof_C 	C 	0.2274	0.21105	0.4996	-0.094
Mof_H 	H 	0.2318	0.1759	0.4589	0.061
Mof_N 	N 	0.56984	0.40343	0.16874	-0.303
Mof_C 	C 	0.6023	0.31983	0.1733	0.115
Mof_H 	H 	0.5915	0.2874	0.2144	-0.046
Mof_C 	C 	0.6517	0.27926	0.11915	-0.203
Mof_H 	H 	0.6725	0.2204	0.1242	0.099
Mof_C 	C 	0.67016	0.3257	0.05768	0.149
Mof_C 	C 	0.6347	0.41217	0.05321	-0.209
Mof_H 	H 	0.6438	0.4459	0.0125	0.099
Mof_C 	C 	0.5862	0.44814	0.1087	0.114
Mof_H 	H 	0.5635	0.5066	0.1045	-0.048
Mof_C 	C 	0.7274	0.28895	0.9996	-0.106
Mof_H 	H 	0.7318	0.3241	0.9589	0.068
Mof_N 	N 	0.43016	0.40343	0.33126	-0.302
Mof_C 	C 	0.3977	0.31983	0.3267	0.11
Mof_H 	H 	0.4085	0.2874	0.2856	-0.045
Mof_C 	C 	0.3483	0.27926	0.38085	-0.197
Mof_H 	H 	0.3275	0.2204	0.3758	0.095
Mof_C 	C 	0.32984	0.3257	0.44232	0.139
Mof_C 	C 	0.3653	0.41217	0.44679	-0.202
Mof_H 	H 	0.3562	0.4459	0.4875	0.096
Mof_C 	C 	0.4138	0.44814	0.3913	0.11
Mof_H 	H 	0.4365	0.5066	0.3955	-0.048
Mof_C 	C 	0.2726	0.28895	0.5004	-0.09
Mof_H 	H 	0.2682	0.3241	0.5411	0.062
Mof_Zn	Zn	-1.61807e-17	0.03745	0.75	1.135
Mof_Zn	Zn	0.5	0.46255	0.25	1.152
Mof_N 	N 	0.34172	0.53391	0.68019	-0.263
Mof_C 	C 	0.3178	0.57109	0.6148	0.092
Mof_H 	H 	0.3661	0.6111	0.599	-0.021
Mof_C 	C 	0.2252	0.55323	0.56942	-0.181
Mof_H 	H 	0.2134	0.58	0.5241	0.082
Mof_C 	C 	0.15031	0.49571	0.5916	0.111
Mof_C 	C 	0.1709	0.4621	0.66175	-0.182
Mof_H 	H 	0.1207	0.4267	0.6808	0.074
Mof_C 	C 	0.2664	0.4817	0.70262	0.088
Mof_H 	H 	0.2792	0.4571	0.7487	-0.042
Mof_C 	C 	0.05001	0.46772	0.54572	-0.108
Mof_H 	H 	0.0283	0.4092	0.5613	0.039
Mof_C 	C 	0.95057	0.53158	0.53836	-0.046
Mof_H 	H 	0.8876	0.4999	0.5513	0.045
Mof_C 	C 	0.96111	0.61899	0.57779	0.18
Mof_C 	C 	0.0179	0.68974	0.55497	-0.241
Mof_H 	H 	0.0543	0.6847	0.5143	0.093
Mof_C 	C 	0.0201	0.76859	0.59373	0.055
Mof_H 	H 	0.0598	0.8153	0.5783	-0.007
Mof_N 	N 	0.9691	0.78084	0.65106	-0.127
Mof_C 	C 	0.917	0.7116	0.67429	0.115
Mof_H 	H 	0.8821	0.7185	0.7155	0
Mof_C 	C 	0.9119	0.62955	0.64017	-0.187
Mof_H 	H 	0.8762	0.5826	0.659	0.1
Mof_N 	N 	0.65828	0.46609	0.31981	-0.262
Mof_C 	C 	0.6822	0.42891	0.3852	0.092
Mof_H 	H 	0.6339	0.3889	0.401	-0.02
Mof_C 	C 	0.7748	0.44677	0.43058	-0.173
Mof_H 	H 	0.7866	0.42	0.4759	0.087
Mof_C 	C 	0.84969	0.50429	0.4084	0.109
Mof_C 	C 	0.8291	0.5379	0.33825	-0.173
Mof_H 	H 	0.8793	0.5733	0.3192	0.092
Mof_C 	C 	0.7336	0.5183	0.29738	0.09
Mof_H 	H 	0.7208	0.5429	0.2513	-0.038
Mof_C 	C 	0.94999	0.53228	0.45428	-0.037
Mof_H 	H 	0.9717	0.5908	0.4387	0.053
Mof_C 	C 	0.04943	0.46842	0.46164	-0.08
Mof_H 	H 	0.1124	0.5001	0.4487	0.042
Mof_C 	C 	0.03889	0.38101	0.42221	0.033
Mof_C 	C 	0.9821	0.31026	0.44503	-0.085
Mof_H 	H 	0.9457	0.3153	0.4857	0.072
Mof_C 	C 	0.9799	0.23141	0.40627	0.125
Mof_H 	H 	0.9402	0.1847	0.4217	-0.007
Mof_N 	N 	0.0309	0.21916	0.34894	-0.189
Mof_C 	C 	0.083	0.2884	0.32571	0.06
Mof_H 	H 	0.1179	0.2815	0.2845	0.001
Mof_C 	C 	0.0881	0.37045	0.35983	-0.138
Mof_H 	H 	0.1238	0.4174	0.341	0.069
Mof_N 	N 	0.84172	0.03391	0.68019	-0.251
Mof_C 	C 	0.8178	0.07109	0.6148	0.093
Mof_H 	H 	0.8661	0.1111	0.599	-0.007
Mof_C 	C 	0.7252	0.05323	0.56942	-0.173
Mof_H 	H 	0.7134	0.08	0.5241	0.085
Mof_C 	C 	0.65031	0.99571	0.5916	0.109
Mof_C 	C 	0.6709	0.9621	0.66175	-0.175
Mof_H 	H 	0.6207	0.9267	0.6808	0.082
Mof_C 	C 	0.7664	0.9817	0.70262	0.089
Mof_H 	H 	0.7792	0.9571	0.7487	-0.035
Mof_C 	C 	0.55001	0.96772	0.54572	-0.072
Mof_H 	H 	0.5283	0.9092	0.5613	0.045
Mof_C 	C 	0.45057	0.03158	0.53836	-0.063
Mof_H 	H 	0.3876	0.9999	0.5513	0.043
Mof_C 	C 	0.46111	0.11899	0.57779	0.106
Mof_C 	C 	0.5179	0.18974	0.55497	-0.163
Mof_H 	H 	0.5543	0.1847	0.5143	0.083
Mof_C 	C 	0.5201	0.26859	0.59373	0.09
Mof_H 	H 	0.5598	0.3153	0.5783	-0.007
Mof_N 	N 	0.4691	0.28084	0.65106	-0.158
Mof_C 	C 	0.417	0.2116	0.67429	0.088
Mof_H 	H 	0.3821	0.2185	0.7155	0
Mof_C 	C 	0.4119	0.12955	0.64017	-0.162
Mof_H 	H 	0.3762	0.0826	0.659	0.085
Mof_N 	N 	0.15828	0.96609	0.31981	-0.27
Mof_C 	C 	0.1822	0.92891	0.3852	0.091
Mof_H 	H 	0.1339	0.8889	0.401	-0.033
Mof_C 	C 	0.2748	0.94677	0.43058	-0.18
Mof_H 	H 	0.2866	0.92	0.4759	0.084
Mof_C 	C 	0.34969	0.00429	0.4084	0.112
Mof_C 	C 	0.3291	0.0379	0.33825	-0.18
Mof_H 	H 	0.3793	0.0733	0.3192	0.083
Mof_C 	C 	0.2336	0.0183	0.29738	0.089
Mof_H 	H 	0.2208	0.0429	0.2513	-0.043
Mof_C 	C 	0.44999	0.03228	0.45428	-0.073
Mof_H 	H 	0.4717	0.0908	0.4387	0.046
Mof_C 	C 	0.54943	0.96842	0.46164	-0.064
Mof_H 	H 	0.6124	0.0001	0.4487	0.044
Mof_C 	C 	0.53889	0.88101	0.42221	0.106
Mof_C 	C 	0.4821	0.81026	0.44503	-0.163
Mof_H 	H 	0.4457	0.8153	0.4857	0.082
Mof_C 	C 	0.4799	0.73141	0.40627	0.089
Mof_H 	H 	0.4402	0.6847	0.4217	-0.008
Mof_N 	N 	0.5309	0.71916	0.34894	-0.159
Mof_C 	C 	0.583	0.7884	0.32571	0.087
Mof_H 	H 	0.6179	0.7815	0.2845	0.001
Mof_C 	C 	0.5881	0.87045	0.35983	-0.163
Mof_H 	H 	0.6238	0.9174	0.341	0.085
Mof_N 	N 	0.65828	0.53391	0.81981	-0.262
Mof_C 	C 	0.6822	0.57109	0.8852	0.091
Mof_H 	H 	0.6339	0.6111	0.901	-0.02
Mof_C 	C 	0.7748	0.55323	0.93058	-0.173
Mof_H 	H 	0.7866	0.58	0.9759	0.086
Mof_C 	C 	0.84969	0.49571	0.9084	0.109
Mof_C 	C 	0.8291	0.4621	0.83825	-0.173
Mof_H 	H 	0.8793	0.4267	0.8192	0.092
Mof_C 	C 	0.7336	0.4817	0.79738	0.09
Mof_H 	H 	0.7208	0.4571	0.7513	-0.038
Mof_C 	C 	0.94999	0.46772	0.95428	-0.038
Mof_H 	H 	0.9717	0.4092	0.9387	0.052
Mof_C 	C 	0.04943	0.53158	0.96164	-0.082
Mof_H 	H 	0.1124	0.4999	0.9487	0.041
Mof_C 	C 	0.03889	0.61899	0.92221	0.034
Mof_C 	C 	0.9821	0.68974	0.94503	-0.086
Mof_H 	H 	0.9457	0.6847	0.9857	0.072
Mof_C 	C 	0.9799	0.76859	0.90627	0.125
Mof_H 	H 	0.9402	0.8153	0.9217	-0.008
Mof_N 	N 	0.0309	0.78084	0.84894	-0.189
Mof_C 	C 	0.083	0.7116	0.82571	0.061
Mof_H 	H 	0.1179	0.7185	0.7845	0.001
Mof_C 	C 	0.0881	0.62955	0.85983	-0.139
Mof_H 	H 	0.1238	0.5826	0.841	0.07
Mof_N 	N 	0.34172	0.46609	0.18019	-0.263
Mof_C 	C 	0.3178	0.42891	0.1148	0.092
Mof_H 	H 	0.3661	0.3889	0.099	-0.021
Mof_C 	C 	0.2252	0.44677	0.06942	-0.18
Mof_H 	H 	0.2134	0.42	0.0241	0.083
Mof_C 	C 	0.15031	0.50429	0.0916	0.111
Mof_C 	C 	0.1709	0.5379	0.16175	-0.181
Mof_H 	H 	0.1207	0.5733	0.1808	0.074
Mof_C 	C 	0.2664	0.5183	0.20262	0.088
Mof_H 	H 	0.2792	0.5429	0.2487	-0.042
Mof_C 	C 	0.05001	0.53228	0.04572	-0.106
Mof_H 	H 	0.0283	0.5908	0.0613	0.039
Mof_C 	C 	0.95057	0.46842	0.03836	-0.045
Mof_H 	H 	0.8876	0.5001	0.0513	0.045
Mof_C 	C 	0.96111	0.38101	0.07779	0.179
Mof_C 	C 	0.0179	0.31026	0.05497	-0.24
Mof_H 	H 	0.0543	0.3153	0.0143	0.094
Mof_C 	C 	0.0201	0.23141	0.09373	0.055
Mof_H 	H 	0.0598	0.1847	0.0783	-0.007
Mof_N 	N 	0.9691	0.21916	0.15106	-0.127
Mof_C 	C 	0.917	0.2884	0.17429	0.115
Mof_H 	H 	0.8821	0.2815	0.2155	0.001
Mof_C 	C 	0.9119	0.37045	0.14017	-0.186
Mof_H 	H 	0.8762	0.4174	0.159	0.1
Mof_N 	N 	0.15828	0.03391	0.81981	-0.27
Mof_C 	C 	0.1822	0.07109	0.8852	0.091
Mof_H 	H 	0.1339	0.1111	0.901	-0.033
Mof_C 	C 	0.2748	0.05323	0.93058	-0.18
Mof_H 	H 	0.2866	0.08	0.9759	0.083
Mof_C 	C 	0.34969	0.99571	0.9084	0.111
Mof_C 	C 	0.3291	0.9621	0.83825	-0.179
Mof_H 	H 	0.3793	0.9267	0.8192	0.083
Mof_C 	C 	0.2336	0.9817	0.79738	0.089
Mof_H 	H 	0.2208	0.9571	0.7513	-0.043
Mof_C 	C 	0.44999	0.96772	0.95428	-0.073
Mof_H 	H 	0.4717	0.9092	0.9387	0.046
Mof_C 	C 	0.54943	0.03158	0.96164	-0.066
Mof_H 	H 	0.6124	0.9999	0.9487	0.044
Mof_C 	C 	0.53889	0.11899	0.92221	0.106
Mof_C 	C 	0.4821	0.18974	0.94503	-0.164
Mof_H 	H 	0.4457	0.1847	0.9857	0.082
Mof_C 	C 	0.4799	0.26859	0.90627	0.089
Mof_H 	H 	0.4402	0.3153	0.9217	-0.009
Mof_N 	N 	0.5309	0.28084	0.84894	-0.159
Mof_C 	C 	0.583	0.2116	0.82571	0.087
Mof_H 	H 	0.6179	0.2185	0.7845	0.001
Mof_C 	C 	0.5881	0.12955	0.85983	-0.163
Mof_H 	H 	0.6238	0.0826	0.841	0.085
Mof_N 	N 	0.84172	0.96609	0.18019	-0.252
Mof_C 	C 	0.8178	0.92891	0.1148	0.093
Mof_H 	H 	0.8661	0.8889	0.099	-0.007
Mof_C 	C 	0.7252	0.94677	0.06942	-0.173
Mof_H 	H 	0.7134	0.92	0.0241	0.085
Mof_C 	C 	0.65031	0.00429	0.0916	0.109
Mof_C 	C 	0.6709	0.0379	0.16175	-0.175
Mof_H 	H 	0.6207	0.0733	0.1808	0.082
Mof_C 	C 	0.7664	0.0183	0.20262	0.089
Mof_H 	H 	0.7792	0.0429	0.2487	-0.035
Mof_C 	C 	0.55001	0.03228	0.04572	-0.07
Mof_H 	H 	0.5283	0.0908	0.0613	0.045
Mof_C 	C 	0.45057	0.96842	0.03836	-0.063
Mof_H 	H 	0.3876	0.0001	0.0513	0.044
Mof_C 	C 	0.46111	0.88101	0.07779	0.107
Mof_C 	C 	0.5179	0.81026	0.05497	-0.163
Mof_H 	H 	0.5543	0.8153	0.0143	0.084
Mof_C 	C 	0.5201	0.73141	0.09373	0.091
Mof_H 	H 	0.5598	0.6847	0.0783	-0.006
Mof_N 	N 	0.4691	0.71916	0.15106	-0.158
Mof_C 	C 	0.417	0.7884	0.17429	0.089
Mof_H 	H 	0.3821	0.7815	0.2155	0
Mof_C 	C 	0.4119	0.87045	0.14017	-0.163
Mof_H 	H 	0.3762	0.9174	0.159	0.085
_end
