# CIF file generated by openbabel 3.1.0, see https://openbabel.org
data_I
_chemical_name_common 'image0'
_cell_length_a 15.269
_cell_length_b 15.269
_cell_length_c 10.336
_cell_angle_alpha 90
_cell_angle_beta 90
_cell_angle_gamma 120
_space_group_name_H-M_alt 'P 1'
_space_group_name_Hall 'P 1'
loop_
    _symmetry_equiv_pos_as_xyz
    x,y,z
loop_
    _atom_site_label
    _atom_site_type_symbol
    _atom_site_fract_x
    _atom_site_fract_y
    _atom_site_fract_z
    _atom_site_occupancy
    O1       O        0.15562    0.47295    0.06114    1.000
    P1       P        0.10779    0.52766    0.68915    1.000
    O2       O        0.52705    0.68267    0.06114    1.000
    P2       P        0.47234    0.58013    0.68915    1.000
    O3       O        0.31733    0.84438    0.06114    1.000
    P3       P        0.41987    0.89221    0.68915    1.000
    O4       O        0.84438    0.52705    0.56114    1.000
    P4       P        0.89221    0.47234    0.18915    1.000
    O5       O        0.47295    0.31733    0.56114    1.000
    P5       P        0.52766    0.41987    0.18915    1.000
    O6       O        0.68267    0.15562    0.56114    1.000
    P6       P        0.58013    0.10779    0.18915    1.000
    O7       O        0.52705    0.84438    0.06114    1.000
    P7       P        0.47234    0.89221    0.68915    1.000
    O8       O        0.31733    0.47295    0.06114    1.000
    P8       P        0.41987    0.52766    0.68915    1.000
    O9       O        0.15562    0.68267    0.06114    1.000
    P9       P        0.10779    0.58013    0.68915    1.000
    O10      O        0.47295    0.15562    0.56114    1.000
    P10      P        0.52766    0.10779    0.18915    1.000
    O11      O        0.68267    0.52705    0.56114    1.000
    P11      P        0.58013    0.47234    0.18915    1.000
    O12      O        0.84438    0.31733    0.56114    1.000
    P12      P        0.89221    0.41987    0.18915    1.000
    Zn1      Zn       0.08602    0.54301    0.99905    1.000
    O13      O        0.05766    0.52883    0.81528    1.000
    O14      O        0.04752    0.52376    0.57061    1.000
    O15      O        0.21700    0.60850    0.67146    1.000
    Zn2      Zn       0.45699    0.54301    0.99905    1.000
    O16      O        0.47117    0.52883    0.81528    1.000
    O17      O        0.47624    0.52376    0.57061    1.000
    O18      O        0.39150    0.60850    0.67146    1.000
    Zn3      Zn       0.45699    0.91398    0.99905    1.000
    O19      O        0.47117    0.94234    0.81528    1.000
    O20      O        0.47624    0.95248    0.57061    1.000
    O21      O        0.39150    0.78300    0.67146    1.000
    Zn4      Zn       0.91398    0.45699    0.49905    1.000
    O22      O        0.94234    0.47117    0.31528    1.000
    O23      O        0.95248    0.47624    0.07061    1.000
    O24      O        0.78300    0.39150    0.17146    1.000
    Zn5      Zn       0.54301    0.45699    0.49905    1.000
    O25      O        0.52883    0.47117    0.31528    1.000
    O26      O        0.52376    0.47624    0.07061    1.000
    O27      O        0.60850    0.39150    0.17146    1.000
    Zn6      Zn       0.54301    0.08602    0.49905    1.000
    O28      O        0.52883    0.05766    0.31528    1.000
    O29      O        0.52376    0.04752    0.07061    1.000
    O30      O        0.60850    0.21700    0.17146    1.000
    Al1      Al       0.33333    0.66667    0.77877    1.000
    Al2      Al       0.66667    0.33333    0.27877    1.000
    P13      P        0.23546    0.47092    0.98042    1.000
    O31      O        0.27444    0.54888    0.87825    1.000
    P14      P        0.52908    0.76454    0.98042    1.000
    O32      O        0.45112    0.72556    0.87825    1.000
    P15      P        0.23546    0.76454    0.98042    1.000
    O33      O        0.27444    0.72556    0.87825    1.000
    P16      P        0.76454    0.52908    0.48042    1.000
    O34      O        0.72556    0.45112    0.37825    1.000
    P17      P        0.47092    0.23546    0.48042    1.000
    O35      O        0.54888    0.27444    0.37825    1.000
    P18      P        0.76454    0.23546    0.48042    1.000
    O36      O        0.72556    0.27444    0.37825    1.000
