# CIF file generated by openbabel 3.1.0, see https://openbabel.org
data_I
_chemical_name_common 'TORKAO_clean'
_cell_length_a 11.048
_cell_length_b 16.702
_cell_length_c 18.739
_cell_angle_alpha 90
_cell_angle_beta 90
_cell_angle_gamma 90
_space_group_name_H-M_alt 'P 1'
_space_group_name_Hall 'P 1'
loop_
    _symmetry_equiv_pos_as_xyz
    x,y,z
loop_
    _atom_site_label
    _atom_site_type_symbol
    _atom_site_fract_x
    _atom_site_fract_y
    _atom_site_fract_z
    _atom_site_occupancy
    Eu1      Eu       0.79712    0.25000    0.79524    1.000
    Eu2      Eu       0.29712    0.25000    0.70476    1.000
    Eu3      Eu       0.20288    0.75000    0.20476    1.000
    Eu4      Eu       0.70288    0.75000    0.29524    1.000
    H1       H        0.92600    0.67900    0.51830    1.000
    H2       H        0.32570    0.07030    0.95860    1.000
    H3       H        0.17430    0.92970    0.45860    1.000
    H4       H        0.95530    0.51010    0.31900    1.000
    H5       H        0.45530    0.98990    0.18100    1.000
    H6       H        0.54470    0.01010    0.81900    1.000
    H7       H        0.52510    0.39310    0.13560    1.000
    H8       H        0.52940    0.75000    0.47430    1.000
    H9       H        0.02060    0.82760    0.45610    1.000
    H10      H        0.24800    0.95420    0.01200    1.000
    H11      H        0.67430    0.92970    0.04140    1.000
    H12      H        0.97940    0.32760    0.54390    1.000
    H13      H        0.57400    0.32100    0.01830    1.000
    H14      H        0.82570    0.07030    0.54140    1.000
    H15      H        0.42600    0.82100    0.98170    1.000
    H16      H        0.31740    0.25000    0.90930    1.000
    H17      H        0.81740    0.25000    0.59070    1.000
    H18      H        0.74800    0.54580    0.48800    1.000
    H19      H        0.07400    0.32100    0.48170    1.000
    H20      H        0.68260    0.75000    0.09070    1.000
    H21      H        0.32570    0.42970    0.95860    1.000
    H22      H        0.17430    0.57030    0.45860    1.000
    H23      H        0.47060    0.75000    0.58810    1.000
    H24      H        0.45530    0.51010    0.18100    1.000
    H25      H        0.52510    0.10690    0.13560    1.000
    H26      H        0.18260    0.75000    0.40930    1.000
    H27      H        0.74800    0.95420    0.48800    1.000
    H28      H        0.02060    0.67240    0.45610    1.000
    H29      H        0.04470    0.01010    0.68100    1.000
    H30      H        0.82570    0.42970    0.54140    1.000
    H31      H        0.52940    0.25000    0.41190    1.000
    H32      H        0.54470    0.48990    0.81900    1.000
    H33      H        0.42600    0.67900    0.98170    1.000
    H34      H        0.02940    0.75000    0.02570    1.000
    H35      H        0.97060    0.25000    0.97430    1.000
    H36      H        0.67430    0.57030    0.04140    1.000
    H37      H        0.47490    0.89310    0.86440    1.000
    H38      H        0.75200    0.45420    0.98800    1.000
    H39      H        0.97490    0.89310    0.63560    1.000
    H40      H        0.47490    0.60690    0.86440    1.000
    H41      H        0.02940    0.25000    0.08810    1.000
    H42      H        0.12710    0.75000    0.70720    1.000
    H43      H        0.52060    0.67240    0.04390    1.000
    H44      H        0.97940    0.17240    0.54390    1.000
    H45      H        0.92600    0.82100    0.51830    1.000
    H46      H        0.37290    0.25000    0.20720    1.000
    H47      H        0.97060    0.75000    0.91190    1.000
    H48      H        0.75200    0.04580    0.98800    1.000
    H49      H        0.47060    0.25000    0.52570    1.000
    H50      H        0.04470    0.48990    0.68100    1.000
    H51      H        0.02510    0.39310    0.36440    1.000
    H52      H        0.95530    0.98990    0.31900    1.000
    H53      H        0.25200    0.45420    0.51200    1.000
    H54      H        0.25200    0.04580    0.51200    1.000
    H55      H        0.47940    0.17240    0.95610    1.000
    H56      H        0.02510    0.10690    0.36440    1.000
    H57      H        0.57400    0.17900    0.01830    1.000
    H58      H        0.97490    0.60690    0.63560    1.000
    H59      H        0.47940    0.32760    0.95610    1.000
    H60      H        0.24800    0.54580    0.01200    1.000
    H61      H        0.52060    0.82760    0.04390    1.000
    H62      H        0.07400    0.17900    0.48170    1.000
    H63      H        0.62710    0.75000    0.79280    1.000
    H64      H        0.87290    0.25000    0.29280    1.000
    C1       C        0.93670    0.10070    0.45890    1.000
    C2       C        0.75950    0.25000    0.55460    1.000
    C3       C        0.57160    0.99360    0.86360    1.000
    C4       C        0.84640    0.95960    0.39920    1.000
    C5       C        0.43670    0.39930    0.04110    1.000
    C6       C        0.51170    0.67540    0.99250    1.000
    C7       C        0.44730    0.75000    0.48510    1.000
    C8       C        0.93670    0.39930    0.45890    1.000
    C9       C        0.74680    0.25000    0.34810    1.000
    C10      C        0.91210    0.75000    0.94750    1.000
    C11      C        0.06330    0.60070    0.54110    1.000
    C12      C        0.70480    0.75000    0.98150    1.000
    C13      C        0.34640    0.54040    0.10080    1.000
    C14      C        0.79520    0.25000    0.48150    1.000
    C15      C        0.02820    0.57580    0.60900    1.000
    C16      C        0.15360    0.04040    0.60080    1.000
    C17      C        0.85180    0.05480    0.49630    1.000
    C18      C        0.08790    0.25000    0.05250    1.000
    C19      C        0.74050    0.75000    0.05460    1.000
    C20      C        0.47180    0.42420    0.10900    1.000
    C21      C        0.86090    0.75000    0.07090    1.000
    C22      C        0.56330    0.89930    0.95890    1.000
    C23      C        0.34640    0.95960    0.10080    1.000
    C24      C        0.42840    0.00640    0.13640    1.000
    C25      C        0.84640    0.54040    0.39920    1.000
    C26      C        0.36090    0.75000    0.42910    1.000
    C27      C        0.42840    0.49360    0.13640    1.000
    C28      C        0.92840    0.00640    0.36360    1.000
    C29      C        0.19580    0.38240    0.63100    1.000
    C30      C        0.24680    0.25000    0.15190    1.000
    C31      C        0.25320    0.75000    0.65190    1.000
    C32      C        0.64820    0.94520    0.99630    1.000
    C33      C        0.98830    0.32460    0.49250    1.000
    C34      C        0.29520    0.25000    0.01850    1.000
    C35      C        0.24050    0.75000    0.44540    1.000
    C36      C        0.71140    0.25000    0.42780    1.000
    C37      C        0.75320    0.75000    0.84810    1.000
    C38      C        0.80420    0.61760    0.36900    1.000
    C39      C        0.10070    0.25000    0.85270    1.000
    C40      C        0.65360    0.45960    0.89920    1.000
    C41      C        0.52820    0.92420    0.89100    1.000
    C42      C        0.97180    0.42420    0.39100    1.000
    C43      C        0.69370    0.01580    0.96420    1.000
    C44      C        0.35180    0.44520    0.00370    1.000
    C45      C        0.65360    0.04040    0.89920    1.000
    C46      C        0.63910    0.25000    0.57090    1.000
    C47      C        0.35180    0.05480    0.00370    1.000
    C48      C        0.28860    0.75000    0.57220    1.000
    C49      C        0.21140    0.25000    0.07220    1.000
    C50      C        0.69580    0.38240    0.86900    1.000
    C51      C        0.19370    0.48420    0.53580    1.000
    C52      C        0.02820    0.92420    0.60900    1.000
    C53      C        0.80420    0.88240    0.36900    1.000
    C54      C        0.20480    0.75000    0.51850    1.000
    C55      C        0.30630    0.51580    0.03580    1.000
    C56      C        0.30420    0.88240    0.13100    1.000
    C57      C        0.51170    0.82460    0.99250    1.000
    C58      C        0.52820    0.57580    0.89100    1.000
    C59      C        0.06330    0.89930    0.54110    1.000
    C60      C        0.89930    0.75000    0.14730    1.000
    C61      C        0.92840    0.49360    0.36360    1.000
    C62      C        0.60070    0.25000    0.64730    1.000
    C63      C        0.25950    0.25000    0.94540    1.000
    C64      C        0.07160    0.99360    0.63640    1.000
    C65      C        0.80630    0.51580    0.46420    1.000
    C66      C        0.19370    0.01580    0.53580    1.000
    C67      C        0.19580    0.11760    0.63100    1.000
    C68      C        0.55270    0.25000    0.51490    1.000
    C69      C        0.64820    0.55480    0.99630    1.000
    C70      C        0.07160    0.50640    0.63640    1.000
    C71      C        0.15360    0.45960    0.60080    1.000
    C72      C        0.01170    0.82460    0.50750    1.000
    C73      C        0.69580    0.11760    0.86900    1.000
    C74      C        0.80630    0.98420    0.46420    1.000
    C75      C        0.41210    0.75000    0.55250    1.000
    C76      C        0.78860    0.75000    0.92780    1.000
    C77      C        0.48830    0.17540    0.00750    1.000
    C78      C        0.13910    0.25000    0.92910    1.000
    C79      C        0.43670    0.10070    0.04110    1.000
    C80      C        0.47180    0.07580    0.10900    1.000
    C81      C        0.30630    0.98420    0.03580    1.000
    C82      C        0.97180    0.07580    0.39100    1.000
    C83      C        0.30420    0.61760    0.13100    1.000
    C84      C        0.14820    0.55480    0.50370    1.000
    C85      C        0.57160    0.50640    0.86360    1.000
    C86      C        0.14820    0.94520    0.50370    1.000
    C87      C        0.58790    0.25000    0.44750    1.000
    C88      C        0.69370    0.48420    0.96420    1.000
    C89      C        0.39930    0.75000    0.35270    1.000
    C90      C        0.01170    0.67540    0.50750    1.000
    C91      C        0.56330    0.60070    0.95890    1.000
    C92      C        0.98830    0.17540    0.49250    1.000
    C93      C        0.85180    0.44520    0.49630    1.000
    C94      C        0.05270    0.25000    0.98510    1.000
    C95      C        0.94730    0.75000    0.01490    1.000
    C96      C        0.48830    0.32460    0.00750    1.000
    N1       N        0.92420    0.25000    0.46500    1.000
    N2       N        0.57580    0.75000    0.96500    1.000
    N3       N        0.42420    0.25000    0.03500    1.000
    N4       N        0.07580    0.75000    0.53500    1.000
    O1       O        0.83100    0.75000    0.80410    1.000
    O2       O        0.36040    0.64950    0.18180    1.000
    O3       O        0.00910    0.75000    0.16160    1.000
    O4       O        0.36100    0.25000    0.16410    1.000
    O5       O        0.18390    0.25000    0.80730    1.000
    O6       O        0.13960    0.35050    0.68180    1.000
    O7       O        0.13960    0.14950    0.68180    1.000
    O8       O        0.36040    0.85050    0.18180    1.000
    O9       O        0.86040    0.85050    0.31820    1.000
    O10      O        0.21180    0.65210    0.10660    1.000
    O11      O        0.33100    0.75000    0.69590    1.000
    O12      O        0.71180    0.84790    0.39340    1.000
    O13      O        0.50910    0.75000    0.33840    1.000
    O14      O        0.86100    0.25000    0.33590    1.000
    O15      O        0.13900    0.75000    0.66410    1.000
    O16      O        0.78820    0.34790    0.89340    1.000
    O17      O        0.63960    0.35050    0.81820    1.000
    O18      O        0.66900    0.25000    0.30410    1.000
    O19      O        0.78820    0.15210    0.89340    1.000
    O20      O        0.28820    0.15210    0.60660    1.000
    O21      O        0.86040    0.64950    0.31820    1.000
    O22      O        0.28820    0.34790    0.60660    1.000
    O23      O        0.99090    0.25000    0.83840    1.000
    O24      O        0.63960    0.14950    0.81820    1.000
    O25      O        0.31610    0.75000    0.30730    1.000
    O26      O        0.49090    0.25000    0.66160    1.000
    O27      O        0.63900    0.75000    0.83590    1.000
    O28      O        0.68390    0.25000    0.69270    1.000
    O29      O        0.21180    0.84790    0.10660    1.000
    O30      O        0.71180    0.65210    0.39340    1.000
    O31      O        0.81610    0.75000    0.19270    1.000
    O32      O        0.16900    0.25000    0.19590    1.000
