# CIF file generated by openbabel 3.1.0, see https://openbabel.org
data_I
_chemical_name_common 'image0'
_cell_length_a 23.1092
_cell_length_b 18.8031
_cell_length_c 29.8062
_cell_angle_alpha 90
_cell_angle_beta 105.325
_cell_angle_gamma 90
_space_group_name_H-M_alt 'P 1'
_space_group_name_Hall 'P 1'
loop_
    _symmetry_equiv_pos_as_xyz
    x,y,z
loop_
    _atom_site_label
    _atom_site_type_symbol
    _atom_site_fract_x
    _atom_site_fract_y
    _atom_site_fract_z
    _atom_site_occupancy
    C1       C        0.31130    0.63230    0.01470    1.000
    C2       C        0.34480    0.56700    0.01650    1.000
    C3       C        0.40140    0.56430    0.01150    1.000
    H1       H        0.41850    0.60800    0.00790    1.000
    C4       C        0.29450    0.77280    0.09460    1.000
    O1       O        0.58440    0.92450    0.24753    1.000
    O2       O        0.44480    0.93090    0.26950    1.000
    C5       C        0.10360    0.94360    0.00260    1.000
    H2       H        0.08830    0.89830    0.00450    1.000
    C6       C        0.72130    0.77550    0.42160    1.000
    C7       C        0.69920    0.78370    0.37240    1.000
    C8       C        0.73250    0.75040    0.34370    1.000
    H3       H        0.76370    0.71920    0.35620    1.000
    C9       C        0.71600    0.76690    0.29570    1.000
    C10      C        0.67280    0.82260    0.27910    1.000
    H4       H        0.66570    0.83780    0.24850    1.000
    C11      C        0.64120    0.85450    0.30800    1.000
    C12      C        0.65430    0.83390    0.35630    1.000
    H5       H        0.63330    0.85350    0.37600    1.000
    C13      C        0.59270    0.90200    0.29090    1.000
    C14      C        0.19790    0.87640    0.99970    1.000
    C15      C        0.16280    0.94460    0.00010    1.000
    C16      C        0.43390    0.91310    0.22970    1.000
    C17      C        0.38490    0.85770    0.20990    1.000
    C18      C        0.36760    0.83710    0.16400    1.000
    H6       H        0.39250    0.84800    0.14500    1.000
    C19      C        0.31580    0.80150    0.14520    1.000
    C20      C        0.28270    0.77560    0.17580    1.000
    H7       H        0.24860    0.74810    0.16420    1.000
    C21      C        0.30030    0.79080    0.22090    1.000
    C22      C        0.35000    0.83350    0.23920    1.000
    H8       H        0.36030    0.84600    0.27050    1.000
    H9       H        0.41124    0.86973    0.99704    1.000
    H10      H        0.87062    0.65960    0.51797    1.000
    Cu1      Cu       0.30287    0.78934    0.00228    1.000
    Cu2      Cu       0.70835    0.77908    0.51577    1.000
    N1       N        0.75550    0.74030    0.27000    1.000
    N2       N        0.27120    0.76820    0.25600    1.000
    O3       O        0.76630    0.73060    0.43534    1.000
    O4       O        0.68790    0.78980    0.44630    1.000
    O5       O        0.33710    0.69130    0.00850    1.000
    O6       O        0.25790    0.63500    0.02288    1.000
    O7       O        0.32620    0.80970    0.06887    1.000
    O8       O        0.24560    0.74880    0.08060    1.000
    O9       O        0.25150    0.87580    0.99879    1.000
    O10      O        0.16970    0.81780    0.00720    1.000
    O11      O        0.37910    0.84440    0.99050    1.000
    O12      O        0.56290    0.92350    0.31705    1.000
    O13      O        0.46340    0.92900    0.19940    1.000
    C23      C        0.81130    0.13230    0.51470    1.000
    C24      C        0.84480    0.06700    0.51650    1.000
    C25      C        0.90140    0.06430    0.51150    1.000
    H11      H        0.91850    0.10800    0.50790    1.000
    C26      C        0.79450    0.27280    0.59460    1.000
    O14      O        0.08440    0.42450    0.74753    1.000
    O15      O        0.94480    0.43090    0.76950    1.000
    C27      C        0.60360    0.44360    0.50260    1.000
    H12      H        0.58830    0.39830    0.50450    1.000
    C28      C        0.22130    0.27550    0.92160    1.000
    C29      C        0.19920    0.28370    0.87240    1.000
    C30      C        0.23250    0.25040    0.84370    1.000
    H13      H        0.26370    0.21920    0.85620    1.000
    C31      C        0.21600    0.26690    0.79570    1.000
    C32      C        0.17280    0.32260    0.77910    1.000
    H14      H        0.16570    0.33780    0.74850    1.000
    C33      C        0.14120    0.35450    0.80800    1.000
    C34      C        0.15430    0.33390    0.85630    1.000
    H15      H        0.13330    0.35350    0.87600    1.000
    C35      C        0.09270    0.40200    0.79090    1.000
    C36      C        0.69790    0.37640    0.49970    1.000
    C37      C        0.66280    0.44460    0.50010    1.000
    C38      C        0.93390    0.41310    0.72970    1.000
    C39      C        0.88490    0.35770    0.70990    1.000
    C40      C        0.86760    0.33710    0.66400    1.000
    H16      H        0.89250    0.34800    0.64500    1.000
    C41      C        0.81580    0.30150    0.64520    1.000
    C42      C        0.78270    0.27560    0.67580    1.000
    H17      H        0.74860    0.24810    0.66420    1.000
    C43      C        0.80030    0.29080    0.72090    1.000
    C44      C        0.85000    0.33350    0.73920    1.000
    H18      H        0.86030    0.34600    0.77050    1.000
    H19      H        0.91124    0.36973    0.49704    1.000
    H20      H        0.37062    0.15960    0.01797    1.000
    Cu3      Cu       0.80287    0.28934    0.50228    1.000
    Cu4      Cu       0.20835    0.27908    0.01577    1.000
    N3       N        0.25550    0.24030    0.77000    1.000
    N4       N        0.77120    0.26820    0.75600    1.000
    O16      O        0.26630    0.23060    0.93534    1.000
    O17      O        0.18790    0.28980    0.94630    1.000
    O18      O        0.83710    0.19130    0.50850    1.000
    O19      O        0.75790    0.13500    0.52288    1.000
    O20      O        0.82620    0.30970    0.56887    1.000
    O21      O        0.74560    0.24880    0.58060    1.000
    O22      O        0.75150    0.37580    0.49879    1.000
    O23      O        0.66970    0.31780    0.50720    1.000
    O24      O        0.87910    0.34440    0.49050    1.000
    O25      O        0.06290    0.42350    0.81705    1.000
    O26      O        0.96340    0.42900    0.69940    1.000
    C45      C        0.68870    0.63230    0.98530    1.000
    C46      C        0.65520    0.56700    0.98350    1.000
    C47      C        0.59860    0.56430    0.98850    1.000
    H21      H        0.58150    0.60800    0.99210    1.000
    C48      C        0.70550    0.77280    0.90540    1.000
    O27      O        0.41560    0.92450    0.75247    1.000
    O28      O        0.55520    0.93090    0.73050    1.000
    C49      C        0.89640    0.94360    0.99740    1.000
    H22      H        0.91170    0.89830    0.99550    1.000
    C50      C        0.27870    0.77550    0.57840    1.000
    C51      C        0.30080    0.78370    0.62760    1.000
    C52      C        0.26750    0.75040    0.65630    1.000
    H23      H        0.23630    0.71920    0.64380    1.000
    C53      C        0.28400    0.76690    0.70430    1.000
    C54      C        0.32720    0.82260    0.72090    1.000
    H24      H        0.33430    0.83780    0.75150    1.000
    C55      C        0.35880    0.85450    0.69200    1.000
    C56      C        0.34570    0.83390    0.64370    1.000
    H25      H        0.36670    0.85350    0.62400    1.000
    C57      C        0.40730    0.90200    0.70910    1.000
    C58      C        0.80210    0.87640    0.00030    1.000
    C59      C        0.83720    0.94460    0.99990    1.000
    C60      C        0.56610    0.91310    0.77030    1.000
    C61      C        0.61510    0.85770    0.79010    1.000
    C62      C        0.63240    0.83710    0.83600    1.000
    H26      H        0.60750    0.84800    0.85500    1.000
    C63      C        0.68420    0.80150    0.85480    1.000
    C64      C        0.71730    0.77560    0.82420    1.000
    H27      H        0.75140    0.74810    0.83580    1.000
    C65      C        0.69970    0.79080    0.77910    1.000
    C66      C        0.65000    0.83350    0.76080    1.000
    H28      H        0.63970    0.84600    0.72950    1.000
    H29      H        0.58876    0.86973    0.00296    1.000
    H30      H        0.12938    0.65960    0.48203    1.000
    Cu5      Cu       0.69713    0.78934    0.99772    1.000
    Cu6      Cu       0.29165    0.77908    0.48423    1.000
    N5       N        0.24450    0.74030    0.73000    1.000
    N6       N        0.72880    0.76820    0.74400    1.000
    O29      O        0.23370    0.73060    0.56466    1.000
    O30      O        0.31210    0.78980    0.55370    1.000
    O31      O        0.66290    0.69130    0.99150    1.000
    O32      O        0.74210    0.63500    0.97712    1.000
    O33      O        0.67380    0.80970    0.93113    1.000
    O34      O        0.75440    0.74880    0.91940    1.000
    O35      O        0.74850    0.87580    0.00121    1.000
    O36      O        0.83030    0.81780    0.99280    1.000
    O37      O        0.62090    0.84440    0.00950    1.000
    O38      O        0.43710    0.92350    0.68295    1.000
    O39      O        0.53660    0.92900    0.80060    1.000
    C67      C        0.18870    0.13230    0.48530    1.000
    C68      C        0.15520    0.06700    0.48350    1.000
    C69      C        0.09860    0.06430    0.48850    1.000
    H31      H        0.08150    0.10800    0.49210    1.000
    C70      C        0.20550    0.27280    0.40540    1.000
    O40      O        0.91560    0.42450    0.25247    1.000
    O41      O        0.05520    0.43090    0.23050    1.000
    C71      C        0.39640    0.44360    0.49740    1.000
    H32      H        0.41170    0.39830    0.49550    1.000
    C72      C        0.77870    0.27550    0.07840    1.000
    C73      C        0.80080    0.28370    0.12760    1.000
    C74      C        0.76750    0.25040    0.15630    1.000
    H33      H        0.73630    0.21920    0.14380    1.000
    C75      C        0.78400    0.26690    0.20430    1.000
    C76      C        0.82720    0.32260    0.22090    1.000
    H34      H        0.83430    0.33780    0.25150    1.000
    C77      C        0.85880    0.35450    0.19200    1.000
    C78      C        0.84570    0.33390    0.14370    1.000
    H35      H        0.86670    0.35350    0.12400    1.000
    C79      C        0.90730    0.40200    0.20910    1.000
    C80      C        0.30210    0.37640    0.50030    1.000
    C81      C        0.33720    0.44460    0.49990    1.000
    C82      C        0.06610    0.41310    0.27030    1.000
    C83      C        0.11510    0.35770    0.29010    1.000
    C84      C        0.13240    0.33710    0.33600    1.000
    H36      H        0.10750    0.34800    0.35500    1.000
    C85      C        0.18420    0.30150    0.35480    1.000
    C86      C        0.21730    0.27560    0.32420    1.000
    H37      H        0.25140    0.24810    0.33580    1.000
    C87      C        0.19970    0.29080    0.27910    1.000
    C88      C        0.15000    0.33350    0.26080    1.000
    H38      H        0.13970    0.34600    0.22950    1.000
    H39      H        0.08876    0.36973    0.50296    1.000
    H40      H        0.62938    0.15960    0.98203    1.000
    Cu7      Cu       0.19713    0.28934    0.49772    1.000
    Cu8      Cu       0.79165    0.27908    0.98423    1.000
    N7       N        0.74450    0.24030    0.23000    1.000
    N8       N        0.22880    0.26820    0.24400    1.000
    O42      O        0.73370    0.23060    0.06466    1.000
    O43      O        0.81210    0.28980    0.05370    1.000
    O44      O        0.16290    0.19130    0.49150    1.000
    O45      O        0.24210    0.13500    0.47712    1.000
    O46      O        0.17380    0.30970    0.43113    1.000
    O47      O        0.25440    0.24880    0.41940    1.000
    O48      O        0.24850    0.37580    0.50121    1.000
    O49      O        0.33030    0.31780    0.49280    1.000
    O50      O        0.12090    0.34440    0.50950    1.000
    O51      O        0.93710    0.42350    0.18295    1.000
    O52      O        0.03660    0.42900    0.30060    1.000
    C89      C        0.68870    0.36770    0.98530    1.000
    C90      C        0.65520    0.43300    0.98350    1.000
    C91      C        0.59860    0.43570    0.98850    1.000
    H41      H        0.58150    0.39200    0.99210    1.000
    C92      C        0.70550    0.22720    0.90540    1.000
    O53      O        0.41560    0.07550    0.75247    1.000
    O54      O        0.55520    0.06910    0.73050    1.000
    C93      C        0.89640    0.05640    0.99740    1.000
    H42      H        0.91170    0.10170    0.99550    1.000
    C94      C        0.27870    0.22450    0.57840    1.000
    C95      C        0.30080    0.21630    0.62760    1.000
    C96      C        0.26750    0.24960    0.65630    1.000
    H43      H        0.23630    0.28080    0.64380    1.000
    C97      C        0.28400    0.23310    0.70430    1.000
    C98      C        0.32720    0.17740    0.72090    1.000
    H44      H        0.33430    0.16220    0.75150    1.000
    C99      C        0.35880    0.14550    0.69200    1.000
    C100     C        0.34570    0.16610    0.64370    1.000
    H45      H        0.36670    0.14650    0.62400    1.000
    C101     C        0.40730    0.09800    0.70910    1.000
    C102     C        0.80210    0.12360    0.00030    1.000
    C103     C        0.83720    0.05540    0.99990    1.000
    C104     C        0.56610    0.08690    0.77030    1.000
    C105     C        0.61510    0.14230    0.79010    1.000
    C106     C        0.63240    0.16290    0.83600    1.000
    H46      H        0.60750    0.15200    0.85500    1.000
    C107     C        0.68420    0.19850    0.85480    1.000
    C108     C        0.71730    0.22440    0.82420    1.000
    H47      H        0.75140    0.25190    0.83580    1.000
    C109     C        0.69970    0.20920    0.77910    1.000
    C110     C        0.65000    0.16650    0.76080    1.000
    H48      H        0.63970    0.15400    0.72950    1.000
    H49      H        0.58876    0.13027    0.00296    1.000
    H50      H        0.12938    0.34040    0.48203    1.000
    Cu9      Cu       0.69713    0.21066    0.99772    1.000
    Cu10     Cu       0.29165    0.22092    0.48423    1.000
    N9       N        0.24450    0.25970    0.73000    1.000
    N10      N        0.72880    0.23180    0.74400    1.000
    O55      O        0.23370    0.26940    0.56466    1.000
    O56      O        0.31210    0.21020    0.55370    1.000
    O57      O        0.66290    0.30870    0.99150    1.000
    O58      O        0.74210    0.36500    0.97712    1.000
    O59      O        0.67380    0.19030    0.93113    1.000
    O60      O        0.75440    0.25120    0.91940    1.000
    O61      O        0.74850    0.12420    0.00121    1.000
    O62      O        0.83030    0.18220    0.99280    1.000
    O63      O        0.62090    0.15560    0.00950    1.000
    O64      O        0.43710    0.07650    0.68295    1.000
    O65      O        0.53660    0.07100    0.80060    1.000
    C111     C        0.18870    0.86770    0.48530    1.000
    C112     C        0.15520    0.93300    0.48350    1.000
    C113     C        0.09860    0.93570    0.48850    1.000
    H51      H        0.08150    0.89200    0.49210    1.000
    C114     C        0.20550    0.72720    0.40540    1.000
    O66      O        0.91560    0.57550    0.25247    1.000
    O67      O        0.05520    0.56910    0.23050    1.000
    C115     C        0.39640    0.55640    0.49740    1.000
    H52      H        0.41170    0.60170    0.49550    1.000
    C116     C        0.77870    0.72450    0.07840    1.000
    C117     C        0.80080    0.71630    0.12760    1.000
    C118     C        0.76750    0.74960    0.15630    1.000
    H53      H        0.73630    0.78080    0.14380    1.000
    C119     C        0.78400    0.73310    0.20430    1.000
    C120     C        0.82720    0.67740    0.22090    1.000
    H54      H        0.83430    0.66220    0.25150    1.000
    C121     C        0.85880    0.64550    0.19200    1.000
    C122     C        0.84570    0.66610    0.14370    1.000
    H55      H        0.86670    0.64650    0.12400    1.000
    C123     C        0.90730    0.59800    0.20910    1.000
    C124     C        0.30210    0.62360    0.50030    1.000
    C125     C        0.33720    0.55540    0.49990    1.000
    C126     C        0.06610    0.58690    0.27030    1.000
    C127     C        0.11510    0.64230    0.29010    1.000
    C128     C        0.13240    0.66290    0.33600    1.000
    H56      H        0.10750    0.65200    0.35500    1.000
    C129     C        0.18420    0.69850    0.35480    1.000
    C130     C        0.21730    0.72440    0.32420    1.000
    H57      H        0.25140    0.75190    0.33580    1.000
    C131     C        0.19970    0.70920    0.27910    1.000
    C132     C        0.15000    0.66650    0.26080    1.000
    H58      H        0.13970    0.65400    0.22950    1.000
    H59      H        0.08876    0.63027    0.50296    1.000
    H60      H        0.62938    0.84040    0.98203    1.000
    Cu11     Cu       0.19713    0.71066    0.49772    1.000
    Cu12     Cu       0.79165    0.72092    0.98423    1.000
    N11      N        0.74450    0.75970    0.23000    1.000
    N12      N        0.22880    0.73180    0.24400    1.000
    O68      O        0.73370    0.76940    0.06466    1.000
    O69      O        0.81210    0.71020    0.05370    1.000
    O70      O        0.16290    0.80870    0.49150    1.000
    O71      O        0.24210    0.86500    0.47712    1.000
    O72      O        0.17380    0.69030    0.43113    1.000
    O73      O        0.25440    0.75120    0.41940    1.000
    O74      O        0.24850    0.62420    0.50121    1.000
    O75      O        0.33030    0.68220    0.49280    1.000
    O76      O        0.12090    0.65560    0.50950    1.000
    O77      O        0.93710    0.57650    0.18295    1.000
    O78      O        0.03660    0.57100    0.30060    1.000
    C133     C        0.31130    0.36770    0.01470    1.000
    C134     C        0.34480    0.43300    0.01650    1.000
    C135     C        0.40140    0.43570    0.01150    1.000
    H61      H        0.41850    0.39200    0.00790    1.000
    C136     C        0.29450    0.22720    0.09460    1.000
    O79      O        0.58440    0.07550    0.24753    1.000
    O80      O        0.44480    0.06910    0.26950    1.000
    C137     C        0.10360    0.05640    0.00260    1.000
    H62      H        0.08830    0.10170    0.00450    1.000
    C138     C        0.72130    0.22450    0.42160    1.000
    C139     C        0.69920    0.21630    0.37240    1.000
    C140     C        0.73250    0.24960    0.34370    1.000
    H63      H        0.76370    0.28080    0.35620    1.000
    C141     C        0.71600    0.23310    0.29570    1.000
    C142     C        0.67280    0.17740    0.27910    1.000
    H64      H        0.66570    0.16220    0.24850    1.000
    C143     C        0.64120    0.14550    0.30800    1.000
    C144     C        0.65430    0.16610    0.35630    1.000
    H65      H        0.63330    0.14650    0.37600    1.000
    C145     C        0.59270    0.09800    0.29090    1.000
    C146     C        0.19790    0.12360    0.99970    1.000
    C147     C        0.16280    0.05540    0.00010    1.000
    C148     C        0.43390    0.08690    0.22970    1.000
    C149     C        0.38490    0.14230    0.20990    1.000
    C150     C        0.36760    0.16290    0.16400    1.000
    H66      H        0.39250    0.15200    0.14500    1.000
    C151     C        0.31580    0.19850    0.14520    1.000
    C152     C        0.28270    0.22440    0.17580    1.000
    H67      H        0.24860    0.25190    0.16420    1.000
    C153     C        0.30030    0.20920    0.22090    1.000
    C154     C        0.35000    0.16650    0.23920    1.000
    H68      H        0.36030    0.15400    0.27050    1.000
    H69      H        0.41124    0.13027    0.99704    1.000
    H70      H        0.87062    0.34040    0.51797    1.000
    Cu13     Cu       0.30287    0.21066    0.00228    1.000
    Cu14     Cu       0.70835    0.22092    0.51577    1.000
    N13      N        0.75550    0.25970    0.27000    1.000
    N14      N        0.27120    0.23180    0.25600    1.000
    O81      O        0.76630    0.26940    0.43534    1.000
    O82      O        0.68790    0.21020    0.44630    1.000
    O83      O        0.33710    0.30870    0.00850    1.000
    O84      O        0.25790    0.36500    0.02288    1.000
    O85      O        0.32620    0.19030    0.06887    1.000
    O86      O        0.24560    0.25120    0.08060    1.000
    O87      O        0.25150    0.12420    0.99879    1.000
    O88      O        0.16970    0.18220    0.00720    1.000
    O89      O        0.37910    0.15560    0.99050    1.000
    O90      O        0.56290    0.07650    0.31705    1.000
    O91      O        0.46340    0.07100    0.19940    1.000
    C155     C        0.81130    0.86770    0.51470    1.000
    C156     C        0.84480    0.93300    0.51650    1.000
    C157     C        0.90140    0.93570    0.51150    1.000
    H71      H        0.91850    0.89200    0.50790    1.000
    C158     C        0.79450    0.72720    0.59460    1.000
    O92      O        0.08440    0.57550    0.74753    1.000
    O93      O        0.94480    0.56910    0.76950    1.000
    C159     C        0.60360    0.55640    0.50260    1.000
    H72      H        0.58830    0.60170    0.50450    1.000
    C160     C        0.22130    0.72450    0.92160    1.000
    C161     C        0.19920    0.71630    0.87240    1.000
    C162     C        0.23250    0.74960    0.84370    1.000
    H73      H        0.26370    0.78080    0.85620    1.000
    C163     C        0.21600    0.73310    0.79570    1.000
    C164     C        0.17280    0.67740    0.77910    1.000
    H74      H        0.16570    0.66220    0.74850    1.000
    C165     C        0.14120    0.64550    0.80800    1.000
    C166     C        0.15430    0.66610    0.85630    1.000
    H75      H        0.13330    0.64650    0.87600    1.000
    C167     C        0.09270    0.59800    0.79090    1.000
    C168     C        0.69790    0.62360    0.49970    1.000
    C169     C        0.66280    0.55540    0.50010    1.000
    C170     C        0.93390    0.58690    0.72970    1.000
    C171     C        0.88490    0.64230    0.70990    1.000
    C172     C        0.86760    0.66290    0.66400    1.000
    H76      H        0.89250    0.65200    0.64500    1.000
    C173     C        0.81580    0.69850    0.64520    1.000
    C174     C        0.78270    0.72440    0.67580    1.000
    H77      H        0.74860    0.75190    0.66420    1.000
    C175     C        0.80030    0.70920    0.72090    1.000
    C176     C        0.85000    0.66650    0.73920    1.000
    H78      H        0.86030    0.65400    0.77050    1.000
    H79      H        0.91124    0.63027    0.49704    1.000
    H80      H        0.37062    0.84040    0.01797    1.000
    Cu15     Cu       0.80287    0.71066    0.50228    1.000
    Cu16     Cu       0.20835    0.72092    0.01577    1.000
    N15      N        0.25550    0.75970    0.77000    1.000
    N16      N        0.77120    0.73180    0.75600    1.000
    O94      O        0.26630    0.76940    0.93534    1.000
    O95      O        0.18790    0.71020    0.94630    1.000
    O96      O        0.83710    0.80870    0.50850    1.000
    O97      O        0.75790    0.86500    0.52288    1.000
    O98      O        0.82620    0.69030    0.56887    1.000
    O99      O        0.74560    0.75120    0.58060    1.000
    O100     O        0.75150    0.62420    0.49879    1.000
    O101     O        0.66970    0.68220    0.50720    1.000
    O102     O        0.87910    0.65560    0.49050    1.000
    O103     O        0.06290    0.57650    0.81705    1.000
    O104     O        0.96340    0.57100    0.69940    1.000
    C177     C        0.44090    0.50000    0.01080    1.000
    C178     C        0.31190    0.50000    0.01940    1.000
    H81      H        0.27300    0.50000    0.02280    1.000
    C179     C        0.94090    0.00000    0.51080    1.000
    C180     C        0.81190    0.00000    0.51940    1.000
    H82      H        0.77300    0.00000    0.52280    1.000
    C181     C        0.55910    0.50000    0.98920    1.000
    C182     C        0.68810    0.50000    0.98060    1.000
    H83      H        0.72700    0.50000    0.97720    1.000
    C183     C        0.05910    0.00000    0.48920    1.000
    C184     C        0.18810    0.00000    0.48060    1.000
    H84      H        0.22700    0.00000    0.47720    1.000
    N17      N        0.50000    0.50000    0.00000    1.000
    N18      N        0.00000    0.00000    0.50000    1.000
    C185     C        0.06220    0.00000    0.00270    1.000
    C186     C        0.19610    0.00000    0.99910    1.000
    H85      H        0.23590    0.00000    0.99790    1.000
    H86      H        0.57543    0.00000    0.18019    1.000
    H87      H        0.53752    0.00000    0.15943    1.000
    Cu17     Cu       0.52714    0.00000    0.21719    1.000
    Cu18     Cu       0.50048    0.00000    0.29883    1.000
    O105     O        0.55330    0.00000    0.15330    1.000
    C187     C        0.56220    0.50000    0.50270    1.000
    C188     C        0.69610    0.50000    0.49910    1.000
    H88      H        0.73590    0.50000    0.49790    1.000
    H89      H        0.07543    0.50000    0.68019    1.000
    H90      H        0.03752    0.50000    0.65943    1.000
    Cu19     Cu       0.02714    0.50000    0.71719    1.000
    Cu20     Cu       0.00048    0.50000    0.79883    1.000
    O106     O        0.05330    0.50000    0.65330    1.000
    C189     C        0.93780    0.00000    0.99730    1.000
    C190     C        0.80390    0.00000    0.00090    1.000
    H91      H        0.76410    0.00000    0.00210    1.000
    H92      H        0.42457    0.00000    0.81981    1.000
    H93      H        0.46248    0.00000    0.84057    1.000
    Cu21     Cu       0.47286    0.00000    0.78281    1.000
    Cu22     Cu       0.49952    0.00000    0.70117    1.000
    O107     O        0.44670    0.00000    0.84670    1.000
    C191     C        0.43780    0.50000    0.49730    1.000
    C192     C        0.30390    0.50000    0.50090    1.000
    H94      H        0.26410    0.50000    0.50210    1.000
    H95      H        0.92457    0.50000    0.31981    1.000
    H96      H        0.96248    0.50000    0.34057    1.000
    Cu23     Cu       0.97286    0.50000    0.28281    1.000
    Cu24     Cu       0.99952    0.50000    0.20117    1.000
    O108     O        0.94670    0.50000    0.34670    1.000
    N19      N        0.00000    0.98400    0.00000    1.000
    N20      N        0.50000    0.48400    0.50000    1.000
    N21      N        0.00000    0.01600    0.00000    1.000
    N22      N        0.50000    0.51600    0.50000    1.000
