# CIF file generated by openbabel 3.1.0, see https://openbabel.org
data_I
_chemical_name_common 'image0'
_cell_length_a 15.964
_cell_length_b 16.319
_cell_length_c 16.578
_cell_angle_alpha 90
_cell_angle_beta 118.02
_cell_angle_gamma 90
_space_group_name_H-M_alt 'P 1'
_space_group_name_Hall 'P 1'
loop_
    _symmetry_equiv_pos_as_xyz
    x,y,z
loop_
    _atom_site_label
    _atom_site_type_symbol
    _atom_site_fract_x
    _atom_site_fract_y
    _atom_site_fract_z
    _atom_site_occupancy
    Cd1      Cd       0.11495    0.70281    0.28863    1.000
    Cd2      Cd       0.83906    0.72852    0.17752    1.000
    O1       O        0.97840    0.62160    0.20940    1.000
    O2       O        0.82630    0.60680    0.11060    1.000
    O3       O        0.72820    0.38260    0.86430    1.000
    O4       O        0.80150    0.26940    0.93580    1.000
    O5       O        0.15020    0.33580    0.08170    1.000
    O6       O        0.20340    0.42760    0.18560    1.000
    O7       O        0.75860    0.67700    0.25310    1.000
    O8       O        0.72760    0.70370    0.36740    1.000
    O9       O        0.79420    0.49660    0.61240    1.000
    O10      O        0.83930    0.37370    0.58690    1.000
    O11      O        0.99250    0.34930    0.40090    1.000
    O12      O        0.95200    0.42690    0.28700    1.000
    N1       N        0.02980    0.78200    0.15760    1.000
    N2       N        0.93120    0.78270    0.11220    1.000
    N3       N        0.98260    0.84870    0.02910    1.000
    N4       N        0.03570    0.76860    0.36100    1.000
    N5       N        0.93860    0.77600    0.31960    1.000
    N6       N        0.99620    0.82950    0.45520    1.000
    N7       N        0.13920    0.38620    0.13060    1.000
    N8       N        0.95570    0.41110    0.35760    1.000
    C1       C        0.99310    0.02880    0.73800    1.000
    H1       H        0.04930    0.06420    0.76360    1.000
    H2       H        0.93700    0.06400    0.70860    1.000
    C2       C        0.98910    0.98190    0.81480    1.000
    C3       C        0.90860    0.97820    0.82360    1.000
    H3       H        0.85410    0.00590    0.78100    1.000
    C4       C        0.90460    0.93460    0.89390    1.000
    H4       H        0.84860    0.93320    0.89920    1.000
    C5       C        0.98420    0.89380    0.95510    1.000
    C6       C        0.06660    0.89640    0.94810    1.000
    H5       H        0.12100    0.86860    0.99080    1.000
    C7       C        0.06840    0.94010    0.87780    1.000
    H6       H        0.12460    0.94170    0.87260    1.000
    C8       C        0.99710    0.97320    0.66680    1.000
    C9       C        0.92230    0.92040    0.61580    1.000
    H7       H        0.87030    0.91800    0.62770    1.000
    C10      C        0.92270    0.87190    0.54870    1.000
    H8       H        0.87140    0.83680    0.51470    1.000
    C11      C        0.99980    0.87510    0.53150    1.000
    C12      C        0.07540    0.92510    0.58270    1.000
    H9       H        0.12790    0.92700    0.57150    1.000
    C13      C        0.07400    0.97270    0.65080    1.000
    H10      H        0.12680    0.00550    0.68710    1.000
    C14      C        0.05880    0.82250    0.10660    1.000
    H11      H        0.12250    0.83190    0.12160    1.000
    C15      C        0.90510    0.82170    0.03650    1.000
    H12      H        0.84170    0.83040    0.99230    1.000
    C16      C        0.06940    0.80040    0.44250    1.000
    H13      H        0.13400    0.80280    0.48580    1.000
    C17      C        0.91770    0.81200    0.37790    1.000
    H14      H        0.85570    0.82420    0.36700    1.000
    C18      C        0.93230    0.50920    0.10350    1.000
    C19      C        0.85840    0.46750    0.03380    1.000
    H15      H        0.79600    0.48740    0.00960    1.000
    C20      C        0.87710    0.39530    0.99960    1.000
    C21      C        0.96810    0.36770    0.03250    1.000
    H16      H        0.98080    0.31880    0.01040    1.000
    C22      C        0.04130    0.41280    0.09890    1.000
    C23      C        0.02450    0.48230    0.13620    1.000
    H17      H        0.07500    0.51080    0.18310    1.000
    C24      C        0.91120    0.58480    0.14410    1.000
    C25      C        0.79630    0.34630    0.92790    1.000
    C26      C        0.81060    0.58210    0.37640    1.000
    C27      C        0.80060    0.55580    0.45160    1.000
    H18      H        0.76860    0.58920    0.47460    1.000
    C28      C        0.83750    0.48080    0.49310    1.000
    C29      C        0.88860    0.43410    0.46080    1.000
    H19      H        0.91540    0.38390    0.48860    1.000
    C30      C        0.89960    0.46170    0.38910    1.000
    C31      C        0.86150    0.53440    0.34500    1.000
    H20      H        0.86970    0.55150    0.29500    1.000
    C32      C        0.76290    0.66080    0.32820    1.000
    C33      C        0.82260    0.44920    0.57120    1.000
    O13      O        0.15300    0.31010    0.11900    1.000
    O14      O        0.97500    0.44600    0.29800    1.000
    Cd3      Cd       0.38505    0.20281    0.71137    1.000
    Cd4      Cd       0.66094    0.22852    0.82248    1.000
    O15      O        0.52160    0.12160    0.79060    1.000
    O16      O        0.67370    0.10680    0.88940    1.000
    O17      O        0.77180    0.88260    0.13570    1.000
    O18      O        0.69850    0.76940    0.06420    1.000
    O19      O        0.34980    0.83580    0.91830    1.000
    O20      O        0.29660    0.92760    0.81440    1.000
    O21      O        0.74140    0.17700    0.74690    1.000
    O22      O        0.77240    0.20370    0.63260    1.000
    O23      O        0.70580    0.99660    0.38760    1.000
    O24      O        0.66070    0.87370    0.41310    1.000
    O25      O        0.50750    0.84930    0.59910    1.000
    O26      O        0.54800    0.92690    0.71300    1.000
    N9       N        0.47020    0.28200    0.84240    1.000
    N10      N        0.56880    0.28270    0.88780    1.000
    N11      N        0.51740    0.34870    0.97090    1.000
    N12      N        0.46430    0.26860    0.63900    1.000
    N13      N        0.56140    0.27600    0.68040    1.000
    N14      N        0.50380    0.32950    0.54480    1.000
    N15      N        0.36080    0.88620    0.86940    1.000
    N16      N        0.54430    0.91110    0.64240    1.000
    C34      C        0.50690    0.52880    0.26200    1.000
    H21      H        0.45070    0.56420    0.23640    1.000
    H22      H        0.56300    0.56400    0.29140    1.000
    C35      C        0.51090    0.48190    0.18520    1.000
    C36      C        0.59140    0.47820    0.17640    1.000
    H23      H        0.64590    0.50590    0.21900    1.000
    C37      C        0.59540    0.43460    0.10610    1.000
    H24      H        0.65140    0.43320    0.10080    1.000
    C38      C        0.51580    0.39380    0.04490    1.000
    C39      C        0.43340    0.39640    0.05190    1.000
    H25      H        0.37900    0.36860    0.00920    1.000
    C40      C        0.43160    0.44010    0.12220    1.000
    H26      H        0.37540    0.44170    0.12740    1.000
    C41      C        0.50290    0.47320    0.33320    1.000
    C42      C        0.57770    0.42040    0.38420    1.000
    H27      H        0.62970    0.41800    0.37230    1.000
    C43      C        0.57730    0.37190    0.45130    1.000
    H28      H        0.62860    0.33680    0.48530    1.000
    C44      C        0.50020    0.37510    0.46850    1.000
    C45      C        0.42460    0.42510    0.41730    1.000
    H29      H        0.37210    0.42700    0.42850    1.000
    C46      C        0.42600    0.47270    0.34920    1.000
    H30      H        0.37320    0.50550    0.31290    1.000
    C47      C        0.44120    0.32250    0.89340    1.000
    H31      H        0.37750    0.33190    0.87840    1.000
    C48      C        0.59490    0.32170    0.96350    1.000
    H32      H        0.65830    0.33040    0.00770    1.000
    C49      C        0.43060    0.30040    0.55750    1.000
    H33      H        0.36600    0.30280    0.51420    1.000
    C50      C        0.58230    0.31200    0.62210    1.000
    H34      H        0.64430    0.32420    0.63300    1.000
    C51      C        0.56770    0.00920    0.89650    1.000
    C52      C        0.64160    0.96750    0.96620    1.000
    H35      H        0.70400    0.98740    0.99040    1.000
    C53      C        0.62290    0.89530    0.00040    1.000
    C54      C        0.53190    0.86770    0.96750    1.000
    H36      H        0.51920    0.81880    0.98960    1.000
    C55      C        0.45870    0.91280    0.90110    1.000
    C56      C        0.47550    0.98230    0.86380    1.000
    H37      H        0.42500    0.01080    0.81690    1.000
    C57      C        0.58880    0.08480    0.85590    1.000
    C58      C        0.70370    0.84630    0.07210    1.000
    C59      C        0.68940    0.08210    0.62360    1.000
    C60      C        0.69940    0.05580    0.54840    1.000
    H38      H        0.73140    0.08920    0.52540    1.000
    C61      C        0.66250    0.98080    0.50690    1.000
    C62      C        0.61140    0.93410    0.53920    1.000
    H39      H        0.58460    0.88390    0.51140    1.000
    C63      C        0.60040    0.96170    0.61090    1.000
    C64      C        0.63850    0.03440    0.65500    1.000
    H40      H        0.63030    0.05150    0.70500    1.000
    C65      C        0.73710    0.16080    0.67180    1.000
    C66      C        0.67740    0.94920    0.42880    1.000
    O27      O        0.34700    0.81010    0.88100    1.000
    O28      O        0.52500    0.94600    0.70200    1.000
    Cd5      Cd       0.88505    0.29719    0.71137    1.000
    Cd6      Cd       0.16094    0.27148    0.82248    1.000
    O29      O        0.02160    0.37840    0.79060    1.000
    O30      O        0.17370    0.39320    0.88940    1.000
    O31      O        0.27180    0.61740    0.13570    1.000
    O32      O        0.19850    0.73060    0.06420    1.000
    O33      O        0.84980    0.66420    0.91830    1.000
    O34      O        0.79660    0.57240    0.81440    1.000
    O35      O        0.24140    0.32300    0.74690    1.000
    O36      O        0.27240    0.29630    0.63260    1.000
    O37      O        0.20580    0.50340    0.38760    1.000
    O38      O        0.16070    0.62630    0.41310    1.000
    O39      O        0.00750    0.65070    0.59910    1.000
    O40      O        0.04800    0.57310    0.71300    1.000
    N17      N        0.97020    0.21800    0.84240    1.000
    N18      N        0.06880    0.21730    0.88780    1.000
    N19      N        0.01740    0.15130    0.97090    1.000
    N20      N        0.96430    0.23140    0.63900    1.000
    N21      N        0.06140    0.22400    0.68040    1.000
    N22      N        0.00380    0.17050    0.54480    1.000
    N23      N        0.86080    0.61380    0.86940    1.000
    N24      N        0.04430    0.58890    0.64240    1.000
    C67      C        0.00690    0.97120    0.26200    1.000
    H41      H        0.95070    0.93580    0.23640    1.000
    H42      H        0.06300    0.93600    0.29140    1.000
    C68      C        0.01090    0.01810    0.18520    1.000
    C69      C        0.09140    0.02180    0.17640    1.000
    H43      H        0.14590    0.99410    0.21900    1.000
    C70      C        0.09540    0.06540    0.10610    1.000
    H44      H        0.15140    0.06680    0.10080    1.000
    C71      C        0.01580    0.10620    0.04490    1.000
    C72      C        0.93340    0.10360    0.05190    1.000
    H45      H        0.87900    0.13140    0.00920    1.000
    C73      C        0.93160    0.05990    0.12220    1.000
    H46      H        0.87540    0.05830    0.12740    1.000
    C74      C        0.00290    0.02680    0.33320    1.000
    C75      C        0.07770    0.07960    0.38420    1.000
    H47      H        0.12970    0.08200    0.37230    1.000
    C76      C        0.07730    0.12810    0.45130    1.000
    H48      H        0.12860    0.16320    0.48530    1.000
    C77      C        0.00020    0.12490    0.46850    1.000
    C78      C        0.92460    0.07490    0.41730    1.000
    H49      H        0.87210    0.07300    0.42850    1.000
    C79      C        0.92600    0.02730    0.34920    1.000
    H50      H        0.87320    0.99450    0.31290    1.000
    C80      C        0.94120    0.17750    0.89340    1.000
    H51      H        0.87750    0.16810    0.87840    1.000
    C81      C        0.09490    0.17830    0.96350    1.000
    H52      H        0.15830    0.16960    0.00770    1.000
    C82      C        0.93060    0.19960    0.55750    1.000
    H53      H        0.86600    0.19720    0.51420    1.000
    C83      C        0.08230    0.18800    0.62210    1.000
    H54      H        0.14430    0.17580    0.63300    1.000
    C84      C        0.06770    0.49080    0.89650    1.000
    C85      C        0.14160    0.53250    0.96620    1.000
    H55      H        0.20400    0.51260    0.99040    1.000
    C86      C        0.12290    0.60470    0.00040    1.000
    C87      C        0.03190    0.63230    0.96750    1.000
    H56      H        0.01920    0.68120    0.98960    1.000
    C88      C        0.95870    0.58720    0.90110    1.000
    C89      C        0.97550    0.51770    0.86380    1.000
    H57      H        0.92500    0.48920    0.81690    1.000
    C90      C        0.08880    0.41520    0.85590    1.000
    C91      C        0.20370    0.65370    0.07210    1.000
    C92      C        0.18940    0.41790    0.62360    1.000
    C93      C        0.19940    0.44420    0.54840    1.000
    H58      H        0.23140    0.41080    0.52540    1.000
    C94      C        0.16250    0.51920    0.50690    1.000
    C95      C        0.11140    0.56590    0.53920    1.000
    H59      H        0.08460    0.61610    0.51140    1.000
    C96      C        0.10040    0.53830    0.61090    1.000
    C97      C        0.13850    0.46560    0.65500    1.000
    H60      H        0.13030    0.44850    0.70500    1.000
    C98      C        0.23710    0.33920    0.67180    1.000
    C99      C        0.17740    0.55080    0.42880    1.000
    O41      O        0.84700    0.68990    0.88100    1.000
    O42      O        0.02500    0.55400    0.70200    1.000
    Cd7      Cd       0.61495    0.79719    0.28863    1.000
    Cd8      Cd       0.33906    0.77148    0.17752    1.000
    O43      O        0.47840    0.87840    0.20940    1.000
    O44      O        0.32630    0.89320    0.11060    1.000
    O45      O        0.22820    0.11740    0.86430    1.000
    O46      O        0.30150    0.23060    0.93580    1.000
    O47      O        0.65020    0.16420    0.08170    1.000
    O48      O        0.70340    0.07240    0.18560    1.000
    O49      O        0.25860    0.82300    0.25310    1.000
    O50      O        0.22760    0.79630    0.36740    1.000
    O51      O        0.29420    0.00340    0.61240    1.000
    O52      O        0.33930    0.12630    0.58690    1.000
    O53      O        0.49250    0.15070    0.40090    1.000
    O54      O        0.45200    0.07310    0.28700    1.000
    N25      N        0.52980    0.71800    0.15760    1.000
    N26      N        0.43120    0.71730    0.11220    1.000
    N27      N        0.48260    0.65130    0.02910    1.000
    N28      N        0.53570    0.73140    0.36100    1.000
    N29      N        0.43860    0.72400    0.31960    1.000
    N30      N        0.49620    0.67050    0.45520    1.000
    N31      N        0.63920    0.11380    0.13060    1.000
    N32      N        0.45570    0.08890    0.35760    1.000
    C100     C        0.49310    0.47120    0.73800    1.000
    H61      H        0.54930    0.43580    0.76360    1.000
    H62      H        0.43700    0.43600    0.70860    1.000
    C101     C        0.48910    0.51810    0.81480    1.000
    C102     C        0.40860    0.52180    0.82360    1.000
    H63      H        0.35410    0.49410    0.78100    1.000
    C103     C        0.40460    0.56540    0.89390    1.000
    H64      H        0.34860    0.56680    0.89920    1.000
    C104     C        0.48420    0.60620    0.95510    1.000
    C105     C        0.56660    0.60360    0.94810    1.000
    H65      H        0.62100    0.63140    0.99080    1.000
    C106     C        0.56840    0.55990    0.87780    1.000
    H66      H        0.62460    0.55830    0.87260    1.000
    C107     C        0.49710    0.52680    0.66680    1.000
    C108     C        0.42230    0.57960    0.61580    1.000
    H67      H        0.37030    0.58200    0.62770    1.000
    C109     C        0.42270    0.62810    0.54870    1.000
    H68      H        0.37140    0.66320    0.51470    1.000
    C110     C        0.49980    0.62490    0.53150    1.000
    C111     C        0.57540    0.57490    0.58270    1.000
    H69      H        0.62790    0.57300    0.57150    1.000
    C112     C        0.57400    0.52730    0.65080    1.000
    H70      H        0.62680    0.49450    0.68710    1.000
    C113     C        0.55880    0.67750    0.10660    1.000
    H71      H        0.62250    0.66810    0.12160    1.000
    C114     C        0.40510    0.67830    0.03650    1.000
    H72      H        0.34170    0.66960    0.99230    1.000
    C115     C        0.56940    0.69960    0.44250    1.000
    H73      H        0.63400    0.69720    0.48580    1.000
    C116     C        0.41770    0.68800    0.37790    1.000
    H74      H        0.35570    0.67580    0.36700    1.000
    C117     C        0.43230    0.99080    0.10350    1.000
    C118     C        0.35840    0.03250    0.03380    1.000
    H75      H        0.29600    0.01260    0.00960    1.000
    C119     C        0.37710    0.10470    0.99960    1.000
    C120     C        0.46810    0.13230    0.03250    1.000
    H76      H        0.48080    0.18120    0.01040    1.000
    C121     C        0.54130    0.08720    0.09890    1.000
    C122     C        0.52450    0.01770    0.13620    1.000
    H77      H        0.57500    0.98920    0.18310    1.000
    C123     C        0.41120    0.91520    0.14410    1.000
    C124     C        0.29630    0.15370    0.92790    1.000
    C125     C        0.31060    0.91790    0.37640    1.000
    C126     C        0.30060    0.94420    0.45160    1.000
    H78      H        0.26860    0.91080    0.47460    1.000
    C127     C        0.33750    0.01920    0.49310    1.000
    C128     C        0.38860    0.06590    0.46080    1.000
    H79      H        0.41540    0.11610    0.48860    1.000
    C129     C        0.39960    0.03830    0.38910    1.000
    C130     C        0.36150    0.96560    0.34500    1.000
    H80      H        0.36970    0.94850    0.29500    1.000
    C131     C        0.26290    0.83920    0.32820    1.000
    C132     C        0.32260    0.05080    0.57120    1.000
    O55      O        0.65300    0.18990    0.11900    1.000
    O56      O        0.47500    0.05400    0.29800    1.000
