data_functionalizedCrystal
_audit_creation_method	'EQeq! by Chris Wilmer'
_symmetry_space_group_name_H-M	'P1'
_symmetry_Int_Tables_number	1
_symmetry_cell_setting	triclinic
loop_
_symmetry_equiv_pos_as_xyz
  x,y,z
_cell_length_a	16.6441
_cell_length_b	16.6441
_cell_length_c	33.146
_cell_angle_alpha	114.265
_cell_angle_beta	114.265
_cell_angle_gamma	45.4407
loop_
_atom_site_label
_atom_site_type_symbol
_atom_site_fract_x
_atom_site_fract_y
_atom_site_fract_z
_atom_site_charge
Mof_Ag	Ag	0.01186	0.42214	0.22645	0.815
Mof_Ga	Ga	0.548	0.58218	0.41239	1.962
Mof_C 	C 	0.67372	0.33672	0.36053	0.064
Mof_H 	H 	0.7453	0.3207	0.3732	-0.014
Mof_C 	C 	0.65983	0.25823	0.32715	-0.059
Mof_H 	H 	0.7183	0.1823	0.3141	0.064
Mof_C 	C 	0.54522	0.31402	0.31768	-0.098
Mof_H 	H 	0.5085	0.2843	0.2961	0.061
Mof_C 	C 	0.49051	0.42431	0.34573	0.124
Mof_C 	C 	0.37402	0.51002	0.34796	-0.18
Mof_C 	C 	0.32033	0.61933	0.37556	0.14
Mof_C 	C 	0.20425	0.70285	0.37988	-0.119
Mof_H 	H 	0.1464	0.696	0.3646	0.128
Mof_C 	C 	0.19004	0.79744	0.41067	-0.03
Mof_H 	H 	0.1212	0.8676	0.4206	0.054
Mof_C 	C 	0.29754	0.76834	0.42396	0.053
Mof_H 	H 	0.3125	0.8181	0.4449	-0.008
Mof_C 	C 	0.29703	0.48343	0.3175	0.155
Mof_C 	C 	0.30742	0.39622	0.32135	-0.188
Mof_H 	H 	0.365	0.3514	0.344	0.096
Mof_C 	C 	0.23425	0.37505	0.29244	0.114
Mof_H 	H 	0.2438	0.3142	0.2954	0.014
Mof_C 	C 	0.14167	0.51767	0.25629	0.137
Mof_H 	H 	0.0835	0.5601	0.2331	0.015
Mof_C 	C 	0.21141	0.54561	0.28363	-0.176
Mof_H 	H 	0.2009	0.6057	0.2793	0.12
Mof_C 	C 	0.43063	0.62943	0.97223	0.059
Mof_H 	H 	0.3686	0.6474	0.9474	-0.015
Mof_C 	C 	0.42566	0.64666	0.01702	-0.049
Mof_H 	H 	0.3617	0.6775	0.0273	0.042
Mof_C 	C 	0.53019	0.61059	0.04219	-0.101
Mof_H 	H 	0.5532	0.6114	0.0737	0.062
Mof_C 	C 	0.59946	0.57126	0.013	0.124
Mof_C 	C 	0.71129	0.53129	0.02416	-0.174
Mof_C 	C 	0.77407	0.50547	0.99638	0.127
Mof_C 	C 	0.88824	0.46364	0.00754	-0.104
Mof_H 	H 	0.9374	0.4486	0.0362	0.066
Mof_C 	C 	0.91502	0.44882	0.97002	-0.053
Mof_H 	H 	0.9855	0.4219	0.9673	0.045
Mof_C 	C 	0.81622	0.48182	0.93608	0.058
Mof_H 	H 	0.8106	0.4802	0.9061	-0.012
Mof_C 	C 	0.77283	0.51403	0.07237	0.146
Mof_C 	C 	0.79812	0.58392	0.10158	-0.181
Mof_H 	H 	0.7756	0.6452	0.0923	0.095
Mof_C 	C 	0.85797	0.56237	0.14532	0.089
Mof_H 	H 	0.8744	0.6112	0.1658	0.027
Mof_C 	C 	0.86724	0.41044	0.13054	0.103
Mof_H 	H 	0.892	0.3486	0.1403	0.018
Mof_C 	C 	0.80667	0.42707	0.08722	-0.189
Mof_H 	H 	0.7888	0.3786	0.0679	0.093
Mof_C 	C 	0.41228	0.68948	0.32911	0.058
Mof_H 	H 	0.3428	0.7204	0.3348	-0.007
Mof_C 	C 	0.42072	0.70152	0.2913	-0.048
Mof_H 	H 	0.3595	0.7425	0.2682	0.051
Mof_C 	C 	0.53442	0.64242	0.29492	-0.108
Mof_H 	H 	0.5677	0.6327	0.2741	0.067
Mof_C 	C 	0.59344	0.59864	0.33499	0.132
Mof_C 	C 	0.71098	0.53438	0.35195	-0.177
Mof_C 	C 	0.76969	0.49049	0.39174	0.127
Mof_C 	C 	0.88781	0.43101	0.41108	-0.102
Mof_H 	H 	0.9439	0.4099	0.3986	0.068
Mof_C 	C 	0.90582	0.41002	0.45072	-0.056
Mof_H 	H 	0.9764	0.3728	0.4715	0.048
Mof_C 	C 	0.80058	0.45378	0.45482	0.066
Mof_H 	H 	0.7896	0.449	0.4794	-0.013
Mof_C 	C 	0.78321	0.50841	0.32501	0.15
Mof_C 	C 	0.86072	0.39812	0.30307	-0.19
Mof_H 	H 	0.8709	0.3363	0.3054	0.099
Mof_C 	C 	0.9228	0.3788	0.27797	0.106
Mof_H 	H 	0.9766	0.3024	0.2635	0.022
Mof_C 	C 	0.83785	0.56605	0.29289	0.105
Mof_H 	H 	0.8295	0.6257	0.2895	0.01
Mof_C 	C 	0.76911	0.59551	0.31982	-0.184
Mof_H 	H 	0.7154	0.6728	0.3337	0.094
Mof_N 	N 	0.57416	0.43556	0.37191	-0.359
Mof_N 	N 	0.37745	0.66245	0.4039	-0.358
Mof_N 	N 	0.15145	0.43505	0.2607	-0.212
Mof_N 	N 	0.53343	0.58483	0.96922	-0.362
Mof_N 	N 	0.73123	0.51583	0.95114	-0.363
Mof_N 	N 	0.89253	0.47653	0.15933	-0.204
Mof_N 	N 	0.51471	0.62911	0.35542	-0.36
Mof_N 	N 	0.71744	0.50304	0.42055	-0.362
Mof_N 	N 	0.91121	0.46201	0.27285	-0.204
Mof_P 	P 	0.19673	0.12951	0.21417	1.037
Mof_F 	F 	0.20015	0.03375	0.21176	-0.462
Mof_F 	F 	0.27901	0.05201	0.18031	-0.47
Mof_F 	F 	0.0842	0.2226	0.19716	-0.601
Mof_F 	F 	0.26195	0.14155	0.25654	-0.564
Mof_Ag	Ag	0.57786	0.98814	0.27355	0.816
Mof_Ga	Ga	0.41782	0.452	0.08761	1.963
Mof_C 	C 	0.66328	0.32628	0.13947	0.065
Mof_H 	H 	0.6793	0.2547	0.1268	-0.013
Mof_C 	C 	0.74177	0.34017	0.17285	-0.058
Mof_H 	H 	0.8177	0.2817	0.1859	0.065
Mof_C 	C 	0.68598	0.45478	0.18232	-0.097
Mof_H 	H 	0.7157	0.4915	0.2039	0.062
Mof_C 	C 	0.57569	0.50949	0.15427	0.124
Mof_C 	C 	0.48998	0.62598	0.15204	-0.18
Mof_C 	C 	0.38067	0.67967	0.12444	0.14
Mof_C 	C 	0.29715	0.79575	0.12012	-0.119
Mof_H 	H 	0.304	0.8536	0.1354	0.128
Mof_C 	C 	0.20256	0.80996	0.08933	-0.03
Mof_H 	H 	0.1324	0.8788	0.0794	0.054
Mof_C 	C 	0.23166	0.70246	0.07604	0.053
Mof_H 	H 	0.1819	0.6875	0.0551	-0.008
Mof_C 	C 	0.51657	0.70297	0.1825	0.155
Mof_C 	C 	0.60378	0.69258	0.17865	-0.188
Mof_H 	H 	0.6486	0.635	0.156	0.096
Mof_C 	C 	0.62495	0.76575	0.20756	0.114
Mof_H 	H 	0.6858	0.7562	0.2046	0.014
Mof_C 	C 	0.48233	0.85833	0.24371	0.137
Mof_H 	H 	0.4399	0.9165	0.2669	0.015
Mof_C 	C 	0.45439	0.78859	0.21637	-0.176
Mof_H 	H 	0.3943	0.7991	0.2207	0.12
Mof_C 	C 	0.37057	0.56937	0.52777	0.059
Mof_H 	H 	0.3526	0.6314	0.5526	-0.015
Mof_C 	C 	0.35334	0.57434	0.48298	-0.049
Mof_H 	H 	0.3225	0.6383	0.4727	0.041
Mof_C 	C 	0.38941	0.46981	0.45781	-0.101
Mof_H 	H 	0.3886	0.4468	0.4263	0.062
Mof_C 	C 	0.42874	0.40054	0.487	0.124
Mof_C 	C 	0.46871	0.28871	0.47584	-0.175
Mof_C 	C 	0.49453	0.22593	0.50362	0.128
Mof_C 	C 	0.53636	0.11176	0.49246	-0.105
Mof_H 	H 	0.5514	0.0626	0.4638	0.067
Mof_C 	C 	0.55118	0.08498	0.52998	-0.052
Mof_H 	H 	0.5781	0.0145	0.5327	0.045
Mof_C 	C 	0.51818	0.18378	0.56392	0.057
Mof_H 	H 	0.5198	0.1894	0.5939	-0.012
Mof_C 	C 	0.48597	0.22717	0.42763	0.146
Mof_C 	C 	0.41608	0.20188	0.39842	-0.181
Mof_H 	H 	0.3548	0.2244	0.4077	0.095
Mof_C 	C 	0.43763	0.14203	0.35468	0.09
Mof_H 	H 	0.3888	0.1256	0.3342	0.027
Mof_C 	C 	0.58956	0.13276	0.36946	0.103
Mof_H 	H 	0.6514	0.108	0.3597	0.018
Mof_C 	C 	0.57293	0.19333	0.41278	-0.189
Mof_H 	H 	0.6214	0.2112	0.4321	0.093
Mof_C 	C 	0.31052	0.58772	0.17089	0.058
Mof_H 	H 	0.2796	0.6572	0.1652	-0.007
Mof_C 	C 	0.29848	0.57928	0.2087	-0.048
Mof_H 	H 	0.2575	0.6405	0.2318	0.051
Mof_C 	C 	0.35758	0.46558	0.20508	-0.108
Mof_H 	H 	0.3673	0.4323	0.2259	0.067
Mof_C 	C 	0.40136	0.40656	0.16501	0.132
Mof_C 	C 	0.46562	0.28902	0.14805	-0.177
Mof_C 	C 	0.50951	0.23031	0.10826	0.127
Mof_C 	C 	0.56899	0.11219	0.08892	-0.102
Mof_H 	H 	0.5901	0.0561	0.1014	0.068
Mof_C 	C 	0.58998	0.09418	0.04928	-0.056
Mof_H 	H 	0.6272	0.0236	0.0285	0.048
Mof_C 	C 	0.54622	0.19942	0.04518	0.066
Mof_H 	H 	0.551	0.2104	0.0206	-0.013
Mof_C 	C 	0.49159	0.21679	0.17499	0.15
Mof_C 	C 	0.60188	0.13928	0.19693	-0.19
Mof_H 	H 	0.6637	0.1291	0.1946	0.099
Mof_C 	C 	0.6212	0.0772	0.22203	0.106
Mof_H 	H 	0.6976	0.0234	0.2365	0.022
Mof_C 	C 	0.43395	0.16215	0.20711	0.105
Mof_H 	H 	0.3743	0.1705	0.2105	0.01
Mof_C 	C 	0.40449	0.23089	0.18018	-0.184
Mof_H 	H 	0.3272	0.2846	0.1663	0.094
Mof_N 	N 	0.56444	0.42584	0.12809	-0.359
Mof_N 	N 	0.33755	0.62255	0.0961	-0.358
Mof_N 	N 	0.56495	0.84855	0.2393	-0.212
Mof_N 	N 	0.41517	0.46657	0.53078	-0.362
Mof_N 	N 	0.48417	0.26877	0.54886	-0.363
Mof_N 	N 	0.52347	0.10747	0.34067	-0.204
Mof_N 	N 	0.37089	0.48529	0.14458	-0.36
Mof_N 	N 	0.49696	0.28256	0.07945	-0.362
Mof_N 	N 	0.53799	0.08879	0.22715	-0.204
Mof_P 	P 	0.87049	0.80327	0.28583	1.037
Mof_F 	F 	0.96625	0.79985	0.28824	-0.462
Mof_F 	F 	0.94799	0.72099	0.31969	-0.47
Mof_F 	F 	0.7774	0.9158	0.30284	-0.601
Mof_F 	F 	0.85845	0.73805	0.24346	-0.564
Mof_Ag	Ag	0.98814	0.57786	0.77355	0.816
Mof_Ga	Ga	0.452	0.41782	0.58761	1.963
Mof_C 	C 	0.32628	0.66328	0.63947	0.065
Mof_H 	H 	0.2547	0.6793	0.6268	-0.013
Mof_C 	C 	0.34017	0.74177	0.67285	-0.058
Mof_H 	H 	0.2817	0.8177	0.6859	0.065
Mof_C 	C 	0.45478	0.68598	0.68232	-0.097
Mof_H 	H 	0.4915	0.7157	0.7039	0.062
Mof_C 	C 	0.50949	0.57569	0.65427	0.124
Mof_C 	C 	0.62598	0.48998	0.65204	-0.18
Mof_C 	C 	0.67967	0.38067	0.62444	0.14
Mof_C 	C 	0.79575	0.29715	0.62012	-0.119
Mof_H 	H 	0.8536	0.304	0.6354	0.128
Mof_C 	C 	0.80996	0.20256	0.58933	-0.03
Mof_H 	H 	0.8788	0.1324	0.5794	0.054
Mof_C 	C 	0.70246	0.23166	0.57604	0.053
Mof_H 	H 	0.6875	0.1819	0.5551	-0.008
Mof_C 	C 	0.70297	0.51657	0.6825	0.155
Mof_C 	C 	0.69258	0.60378	0.67865	-0.188
Mof_H 	H 	0.635	0.6486	0.656	0.096
Mof_C 	C 	0.76575	0.62495	0.70756	0.114
Mof_H 	H 	0.7562	0.6858	0.7046	0.014
Mof_C 	C 	0.85833	0.48233	0.74371	0.137
Mof_H 	H 	0.9165	0.4399	0.7669	0.015
Mof_C 	C 	0.78859	0.45439	0.71637	-0.176
Mof_H 	H 	0.7991	0.3943	0.7207	0.12
Mof_C 	C 	0.56937	0.37057	0.02777	0.059
Mof_H 	H 	0.6314	0.3526	0.0526	-0.015
Mof_C 	C 	0.57434	0.35334	0.98298	-0.049
Mof_H 	H 	0.6383	0.3225	0.9727	0.042
Mof_C 	C 	0.46981	0.38941	0.95781	-0.101
Mof_H 	H 	0.4468	0.3886	0.9263	0.062
Mof_C 	C 	0.40054	0.42874	0.987	0.124
Mof_C 	C 	0.28871	0.46871	0.97584	-0.174
Mof_C 	C 	0.22593	0.49453	0.00362	0.127
Mof_C 	C 	0.11176	0.53636	0.99246	-0.104
Mof_H 	H 	0.0626	0.5514	0.9638	0.066
Mof_C 	C 	0.08498	0.55118	0.02998	-0.053
Mof_H 	H 	0.0145	0.5781	0.0327	0.045
Mof_C 	C 	0.18378	0.51818	0.06392	0.058
Mof_H 	H 	0.1894	0.5198	0.0939	-0.012
Mof_C 	C 	0.22717	0.48597	0.92763	0.146
Mof_C 	C 	0.20188	0.41608	0.89842	-0.181
Mof_H 	H 	0.2244	0.3548	0.9077	0.095
Mof_C 	C 	0.14203	0.43763	0.85468	0.089
Mof_H 	H 	0.1256	0.3888	0.8342	0.027
Mof_C 	C 	0.13276	0.58956	0.86946	0.103
Mof_H 	H 	0.108	0.6514	0.8597	0.018
Mof_C 	C 	0.19333	0.57293	0.91278	-0.189
Mof_H 	H 	0.2112	0.6214	0.9321	0.093
Mof_C 	C 	0.58772	0.31052	0.67089	0.058
Mof_H 	H 	0.6572	0.2796	0.6652	-0.007
Mof_C 	C 	0.57928	0.29848	0.7087	-0.048
Mof_H 	H 	0.6405	0.2575	0.7318	0.051
Mof_C 	C 	0.46558	0.35758	0.70508	-0.108
Mof_H 	H 	0.4323	0.3673	0.7259	0.067
Mof_C 	C 	0.40656	0.40136	0.66501	0.132
Mof_C 	C 	0.28902	0.46562	0.64805	-0.177
Mof_C 	C 	0.23031	0.50951	0.60826	0.127
Mof_C 	C 	0.11219	0.56899	0.58892	-0.102
Mof_H 	H 	0.0561	0.5901	0.6014	0.068
Mof_C 	C 	0.09418	0.58998	0.54928	-0.056
Mof_H 	H 	0.0236	0.6272	0.5285	0.048
Mof_C 	C 	0.19942	0.54622	0.54518	0.066
Mof_H 	H 	0.2104	0.551	0.5206	-0.013
Mof_C 	C 	0.21679	0.49159	0.67499	0.15
Mof_C 	C 	0.13928	0.60188	0.69693	-0.19
Mof_H 	H 	0.1291	0.6637	0.6946	0.099
Mof_C 	C 	0.0772	0.6212	0.72203	0.106
Mof_H 	H 	0.0234	0.6976	0.7365	0.022
Mof_C 	C 	0.16215	0.43395	0.70711	0.105
Mof_H 	H 	0.1705	0.3743	0.7105	0.01
Mof_C 	C 	0.23089	0.40449	0.68018	-0.184
Mof_H 	H 	0.2846	0.3272	0.6663	0.094
Mof_N 	N 	0.42584	0.56444	0.62809	-0.359
Mof_N 	N 	0.62255	0.33755	0.5961	-0.358
Mof_N 	N 	0.84855	0.56495	0.7393	-0.212
Mof_N 	N 	0.46657	0.41517	0.03078	-0.362
Mof_N 	N 	0.26877	0.48417	0.04886	-0.363
Mof_N 	N 	0.10747	0.52347	0.84067	-0.204
Mof_N 	N 	0.48529	0.37089	0.64458	-0.36
Mof_N 	N 	0.28256	0.49696	0.57945	-0.362
Mof_N 	N 	0.08879	0.53799	0.72715	-0.204
Mof_P 	P 	0.80327	0.87049	0.78583	1.037
Mof_F 	F 	0.79985	0.96625	0.78824	-0.462
Mof_F 	F 	0.72099	0.94799	0.81969	-0.47
Mof_F 	F 	0.9158	0.7774	0.80284	-0.601
Mof_F 	F 	0.73805	0.85845	0.74346	-0.564
Mof_Ag	Ag	0.42214	0.01186	0.72645	0.816
Mof_Ga	Ga	0.58218	0.548	0.91239	1.963
Mof_C 	C 	0.33672	0.67372	0.86053	0.065
Mof_H 	H 	0.3207	0.7453	0.8732	-0.013
Mof_C 	C 	0.25823	0.65983	0.82715	-0.058
Mof_H 	H 	0.1823	0.7183	0.8141	0.065
Mof_C 	C 	0.31402	0.54522	0.81768	-0.097
Mof_H 	H 	0.2843	0.5085	0.7961	0.062
Mof_C 	C 	0.42431	0.49051	0.84573	0.124
Mof_C 	C 	0.51002	0.37402	0.84796	-0.18
Mof_C 	C 	0.61933	0.32033	0.87556	0.14
Mof_C 	C 	0.70285	0.20425	0.87988	-0.119
Mof_H 	H 	0.696	0.1464	0.8646	0.128
Mof_C 	C 	0.79744	0.19004	0.91067	-0.03
Mof_H 	H 	0.8676	0.1212	0.9206	0.054
Mof_C 	C 	0.76834	0.29754	0.92396	0.053
Mof_H 	H 	0.8181	0.3125	0.9449	-0.008
Mof_C 	C 	0.48343	0.29703	0.8175	0.155
Mof_C 	C 	0.39622	0.30742	0.82135	-0.188
Mof_H 	H 	0.3514	0.365	0.844	0.096
Mof_C 	C 	0.37505	0.23425	0.79244	0.114
Mof_H 	H 	0.3142	0.2438	0.7954	0.014
Mof_C 	C 	0.51767	0.14167	0.75629	0.137
Mof_H 	H 	0.5601	0.0835	0.7331	0.015
Mof_C 	C 	0.54561	0.21141	0.78363	-0.176
Mof_H 	H 	0.6057	0.2009	0.7793	0.12
Mof_C 	C 	0.62943	0.43063	0.47223	0.059
Mof_H 	H 	0.6474	0.3686	0.4474	-0.015
Mof_C 	C 	0.64666	0.42566	0.51702	-0.049
Mof_H 	H 	0.6775	0.3617	0.5273	0.041
Mof_C 	C 	0.61059	0.53019	0.54219	-0.101
Mof_H 	H 	0.6114	0.5532	0.5737	0.062
Mof_C 	C 	0.57126	0.59946	0.513	0.124
Mof_C 	C 	0.53129	0.71129	0.52416	-0.175
Mof_C 	C 	0.50547	0.77407	0.49638	0.128
Mof_C 	C 	0.46364	0.88824	0.50754	-0.105
Mof_H 	H 	0.4486	0.9374	0.5362	0.067
Mof_C 	C 	0.44882	0.91502	0.47002	-0.052
Mof_H 	H 	0.4219	0.9855	0.4673	0.045
Mof_C 	C 	0.48182	0.81622	0.43608	0.057
Mof_H 	H 	0.4802	0.8106	0.4061	-0.012
Mof_C 	C 	0.51403	0.77283	0.57237	0.146
Mof_C 	C 	0.58392	0.79812	0.60158	-0.181
Mof_H 	H 	0.6452	0.7756	0.5923	0.095
Mof_C 	C 	0.56237	0.85797	0.64532	0.09
Mof_H 	H 	0.6112	0.8744	0.6658	0.027
Mof_C 	C 	0.41044	0.86724	0.63054	0.103
Mof_H 	H 	0.3486	0.892	0.6403	0.018
Mof_C 	C 	0.42707	0.80667	0.58722	-0.189
Mof_H 	H 	0.3786	0.7888	0.5679	0.093
Mof_C 	C 	0.68948	0.41228	0.82911	0.058
Mof_H 	H 	0.7204	0.3428	0.8348	-0.007
Mof_C 	C 	0.70152	0.42072	0.7913	-0.048
Mof_H 	H 	0.7425	0.3595	0.7682	0.051
Mof_C 	C 	0.64242	0.53442	0.79492	-0.108
Mof_H 	H 	0.6327	0.5677	0.7741	0.067
Mof_C 	C 	0.59864	0.59344	0.83499	0.132
Mof_C 	C 	0.53438	0.71098	0.85195	-0.177
Mof_C 	C 	0.49049	0.76969	0.89174	0.127
Mof_C 	C 	0.43101	0.88781	0.91108	-0.102
Mof_H 	H 	0.4099	0.9439	0.8986	0.068
Mof_C 	C 	0.41002	0.90582	0.95072	-0.056
Mof_H 	H 	0.3728	0.9764	0.9715	0.048
Mof_C 	C 	0.45378	0.80058	0.95482	0.066
Mof_H 	H 	0.449	0.7896	0.9794	-0.013
Mof_C 	C 	0.50841	0.78321	0.82501	0.15
Mof_C 	C 	0.39812	0.86072	0.80307	-0.19
Mof_H 	H 	0.3363	0.8709	0.8054	0.099
Mof_C 	C 	0.3788	0.9228	0.77797	0.106
Mof_H 	H 	0.3024	0.9766	0.7635	0.022
Mof_C 	C 	0.56605	0.83785	0.79289	0.105
Mof_H 	H 	0.6257	0.8295	0.7895	0.01
Mof_C 	C 	0.59551	0.76911	0.81982	-0.184
Mof_H 	H 	0.6728	0.7154	0.8337	0.094
Mof_N 	N 	0.43556	0.57416	0.87191	-0.359
Mof_N 	N 	0.66245	0.37745	0.9039	-0.358
Mof_N 	N 	0.43505	0.15145	0.7607	-0.212
Mof_N 	N 	0.58483	0.53343	0.46922	-0.362
Mof_N 	N 	0.51583	0.73123	0.45114	-0.363
Mof_N 	N 	0.47653	0.89253	0.65933	-0.204
Mof_N 	N 	0.62911	0.51471	0.85542	-0.36
Mof_N 	N 	0.50304	0.71744	0.92055	-0.362
Mof_N 	N 	0.46201	0.91121	0.77285	-0.204
Mof_P 	P 	0.12951	0.19673	0.71417	1.037
Mof_F 	F 	0.03375	0.20015	0.71176	-0.462
Mof_F 	F 	0.05201	0.27901	0.68031	-0.47
Mof_F 	F 	0.2226	0.0842	0.69716	-0.601
Mof_F 	F 	0.14155	0.26195	0.75654	-0.564
_end
