data_functionalizedCrystal
_audit_creation_method	'EQeq! by Chris Wilmer'
_symmetry_space_group_name_H-M	'P1'
_symmetry_Int_Tables_number	1
_symmetry_cell_setting	triclinic
loop_
_symmetry_equiv_pos_as_xyz
  x,y,z
_cell_length_a	18.0043
_cell_length_b	18.1594
_cell_length_c	21.1164
_cell_angle_alpha	90
_cell_angle_beta	90
_cell_angle_gamma	93.344
loop_
_atom_site_label
_atom_site_type_symbol
_atom_site_fract_x
_atom_site_fract_y
_atom_site_fract_z
_atom_site_charge
Mof_Mn	Mn	0.30523	0.01426	0.06274	0.971
Mof_Mn	Mn	0.65396	0.3526	0.68503	0.907
Mof_Mn	Mn	0.69477	0.48574	0.56274	0.97
Mof_Mn	Mn	0.34604	0.1474	0.18503	0.907
Mof_Cu	Cu	0.26868	0.51199	0.77	0.723
Mof_Cu	Cu	0.20501	0.59129	0.8634	0.724
Mof_Cu	Cu	0.20803	0.44052	0.87019	0.726
Mof_Cu	Cu	0.11982	0.50949	0.79078	0.719
Mof_Cu	Cu	0.73132	0.98801	0.27	0.722
Mof_Cu	Cu	0.79499	0.90871	0.3634	0.724
Mof_Cu	Cu	0.79197	0.05948	0.37019	0.727
Mof_Cu	Cu	0.88018	0.99051	0.29078	0.719
Mof_H 	H 	0.6237	0.4351	0.7843	0.232
Mof_H 	H 	0.7011	0.2193	0.7017	0.238
Mof_H 	H 	0.2429	0.6415	0.9911	0.002
Mof_H 	H 	0.9106	0.5517	0.6464	0.079
Mof_H 	H 	0.4245	0.4849	0.7857	0.001
Mof_H 	H 	0.0266	0.5713	0.692	0.001
Mof_H 	H 	0.2775	0.7471	0.0452	0.088
Mof_H 	H 	0.2227	0.863	0.8954	0.081
Mof_H 	H 	0.3187	0.513	0.6321	0.011
Mof_H 	H 	0.9849	0.415	0.8082	-0.01
Mof_H 	H 	0.2455	0.4071	0.002	-0
Mof_H 	H 	0.2253	0.2794	0.8576	0.026
Mof_H 	H 	0.2681	0.1821	0.9183	0.069
Mof_H 	H 	0.2808	0.3144	0.0657	0.061
Mof_H 	H 	0.4234	0.5033	0.5732	0.079
Mof_H 	H 	0.8696	0.3905	0.7656	0.086
Mof_H 	H 	0.5325	0.4641	0.7337	0.047
Mof_H 	H 	0.1948	0.7554	0.8427	0.023
Mof_H 	H 	0.3763	0.0649	0.2843	0.232
Mof_H 	H 	0.2989	0.2807	0.2017	0.238
Mof_H 	H 	0.7571	0.8585	0.4911	0.004
Mof_H 	H 	0.0894	0.9483	0.1464	0.079
Mof_H 	H 	0.5755	0.0151	0.2857	0.002
Mof_H 	H 	0.9734	0.9287	0.192	-0.002
Mof_H 	H 	0.7225	0.7529	0.5452	0.085
Mof_H 	H 	0.7773	0.637	0.3954	0.079
Mof_H 	H 	0.6813	0.987	0.1321	0.013
Mof_H 	H 	0.0151	0.085	0.3082	-0.009
Mof_H 	H 	0.7545	0.0929	0.502	-0
Mof_H 	H 	0.7747	0.2206	0.3576	0.026
Mof_H 	H 	0.7319	0.3179	0.4183	0.07
Mof_H 	H 	0.7192	0.1856	0.5657	0.062
Mof_H 	H 	0.5766	0.9967	0.0732	0.072
Mof_H 	H 	0.1304	0.1095	0.2656	0.086
Mof_H 	H 	0.4675	0.0359	0.2337	0.045
Mof_H 	H 	0.8052	0.7446	0.3427	0.024
Mof_C 	C 	0.2397	0.6866	0.9708	0.06
Mof_C 	C 	0.9251	0.521	0.6788	-0.086
Mof_C 	C 	0.4242	0.4872	0.7417	0.053
Mof_C 	C 	0.9948	0.5332	0.7073	0.059
Mof_C 	C 	0.26	0.7504	0.004	-0.09
Mof_C 	C 	0.2285	0.8184	0.9159	-0.08
Mof_C 	C 	0.5629	0.4765	0.6149	0.318
Mof_C 	C 	0.3631	0.5049	0.6527	0.049
Mof_C 	C 	0.9709	0.4433	0.7739	0.08
Mof_C 	C 	0.3029	0.1755	0.0408	0.394
Mof_C 	C 	0.2488	0.3605	0.9843	0.057
Mof_C 	C 	0.2378	0.2871	0.8999	0.027
Mof_C 	C 	0.2621	0.2278	0.9369	-0.044
Mof_C 	C 	0.2754	0.8898	0.0106	0.291
Mof_C 	C 	0.2705	0.3051	0.0232	-0.059
Mof_C 	C 	0.2545	0.8183	0.9768	-0.001
Mof_C 	C 	0.2765	0.2379	0.9992	-0.052
Mof_C 	C 	0.4253	0.4988	0.6171	-0.066
Mof_C 	C 	0.9012	0.4274	0.7482	-0.094
Mof_C 	C 	0.4903	0.4767	0.7117	-0.072
Mof_C 	C 	0.8024	0.4504	0.665	0.377
Mof_C 	C 	0.2109	0.7531	0.8844	0.046
Mof_C 	C 	0.4904	0.486	0.6468	-0.042
Mof_C 	C 	0.8797	0.4652	0.6984	-0.012
Mof_C 	C 	0.7603	0.8134	0.4708	0.054
Mof_C 	C 	0.0749	0.979	0.1788	-0.086
Mof_C 	C 	0.5758	0.0128	0.2417	0.05
Mof_C 	C 	0.0052	0.9668	0.2073	0.062
Mof_C 	C 	0.74	0.7496	0.504	-0.08
Mof_C 	C 	0.7715	0.6816	0.4159	-0.074
Mof_C 	C 	0.4371	0.0235	0.1149	0.321
Mof_C 	C 	0.6369	0.9951	0.1527	0.038
Mof_C 	C 	0.0291	0.0567	0.2739	0.077
Mof_C 	C 	0.6971	0.3245	0.5408	0.393
Mof_C 	C 	0.7512	0.1395	0.4843	0.059
Mof_C 	C 	0.7622	0.2129	0.3999	0.028
Mof_C 	C 	0.7379	0.2722	0.4369	-0.046
Mof_C 	C 	0.7246	0.6102	0.5106	0.299
Mof_C 	C 	0.7295	0.1949	0.5232	-0.062
Mof_C 	C 	0.7455	0.6817	0.4768	-0.01
Mof_C 	C 	0.7235	0.2621	0.4992	-0.049
Mof_C 	C 	0.5747	0.0012	0.1171	-0.053
Mof_C 	C 	0.0988	0.0726	0.2482	-0.093
Mof_C 	C 	0.5097	0.0233	0.2117	-0.067
Mof_C 	C 	0.1976	0.0496	0.165	0.377
Mof_C 	C 	0.7891	0.7469	0.3844	0.042
Mof_C 	C 	0.5096	0.014	0.1468	-0.048
Mof_C 	C 	0.1203	0.0348	0.1984	-0.013
Mof_I 	I 	0.19128	0.62756	0.73955	-0.58
Mof_I 	I 	0.18462	0.38534	0.75483	-0.576
Mof_I 	I 	0.0939	0.50962	0.91802	-0.551
Mof_I 	I 	0.3324	0.52963	0.88944	-0.554
Mof_I 	I 	0.80872	0.87244	0.23955	-0.581
Mof_I 	I 	0.81538	0.11466	0.25483	-0.574
Mof_I 	I 	0.9061	0.99038	0.41802	-0.553
Mof_I 	I 	0.6676	0.97037	0.38944	-0.555
Mof_N 	N 	0.0175	0.4939	0.7541	-0.243
Mof_N 	N 	0.2159	0.687	0.9109	-0.231
Mof_N 	N 	0.2328	0.3527	0.9251	-0.225
Mof_N 	N 	0.3624	0.4999	0.7155	-0.23
Mof_N 	N 	0.9825	0.0061	0.2541	-0.24
Mof_N 	N 	0.7841	0.813	0.4109	-0.229
Mof_N 	N 	0.7672	0.1473	0.4251	-0.225
Mof_N 	N 	0.6376	0.0001	0.2155	-0.227
Mof_O 	O 	0.6385	0.3932	0.7852	-0.405
Mof_O 	O 	0.6903	0.2483	0.7295	-0.407
Mof_O 	O 	0.7626	0.4011	0.6923	-0.374
Mof_O 	O 	0.2986	0.1138	0.015	-0.399
Mof_O 	O 	0.2952	0.8863	0.0675	-0.302
Mof_O 	O 	0.3244	0.1929	0.094	-0.412
Mof_O 	O 	0.5683	0.4985	0.5576	-0.315
Mof_O 	O 	0.2714	0.9474	0.9817	-0.343
Mof_O 	O 	0.7897	0.4831	0.6162	-0.404
Mof_O 	O 	0.6189	0.4566	0.6428	-0.444
Mof_O 	O 	0.3615	0.1068	0.2852	-0.405
Mof_O 	O 	0.3097	0.2517	0.2295	-0.407
Mof_O 	O 	0.2374	0.0989	0.1923	-0.374
Mof_O 	O 	0.7014	0.3862	0.515	-0.399
Mof_O 	O 	0.7048	0.6137	0.5675	-0.303
Mof_O 	O 	0.6756	0.3071	0.594	-0.412
Mof_O 	O 	0.4317	0.0015	0.0576	-0.315
Mof_O 	O 	0.7286	0.5526	0.4817	-0.348
Mof_O 	O 	0.2103	0.0169	0.1162	-0.404
Mof_O 	O 	0.3811	0.0434	0.1428	-0.445
Mof_Mn	Mn	0.69477	0.98574	0.93726	0.971
Mof_Mn	Mn	0.34604	0.6474	0.31497	0.907
Mof_Mn	Mn	0.30523	0.51426	0.43726	0.97
Mof_Mn	Mn	0.65396	0.8526	0.81497	0.907
Mof_Cu	Cu	0.73132	0.48801	0.23	0.723
Mof_Cu	Cu	0.79499	0.40871	0.1366	0.724
Mof_Cu	Cu	0.79197	0.55948	0.12981	0.726
Mof_Cu	Cu	0.88018	0.49051	0.20922	0.719
Mof_Cu	Cu	0.26868	0.01199	0.73	0.722
Mof_Cu	Cu	0.20501	0.09129	0.6366	0.724
Mof_Cu	Cu	0.20803	0.94052	0.62981	0.727
Mof_Cu	Cu	0.11982	0.00949	0.70922	0.719
Mof_H 	H 	0.3763	0.5649	0.2157	0.232
Mof_H 	H 	0.2989	0.7807	0.2983	0.238
Mof_H 	H 	0.7571	0.3585	0.0089	0.002
Mof_H 	H 	0.0894	0.4483	0.3536	0.079
Mof_H 	H 	0.5755	0.5151	0.2143	0.001
Mof_H 	H 	0.9734	0.4287	0.308	0.001
Mof_H 	H 	0.7225	0.2529	0.9548	0.088
Mof_H 	H 	0.7773	0.137	0.1046	0.081
Mof_H 	H 	0.6813	0.487	0.3679	0.011
Mof_H 	H 	0.0151	0.585	0.1918	-0.01
Mof_H 	H 	0.7545	0.5929	0.998	-0
Mof_H 	H 	0.7747	0.7206	0.1424	0.026
Mof_H 	H 	0.7319	0.8179	0.0817	0.069
Mof_H 	H 	0.7192	0.6856	0.9343	0.061
Mof_H 	H 	0.5766	0.4967	0.4268	0.079
Mof_H 	H 	0.1304	0.6095	0.2344	0.086
Mof_H 	H 	0.4675	0.5359	0.2663	0.047
Mof_H 	H 	0.8052	0.2446	0.1573	0.023
Mof_H 	H 	0.6237	0.9351	0.7157	0.232
Mof_H 	H 	0.7011	0.7193	0.7983	0.238
Mof_H 	H 	0.2429	0.1415	0.5089	0.004
Mof_H 	H 	0.9106	0.0517	0.8536	0.079
Mof_H 	H 	0.4245	0.9849	0.7143	0.002
Mof_H 	H 	0.0266	0.0713	0.808	-0.002
Mof_H 	H 	0.2775	0.2471	0.4548	0.085
Mof_H 	H 	0.2227	0.363	0.6046	0.079
Mof_H 	H 	0.3187	0.013	0.8679	0.013
Mof_H 	H 	0.9849	0.915	0.6918	-0.009
Mof_H 	H 	0.2455	0.9071	0.498	-0
Mof_H 	H 	0.2253	0.7794	0.6424	0.026
Mof_H 	H 	0.2681	0.6821	0.5817	0.07
Mof_H 	H 	0.2808	0.8144	0.4343	0.062
Mof_H 	H 	0.4234	0.0033	0.9268	0.072
Mof_H 	H 	0.8696	0.8905	0.7344	0.086
Mof_H 	H 	0.5325	0.9641	0.7663	0.045
Mof_H 	H 	0.1948	0.2554	0.6573	0.024
Mof_C 	C 	0.7603	0.3134	0.0292	0.06
Mof_C 	C 	0.0749	0.479	0.3212	-0.086
Mof_C 	C 	0.5758	0.5128	0.2583	0.053
Mof_C 	C 	0.0052	0.4668	0.2927	0.059
Mof_C 	C 	0.74	0.2496	0.996	-0.09
Mof_C 	C 	0.7715	0.1816	0.0841	-0.08
Mof_C 	C 	0.4371	0.5235	0.3851	0.318
Mof_C 	C 	0.6369	0.4951	0.3473	0.049
Mof_C 	C 	0.0291	0.5567	0.2261	0.08
Mof_C 	C 	0.6971	0.8245	0.9592	0.394
Mof_C 	C 	0.7512	0.6395	0.0157	0.057
Mof_C 	C 	0.7622	0.7129	0.1001	0.027
Mof_C 	C 	0.7379	0.7722	0.0631	-0.044
Mof_C 	C 	0.7246	0.1102	0.9894	0.291
Mof_C 	C 	0.7295	0.6949	0.9768	-0.059
Mof_C 	C 	0.7455	0.1817	0.0232	-0.001
Mof_C 	C 	0.7235	0.7621	0.0008	-0.052
Mof_C 	C 	0.5747	0.5012	0.3829	-0.066
Mof_C 	C 	0.0988	0.5726	0.2518	-0.094
Mof_C 	C 	0.5097	0.5233	0.2883	-0.072
Mof_C 	C 	0.1976	0.5496	0.335	0.377
Mof_C 	C 	0.7891	0.2469	0.1156	0.046
Mof_C 	C 	0.5096	0.514	0.3532	-0.042
Mof_C 	C 	0.1203	0.5348	0.3016	-0.012
Mof_C 	C 	0.2397	0.1866	0.5292	0.054
Mof_C 	C 	0.9251	0.021	0.8212	-0.086
Mof_C 	C 	0.4242	0.9872	0.7583	0.05
Mof_C 	C 	0.9948	0.0332	0.7927	0.062
Mof_C 	C 	0.26	0.2504	0.496	-0.08
Mof_C 	C 	0.2285	0.3184	0.5841	-0.074
Mof_C 	C 	0.5629	0.9765	0.8851	0.321
Mof_C 	C 	0.3631	0.0049	0.8473	0.038
Mof_C 	C 	0.9709	0.9433	0.7261	0.077
Mof_C 	C 	0.3029	0.6755	0.4592	0.393
Mof_C 	C 	0.2488	0.8605	0.5157	0.059
Mof_C 	C 	0.2378	0.7871	0.6001	0.028
Mof_C 	C 	0.2621	0.7278	0.5631	-0.046
Mof_C 	C 	0.2754	0.3898	0.4894	0.299
Mof_C 	C 	0.2705	0.8051	0.4768	-0.062
Mof_C 	C 	0.2545	0.3183	0.5232	-0.01
Mof_C 	C 	0.2765	0.7379	0.5008	-0.049
Mof_C 	C 	0.4253	0.9988	0.8829	-0.053
Mof_C 	C 	0.9012	0.9274	0.7518	-0.093
Mof_C 	C 	0.4903	0.9767	0.7883	-0.067
Mof_C 	C 	0.8024	0.9504	0.835	0.377
Mof_C 	C 	0.2109	0.2531	0.6156	0.042
Mof_C 	C 	0.4904	0.986	0.8532	-0.048
Mof_C 	C 	0.8797	0.9652	0.8016	-0.013
Mof_I 	I 	0.80872	0.37244	0.26045	-0.58
Mof_I 	I 	0.81538	0.61466	0.24517	-0.576
Mof_I 	I 	0.9061	0.49038	0.08198	-0.551
Mof_I 	I 	0.6676	0.47037	0.11056	-0.554
Mof_I 	I 	0.19128	0.12756	0.76045	-0.581
Mof_I 	I 	0.18462	0.88534	0.74517	-0.574
Mof_I 	I 	0.0939	0.00962	0.58198	-0.553
Mof_I 	I 	0.3324	0.02963	0.61056	-0.555
Mof_N 	N 	0.9825	0.5061	0.2459	-0.243
Mof_N 	N 	0.7841	0.313	0.0891	-0.231
Mof_N 	N 	0.7672	0.6473	0.0749	-0.225
Mof_N 	N 	0.6376	0.5001	0.2845	-0.23
Mof_N 	N 	0.0175	0.9939	0.7459	-0.24
Mof_N 	N 	0.2159	0.187	0.5891	-0.229
Mof_N 	N 	0.2328	0.8527	0.5749	-0.225
Mof_N 	N 	0.3624	0.9999	0.7845	-0.227
Mof_O 	O 	0.3615	0.6068	0.2148	-0.405
Mof_O 	O 	0.3097	0.7517	0.2705	-0.407
Mof_O 	O 	0.2374	0.5989	0.3077	-0.374
Mof_O 	O 	0.7014	0.8862	0.985	-0.399
Mof_O 	O 	0.7048	0.1137	0.9325	-0.302
Mof_O 	O 	0.6756	0.8071	0.906	-0.412
Mof_O 	O 	0.4317	0.5015	0.4424	-0.315
Mof_O 	O 	0.7286	0.0526	0.0183	-0.343
Mof_O 	O 	0.2103	0.5169	0.3838	-0.404
Mof_O 	O 	0.3811	0.5434	0.3572	-0.444
Mof_O 	O 	0.6385	0.8932	0.7148	-0.405
Mof_O 	O 	0.6903	0.7483	0.7705	-0.407
Mof_O 	O 	0.7626	0.9011	0.8077	-0.374
Mof_O 	O 	0.2986	0.6138	0.485	-0.399
Mof_O 	O 	0.2952	0.3863	0.4325	-0.303
Mof_O 	O 	0.3244	0.6929	0.406	-0.412
Mof_O 	O 	0.5683	0.9985	0.9424	-0.315
Mof_O 	O 	0.2714	0.4474	0.5183	-0.348
Mof_O 	O 	0.7897	0.9831	0.8838	-0.404
Mof_O 	O 	0.6189	0.9566	0.8572	-0.445
_end
