data_functionalizedCrystal
_audit_creation_method	'EQeq! by Chris Wilmer'
_symmetry_space_group_name_H-M	'P1'
_symmetry_Int_Tables_number	1
_symmetry_cell_setting	triclinic
loop_
_symmetry_equiv_pos_as_xyz
  x,y,z
_cell_length_a	12.057
_cell_length_b	24.891
_cell_length_c	12.38
_cell_angle_alpha	90
_cell_angle_beta	93.04
_cell_angle_gamma	90
loop_
_atom_site_label
_atom_site_type_symbol
_atom_site_fract_x
_atom_site_fract_y
_atom_site_fract_z
_atom_site_charge
Mof_Cu	Cu	0.6773	0.673	0.7588	0.736
Mof_Cu	Cu	0.6785	0.7618	0.893	0.741
Mof_Cu	Cu	0.8511	0.7523	0.743	0.752
Mof_Cu	Cu	0.8564	0.6788	0.923	0.746
Mof_Cu	Cu	0.8255	0.4191	0.3884	0.729
Mof_Cu	Cu	0.6488	0.4312	0.2433	0.741
Mof_Cu	Cu	0.6655	0.5025	0.4219	0.747
Mof_Cu	Cu	0.8166	0.5114	0.2604	0.743
Mof_I 	I 	0.8791	0.6438	0.7172	-0.572
Mof_I 	I 	0.8968	0.7845	0.9469	-0.559
Mof_I 	I 	0.634	0.7736	0.6841	-0.574
Mof_I 	I 	0.6529	0.6635	0.9817	-0.564
Mof_I 	I 	0.6111	0.3997	0.4459	-0.548
Mof_I 	I 	0.861	0.4128	0.1801	-0.565
Mof_I 	I 	0.8854	0.5151	0.4716	-0.554
Mof_I 	I 	0.5983	0.5365	0.2235	-0.551
Mof_S 	S 	0.531	0.6216	0.6838	-0.235
Mof_S 	S 	0.5701	0.8178	0.9948	-0.217
Mof_S 	S 	0.074	0.8535	0.5121	-0.215
Mof_S 	S 	0.9919	0.6285	0.0206	-0.22
Mof_N 	N 	0.891	0.5625	0.171	-0.266
Mof_N 	N 	0.446	0.8844	0.848	-0.257
Mof_N 	N 	0.946	0.793	0.653	-0.255
Mof_N 	N 	0.602	0.551	0.53	-0.266
Mof_C 	C 	0.934	0.587	0.108	0.127
Mof_C 	C 	0.498	0.856	0.906	0.11
Mof_C 	C 	0.001	0.8208	0.597	0.105
Mof_C 	C 	0.575	0.579	0.593	0.14
Mof_Cu	Cu	0.3227	0.173	0.2412	0.735
Mof_Cu	Cu	0.3215	0.2618	0.107	0.74
Mof_Cu	Cu	0.1489	0.2523	0.257	0.752
Mof_Cu	Cu	0.1436	0.1788	0.077	0.746
Mof_Cu	Cu	0.1745	0.9191	0.6116	0.729
Mof_Cu	Cu	0.3512	0.9312	0.7567	0.741
Mof_Cu	Cu	0.3345	0.0025	0.5781	0.747
Mof_Cu	Cu	0.1834	0.0114	0.7396	0.743
Mof_I 	I 	0.1209	0.1438	0.2828	-0.572
Mof_I 	I 	0.1032	0.2845	0.0531	-0.559
Mof_I 	I 	0.366	0.2736	0.3159	-0.574
Mof_I 	I 	0.3471	0.1635	0.0183	-0.564
Mof_I 	I 	0.3889	0.8997	0.5541	-0.547
Mof_I 	I 	0.139	0.9128	0.8199	-0.564
Mof_I 	I 	0.1146	0.0151	0.5284	-0.553
Mof_I 	I 	0.4017	0.0365	0.7765	-0.55
Mof_S 	S 	0.469	0.1216	0.3162	-0.235
Mof_S 	S 	0.4299	0.3178	0.0052	-0.217
Mof_S 	S 	0.926	0.3535	0.4879	-0.216
Mof_S 	S 	0.0081	0.1285	0.9794	-0.22
Mof_N 	N 	0.109	0.0625	0.829	-0.266
Mof_N 	N 	0.554	0.3844	0.152	-0.257
Mof_N 	N 	0.054	0.293	0.347	-0.255
Mof_N 	N 	0.398	0.051	0.47	-0.266
Mof_C 	C 	0.066	0.087	0.892	0.128
Mof_C 	C 	0.502	0.356	0.094	0.11
Mof_C 	C 	0.999	0.3208	0.403	0.105
Mof_C 	C 	0.425	0.079	0.407	0.14
_end
