# CIF file generated by openbabel 3.1.0, see https://openbabel.org
data_I
_chemical_name_common 'image0'
_cell_length_a 10.642
_cell_length_b 16.472
_cell_length_c 12.47
_cell_angle_alpha 90
_cell_angle_beta 90
_cell_angle_gamma 90
_space_group_name_H-M_alt 'P 1'
_space_group_name_Hall 'P 1'
loop_
    _symmetry_equiv_pos_as_xyz
    x,y,z
loop_
    _atom_site_label
    _atom_site_type_symbol
    _atom_site_fract_x
    _atom_site_fract_y
    _atom_site_fract_z
    _atom_site_occupancy
    Cd1      Cd       0.52841    0.05537    0.80700    1.000
    C1       C        0.61130    0.87110    0.69350    1.000
    N1       N        0.53290    0.68060    0.62920    1.000
    C2       C        0.58250    0.74020    0.64200    1.000
    N2       N        0.63830    0.80980    0.62700    1.000
    N3       N        0.58780    0.93110    0.73230    1.000
    N4       N        0.83880    0.88480    0.17710    1.000
    N5       N        0.83300    0.93700    0.99270    1.000
    C3       C        0.75850    0.99300    0.95990    1.000
    C4       C        0.83080    0.91130    0.09230    1.000
    N6       N        0.69750    0.04380    0.92200    1.000
    C5       C        0.18930    0.92960    0.10830    1.000
    N7       N        0.13210    0.93610    0.18140    1.000
    C6       C        0.32970    0.95760    0.97600    1.000
    N8       N        0.21800    0.92270    0.99820    1.000
    N9       N        0.39680    0.99120    0.92480    1.000
    N10      N        0.66150    0.79790    0.67700    1.000
    N11      N        0.29200    0.90100    0.05510    1.000
    Cd2      Cd       0.97159    0.94463    0.30700    1.000
    C7       C        0.88870    0.12890    0.19350    1.000
    N12      N        0.96710    0.31940    0.12920    1.000
    C8       C        0.91750    0.25980    0.14200    1.000
    N13      N        0.86170    0.19020    0.12700    1.000
    N14      N        0.91220    0.06890    0.23230    1.000
    N15      N        0.66120    0.11520    0.67710    1.000
    N16      N        0.66700    0.06300    0.49270    1.000
    C9       C        0.74150    0.00700    0.45990    1.000
    C10      C        0.66920    0.08870    0.59230    1.000
    N17      N        0.80250    0.95620    0.42200    1.000
    C11      C        0.31070    0.07040    0.60830    1.000
    N18      N        0.36790    0.06390    0.68140    1.000
    C12      C        0.17030    0.04240    0.47600    1.000
    N19      N        0.28200    0.07730    0.49820    1.000
    N20      N        0.10320    0.00880    0.42480    1.000
    N21      N        0.83850    0.20210    0.17700    1.000
    N22      N        0.20800    0.09900    0.55510    1.000
    Cd3      Cd       0.47159    0.55537    0.69300    1.000
    C13      C        0.38870    0.37110    0.80650    1.000
    N23      N        0.46710    0.18060    0.87080    1.000
    C14      C        0.41750    0.24020    0.85800    1.000
    N24      N        0.36170    0.30980    0.87300    1.000
    N25      N        0.41220    0.43110    0.76770    1.000
    N26      N        0.16120    0.38480    0.32290    1.000
    N27      N        0.16700    0.43700    0.50730    1.000
    C15      C        0.24150    0.49300    0.54010    1.000
    C16      C        0.16920    0.41130    0.40770    1.000
    N28      N        0.30250    0.54380    0.57800    1.000
    C17      C        0.81070    0.42960    0.39170    1.000
    N29      N        0.86790    0.43610    0.31860    1.000
    C18      C        0.67030    0.45760    0.52400    1.000
    N30      N        0.78200    0.42270    0.50180    1.000
    N31      N        0.60320    0.49120    0.57520    1.000
    N32      N        0.33850    0.29790    0.82300    1.000
    N33      N        0.70800    0.40100    0.44490    1.000
    Cd4      Cd       0.02841    0.44463    0.19300    1.000
    C19      C        0.11130    0.62890    0.30650    1.000
    N34      N        0.03290    0.81940    0.37080    1.000
    C20      C        0.08250    0.75980    0.35800    1.000
    N35      N        0.13830    0.69020    0.37300    1.000
    N36      N        0.08780    0.56890    0.26770    1.000
    N37      N        0.33880    0.61520    0.82290    1.000
    N38      N        0.33300    0.56300    0.00730    1.000
    C21      C        0.25850    0.50700    0.04010    1.000
    C22      C        0.33080    0.58870    0.90770    1.000
    N39      N        0.19750    0.45620    0.07800    1.000
    C23      C        0.68930    0.57040    0.89170    1.000
    N40      N        0.63210    0.56390    0.81860    1.000
    C24      C        0.82970    0.54240    0.02400    1.000
    N41      N        0.71800    0.57730    0.00180    1.000
    N42      N        0.89680    0.50880    0.07520    1.000
    N43      N        0.16150    0.70210    0.32300    1.000
    N44      N        0.79200    0.59900    0.94490    1.000
