data_functionalizedCrystal
_audit_creation_method	'EQeq! by Chris Wilmer'
_symmetry_space_group_name_H-M	'P1'
_symmetry_Int_Tables_number	1
_symmetry_cell_setting	triclinic
loop_
_symmetry_equiv_pos_as_xyz
  x,y,z
_cell_length_a	10.6823
_cell_length_b	10.6823
_cell_length_c	10.6823
_cell_angle_alpha	106.004
_cell_angle_beta	106.004
_cell_angle_gamma	106.004
loop_
_atom_site_label
_atom_site_type_symbol
_atom_site_fract_x
_atom_site_fract_y
_atom_site_fract_z
_atom_site_charge
Mof_Cd	Cd	0.25049	0.71545	0.98493	0.494
Mof_Cd	Cd	0.98493	0.25049	0.71545	0.494
Mof_Cd	Cd	0.71545	0.98493	0.25049	0.494
Mof_Cd	Cd	0.74951	0.28455	0.01507	0.494
Mof_Cd	Cd	0.01507	0.74951	0.28455	0.494
Mof_Cd	Cd	0.28455	0.01507	0.74951	0.494
Mof_H 	H 	0.8569	0.7015	0.6299	0.18
Mof_H 	H 	0.9454	0.8863	0.7118	0.136
Mof_H 	H 	0.6299	0.8569	0.7015	0.18
Mof_H 	H 	0.7118	0.9454	0.8863	0.136
Mof_H 	H 	0.7015	0.6299	0.8569	0.18
Mof_H 	H 	0.8863	0.7118	0.9454	0.136
Mof_H 	H 	0.1431	0.2985	0.3701	0.18
Mof_H 	H 	0.0546	0.1137	0.2882	0.136
Mof_H 	H 	0.3701	0.1431	0.2985	0.18
Mof_H 	H 	0.2882	0.0546	0.1137	0.136
Mof_H 	H 	0.2985	0.3701	0.1431	0.18
Mof_H 	H 	0.1137	0.2882	0.0546	0.136
Mof_C 	C 	0.0654	0.7644	0.7827	0.422
Mof_C 	C 	0.9517	0.7751	0.6697	-0.418
Mof_C 	C 	0.9829	0.7757	0.5392	0.407
Mof_C 	C 	0.7827	0.0654	0.7644	0.422
Mof_C 	C 	0.6697	0.9517	0.7751	-0.418
Mof_C 	C 	0.5392	0.9829	0.7757	0.407
Mof_C 	C 	0.7644	0.7827	0.0654	0.422
Mof_C 	C 	0.7751	0.6697	0.9517	-0.418
Mof_C 	C 	0.7757	0.5392	0.9829	0.407
Mof_C 	C 	0.9346	0.2356	0.2173	0.422
Mof_C 	C 	0.0483	0.2249	0.3303	-0.418
Mof_C 	C 	0.0171	0.2243	0.4608	0.407
Mof_C 	C 	0.2173	0.9346	0.2356	0.422
Mof_C 	C 	0.3303	0.0483	0.2249	-0.418
Mof_C 	C 	0.4608	0.0171	0.2243	0.407
Mof_C 	C 	0.2356	0.2173	0.9346	0.422
Mof_C 	C 	0.2249	0.3303	0.0483	-0.418
Mof_C 	C 	0.2243	0.4608	0.0171	0.407
Mof_O 	O 	0.1891	0.8553	0.8357	-0.318
Mof_O 	O 	0.0332	0.6667	0.8235	-0.306
Mof_O 	O 	0.1348	0.4516	0.9079	-0.309
Mof_O 	O 	0.317	0.5786	0.1057	-0.288
Mof_O 	O 	0.8357	0.1891	0.8553	-0.318
Mof_O 	O 	0.8235	0.0332	0.6667	-0.306
Mof_O 	O 	0.9079	0.1348	0.4516	-0.309
Mof_O 	O 	0.1057	0.317	0.5786	-0.288
Mof_O 	O 	0.8553	0.8357	0.1891	-0.318
Mof_O 	O 	0.6667	0.8235	0.0332	-0.306
Mof_O 	O 	0.4516	0.9079	0.1348	-0.309
Mof_O 	O 	0.5786	0.1057	0.317	-0.288
Mof_O 	O 	0.8109	0.1447	0.1643	-0.318
Mof_O 	O 	0.9668	0.3333	0.1765	-0.306
Mof_O 	O 	0.8652	0.5484	0.0921	-0.309
Mof_O 	O 	0.683	0.4214	0.8943	-0.288
Mof_O 	O 	0.1643	0.8109	0.1447	-0.318
Mof_O 	O 	0.1765	0.9668	0.3333	-0.306
Mof_O 	O 	0.0921	0.8652	0.5484	-0.309
Mof_O 	O 	0.8943	0.683	0.4214	-0.288
Mof_O 	O 	0.1447	0.1643	0.8109	-0.318
Mof_O 	O 	0.3333	0.1765	0.9668	-0.306
Mof_O 	O 	0.5484	0.0921	0.8652	-0.309
Mof_O 	O 	0.4214	0.8943	0.683	-0.288
_end
