data_functionalizedCrystal
_audit_creation_method	'EQeq! by Chris Wilmer'
_symmetry_space_group_name_H-M	'P1'
_symmetry_Int_Tables_number	1
_symmetry_cell_setting	triclinic
loop_
_symmetry_equiv_pos_as_xyz
  x,y,z
_cell_length_a	6.6289
_cell_length_b	16.7338
_cell_length_c	12.8254
_cell_angle_alpha	90
_cell_angle_beta	90
_cell_angle_gamma	90
loop_
_atom_site_label
_atom_site_type_symbol
_atom_site_fract_x
_atom_site_fract_y
_atom_site_fract_z
_atom_site_charge
Mof_O 	O 	0.16557	0.16805	0.84296	-1.486
Mof_C 	C 	0.8089	0.03585	0.968	0.029
Mof_O 	O 	0.66557	0.66805	0.34296	-1.478
Mof_C 	C 	0.3089	0.53585	0.468	0.076
Mof_O 	O 	0.83443	0.33195	0.84296	-1.509
Mof_C 	C 	0.1911	0.46415	0.968	0.061
Mof_O 	O 	0.33443	0.83195	0.34296	-1.478
Mof_C 	C 	0.6911	0.96415	0.468	0.053
Mof_O 	O 	0.83443	0.66805	0.15704	-1.509
Mof_C 	C 	0.1911	0.53585	0.032	0.061
Mof_O 	O 	0.33443	0.16805	0.65704	-1.478
Mof_C 	C 	0.6911	0.03585	0.532	0.053
Mof_O 	O 	0.16557	0.83195	0.15704	-1.487
Mof_C 	C 	0.8089	0.96415	0.032	0.028
Mof_O 	O 	0.66557	0.33195	0.65704	-1.479
Mof_C 	C 	0.3089	0.46415	0.532	0.075
Mof_O 	O 	0.83443	0.83195	0.15704	-1.509
Mof_C 	C 	0.1911	0.96415	0.032	0.061
Mof_O 	O 	0.33443	0.33195	0.65704	-1.478
Mof_C 	C 	0.6911	0.46415	0.532	0.053
Mof_O 	O 	0.16557	0.66805	0.15704	-1.487
Mof_C 	C 	0.8089	0.53585	0.032	0.028
Mof_O 	O 	0.66557	0.16805	0.65704	-1.479
Mof_C 	C 	0.3089	0.03585	0.532	0.074
Mof_O 	O 	0.16557	0.33195	0.84296	-1.487
Mof_C 	C 	0.8089	0.46415	0.968	0.028
Mof_O 	O 	0.66557	0.83195	0.34296	-1.479
Mof_C 	C 	0.3089	0.96415	0.468	0.074
Mof_O 	O 	0.83443	0.16805	0.84296	-1.509
Mof_C 	C 	0.1911	0.03585	0.968	0.061
Mof_O 	O 	0.33443	0.66805	0.34296	-1.478
Mof_C 	C 	0.6911	0.53585	0.468	0.053
Mof_Al	Al	0.25	0.25	0.75	6.282
Mof_Al	Al	0.75	0.25	0.75	6.192
Mof_Al	Al	0.75	0.75	0.25	6.192
Mof_Al	Al	0.25	0.75	0.25	6.282
Mof_O 	O 	-1.27687e-32	0.25	0.6858	-2.179
Mof_O 	O 	0.5	0.75	0.1858	-2.207
Mof_O 	O 	3.77666e-32	0.75	0.3142	-2.179
Mof_O 	O 	0.5	0.25	0.8142	-2.207
Mof_C 	C 	6.8712e-33	0.0628	0.9472	-0.254
Mof_C 	C 	-1.14238e-32	0.1359	0.8712	1.142
Mof_C 	C 	0.5	0.5628	0.4472	-0.294
Mof_C 	C 	0.5	0.6359	0.3712	1.097
Mof_C 	C 	6.8712e-33	0.4372	0.9472	-0.253
Mof_C 	C 	6.31988e-33	0.3641	0.8712	1.142
Mof_C 	C 	0.5	0.9372	0.4472	-0.294
Mof_C 	C 	0.5	0.8641	0.3712	1.097
Mof_C 	C 	3.83023e-34	0.5628	0.0528	-0.253
Mof_C 	C 	3.1523e-33	0.6359	0.1288	1.142
Mof_C 	C 	0.5	0.0628	0.5528	-0.294
Mof_C 	C 	0.5	0.1359	0.6288	1.097
Mof_C 	C 	-1.73606e-32	0.9372	0.0528	-0.254
Mof_C 	C 	3.1523e-33	0.8641	0.1288	1.142
Mof_C 	C 	0.5	0.4372	0.5528	-0.294
Mof_C 	C 	0.5	0.3641	0.6288	1.097
_end
