data_functionalizedCrystal
_audit_creation_method	'EQeq! by Chris Wilmer'
_symmetry_space_group_name_H-M	'P1'
_symmetry_Int_Tables_number	1
_symmetry_cell_setting	triclinic
loop_
_symmetry_equiv_pos_as_xyz
  x,y,z
_cell_length_a	9.57
_cell_length_b	11.6489
_cell_length_c	11.6489
_cell_angle_alpha	80.286
_cell_angle_beta	65.7468
_cell_angle_gamma	65.7469
loop_
_atom_site_label
_atom_site_type_symbol
_atom_site_fract_x
_atom_site_fract_y
_atom_site_fract_z
_atom_site_charge
Mof_Zn	Zn	0.30292	0.47529	0.83255	1.129
Mof_Zn	Zn	0.61076	0.52471	0.16745	1.125
Mof_Zn	Zn	0.86453	0.83255	0.52471	1.117
Mof_Zn	Zn	0.22179	0.16745	0.47529	1.13
Mof_H 	H 	0.9976	0.4339	0.0505	-0.075
Mof_H 	H 	0.5919	0.8202	0.7692	-0.048
Mof_H 	H 	0.0781	0.6637	0.6593	-0.013
Mof_H 	H 	0.482	0.5661	0.9495	-0.075
Mof_H 	H 	0.1813	0.1798	0.2308	-0.042
Mof_H 	H 	0.4011	0.3363	0.3407	-0.058
Mof_H 	H 	0.9519	0.0505	0.5661	-0.11
Mof_H 	H 	0.6389	0.7692	0.1798	-0.053
Mof_H 	H 	0.2626	0.6593	0.3363	-0.053
Mof_H 	H 	0.5685	0.9495	0.4339	-0.088
Mof_H 	H 	0.5879	0.2308	0.8202	-0.05
Mof_H 	H 	0.2582	0.3407	0.6637	-0.051
Mof_C 	C 	0.9581	0.4914	0.9944	0.024
Mof_C 	C 	0.7901	0.6267	0.9155	0.089
Mof_C 	C 	0.683	0.7634	0.7866	0.059
Mof_C 	C 	0.9732	0.6727	0.7187	-0.104
Mof_C 	C 	0.9518	0.6073	0.8335	-0.045
Mof_C 	C 	0.4439	0.5086	0.0056	0.064
Mof_C 	C 	0.3323	0.3733	0.0845	0.095
Mof_C 	C 	0.233	0.2366	0.2134	0.066
Mof_C 	C 	0.3646	0.3273	0.2813	-0.036
Mof_C 	C 	0.3926	0.3927	0.1665	-0.034
Mof_C 	C 	0.0475	0.9944	0.5086	0.111
Mof_C 	C 	0.2944	0.9155	0.3733	0.086
Mof_C 	C 	0.5304	0.7866	0.2366	0.063
Mof_C 	C 	0.3081	0.7187	0.3273	-0.039
Mof_C 	C 	0.2147	0.8335	0.3927	-0.03
Mof_C 	C 	0.5505	0.0056	0.4914	0.082
Mof_C 	C 	0.5832	0.0845	0.6267	0.096
Mof_C 	C 	0.5536	0.2134	0.7634	0.063
Mof_C 	C 	0.3541	0.2813	0.6727	-0.038
Mof_C 	C 	0.4409	0.1665	0.6073	-0.033
Mof_N 	N 	0.0588	0.5223	0.8843	-0.269
Mof_N 	N 	0.7976	0.5499	0.0161	-0.315
Mof_N 	N 	0.6541	0.703	0.8954	-0.178
Mof_N 	N 	0.8358	0.7488	0.6984	-0.286
Mof_N 	N 	0.4654	0.4777	0.1157	-0.301
Mof_N 	N 	0.3636	0.4501	0.9839	-0.317
Mof_N 	N 	0.2525	0.297	0.1046	-0.174
Mof_N 	N 	0.283	0.2512	0.3016	-0.289
Mof_N 	N 	0.0569	0.8843	0.4777	-0.299
Mof_N 	N 	0.1863	0.0161	0.4501	-0.318
Mof_N 	N 	0.4505	0.8954	0.297	-0.18
Mof_N 	N 	0.4658	0.6984	0.2512	-0.292
Mof_N 	N 	0.4189	0.1157	0.5223	-0.303
Mof_N 	N 	0.6525	0.9839	0.5499	-0.332
Mof_N 	N 	0.6429	0.1046	0.703	-0.18
Mof_N 	N 	0.4154	0.3016	0.7488	-0.291
_end
