data_functionalizedCrystal
_audit_creation_method	'EQeq! by Chris Wilmer'
_symmetry_space_group_name_H-M	'P1'
_symmetry_Int_Tables_number	1
_symmetry_cell_setting	triclinic
loop_
_symmetry_equiv_pos_as_xyz
  x,y,z
_cell_length_a	9.8939
_cell_length_b	18.4662
_cell_length_c	18.529
_cell_angle_alpha	90
_cell_angle_beta	90
_cell_angle_gamma	90
loop_
_atom_site_label
_atom_site_type_symbol
_atom_site_fract_x
_atom_site_fract_y
_atom_site_fract_z
_atom_site_charge
Mof_Tb	Tb	0.80144	0.12101	0.2305	2.027
Mof_Tb	Tb	0.30144	0.87899	0.7695	1.981
Mof_Tb	Tb	0.80144	0.62101	0.2695	2.026
Mof_Tb	Tb	0.30144	0.37899	0.7305	1.98
Mof_Na	Na	0.09718	0.15729	0.91611	2.03
Mof_Na	Na	0.59718	0.84271	0.08389	2.198
Mof_Na	Na	0.09718	0.65729	0.58389	2.049
Mof_Na	Na	0.59718	0.34271	0.41611	2.208
Mof_H 	H 	0.0209	0.4206	0.1305	0.052
Mof_H 	H 	0.9588	0.4055	0.249	0.02
Mof_H 	H 	0.8773	0.2953	0.2862	-0.046
Mof_H 	H 	0.1068	0.3114	0.011	0.217
Mof_H 	H 	0.9543	0.3089	0.9881	0.281
Mof_H 	H 	0.0211	0.3828	0.0096	0.262
Mof_H 	H 	0.3687	0.9767	0.2187	0.084
Mof_H 	H 	0.2285	0.9634	0.1217	-0.058
Mof_H 	H 	0.0161	0.0161	0.1248	-0.036
Mof_H 	H 	0.3232	0.0077	0.3789	0.265
Mof_H 	H 	0.431	0.0412	0.3266	0.259
Mof_H 	H 	0.3257	0.0915	0.3651	0.273
Mof_H 	H 	0.6083	0.8993	0.4609	0.113
Mof_H 	H 	0.7085	0.0046	0.4981	0.006
Mof_H 	H 	0.7843	0.0867	0.4122	0.015
Mof_H 	H 	0.6165	0.8203	0.2993	0.218
Mof_H 	H 	0.5421	0.818	0.374	0.214
Mof_H 	H 	0.4747	0.8572	0.3081	0.215
Mof_H 	H 	0.2157	0.1952	0.1337	0.07
Mof_H 	H 	0.3514	0.1275	0.0583	-0.09
Mof_H 	H 	0.5666	0.0966	0.0965	-0.012
Mof_H 	H 	0.1685	0.252	0.2421	0.21
Mof_H 	H 	0.2509	0.2266	0.3098	0.223
Mof_H 	H 	0.2925	0.2975	0.2688	0.204
Mof_H 	H 	0.5209	0.5794	0.8695	0.093
Mof_H 	H 	0.4588	0.5945	0.751	0.002
Mof_H 	H 	0.3773	0.7047	0.7138	-0.043
Mof_H 	H 	0.6068	0.6886	0.989	0.134
Mof_H 	H 	0.4543	0.6911	0.0119	0.166
Mof_H 	H 	0.5211	0.6172	0.9904	0.185
Mof_H 	H 	0.8687	0.0233	0.7813	0.104
Mof_H 	H 	0.7285	0.0366	0.8783	-0.056
Mof_H 	H 	0.5161	0.9839	0.8752	-0.019
Mof_H 	H 	0.8232	0.9923	0.6211	0.286
Mof_H 	H 	0.931	0.9588	0.6734	0.288
Mof_H 	H 	0.8257	0.9085	0.6349	0.293
Mof_H 	H 	0.1083	0.1007	0.5391	0.13
Mof_H 	H 	0.2085	0.9954	0.5019	-0.018
Mof_H 	H 	0.2843	0.9133	0.5878	0.019
Mof_H 	H 	0.1165	0.1797	0.7007	0.293
Mof_H 	H 	0.0421	0.182	0.626	0.281
Mof_H 	H 	0.9747	0.1428	0.6919	0.326
Mof_H 	H 	0.7157	0.8048	0.8663	0.093
Mof_H 	H 	0.8514	0.8725	0.9417	-0.118
Mof_H 	H 	0.0666	0.9034	0.9035	0.01
Mof_H 	H 	0.6685	0.748	0.7579	0.23
Mof_H 	H 	0.7509	0.7734	0.6902	0.234
Mof_H 	H 	0.7925	0.7025	0.7312	0.217
Mof_H 	H 	0.0209	0.9206	0.3695	0.054
Mof_H 	H 	0.9588	0.9055	0.251	0.017
Mof_H 	H 	0.8773	0.7953	0.2138	-0.045
Mof_H 	H 	0.1068	0.8114	0.489	0.218
Mof_H 	H 	0.9543	0.8089	0.5119	0.286
Mof_H 	H 	0.0211	0.8828	0.4904	0.265
Mof_H 	H 	0.3687	0.4767	0.2813	0.084
Mof_H 	H 	0.2285	0.4634	0.3783	-0.059
Mof_H 	H 	0.0161	0.5161	0.3752	-0.036
Mof_H 	H 	0.3232	0.5077	0.1211	0.264
Mof_H 	H 	0.431	0.5412	0.1734	0.257
Mof_H 	H 	0.3257	0.5915	0.1349	0.272
Mof_H 	H 	0.6083	0.3993	0.0391	0.116
Mof_H 	H 	0.7085	0.5046	0.0019	0.001
Mof_H 	H 	0.7843	0.5867	0.0878	0.017
Mof_H 	H 	0.6165	0.3203	0.2007	0.219
Mof_H 	H 	0.5421	0.318	0.126	0.216
Mof_H 	H 	0.4747	0.3572	0.1919	0.217
Mof_H 	H 	0.2157	0.6952	0.3663	0.07
Mof_H 	H 	0.3514	0.6275	0.4417	-0.092
Mof_H 	H 	0.5666	0.5966	0.4035	-0.013
Mof_H 	H 	0.1685	0.752	0.2579	0.21
Mof_H 	H 	0.2509	0.7266	0.1902	0.223
Mof_H 	H 	0.2925	0.7975	0.2312	0.205
Mof_H 	H 	0.5209	0.0794	0.6305	0.094
Mof_H 	H 	0.4588	0.0945	0.749	0.001
Mof_H 	H 	0.3773	0.2047	0.7862	-0.043
Mof_H 	H 	0.6068	0.1886	0.511	0.134
Mof_H 	H 	0.4543	0.1911	0.4881	0.167
Mof_H 	H 	0.5211	0.1172	0.5096	0.186
Mof_H 	H 	0.8687	0.5233	0.7187	0.104
Mof_H 	H 	0.7285	0.5366	0.6217	-0.057
Mof_H 	H 	0.5161	0.4839	0.6248	-0.018
Mof_H 	H 	0.8232	0.4923	0.8789	0.287
Mof_H 	H 	0.931	0.4588	0.8266	0.289
Mof_H 	H 	0.8257	0.4085	0.8651	0.293
Mof_H 	H 	0.1083	0.6007	0.9609	0.13
Mof_H 	H 	0.2085	0.4954	0.9981	-0.02
Mof_H 	H 	0.2843	0.4133	0.9122	0.02
Mof_H 	H 	0.1165	0.6797	0.7993	0.291
Mof_H 	H 	0.0421	0.682	0.874	0.28
Mof_H 	H 	0.9747	0.6428	0.8081	0.324
Mof_H 	H 	0.7157	0.3048	0.6337	0.092
Mof_H 	H 	0.8514	0.3725	0.5583	-0.119
Mof_H 	H 	0.0666	0.4034	0.5965	0.01
Mof_H 	H 	0.6685	0.248	0.7421	0.23
Mof_H 	H 	0.7509	0.2734	0.8098	0.234
Mof_H 	H 	0.7925	0.2025	0.7688	0.217
Mof_C 	C 	0.9302	0.25353	0.12393	-0.234
Mof_C 	C 	0.9786	0.31937	0.09694	0.327
Mof_C 	C 	0.9884	0.37591	0.146	-0.169
Mof_C 	C 	0.9513	0.36732	0.2164	-0.014
Mof_C 	C 	0.9028	0.30123	0.23826	0.023
Mof_C 	C 	0.9184	0.18399	0.08016	0.524
Mof_C 	C 	0.0189	0.3318	0.0194	-0.885
Mof_C 	C 	0.1136	0.06556	0.27945	-0.181
Mof_C 	C 	0.2442	0.0354	0.28159	0.307
Mof_C 	C 	0.283	0.9974	0.22011	-0.267
Mof_C 	C 	0.2005	0.98937	0.162	0.034
Mof_C 	C 	0.0733	0.02101	0.16434	-0.023
Mof_C 	C 	0.0524	0.10893	0.34009	0.332
Mof_C 	C 	0.3396	0.0448	0.3436	-0.818
Mof_C 	C 	0.6764	0.96739	0.30461	-0.209
Mof_C 	C 	0.6262	0.91578	0.35301	0.278
Mof_C 	C 	0.6401	0.93206	0.42674	-0.242
Mof_C 	C 	0.6991	0.9946	0.44917	0.033
Mof_C 	C 	0.7451	0.04336	0.39735	-0.012
Mof_C 	C 	0.6725	0.9587	0.22324	0.48
Mof_C 	C 	0.5589	0.8467	0.33171	-0.697
Mof_C 	C 	0.4816	0.18708	0.23357	-0.205
Mof_C 	C 	0.3488	0.20597	0.21526	0.273
Mof_C 	C 	0.3027	0.183	0.14828	-0.259
Mof_C 	C 	0.3829	0.14255	0.1031	0.057
Mof_C 	C 	0.512	0.12486	0.12606	-0.041
Mof_C 	C 	0.5524	0.21272	0.30201	0.465
Mof_C 	C 	0.2569	0.2494	0.2633	-0.696
Mof_C 	C 	0.4302	0.74647	0.87607	-0.211
Mof_C 	C 	0.4786	0.68063	0.90306	0.23
Mof_C 	C 	0.4884	0.62409	0.854	-0.206
Mof_C 	C 	0.4513	0.63268	0.7836	0.002
Mof_C 	C 	0.4028	0.69877	0.76174	0.006
Mof_C 	C 	0.4184	0.81601	0.91984	0.519
Mof_C 	C 	0.5189	0.6682	0.9806	-0.581
Mof_C 	C 	0.6136	0.93444	0.72055	-0.195
Mof_C 	C 	0.7442	0.9646	0.71841	0.335
Mof_C 	C 	0.783	0.0026	0.77989	-0.285
Mof_C 	C 	0.7005	0.01063	0.838	0.055
Mof_C 	C 	0.5733	0.97899	0.83566	-0.028
Mof_C 	C 	0.5524	0.89107	0.65991	0.387
Mof_C 	C 	0.8396	0.9552	0.6564	-0.871
Mof_C 	C 	0.1764	0.03261	0.69539	-0.254
Mof_C 	C 	0.1262	0.08422	0.64699	0.366
Mof_C 	C 	0.1401	0.06794	0.57326	-0.316
Mof_C 	C 	0.1991	0.0054	0.55083	0.079
Mof_C 	C 	0.2451	0.95664	0.60265	-0.051
Mof_C 	C 	0.1725	0.0413	0.77676	0.485
Mof_C 	C 	0.0589	0.1533	0.66829	-0.963
Mof_C 	C 	0.9816	0.81292	0.76643	-0.128
Mof_C 	C 	0.8488	0.79403	0.78474	0.278
Mof_C 	C 	0.8027	0.817	0.85172	-0.299
Mof_C 	C 	0.8829	0.85745	0.8969	0.154
Mof_C 	C 	0.012	0.87514	0.87394	-0.132
Mof_C 	C 	0.0524	0.78728	0.69799	0.351
Mof_C 	C 	0.7569	0.7506	0.7367	-0.721
Mof_C 	C 	0.9302	0.75353	0.37607	-0.237
Mof_C 	C 	0.9786	0.81937	0.40306	0.333
Mof_C 	C 	0.9884	0.87591	0.354	-0.175
Mof_C 	C 	0.9513	0.86732	0.2836	-0.011
Mof_C 	C 	0.9028	0.80123	0.26174	0.021
Mof_C 	C 	0.9184	0.68399	0.41984	0.526
Mof_C 	C 	0.0189	0.8318	0.4806	-0.898
Mof_C 	C 	0.1136	0.56556	0.22055	-0.18
Mof_C 	C 	0.2442	0.5354	0.21841	0.302
Mof_C 	C 	0.283	0.4974	0.27989	-0.264
Mof_C 	C 	0.2005	0.48937	0.338	0.039
Mof_C 	C 	0.0733	0.52101	0.33566	-0.028
Mof_C 	C 	0.0524	0.60893	0.15991	0.334
Mof_C 	C 	0.3396	0.5448	0.1564	-0.813
Mof_C 	C 	0.6764	0.46739	0.19539	-0.209
Mof_C 	C 	0.6262	0.41578	0.14699	0.282
Mof_C 	C 	0.6401	0.43206	0.07326	-0.248
Mof_C 	C 	0.6991	0.4946	0.05083	0.046
Mof_C 	C 	0.7451	0.54336	0.10265	-0.02
Mof_C 	C 	0.6725	0.4587	0.27676	0.487
Mof_C 	C 	0.5589	0.3467	0.16829	-0.702
Mof_C 	C 	0.4816	0.68708	0.26643	-0.205
Mof_C 	C 	0.3488	0.70597	0.28474	0.274
Mof_C 	C 	0.3027	0.683	0.35172	-0.261
Mof_C 	C 	0.3829	0.64255	0.3969	0.057
Mof_C 	C 	0.512	0.62486	0.37394	-0.042
Mof_C 	C 	0.5524	0.71272	0.19799	0.465
Mof_C 	C 	0.2569	0.7494	0.2367	-0.698
Mof_C 	C 	0.4302	0.24647	0.62393	-0.212
Mof_C 	C 	0.4786	0.18063	0.59694	0.232
Mof_C 	C 	0.4884	0.12409	0.646	-0.207
Mof_C 	C 	0.4513	0.13268	0.7164	0.003
Mof_C 	C 	0.4028	0.19877	0.73826	0.005
Mof_C 	C 	0.4184	0.31601	0.58016	0.52
Mof_C 	C 	0.5189	0.1682	0.5194	-0.585
Mof_C 	C 	0.6136	0.43444	0.77945	-0.196
Mof_C 	C 	0.7442	0.4646	0.78159	0.335
Mof_C 	C 	0.783	0.5026	0.72011	-0.286
Mof_C 	C 	0.7005	0.51063	0.662	0.061
Mof_C 	C 	0.5733	0.47899	0.66434	-0.033
Mof_C 	C 	0.5524	0.39107	0.84009	0.387
Mof_C 	C 	0.8396	0.4552	0.8436	-0.872
Mof_C 	C 	0.1764	0.53261	0.80461	-0.253
Mof_C 	C 	0.1262	0.58422	0.85301	0.365
Mof_C 	C 	0.1401	0.56794	0.92674	-0.317
Mof_C 	C 	0.1991	0.5054	0.94917	0.081
Mof_C 	C 	0.2451	0.45664	0.89735	-0.053
Mof_C 	C 	0.1725	0.5413	0.72324	0.49
Mof_C 	C 	0.0589	0.6533	0.83171	-0.958
Mof_C 	C 	0.9816	0.31292	0.73357	-0.124
Mof_C 	C 	0.8488	0.29403	0.71526	0.276
Mof_C 	C 	0.8027	0.317	0.64828	-0.299
Mof_C 	C 	0.8829	0.35745	0.6031	0.155
Mof_C 	C 	0.012	0.37514	0.62606	-0.134
Mof_C 	C 	0.0524	0.28728	0.80201	0.346
Mof_C 	C 	0.7569	0.2506	0.7633	-0.72
Mof_N 	N 	0.891	0.24516	0.19326	-0.195
Mof_N 	N 	0.0307	0.05821	0.22157	-0.205
Mof_N 	N 	0.7343	0.02938	0.32645	-0.181
Mof_N 	N 	0.5601	0.14743	0.18975	-0.188
Mof_N 	N 	0.391	0.75484	0.80674	-0.199
Mof_N 	N 	0.5307	0.94179	0.77843	-0.183
Mof_N 	N 	0.2343	0.97062	0.67355	-0.171
Mof_N 	N 	0.0601	0.85257	0.81025	-0.2
Mof_N 	N 	0.891	0.74516	0.30674	-0.194
Mof_N 	N 	0.0307	0.55821	0.27843	-0.204
Mof_N 	N 	0.7343	0.52938	0.17355	-0.181
Mof_N 	N 	0.5601	0.64743	0.31025	-0.188
Mof_N 	N 	0.391	0.25484	0.69326	-0.199
Mof_N 	N 	0.5307	0.44179	0.72157	-0.182
Mof_N 	N 	0.2343	0.47062	0.82645	-0.172
Mof_N 	N 	0.0601	0.35257	0.68975	-0.201
Mof_O 	O 	0.8484	0.13348	0.10871	-0.568
Mof_O 	O 	0.9759	0.17933	0.02129	-0.662
Mof_O 	O 	0.9485	0.14655	0.32338	-0.479
Mof_O 	O 	0.1012	0.10538	0.40079	-0.322
Mof_O 	O 	0.7319	0.00884	0.18713	-0.574
Mof_O 	O 	0.6154	0.90635	0.1958	-0.659
Mof_O 	O 	0.6757	0.19188	0.30738	-0.598
Mof_O 	O 	0.4937	0.25033	0.34623	-0.642
Mof_O 	O 	0.3484	0.86652	0.89129	-0.576
Mof_O 	O 	0.4759	0.82067	0.97871	-0.703
Mof_O 	O 	0.4485	0.85345	0.67662	-0.519
Mof_O 	O 	0.6012	0.89462	0.59921	-0.326
Mof_O 	O 	0.2319	0.99116	0.81287	-0.578
Mof_O 	O 	0.1154	0.09365	0.8042	-0.657
Mof_O 	O 	0.1757	0.80812	0.69262	-0.57
Mof_O 	O 	0.9937	0.74967	0.65377	-0.56
Mof_O 	O 	0.8484	0.63348	0.39129	-0.57
Mof_O 	O 	0.9759	0.67933	0.47871	-0.667
Mof_O 	O 	0.9485	0.64655	0.17662	-0.481
Mof_O 	O 	0.1012	0.60538	0.09921	-0.322
Mof_O 	O 	0.7319	0.50884	0.31287	-0.579
Mof_O 	O 	0.6154	0.40635	0.3042	-0.661
Mof_O 	O 	0.6757	0.69188	0.19262	-0.598
Mof_O 	O 	0.4937	0.75033	0.15377	-0.641
Mof_O 	O 	0.3484	0.36652	0.60871	-0.577
Mof_O 	O 	0.4759	0.32067	0.52129	-0.706
Mof_O 	O 	0.4485	0.35345	0.82338	-0.519
Mof_O 	O 	0.6012	0.39462	0.90079	-0.326
Mof_O 	O 	0.2319	0.49116	0.68713	-0.582
Mof_O 	O 	0.1154	0.59365	0.6958	-0.66
Mof_O 	O 	0.1757	0.30812	0.80738	-0.569
Mof_O 	O 	0.9937	0.24967	0.84623	-0.555
_end
