# CIF file generated by openbabel 3.1.0, see https://openbabel.org
data_I
_chemical_name_common 'image0'
_cell_length_a 13.092
_cell_length_b 14.49
_cell_length_c 12.64
_cell_angle_alpha 90
_cell_angle_beta 116.85
_cell_angle_gamma 90
_space_group_name_H-M_alt 'P 1'
_space_group_name_Hall 'P 1'
loop_
    _symmetry_equiv_pos_as_xyz
    x,y,z
loop_
    _atom_site_label
    _atom_site_type_symbol
    _atom_site_fract_x
    _atom_site_fract_y
    _atom_site_fract_z
    _atom_site_occupancy
    Mn1      Mn       0.27135    0.44289    0.24477    1.000
    O1       O        0.97150    0.05690    0.32830    1.000
    O2       O        0.81840    0.00100    0.17170    1.000
    O3       O        0.19280    0.30470    0.25480    1.000
    O4       O        0.11640    0.38170    0.08690    1.000
    O5       O        0.14420    0.57350    0.00550    1.000
    O6       O        0.30790    0.56090    0.17220    1.000
    O7       O        0.58390    0.83510    0.25540    1.000
    O8       O        0.57400    0.91090    0.09930    1.000
    C1       C        0.93580    0.10590    0.13500    1.000
    C2       C        0.01400    0.17760    0.17790    1.000
    H1       H        0.05540    0.18650    0.25920    1.000
    C3       C        0.03140    0.23670    0.09980    1.000
    C4       C        0.97180    0.22300    0.97800    1.000
    H2       H        0.98260    0.26240    0.92570    1.000
    C5       C        0.89520    0.14860    0.93560    1.000
    H3       H        0.85560    0.13760    0.85450    1.000
    C6       C        0.87830    0.09170    0.01360    1.000
    H4       H        0.82720    0.04260    0.98410    1.000
    C7       C        0.90880    0.04900    0.21920    1.000
    C8       C        0.11800    0.31260    0.15040    1.000
    C9       C        0.29340    0.67470    0.03030    1.000
    C10      C        0.39190    0.72290    0.10760    1.000
    H5       H        0.42900    0.70700    0.18750    1.000
    C11      C        0.43450    0.79450    0.06530    1.000
    C12      C        0.37990    0.81610    0.94400    1.000
    H6       H        0.40890    0.86290    0.91500    1.000
    C13      C        0.28340    0.76820    0.86750    1.000
    H7       H        0.24800    0.78210    0.78700    1.000
    C14      C        0.23950    0.69890    0.91160    1.000
    H8       H        0.17280    0.66850    0.86050    1.000
    C15      C        0.24370    0.59770    0.07190    1.000
    C16      C        0.53770    0.84910    0.14690    1.000
    Mn2      Mn       0.72865    0.94289    0.25523    1.000
    O9       O        0.02850    0.55690    0.17170    1.000
    O10      O        0.18160    0.50100    0.32830    1.000
    O11      O        0.80720    0.80470    0.24520    1.000
    O12      O        0.88360    0.88170    0.41310    1.000
    O13      O        0.85580    0.07350    0.49450    1.000
    O14      O        0.69210    0.06090    0.32780    1.000
    O15      O        0.41610    0.33510    0.24460    1.000
    O16      O        0.42600    0.41090    0.40070    1.000
    C17      C        0.06420    0.60590    0.36500    1.000
    C18      C        0.98600    0.67760    0.32210    1.000
    H9       H        0.94460    0.68650    0.24080    1.000
    C19      C        0.96860    0.73670    0.40020    1.000
    C20      C        0.02820    0.72300    0.52200    1.000
    H10      H        0.01740    0.76240    0.57430    1.000
    C21      C        0.10480    0.64860    0.56440    1.000
    H11      H        0.14440    0.63760    0.64550    1.000
    C22      C        0.12170    0.59170    0.48640    1.000
    H12      H        0.17280    0.54260    0.51590    1.000
    C23      C        0.09120    0.54900    0.28080    1.000
    C24      C        0.88200    0.81260    0.34960    1.000
    C25      C        0.70660    0.17470    0.46970    1.000
    C26      C        0.60810    0.22290    0.39240    1.000
    H13      H        0.57100    0.20700    0.31250    1.000
    C27      C        0.56550    0.29450    0.43470    1.000
    C28      C        0.62010    0.31610    0.55600    1.000
    H14      H        0.59110    0.36290    0.58500    1.000
    C29      C        0.71660    0.26820    0.63250    1.000
    H15      H        0.75200    0.28210    0.71300    1.000
    C30      C        0.76050    0.19890    0.58840    1.000
    H16      H        0.82720    0.16850    0.63950    1.000
    C31      C        0.75630    0.09770    0.42810    1.000
    C32      C        0.46230    0.34910    0.35310    1.000
    Mn3      Mn       0.72865    0.55711    0.75523    1.000
    O17      O        0.02850    0.94310    0.67170    1.000
    O18      O        0.18160    0.99900    0.82830    1.000
    O19      O        0.80720    0.69530    0.74520    1.000
    O20      O        0.88360    0.61830    0.91310    1.000
    O21      O        0.85580    0.42650    0.99450    1.000
    O22      O        0.69210    0.43910    0.82780    1.000
    O23      O        0.41610    0.16490    0.74460    1.000
    O24      O        0.42600    0.08910    0.90070    1.000
    C33      C        0.06420    0.89410    0.86500    1.000
    C34      C        0.98600    0.82240    0.82210    1.000
    H17      H        0.94460    0.81350    0.74080    1.000
    C35      C        0.96860    0.76330    0.90020    1.000
    C36      C        0.02820    0.77700    0.02200    1.000
    H18      H        0.01740    0.73760    0.07430    1.000
    C37      C        0.10480    0.85140    0.06440    1.000
    H19      H        0.14440    0.86240    0.14550    1.000
    C38      C        0.12170    0.90830    0.98640    1.000
    H20      H        0.17280    0.95740    0.01590    1.000
    C39      C        0.09120    0.95100    0.78080    1.000
    C40      C        0.88200    0.68740    0.84960    1.000
    C41      C        0.70660    0.32530    0.96970    1.000
    C42      C        0.60810    0.27710    0.89240    1.000
    H21      H        0.57100    0.29300    0.81250    1.000
    C43      C        0.56550    0.20550    0.93470    1.000
    C44      C        0.62010    0.18390    0.05600    1.000
    H22      H        0.59110    0.13710    0.08500    1.000
    C45      C        0.71660    0.23180    0.13250    1.000
    H23      H        0.75200    0.21790    0.21300    1.000
    C46      C        0.76050    0.30110    0.08840    1.000
    H24      H        0.82720    0.33150    0.13950    1.000
    C47      C        0.75630    0.40230    0.92810    1.000
    C48      C        0.46230    0.15090    0.85310    1.000
    Mn4      Mn       0.27135    0.05711    0.74477    1.000
    O25      O        0.97150    0.44310    0.82830    1.000
    O26      O        0.81840    0.49900    0.67170    1.000
    O27      O        0.19280    0.19530    0.75480    1.000
    O28      O        0.11640    0.11830    0.58690    1.000
    O29      O        0.14420    0.92650    0.50550    1.000
    O30      O        0.30790    0.93910    0.67220    1.000
    O31      O        0.58390    0.66490    0.75540    1.000
    O32      O        0.57400    0.58910    0.59930    1.000
    C49      C        0.93580    0.39410    0.63500    1.000
    C50      C        0.01400    0.32240    0.67790    1.000
    H25      H        0.05540    0.31350    0.75920    1.000
    C51      C        0.03140    0.26330    0.59980    1.000
    C52      C        0.97180    0.27700    0.47800    1.000
    H26      H        0.98260    0.23760    0.42570    1.000
    C53      C        0.89520    0.35140    0.43560    1.000
    H27      H        0.85560    0.36240    0.35450    1.000
    C54      C        0.87830    0.40830    0.51360    1.000
    H28      H        0.82720    0.45740    0.48410    1.000
    C55      C        0.90880    0.45100    0.71920    1.000
    C56      C        0.11800    0.18740    0.65040    1.000
    C57      C        0.29340    0.82530    0.53030    1.000
    C58      C        0.39190    0.77710    0.60760    1.000
    H29      H        0.42900    0.79300    0.68750    1.000
    C59      C        0.43450    0.70550    0.56530    1.000
    C60      C        0.37990    0.68390    0.44400    1.000
    H30      H        0.40890    0.63710    0.41500    1.000
    C61      C        0.28340    0.73180    0.36750    1.000
    H31      H        0.24800    0.71790    0.28700    1.000
    C62      C        0.23950    0.80110    0.41160    1.000
    H32      H        0.17280    0.83150    0.36050    1.000
    C63      C        0.24370    0.90230    0.57190    1.000
    C64      C        0.53770    0.65090    0.64690    1.000
    Mn5      Mn       0.00000    0.50000    0.00000    1.000
    Mn6      Mn       0.00000    0.00000    0.50000    1.000
