# CIF file generated by openbabel 3.1.0, see https://openbabel.org
data_I
_chemical_name_common 'image0'
_cell_length_a 22.2973
_cell_length_b 22.2973
_cell_length_c 22.2973
_cell_angle_alpha 90
_cell_angle_beta 90
_cell_angle_gamma 90
_space_group_name_H-M_alt 'P 1'
_space_group_name_Hall 'P 1'
loop_
    _symmetry_equiv_pos_as_xyz
    x,y,z
loop_
    _atom_site_label
    _atom_site_type_symbol
    _atom_site_fract_x
    _atom_site_fract_y
    _atom_site_fract_z
    _atom_site_occupancy
    Co1      Co       0.32314    0.26014    0.80823    1.000
    C1       C        0.20060    0.28532    0.98983    1.000
    H1       H        0.24210    0.28140    0.99180    1.000
    C2       C        0.17299    0.29098    0.93444    1.000
    C3       C        0.19663    0.27921    0.10443    1.000
    C4       C        0.20690    0.29216    0.87599    1.000
    C5       C        0.07784    0.29420    0.98446    1.000
    C6       C        0.11104    0.29521    0.93164    1.000
    H2       H        0.09180    0.29870    0.89480    1.000
    C7       C        0.10635    0.28926    0.03947    1.000
    H3       H        0.08380    0.28850    0.07460    1.000
    C8       C        0.16747    0.28544    0.04227    1.000
    O1       O        0.17627    0.30401    0.82998    1.000
    O2       O        0.16296    0.29147    0.14759    1.000
    O3       O        0.24970    0.26294    0.10535    1.000
    O4       O        0.26171    0.28075    0.87842    1.000
    N1       N        0.01357    0.29611    0.97701    1.000
    Co2      Co       0.67686    0.73986    0.80823    1.000
    C9       C        0.79940    0.71468    0.98983    1.000
    H4       H        0.75790    0.71860    0.99180    1.000
    C10      C        0.82701    0.70902    0.93444    1.000
    C11      C        0.80337    0.72079    0.10443    1.000
    C12      C        0.79310    0.70784    0.87599    1.000
    C13      C        0.92216    0.70580    0.98446    1.000
    C14      C        0.88896    0.70479    0.93164    1.000
    H5       H        0.90820    0.70130    0.89480    1.000
    C15      C        0.89365    0.71074    0.03947    1.000
    H6       H        0.91620    0.71150    0.07460    1.000
    C16      C        0.83253    0.71456    0.04227    1.000
    O5       O        0.82373    0.69599    0.82998    1.000
    O6       O        0.83704    0.70853    0.14759    1.000
    O7       O        0.75030    0.73706    0.10535    1.000
    O8       O        0.73829    0.71925    0.87842    1.000
    N2       N        0.98643    0.70389    0.97701    1.000
    Co3      Co       0.67686    0.26014    0.19177    1.000
    C17      C        0.79940    0.28532    0.01017    1.000
    H7       H        0.75790    0.28140    0.00820    1.000
    C18      C        0.82701    0.29098    0.06556    1.000
    C19      C        0.80337    0.27921    0.89557    1.000
    C20      C        0.79310    0.29216    0.12401    1.000
    C21      C        0.92216    0.29420    0.01554    1.000
    C22      C        0.88896    0.29521    0.06836    1.000
    H8       H        0.90820    0.29870    0.10520    1.000
    C23      C        0.89365    0.28926    0.96053    1.000
    H9       H        0.91620    0.28850    0.92540    1.000
    C24      C        0.83253    0.28544    0.95773    1.000
    O9       O        0.82373    0.30401    0.17002    1.000
    O10      O        0.83704    0.29147    0.85241    1.000
    O11      O        0.75030    0.26294    0.89465    1.000
    O12      O        0.73829    0.28075    0.12158    1.000
    N3       N        0.98643    0.29611    0.02299    1.000
    Co4      Co       0.32314    0.73986    0.19177    1.000
    C25      C        0.20060    0.71468    0.01017    1.000
    H10      H        0.24210    0.71860    0.00820    1.000
    C26      C        0.17299    0.70902    0.06556    1.000
    C27      C        0.19663    0.72079    0.89557    1.000
    C28      C        0.20690    0.70784    0.12401    1.000
    C29      C        0.07784    0.70580    0.01554    1.000
    C30      C        0.11104    0.70479    0.06836    1.000
    H11      H        0.09180    0.70130    0.10520    1.000
    C31      C        0.10635    0.71074    0.96053    1.000
    H12      H        0.08380    0.71150    0.92540    1.000
    C32      C        0.16747    0.71456    0.95773    1.000
    O13      O        0.17627    0.69599    0.17002    1.000
    O14      O        0.16296    0.70853    0.85241    1.000
    O15      O        0.24970    0.73706    0.89465    1.000
    O16      O        0.26171    0.71925    0.12158    1.000
    N4       N        0.01357    0.70389    0.02299    1.000
    Co5      Co       0.80823    0.32314    0.26014    1.000
    C33      C        0.98983    0.20060    0.28532    1.000
    H13      H        0.99180    0.24210    0.28140    1.000
    C34      C        0.93444    0.17299    0.29098    1.000
    C35      C        0.10443    0.19663    0.27921    1.000
    C36      C        0.87599    0.20690    0.29216    1.000
    C37      C        0.98446    0.07784    0.29420    1.000
    C38      C        0.93164    0.11104    0.29521    1.000
    H14      H        0.89480    0.09180    0.29870    1.000
    C39      C        0.03947    0.10635    0.28926    1.000
    H15      H        0.07460    0.08380    0.28850    1.000
    C40      C        0.04227    0.16747    0.28544    1.000
    O17      O        0.82998    0.17627    0.30401    1.000
    O18      O        0.14759    0.16296    0.29147    1.000
    O19      O        0.10535    0.24970    0.26294    1.000
    O20      O        0.87842    0.26171    0.28075    1.000
    N5       N        0.97701    0.01357    0.29611    1.000
    Co6      Co       0.80823    0.67686    0.73986    1.000
    C41      C        0.98983    0.79940    0.71468    1.000
    H16      H        0.99180    0.75790    0.71860    1.000
    C42      C        0.93444    0.82701    0.70902    1.000
    C43      C        0.10443    0.80337    0.72079    1.000
    C44      C        0.87599    0.79310    0.70784    1.000
    C45      C        0.98446    0.92216    0.70580    1.000
    C46      C        0.93164    0.88896    0.70479    1.000
    H17      H        0.89480    0.90820    0.70130    1.000
    C47      C        0.03947    0.89365    0.71074    1.000
    H18      H        0.07460    0.91620    0.71150    1.000
    C48      C        0.04227    0.83253    0.71456    1.000
    O21      O        0.82998    0.82373    0.69599    1.000
    O22      O        0.14759    0.83704    0.70853    1.000
    O23      O        0.10535    0.75030    0.73706    1.000
    O24      O        0.87842    0.73829    0.71925    1.000
    N6       N        0.97701    0.98643    0.70389    1.000
    Co7      Co       0.19177    0.67686    0.26014    1.000
    C49      C        0.01017    0.79940    0.28532    1.000
    H19      H        0.00820    0.75790    0.28140    1.000
    C50      C        0.06556    0.82701    0.29098    1.000
    C51      C        0.89557    0.80337    0.27921    1.000
    C52      C        0.12401    0.79310    0.29216    1.000
    C53      C        0.01554    0.92216    0.29420    1.000
    C54      C        0.06836    0.88896    0.29521    1.000
    H20      H        0.10520    0.90820    0.29870    1.000
    C55      C        0.96053    0.89365    0.28926    1.000
    H21      H        0.92540    0.91620    0.28850    1.000
    C56      C        0.95773    0.83253    0.28544    1.000
    O25      O        0.17002    0.82373    0.30401    1.000
    O26      O        0.85241    0.83704    0.29147    1.000
    O27      O        0.89465    0.75030    0.26294    1.000
    O28      O        0.12158    0.73829    0.28075    1.000
    N7       N        0.02299    0.98643    0.29611    1.000
    Co8      Co       0.19177    0.32314    0.73986    1.000
    C57      C        0.01017    0.20060    0.71468    1.000
    H22      H        0.00820    0.24210    0.71860    1.000
    C58      C        0.06556    0.17299    0.70902    1.000
    C59      C        0.89557    0.19663    0.72079    1.000
    C60      C        0.12401    0.20690    0.70784    1.000
    C61      C        0.01554    0.07784    0.70580    1.000
    C62      C        0.06836    0.11104    0.70479    1.000
    H23      H        0.10520    0.09180    0.70130    1.000
    C63      C        0.96053    0.10635    0.71074    1.000
    H24      H        0.92540    0.08380    0.71150    1.000
    C64      C        0.95773    0.16747    0.71456    1.000
    O29      O        0.17002    0.17627    0.69599    1.000
    O30      O        0.85241    0.16296    0.70853    1.000
    O31      O        0.89465    0.24970    0.73706    1.000
    O32      O        0.12158    0.26171    0.71925    1.000
    N8       N        0.02299    0.01357    0.70389    1.000
    Co9      Co       0.26014    0.80823    0.32314    1.000
    C65      C        0.28532    0.98983    0.20060    1.000
    H25      H        0.28140    0.99180    0.24210    1.000
    C66      C        0.29098    0.93444    0.17299    1.000
    C67      C        0.27921    0.10443    0.19663    1.000
    C68      C        0.29216    0.87599    0.20690    1.000
    C69      C        0.29420    0.98446    0.07784    1.000
    C70      C        0.29521    0.93164    0.11104    1.000
    H26      H        0.29870    0.89480    0.09180    1.000
    C71      C        0.28926    0.03947    0.10635    1.000
    H27      H        0.28850    0.07460    0.08380    1.000
    C72      C        0.28544    0.04227    0.16747    1.000
    O33      O        0.30401    0.82998    0.17627    1.000
    O34      O        0.29147    0.14759    0.16296    1.000
    O35      O        0.26294    0.10535    0.24970    1.000
    O36      O        0.28075    0.87842    0.26171    1.000
    N9       N        0.29611    0.97701    0.01357    1.000
    Co10     Co       0.73986    0.80823    0.67686    1.000
    C73      C        0.71468    0.98983    0.79940    1.000
    H28      H        0.71860    0.99180    0.75790    1.000
    C74      C        0.70902    0.93444    0.82701    1.000
    C75      C        0.72079    0.10443    0.80337    1.000
    C76      C        0.70784    0.87599    0.79310    1.000
    C77      C        0.70580    0.98446    0.92216    1.000
    C78      C        0.70479    0.93164    0.88896    1.000
    H29      H        0.70130    0.89480    0.90820    1.000
    C79      C        0.71074    0.03947    0.89365    1.000
    H30      H        0.71150    0.07460    0.91620    1.000
    C80      C        0.71456    0.04227    0.83253    1.000
    O37      O        0.69599    0.82998    0.82373    1.000
    O38      O        0.70853    0.14759    0.83704    1.000
    O39      O        0.73706    0.10535    0.75030    1.000
    O40      O        0.71925    0.87842    0.73829    1.000
    N10      N        0.70389    0.97701    0.98643    1.000
    Co11     Co       0.26014    0.19177    0.67686    1.000
    C81      C        0.28532    0.01017    0.79940    1.000
    H31      H        0.28140    0.00820    0.75790    1.000
    C82      C        0.29098    0.06556    0.82701    1.000
    C83      C        0.27921    0.89557    0.80337    1.000
    C84      C        0.29216    0.12401    0.79310    1.000
    C85      C        0.29420    0.01554    0.92216    1.000
    C86      C        0.29521    0.06836    0.88896    1.000
    H32      H        0.29870    0.10520    0.90820    1.000
    C87      C        0.28926    0.96053    0.89365    1.000
    H33      H        0.28850    0.92540    0.91620    1.000
    C88      C        0.28544    0.95773    0.83253    1.000
    O41      O        0.30401    0.17002    0.82373    1.000
    O42      O        0.29147    0.85241    0.83704    1.000
    O43      O        0.26294    0.89465    0.75030    1.000
    O44      O        0.28075    0.12158    0.73829    1.000
    N11      N        0.29611    0.02299    0.98643    1.000
    Co12     Co       0.73986    0.19177    0.32314    1.000
    C89      C        0.71468    0.01017    0.20060    1.000
    H34      H        0.71860    0.00820    0.24210    1.000
    C90      C        0.70902    0.06556    0.17299    1.000
    C91      C        0.72079    0.89557    0.19663    1.000
    C92      C        0.70784    0.12401    0.20690    1.000
    C93      C        0.70580    0.01554    0.07784    1.000
    C94      C        0.70479    0.06836    0.11104    1.000
    H35      H        0.70130    0.10520    0.09180    1.000
    C95      C        0.71074    0.96053    0.10635    1.000
    H36      H        0.71150    0.92540    0.08380    1.000
    C96      C        0.71456    0.95773    0.16747    1.000
    O45      O        0.69599    0.17002    0.17627    1.000
    O46      O        0.70853    0.85241    0.16296    1.000
    O47      O        0.73706    0.89465    0.24970    1.000
    O48      O        0.71925    0.12158    0.26171    1.000
    N12      N        0.70389    0.02299    0.01357    1.000
    Co13     Co       0.76014    0.82314    0.30823    1.000
    C97      C        0.78532    0.70060    0.48983    1.000
    H37      H        0.78140    0.74210    0.49180    1.000
    C98      C        0.79098    0.67299    0.43444    1.000
    C99      C        0.77921    0.69663    0.60443    1.000
    C100     C        0.79216    0.70690    0.37599    1.000
    C101     C        0.79420    0.57784    0.48446    1.000
    C102     C        0.79521    0.61104    0.43164    1.000
    H38      H        0.79870    0.59180    0.39480    1.000
    C103     C        0.78926    0.60635    0.53947    1.000
    H39      H        0.78850    0.58380    0.57460    1.000
    C104     C        0.78544    0.66747    0.54227    1.000
    O49      O        0.80401    0.67627    0.32998    1.000
    O50      O        0.79147    0.66296    0.64759    1.000
    O51      O        0.76294    0.74970    0.60535    1.000
    O52      O        0.78075    0.76171    0.37842    1.000
    N13      N        0.79611    0.51357    0.47701    1.000
    Co14     Co       0.23986    0.17686    0.30823    1.000
    C105     C        0.21468    0.29940    0.48983    1.000
    H40      H        0.21860    0.25790    0.49180    1.000
    C106     C        0.20902    0.32701    0.43444    1.000
    C107     C        0.22079    0.30337    0.60443    1.000
    C108     C        0.20784    0.29310    0.37599    1.000
    C109     C        0.20580    0.42216    0.48446    1.000
    C110     C        0.20479    0.38896    0.43164    1.000
    H41      H        0.20130    0.40820    0.39480    1.000
    C111     C        0.21074    0.39365    0.53947    1.000
    H42      H        0.21150    0.41620    0.57460    1.000
    C112     C        0.21456    0.33253    0.54227    1.000
    O53      O        0.19599    0.32373    0.32998    1.000
    O54      O        0.20853    0.33704    0.64759    1.000
    O55      O        0.23706    0.25030    0.60535    1.000
    O56      O        0.21925    0.23829    0.37842    1.000
    N14      N        0.20389    0.48643    0.47701    1.000
    Co15     Co       0.76014    0.17686    0.69177    1.000
    C113     C        0.78532    0.29940    0.51017    1.000
    H43      H        0.78140    0.25790    0.50820    1.000
    C114     C        0.79098    0.32701    0.56556    1.000
    C115     C        0.77921    0.30337    0.39557    1.000
    C116     C        0.79216    0.29310    0.62401    1.000
    C117     C        0.79420    0.42216    0.51554    1.000
    C118     C        0.79521    0.38896    0.56836    1.000
    H44      H        0.79870    0.40820    0.60520    1.000
    C119     C        0.78926    0.39365    0.46053    1.000
    H45      H        0.78850    0.41620    0.42540    1.000
    C120     C        0.78544    0.33253    0.45773    1.000
    O57      O        0.80401    0.32373    0.67002    1.000
    O58      O        0.79147    0.33704    0.35241    1.000
    O59      O        0.76294    0.25030    0.39465    1.000
    O60      O        0.78075    0.23829    0.62158    1.000
    N15      N        0.79611    0.48643    0.52299    1.000
    Co16     Co       0.23986    0.82314    0.69177    1.000
    C121     C        0.21468    0.70060    0.51017    1.000
    H46      H        0.21860    0.74210    0.50820    1.000
    C122     C        0.20902    0.67299    0.56556    1.000
    C123     C        0.22079    0.69663    0.39557    1.000
    C124     C        0.20784    0.70690    0.62401    1.000
    C125     C        0.20580    0.57784    0.51554    1.000
    C126     C        0.20479    0.61104    0.56836    1.000
    H47      H        0.20130    0.59180    0.60520    1.000
    C127     C        0.21074    0.60635    0.46053    1.000
    H48      H        0.21150    0.58380    0.42540    1.000
    C128     C        0.21456    0.66747    0.45773    1.000
    O61      O        0.19599    0.67627    0.67002    1.000
    O62      O        0.20853    0.66296    0.35241    1.000
    O63      O        0.23706    0.74970    0.39465    1.000
    O64      O        0.21925    0.76171    0.62158    1.000
    N16      N        0.20389    0.51357    0.52299    1.000
    Co17     Co       0.82314    0.30823    0.76014    1.000
    C129     C        0.70060    0.48983    0.78532    1.000
    H49      H        0.74210    0.49180    0.78140    1.000
    C130     C        0.67299    0.43444    0.79098    1.000
    C131     C        0.69663    0.60443    0.77921    1.000
    C132     C        0.70690    0.37599    0.79216    1.000
    C133     C        0.57784    0.48446    0.79420    1.000
    C134     C        0.61104    0.43164    0.79521    1.000
    H50      H        0.59180    0.39480    0.79870    1.000
    C135     C        0.60635    0.53947    0.78926    1.000
    H51      H        0.58380    0.57460    0.78850    1.000
    C136     C        0.66747    0.54227    0.78544    1.000
    O65      O        0.67627    0.32998    0.80401    1.000
    O66      O        0.66296    0.64759    0.79147    1.000
    O67      O        0.74970    0.60535    0.76294    1.000
    O68      O        0.76171    0.37842    0.78075    1.000
    N17      N        0.51357    0.47701    0.79611    1.000
    Co18     Co       0.17686    0.30823    0.23986    1.000
    C137     C        0.29940    0.48983    0.21468    1.000
    H52      H        0.25790    0.49180    0.21860    1.000
    C138     C        0.32701    0.43444    0.20902    1.000
    C139     C        0.30337    0.60443    0.22079    1.000
    C140     C        0.29310    0.37599    0.20784    1.000
    C141     C        0.42216    0.48446    0.20580    1.000
    C142     C        0.38896    0.43164    0.20479    1.000
    H53      H        0.40820    0.39480    0.20130    1.000
    C143     C        0.39365    0.53947    0.21074    1.000
    H54      H        0.41620    0.57460    0.21150    1.000
    C144     C        0.33253    0.54227    0.21456    1.000
    O69      O        0.32373    0.32998    0.19599    1.000
    O70      O        0.33704    0.64759    0.20853    1.000
    O71      O        0.25030    0.60535    0.23706    1.000
    O72      O        0.23829    0.37842    0.21925    1.000
    N18      N        0.48643    0.47701    0.20389    1.000
    Co19     Co       0.17686    0.69177    0.76014    1.000
    C145     C        0.29940    0.51017    0.78532    1.000
    H55      H        0.25790    0.50820    0.78140    1.000
    C146     C        0.32701    0.56556    0.79098    1.000
    C147     C        0.30337    0.39557    0.77921    1.000
    C148     C        0.29310    0.62401    0.79216    1.000
    C149     C        0.42216    0.51554    0.79420    1.000
    C150     C        0.38896    0.56836    0.79521    1.000
    H56      H        0.40820    0.60520    0.79870    1.000
    C151     C        0.39365    0.46053    0.78926    1.000
    H57      H        0.41620    0.42540    0.78850    1.000
    C152     C        0.33253    0.45773    0.78544    1.000
    O73      O        0.32373    0.67002    0.80401    1.000
    O74      O        0.33704    0.35241    0.79147    1.000
    O75      O        0.25030    0.39465    0.76294    1.000
    O76      O        0.23829    0.62158    0.78075    1.000
    N19      N        0.48643    0.52299    0.79611    1.000
    Co20     Co       0.82314    0.69177    0.23986    1.000
    C153     C        0.70060    0.51017    0.21468    1.000
    H58      H        0.74210    0.50820    0.21860    1.000
    C154     C        0.67299    0.56556    0.20902    1.000
    C155     C        0.69663    0.39557    0.22079    1.000
    C156     C        0.70690    0.62401    0.20784    1.000
    C157     C        0.57784    0.51554    0.20580    1.000
    C158     C        0.61104    0.56836    0.20479    1.000
    H59      H        0.59180    0.60520    0.20130    1.000
    C159     C        0.60635    0.46053    0.21074    1.000
    H60      H        0.58380    0.42540    0.21150    1.000
    C160     C        0.66747    0.45773    0.21456    1.000
    O77      O        0.67627    0.67002    0.19599    1.000
    O78      O        0.66296    0.35241    0.20853    1.000
    O79      O        0.74970    0.39465    0.23706    1.000
    O80      O        0.76171    0.62158    0.21925    1.000
    N20      N        0.51357    0.52299    0.20389    1.000
    Co21     Co       0.30823    0.76014    0.82314    1.000
    C161     C        0.48983    0.78532    0.70060    1.000
    H61      H        0.49180    0.78140    0.74210    1.000
    C162     C        0.43444    0.79098    0.67299    1.000
    C163     C        0.60443    0.77921    0.69663    1.000
    C164     C        0.37599    0.79216    0.70690    1.000
    C165     C        0.48446    0.79420    0.57784    1.000
    C166     C        0.43164    0.79521    0.61104    1.000
    H62      H        0.39480    0.79870    0.59180    1.000
    C167     C        0.53947    0.78926    0.60635    1.000
    H63      H        0.57460    0.78850    0.58380    1.000
    C168     C        0.54227    0.78544    0.66747    1.000
    O81      O        0.32998    0.80401    0.67627    1.000
    O82      O        0.64759    0.79147    0.66296    1.000
    O83      O        0.60535    0.76294    0.74970    1.000
    O84      O        0.37842    0.78075    0.76171    1.000
    N21      N        0.47701    0.79611    0.51357    1.000
    Co22     Co       0.30823    0.23986    0.17686    1.000
    C169     C        0.48983    0.21468    0.29940    1.000
    H64      H        0.49180    0.21860    0.25790    1.000
    C170     C        0.43444    0.20902    0.32701    1.000
    C171     C        0.60443    0.22079    0.30337    1.000
    C172     C        0.37599    0.20784    0.29310    1.000
    C173     C        0.48446    0.20580    0.42216    1.000
    C174     C        0.43164    0.20479    0.38896    1.000
    H65      H        0.39480    0.20130    0.40820    1.000
    C175     C        0.53947    0.21074    0.39365    1.000
    H66      H        0.57460    0.21150    0.41620    1.000
    C176     C        0.54227    0.21456    0.33253    1.000
    O85      O        0.32998    0.19599    0.32373    1.000
    O86      O        0.64759    0.20853    0.33704    1.000
    O87      O        0.60535    0.23706    0.25030    1.000
    O88      O        0.37842    0.21925    0.23829    1.000
    N22      N        0.47701    0.20389    0.48643    1.000
    Co23     Co       0.69177    0.76014    0.17686    1.000
    C177     C        0.51017    0.78532    0.29940    1.000
    H67      H        0.50820    0.78140    0.25790    1.000
    C178     C        0.56556    0.79098    0.32701    1.000
    C179     C        0.39557    0.77921    0.30337    1.000
    C180     C        0.62401    0.79216    0.29310    1.000
    C181     C        0.51554    0.79420    0.42216    1.000
    C182     C        0.56836    0.79521    0.38896    1.000
    H68      H        0.60520    0.79870    0.40820    1.000
    C183     C        0.46053    0.78926    0.39365    1.000
    H69      H        0.42540    0.78850    0.41620    1.000
    C184     C        0.45773    0.78544    0.33253    1.000
    O89      O        0.67002    0.80401    0.32373    1.000
    O90      O        0.35241    0.79147    0.33704    1.000
    O91      O        0.39465    0.76294    0.25030    1.000
    O92      O        0.62158    0.78075    0.23829    1.000
    N23      N        0.52299    0.79611    0.48643    1.000
    Co24     Co       0.69177    0.23986    0.82314    1.000
    C185     C        0.51017    0.21468    0.70060    1.000
    H70      H        0.50820    0.21860    0.74210    1.000
    C186     C        0.56556    0.20902    0.67299    1.000
    C187     C        0.39557    0.22079    0.69663    1.000
    C188     C        0.62401    0.20784    0.70690    1.000
    C189     C        0.51554    0.20580    0.57784    1.000
    C190     C        0.56836    0.20479    0.61104    1.000
    H71      H        0.60520    0.20130    0.59180    1.000
    C191     C        0.46053    0.21074    0.60635    1.000
    H72      H        0.42540    0.21150    0.58380    1.000
    C192     C        0.45773    0.21456    0.66747    1.000
    O93      O        0.67002    0.19599    0.67627    1.000
    O94      O        0.35241    0.20853    0.66296    1.000
    O95      O        0.39465    0.23706    0.74970    1.000
    O96      O        0.62158    0.21925    0.76171    1.000
    N24      N        0.52299    0.20389    0.51357    1.000
    O97      O        0.26355    0.26355    0.73645    1.000
    O98      O        0.73645    0.73645    0.73645    1.000
    O99      O        0.73645    0.26355    0.26355    1.000
    O100     O        0.26355    0.73645    0.26355    1.000
    O101     O        0.76355    0.76355    0.23645    1.000
    O102     O        0.23645    0.23645    0.23645    1.000
    O103     O        0.76355    0.23645    0.76355    1.000
    O104     O        0.23645    0.76355    0.76355    1.000
