data_functionalizedCrystal
_audit_creation_method	'EQeq! by Chris Wilmer'
_symmetry_space_group_name_H-M	'P1'
_symmetry_Int_Tables_number	1
_symmetry_cell_setting	triclinic
loop_
_symmetry_equiv_pos_as_xyz
  x,y,z
_cell_length_a	21.441
_cell_length_b	23.212
_cell_length_c	24.646
_cell_angle_alpha	68.1
_cell_angle_beta	67.49
_cell_angle_gamma	79.99
loop_
_atom_site_label
_atom_site_type_symbol
_atom_site_fract_x
_atom_site_fract_y
_atom_site_fract_z
_atom_site_charge
Mof_Zn	Zn	0.74203	0.1892	0.22661	1.217
Mof_Zn	Zn	0.09323	0.80013	0.80771	1.221
Mof_Zn	Zn	0.75922	0.30872	0.09234	1.218
Mof_Zn	Zn	0.83055	0.08328	0.27453	1.213
Mof_Zn	Zn	0.19742	0.7956	0.67778	1.206
Mof_Zn	Zn	0.31898	0.67422	0.76368	1.231
Mof_S 	S 	0.59393	0.85877	0.49061	0.325
Mof_O 	O 	0.39078	0.7179	0.68321	-0.433
Mof_O 	O 	0.2973	0.77667	0.6808	-0.578
Mof_C 	C 	0.3604	0.7659	0.6575	0.375
Mof_C 	C 	0.4	0.8136	0.5983	-0.131
Mof_C 	C 	0.3678	0.8659	0.5688	0.056
Mof_H 	H 	0.3209	0.8693	0.583	0.014
Mof_C 	C 	0.4681	0.8072	0.5772	0.052
Mof_H 	H 	0.49	0.7715	0.596	0.049
Mof_C 	C 	0.4045	0.9125	0.5189	-0.113
Mof_H 	H 	0.382	0.9475	0.5	0.082
Mof_C 	C 	0.5049	0.8557	0.5261	-0.074
Mof_C 	C 	0.4738	0.9088	0.496	0.049
Mof_C 	C 	0.5213	0.954	0.4456	0.042
Mof_C 	C 	0.5083	0.0128	0.4092	-0.103
Mof_H 	H 	0.464	0.0276	0.414	0.082
Mof_C 	C 	0.5883	0.9336	0.4384	-0.071
Mof_C 	C 	0.5608	0.049	0.3659	0.043
Mof_H 	H 	0.5516	0.0885	0.341	0.044
Mof_C 	C 	0.6417	0.9685	0.394	0.034
Mof_H 	H 	0.6858	0.9526	0.388	0.051
Mof_C 	C 	0.6282	0.0287	0.3578	-0.103
Mof_C 	C 	0.6865	0.0701	0.3105	0.389
Mof_O 	O 	0.745	0.04483	0.30214	-0.482
Mof_O 	O 	0.67204	0.1258	0.28566	-0.46
Mof_O 	O 	0.6238	0.86	0.5324	-0.21
Mof_O 	O 	0.6215	0.8146	0.4571	-0.194
Mof_S 	S 	0.97677	0.89301	0.50705	0.326
Mof_O 	O 	0.787	0.1106	0.39218	-0.454
Mof_O 	O 	0.8607	0.0455	0.3468	-0.452
Mof_C 	C 	0.8293	0.066	0.3921	0.352
Mof_C 	C 	0.8503	0.0311	0.4486	-0.093
Mof_C 	C 	0.899	0.9837	0.4466	0.032
Mof_H 	H 	0.9184	0.9713	0.4117	0.056
Mof_C 	C 	0.8222	0.0489	0.5001	0.034
Mof_H 	H 	0.7894	0.081	0.5001	0.034
Mof_C 	C 	0.8407	0.021	0.5523	-0.086
Mof_H 	H 	0.8213	0.0342	0.5867	0.079
Mof_C 	C 	0.9174	0.9561	0.4974	-0.063
Mof_C 	C 	0.8897	0.9722	0.5518	0.043
Mof_C 	C 	0.9223	0.9373	0.5984	0.05
Mof_C 	C 	0.9094	0.9431	0.6544	-0.087
Mof_H 	H 	0.8754	0.9702	0.6689	0.078
Mof_C 	C 	0.9732	0.896	0.5785	-0.071
Mof_C 	C 	0.0016	0.8668	0.6667	-0.085
Mof_C 	C 	0.0471	0.8343	0.7074	0.369
Mof_C 	C 	0.0146	0.8618	0.6112	0.037
Mof_H 	H 	0.05	0.8364	0.5953	0.046
Mof_C 	C 	0.9499	0.9059	0.6906	0.02
Mof_H 	H 	0.9419	0.9079	0.7297	0.048
Mof_O 	O 	0.0987	0.81013	0.6771	-0.464
Mof_O 	O 	0.0291	0.8322	0.7628	-0.472
Mof_O 	O 	0.0416	0.9116	0.4599	-0.214
Mof_O 	O 	0.9499	0.8366	0.5163	-0.201
Mof_S 	S 	0.54301	0.45108	0.91277	0.336
Mof_O 	O 	0.2675	0.60165	0.89305	-0.449
Mof_O 	O 	0.36328	0.60285	0.8127	-0.423
Mof_C 	C 	0.3256	0.5828	0.8709	0.36
Mof_C 	C 	0.36	0.5345	0.9124	-0.102
Mof_C 	C 	0.4294	0.5199	0.8899	0.039
Mof_H 	H 	0.4556	0.5388	0.8484	0.053
Mof_C 	C 	0.3231	0.5067	0.9743	0.044
Mof_H 	H 	0.2772	0.5169	0.989	0.03
Mof_C 	C 	0.4576	0.4766	0.9312	-0.073
Mof_C 	C 	0.3522	0.4641	0.0151	-0.099
Mof_H 	H 	0.3263	0.446	0.0569	0.082
Mof_C 	C 	0.4204	0.4483	0.9935	0.05
Mof_C 	C 	0.4633	0.4059	0.0274	0.051
Mof_C 	C 	0.4446	0.3697	0.0905	-0.097
Mof_H 	H 	0.3996	0.3686	0.1164	0.085
Mof_C 	C 	0.5295	0.4049	0.9922	-0.073
Mof_C 	C 	0.4937	0.3354	0.114	0.048
Mof_H 	H 	0.4806	0.3098	0.1556	0.041
Mof_C 	C 	0.5799	0.372	0.0166	0.045
Mof_H 	H 	0.6251	0.3735	0.9911	0.043
Mof_C 	C 	0.5605	0.3377	0.0786	-0.111
Mof_C 	C 	0.611	0.3065	0.1076	0.348
Mof_O 	O 	0.673	0.31684	0.07222	-0.417
Mof_O 	O 	0.5947	0.27154	0.1633	-0.261
Mof_O 	O 	0.5878	0.5007	0.8906	-0.216
Mof_O 	O 	0.5598	0.4128	0.8758	-0.204
Mof_S 	S 	0.87681	0.57211	0.07417	0.324
Mof_O 	O 	0.7514	0.3624	0.24205	-0.495
Mof_O 	O 	0.83488	0.2919	0.25653	-0.505
Mof_C 	C 	0.8126	0.3457	0.2336	0.424
Mof_C 	C 	0.8633	0.3926	0.1929	-0.143
Mof_C 	C 	0.842	0.4516	0.162	0.054
Mof_H 	H 	0.7963	0.4618	0.169	0.044
Mof_C 	C 	0.9337	0.3797	0.1818	0.063
Mof_H 	H 	0.9481	0.3409	0.2036	0.027
Mof_C 	C 	0.9815	0.4236	0.1391	-0.112
Mof_H 	H 	0.0273	0.4141	0.1321	0.083
Mof_C 	C 	0.8914	0.4957	0.12	-0.075
Mof_C 	C 	0.9604	0.4809	0.1077	0.053
Mof_C 	C 	0.0029	0.5296	0.0546	0.043
Mof_C 	C 	0.0728	0.5312	0.0259	-0.111
Mof_H 	H 	0.0998	0.4974	0.0401	0.086
Mof_C 	C 	0.964	0.5828	0.0315	-0.075
Mof_C 	C 	0.1018	0.5822	0.977	0.051
Mof_H 	H 	0.1486	0.5826	0.958	0.013
Mof_C 	C 	0.9922	0.633	0.9834	0.051
Mof_H 	H 	0.9654	0.6669	0.9691	0.046
Mof_C 	C 	0.0627	0.6338	0.9548	-0.136
Mof_C 	C 	0.0968	0.6882	0.8998	0.395
Mof_O 	O 	0.05483	0.7265	0.87542	-0.453
Mof_O 	O 	0.1576	0.69702	0.88098	-0.527
Mof_O 	O 	0.84131	0.57355	0.0345	-0.213
Mof_O 	O 	0.8499	0.6114	0.1123	-0.197
Mof_S 	S 	0.95201	0.1175	0.89981	0.328
Mof_O 	O 	0.1015	0.95032	0.7881	-0.466
Mof_O 	O 	0.0638	0.8573	0.85702	-0.473
Mof_C 	C 	0.0643	0.9164	0.8412	0.389
Mof_C 	C 	0.0211	0.9472	0.8844	-0.134
Mof_C 	C 	0.9839	0.9126	0.9476	0.074
Mof_H 	H 	0.988	0.8695	0.9602	0.032
Mof_C 	C 	0.0128	0.0109	0.8673	0.056
Mof_H 	H 	0.0356	0.0358	0.8267	0.045
Mof_C 	C 	0.9448	0.9378	0.9885	-0.13
Mof_H 	H 	0.9229	0.9128	0.0293	0.098
Mof_C 	C 	0.971	0.0373	0.91	-0.078
Mof_C 	C 	0.9354	0.002	0.9717	0.054
Mof_C 	C 	0.8951	0.0382	0.0115	0.047
Mof_C 	C 	0.854	0.0202	0.0744	-0.113
Mof_H 	H 	0.847	0.9783	0.0973	0.085
Mof_C 	C 	0.8985	0.1045	0.9782	-0.083
Mof_C 	C 	0.8677	0.1458	0.0064	0.072
Mof_H 	H 	0.8717	0.1881	0.9838	0.034
Mof_C 	C 	0.8245	0.0631	0.1022	0.067
Mof_H 	H 	0.7999	0.05	0.1448	0.029
Mof_C 	C 	0.8298	0.1263	0.0691	-0.143
Mof_C 	C 	0.7971	0.1684	0.1041	0.392
Mof_O 	O 	0.7721	0.148	0.1634	-0.498
Mof_O 	O 	0.797	0.2274	0.0719	-0.444
Mof_O 	O 	0.0109	0.1484	0.8875	-0.212
Mof_O 	O 	0.9143	0.1438	0.8581	-0.199
Mof_O 	O 	0.81952	0.17319	0.25085	-0.918
Mof_O 	O 	0.70355	0.26915	0.18865	-0.659
Mof_Zn	Zn	0.25797	0.8108	0.77339	1.217
Mof_Zn	Zn	0.90677	0.19987	0.19229	1.221
Mof_Zn	Zn	0.24078	0.69128	0.90766	1.218
Mof_Zn	Zn	0.16945	0.91672	0.72547	1.213
Mof_Zn	Zn	0.80258	0.2044	0.32222	1.206
Mof_Zn	Zn	0.68102	0.32578	0.23632	1.231
Mof_S 	S 	0.40607	0.14123	0.50939	0.325
Mof_O 	O 	0.60922	0.2821	0.31679	-0.433
Mof_O 	O 	0.7027	0.22333	0.3192	-0.578
Mof_C 	C 	0.6396	0.2341	0.3425	0.375
Mof_C 	C 	0.6	0.1864	0.4017	-0.131
Mof_C 	C 	0.6322	0.1341	0.4312	0.056
Mof_H 	H 	0.6791	0.1307	0.417	0.014
Mof_C 	C 	0.5319	0.1928	0.4228	0.052
Mof_H 	H 	0.51	0.2285	0.404	0.049
Mof_C 	C 	0.5955	0.0875	0.4811	-0.113
Mof_H 	H 	0.618	0.0525	0.5	0.082
Mof_C 	C 	0.4951	0.1443	0.4739	-0.074
Mof_C 	C 	0.5262	0.0912	0.504	0.049
Mof_C 	C 	0.4787	0.046	0.5544	0.042
Mof_C 	C 	0.4917	0.9872	0.5908	-0.103
Mof_H 	H 	0.536	0.9724	0.586	0.082
Mof_C 	C 	0.4117	0.0664	0.5616	-0.071
Mof_C 	C 	0.4392	0.951	0.6341	0.043
Mof_H 	H 	0.4484	0.9115	0.659	0.044
Mof_C 	C 	0.3583	0.0315	0.606	0.034
Mof_H 	H 	0.3142	0.0474	0.612	0.051
Mof_C 	C 	0.3718	0.9713	0.6422	-0.103
Mof_C 	C 	0.3135	0.9299	0.6895	0.389
Mof_O 	O 	0.255	0.95517	0.69786	-0.482
Mof_O 	O 	0.32796	0.8742	0.71434	-0.46
Mof_O 	O 	0.3762	0.14	0.4676	-0.21
Mof_O 	O 	0.3785	0.1854	0.5429	-0.194
Mof_S 	S 	0.02323	0.10699	0.49295	0.326
Mof_O 	O 	0.213	0.8894	0.60782	-0.454
Mof_O 	O 	0.1393	0.9545	0.6532	-0.452
Mof_C 	C 	0.1707	0.934	0.6079	0.352
Mof_C 	C 	0.1497	0.9689	0.5514	-0.093
Mof_C 	C 	0.101	0.0163	0.5534	0.032
Mof_H 	H 	0.0816	0.0287	0.5883	0.056
Mof_C 	C 	0.1778	0.9511	0.4999	0.034
Mof_H 	H 	0.2106	0.919	0.4999	0.034
Mof_C 	C 	0.1593	0.979	0.4477	-0.086
Mof_H 	H 	0.1787	0.9658	0.4133	0.079
Mof_C 	C 	0.0826	0.0439	0.5026	-0.063
Mof_C 	C 	0.1103	0.0278	0.4482	0.043
Mof_C 	C 	0.0777	0.0627	0.4016	0.05
Mof_C 	C 	0.0906	0.0569	0.3456	-0.087
Mof_H 	H 	0.1246	0.0298	0.3311	0.078
Mof_C 	C 	0.0268	0.104	0.4215	-0.071
Mof_C 	C 	0.9984	0.1332	0.3333	-0.085
Mof_C 	C 	0.9529	0.1657	0.2926	0.369
Mof_C 	C 	0.9854	0.1382	0.3888	0.037
Mof_H 	H 	0.95	0.1636	0.4047	0.046
Mof_C 	C 	0.0501	0.0941	0.3094	0.02
Mof_H 	H 	0.0581	0.0921	0.2703	0.048
Mof_O 	O 	0.9013	0.18987	0.3229	-0.464
Mof_O 	O 	0.9709	0.1678	0.2372	-0.472
Mof_O 	O 	0.9584	0.0884	0.5401	-0.214
Mof_O 	O 	0.0501	0.1634	0.4837	-0.201
Mof_S 	S 	0.45699	0.54892	0.08723	0.336
Mof_O 	O 	0.7325	0.39835	0.10695	-0.449
Mof_O 	O 	0.63672	0.39715	0.1873	-0.423
Mof_C 	C 	0.6744	0.4172	0.1291	0.36
Mof_C 	C 	0.64	0.4655	0.0876	-0.102
Mof_C 	C 	0.5706	0.4801	0.1101	0.039
Mof_H 	H 	0.5444	0.4612	0.1516	0.053
Mof_C 	C 	0.6769	0.4933	0.0257	0.044
Mof_H 	H 	0.7228	0.4831	0.011	0.03
Mof_C 	C 	0.5424	0.5234	0.0688	-0.073
Mof_C 	C 	0.6478	0.5359	0.9849	-0.099
Mof_H 	H 	0.6737	0.554	0.9431	0.082
Mof_C 	C 	0.5796	0.5517	0.0065	0.05
Mof_C 	C 	0.5367	0.5941	0.9726	0.051
Mof_C 	C 	0.5554	0.6303	0.9095	-0.097
Mof_H 	H 	0.6004	0.6314	0.8836	0.085
Mof_C 	C 	0.4705	0.5951	0.0078	-0.073
Mof_C 	C 	0.5063	0.6646	0.886	0.048
Mof_H 	H 	0.5194	0.6902	0.8444	0.041
Mof_C 	C 	0.4201	0.628	0.9834	0.045
Mof_H 	H 	0.3749	0.6265	0.0089	0.043
Mof_C 	C 	0.4395	0.6623	0.9214	-0.111
Mof_C 	C 	0.389	0.6935	0.8924	0.348
Mof_O 	O 	0.327	0.68316	0.92778	-0.417
Mof_O 	O 	0.4053	0.72846	0.8367	-0.261
Mof_O 	O 	0.4122	0.4993	0.1094	-0.216
Mof_O 	O 	0.4402	0.5872	0.1242	-0.204
Mof_S 	S 	0.12319	0.42789	0.92583	0.324
Mof_O 	O 	0.2486	0.6376	0.75795	-0.495
Mof_O 	O 	0.16512	0.7081	0.74347	-0.505
Mof_C 	C 	0.1874	0.6543	0.7664	0.424
Mof_C 	C 	0.1367	0.6074	0.8071	-0.143
Mof_C 	C 	0.158	0.5484	0.838	0.054
Mof_H 	H 	0.2037	0.5382	0.831	0.044
Mof_C 	C 	0.0663	0.6203	0.8182	0.063
Mof_H 	H 	0.0519	0.6591	0.7964	0.027
Mof_C 	C 	0.0185	0.5764	0.8609	-0.112
Mof_H 	H 	0.9727	0.5859	0.8679	0.083
Mof_C 	C 	0.1086	0.5043	0.88	-0.075
Mof_C 	C 	0.0396	0.5191	0.8923	0.053
Mof_C 	C 	0.9971	0.4704	0.9454	0.043
Mof_C 	C 	0.9272	0.4688	0.9741	-0.111
Mof_H 	H 	0.9002	0.5026	0.9599	0.086
Mof_C 	C 	0.036	0.4172	0.9685	-0.075
Mof_C 	C 	0.8982	0.4178	0.023	0.051
Mof_H 	H 	0.8514	0.4174	0.042	0.013
Mof_C 	C 	0.0078	0.367	0.0166	0.051
Mof_H 	H 	0.0346	0.3331	0.0309	0.046
Mof_C 	C 	0.9373	0.3662	0.0452	-0.136
Mof_C 	C 	0.9032	0.3118	0.1002	0.395
Mof_O 	O 	0.94517	0.2735	0.12458	-0.453
Mof_O 	O 	0.8424	0.30298	0.11902	-0.527
Mof_O 	O 	0.15869	0.42645	0.9655	-0.213
Mof_O 	O 	0.1501	0.3886	0.8877	-0.197
Mof_S 	S 	0.04799	0.8825	0.10019	0.328
Mof_O 	O 	0.8985	0.04968	0.2119	-0.466
Mof_O 	O 	0.9362	0.1427	0.14298	-0.473
Mof_C 	C 	0.9357	0.0836	0.1588	0.389
Mof_C 	C 	0.9789	0.0528	0.1156	-0.134
Mof_C 	C 	0.0161	0.0874	0.0524	0.074
Mof_H 	H 	0.012	0.1305	0.0398	0.032
Mof_C 	C 	0.9872	0.9891	0.1327	0.056
Mof_H 	H 	0.9644	0.9642	0.1733	0.045
Mof_C 	C 	0.0552	0.0622	0.0115	-0.13
Mof_H 	H 	0.0771	0.0872	0.9707	0.098
Mof_C 	C 	0.029	0.9627	0.09	-0.078
Mof_C 	C 	0.0646	0.998	0.0283	0.054
Mof_C 	C 	0.1049	0.9618	0.9885	0.047
Mof_C 	C 	0.146	0.9798	0.9256	-0.113
Mof_H 	H 	0.153	0.0217	0.9027	0.085
Mof_C 	C 	0.1015	0.8955	0.0218	-0.083
Mof_C 	C 	0.1323	0.8542	0.9936	0.072
Mof_H 	H 	0.1283	0.8119	0.0162	0.034
Mof_C 	C 	0.1755	0.9369	0.8978	0.067
Mof_H 	H 	0.2001	0.95	0.8552	0.029
Mof_C 	C 	0.1702	0.8737	0.9309	-0.143
Mof_C 	C 	0.2029	0.8316	0.8959	0.392
Mof_O 	O 	0.2279	0.852	0.8366	-0.498
Mof_O 	O 	0.203	0.7726	0.9281	-0.444
Mof_O 	O 	0.9891	0.8516	0.1125	-0.212
Mof_O 	O 	0.0857	0.8562	0.1419	-0.199
Mof_O 	O 	0.18048	0.82681	0.74915	-0.918
Mof_O 	O 	0.29645	0.73085	0.81135	-0.659
_end
