data_functionalizedCrystal
_audit_creation_method	'EQeq! by Chris Wilmer'
_symmetry_space_group_name_H-M	'P1'
_symmetry_Int_Tables_number	1
_symmetry_cell_setting	triclinic
loop_
_symmetry_equiv_pos_as_xyz
  x,y,z
_cell_length_a	5.754
_cell_length_b	14.1259
_cell_length_c	21.156
_cell_angle_alpha	90
_cell_angle_beta	90.14
_cell_angle_gamma	90
loop_
_atom_site_label
_atom_site_type_symbol
_atom_site_fract_x
_atom_site_fract_y
_atom_site_fract_z
_atom_site_charge
Mof_Nd	Nd	0.74999	0.8902	0.98319	2.499
Mof_Nd	Nd	0.25001	0.3902	0.51681	2.541
Mof_Nd	Nd	0.25001	0.1098	0.01681	2.498
Mof_Nd	Nd	0.74999	0.6098	0.48319	2.54
Mof_P 	P 	0.7501	0.1566	0.9458	0.545
Mof_P 	P 	0.7504	0.4485	0.6125	0.59
Mof_P 	P 	0.2499	0.6566	0.5542	0.547
Mof_P 	P 	0.2496	0.9485	0.8875	0.582
Mof_P 	P 	0.2499	0.8434	0.0542	0.545
Mof_P 	P 	0.2496	0.5515	0.3875	0.59
Mof_P 	P 	0.7501	0.3434	0.4458	0.547
Mof_P 	P 	0.7504	0.0515	0.1125	0.582
Mof_H 	H 	0.9231	0.2034	0.7414	0.045
Mof_H 	H 	0.6775	0.1507	0.7439	0.037
Mof_H 	H 	0.4803	0.2919	0.7248	0.042
Mof_H 	H 	0.6748	0.2798	0.6714	0.043
Mof_H 	H 	0.8535	0.4564	0.8127	0.035
Mof_H 	H 	0.5968	0.4139	0.8188	0.044
Mof_H 	H 	0.8241	0.3277	0.8868	0.059
Mof_H 	H 	0.0224	0.3136	0.8349	0.048
Mof_H 	H 	0.6176	0.1092	0.8509	0.078
Mof_H 	H 	0.8932	0.1113	0.8517	0.078
Mof_H 	H 	0.6135	0.4958	0.7096	0.08
Mof_H 	H 	0.8894	0.4957	0.7096	0.08
Mof_H 	H 	0.0769	0.7034	0.7586	0.045
Mof_H 	H 	0.3225	0.6507	0.7561	0.035
Mof_H 	H 	0.5197	0.7919	0.7752	0.041
Mof_H 	H 	0.3252	0.7798	0.8286	0.043
Mof_H 	H 	0.1465	0.9564	0.6873	0.036
Mof_H 	H 	0.4032	0.9139	0.6812	0.044
Mof_H 	H 	0.1759	0.8277	0.6132	0.058
Mof_H 	H 	0.9776	0.8136	0.6651	0.044
Mof_H 	H 	0.3824	0.6092	0.6491	0.075
Mof_H 	H 	0.1068	0.6113	0.6483	0.075
Mof_H 	H 	0.3865	0.9958	0.7904	0.078
Mof_H 	H 	0.1106	0.9957	0.7904	0.079
Mof_H 	H 	0.0769	0.7966	0.2586	0.045
Mof_H 	H 	0.3225	0.8493	0.2561	0.037
Mof_H 	H 	0.5197	0.7081	0.2752	0.042
Mof_H 	H 	0.3252	0.7202	0.3286	0.043
Mof_H 	H 	0.1465	0.5436	0.1873	0.035
Mof_H 	H 	0.4032	0.5861	0.1812	0.044
Mof_H 	H 	0.1759	0.6723	0.1132	0.059
Mof_H 	H 	0.9776	0.6864	0.1651	0.048
Mof_H 	H 	0.3824	0.8908	0.1491	0.078
Mof_H 	H 	0.1068	0.8887	0.1483	0.078
Mof_H 	H 	0.3865	0.5042	0.2904	0.08
Mof_H 	H 	0.1106	0.5043	0.2904	0.08
Mof_H 	H 	0.9231	0.2966	0.2414	0.045
Mof_H 	H 	0.6775	0.3493	0.2439	0.035
Mof_H 	H 	0.4803	0.2081	0.2248	0.041
Mof_H 	H 	0.6748	0.2202	0.1714	0.043
Mof_H 	H 	0.8535	0.0436	0.3127	0.036
Mof_H 	H 	0.5968	0.0861	0.3188	0.044
Mof_H 	H 	0.8241	0.1723	0.3868	0.058
Mof_H 	H 	0.0224	0.1864	0.3349	0.044
Mof_H 	H 	0.6176	0.3908	0.3509	0.075
Mof_H 	H 	0.8932	0.3887	0.3517	0.075
Mof_H 	H 	0.6135	0.0042	0.2096	0.078
Mof_H 	H 	0.8894	0.0043	0.2096	0.079
Mof_C 	C 	0.759	0.21	0.7545	-0.067
Mof_C 	C 	0.65	0.2907	0.7171	-0.049
Mof_C 	C 	0.756	0.4	0.8041	-0.062
Mof_C 	C 	0.852	0.3165	0.8412	-0.056
Mof_C 	C 	0.753	0.1485	0.8628	-0.202
Mof_C 	C 	0.751	0.4577	0.6979	-0.201
Mof_C 	C 	0.241	0.71	0.7455	-0.066
Mof_C 	C 	0.35	0.7907	0.7829	-0.049
Mof_C 	C 	0.244	0.9	0.6959	-0.063
Mof_C 	C 	0.148	0.8165	0.6588	-0.051
Mof_C 	C 	0.247	0.6485	0.6372	-0.201
Mof_C 	C 	0.249	0.9577	0.8021	-0.199
Mof_C 	C 	0.241	0.79	0.2455	-0.067
Mof_C 	C 	0.35	0.7093	0.2829	-0.049
Mof_C 	C 	0.244	0.6	0.1959	-0.062
Mof_C 	C 	0.148	0.6835	0.1588	-0.056
Mof_C 	C 	0.247	0.8515	0.1372	-0.202
Mof_C 	C 	0.249	0.5423	0.3021	-0.201
Mof_C 	C 	0.759	0.29	0.2545	-0.066
Mof_C 	C 	0.65	0.2093	0.2171	-0.049
Mof_C 	C 	0.756	0.1	0.3041	-0.063
Mof_C 	C 	0.852	0.1835	0.3412	-0.051
Mof_C 	C 	0.753	0.3515	0.3628	-0.201
Mof_C 	C 	0.751	0.0423	0.1979	-0.199
Mof_N 	N 	0.751	0.2241	0.8238	-0.065
Mof_N 	N 	0.752	0.3822	0.7352	-0.065
Mof_N 	N 	0.249	0.7241	0.6762	-0.067
Mof_N 	N 	0.248	0.8822	0.7648	-0.065
Mof_N 	N 	0.249	0.7759	0.1762	-0.065
Mof_N 	N 	0.248	0.6178	0.2648	-0.065
Mof_N 	N 	0.751	0.2759	0.3238	-0.067
Mof_N 	N 	0.752	0.1178	0.2352	-0.065
Mof_O 	O 	0.751	0.0571	0.9705	-0.69
Mof_O 	O 	0.531	0.2075	0.9656	-0.537
Mof_O 	O 	0.967	0.2091	0.9652	-0.531
Mof_O 	O 	0.53	0.3949	0.5972	-0.598
Mof_O 	O 	0.749	0.5473	0.5877	-0.594
Mof_O 	O 	0.969	0.3945	0.597	-0.594
Mof_O 	O 	0.249	0.5571	0.5295	-0.704
Mof_O 	O 	0.469	0.7075	0.5344	-0.545
Mof_O 	O 	0.033	0.7091	0.5348	-0.538
Mof_O 	O 	0.47	0.8949	0.9028	-0.595
Mof_O 	O 	0.251	0.0473	0.9123	-0.583
Mof_O 	O 	0.031	0.8945	0.903	-0.588
Mof_O 	O 	0.249	0.9429	0.0295	-0.69
Mof_O 	O 	0.469	0.7925	0.0344	-0.537
Mof_O 	O 	0.033	0.7909	0.0348	-0.531
Mof_O 	O 	0.47	0.6051	0.4028	-0.598
Mof_O 	O 	0.251	0.4527	0.4123	-0.594
Mof_O 	O 	0.031	0.6055	0.403	-0.594
Mof_O 	O 	0.751	0.4429	0.4705	-0.704
Mof_O 	O 	0.531	0.2925	0.4656	-0.545
Mof_O 	O 	0.967	0.2909	0.4652	-0.538
Mof_O 	O 	0.53	0.1051	0.0972	-0.595
Mof_O 	O 	0.749	0.9527	0.0877	-0.583
Mof_O 	O 	0.969	0.1055	0.097	-0.588
_end
