data_functionalizedCrystal
_audit_creation_method	'EQeq! by Chris Wilmer'
_symmetry_space_group_name_H-M	'P1'
_symmetry_Int_Tables_number	1
_symmetry_cell_setting	triclinic
loop_
_symmetry_equiv_pos_as_xyz
  x,y,z
_cell_length_a	10.393
_cell_length_b	23.046
_cell_length_c	28.526
_cell_angle_alpha	90
_cell_angle_beta	95.381
_cell_angle_gamma	90
loop_
_atom_site_label
_atom_site_type_symbol
_atom_site_fract_x
_atom_site_fract_y
_atom_site_fract_z
_atom_site_charge
Mof_Cd	Cd	0.52161	0.2025	0.02223	0.508
Mof_C 	C 	0.7086	0.2162	0.0938	0.686
Mof_C 	C 	0.8174	0.2305	0.1311	-0.146
Mof_C 	C 	0.8046	0.2201	0.1774	0.046
Mof_H 	H 	0.7358	0.1975	0.1853	0.047
Mof_C 	C 	0.9302	0.2553	0.1199	-0.018
Mof_C 	C 	0.9562	0.272	0.0686	0.504
Mof_C 	C 	0.4467	0.0679	0.048	0.085
Mof_C 	C 	0.5486	0.0561	0.0839	-0.117
Mof_H 	H 	0.6068	0.0852	0.0938	0.095
Mof_C 	C 	0.5602	0.0054	0.1028	0.021
Mof_H 	H 	0.6237	0.9993	0.1275	0.029
Mof_C 	C 	0.4801	0.9592	0.0872	-0.05
Mof_H 	H 	0.4927	0.9226	0.1004	0.071
Mof_C 	C 	0.3756	0.9692	0.0497	-0.064
Mof_H 	H 	0.3193	0.9399	0.0385	0.077
Mof_C 	C 	0.3669	0.0248	0.0322	0.048
Mof_C 	C 	0.3086	0.101	0.9926	0.127
Mof_C 	C 	0.2375	0.1432	0.9596	-0.044
Mof_C 	C 	0.2304	0.1324	0.9116	0.013
Mof_H 	H 	0.2657	0.099	0.8998	0.033
Mof_C 	C 	0.1684	0.1734	0.8819	-0.094
Mof_H 	H 	0.1649	0.1688	0.8494	0.078
Mof_C 	C 	0.1121	0.2208	0.9008	0.063
Mof_H 	H 	0.0701	0.2479	0.8807	0.056
Mof_C 	C 	0.1771	0.1902	0.9765	0.045
Mof_H 	H 	0.1786	0.1951	0.0089	0.045
Mof_C 	C 	0.166	0.0113	0.9763	-0.052
Mof_H 	H 	0.1918	0.9713	0.9726	0.059
Mof_H 	H 	0.1349	0.0265	0.9456	0.055
Mof_C 	C 	0.0585	0.0152	0.0105	-0.105
Mof_H 	H 	0.0882	0.9976	0.0404	0.072
Mof_H 	H 	0.0382	0.0556	0.0161	0.077
Mof_N 	N 	0.4117	0.1169	0.0234	-0.154
Mof_N 	N 	0.2796	0.0469	0.9975	-0.132
Mof_N 	N 	0.116	0.2293	0.9482	-0.126
Mof_C 	C 	0.1301	0.2446	0.2354	0.122
Mof_O 	O 	0.2465	0.2376	0.2251	-0.183
Mof_O 	O 	0.7056	0.2375	0.0556	-0.269
Mof_O 	O 	0.6176	0.1889	0.1036	-0.163
Mof_C 	C 	0.8915	0.2422	0.2135	-0.054
Mof_C 	C 	0.012	0.2589	0.2011	0.035
Mof_C 	C 	0.0172	0.2733	0.1546	-0.034
Mof_H 	H 	0.0848	0.2968	0.1468	0.041
Mof_O 	O 	0.904	0.3155	0.0527	-0.197
Mof_O 	O 	0.0462	0.2497	0.0506	-0.112
Mof_O 	O 	0.742	0.1835	0.0567	-0.212
Mof_O 	O 	0.621	0.2276	0.1014	-0.355
Mof_C 	C 	0.917	0.1956	0.2086	0.03
Mof_C 	C 	0.022	0.222	0.2012	-0.042
Mof_C 	C 	0.054	0.2534	0.1546	-0.011
Mof_H 	H 	0.1346	0.2681	0.1488	0.041
Mof_O 	O 	0.001	0.32	0.0619	-0.209
Mof_O 	O 	0.9767	0.2363	0.0453	-0.257
Mof_Cd	Cd	0.02161	0.7025	0.02223	0.507
Mof_C 	C 	0.2086	0.7162	0.0938	0.685
Mof_C 	C 	0.3174	0.7305	0.1311	-0.147
Mof_C 	C 	0.3046	0.7201	0.1774	0.045
Mof_H 	H 	0.2358	0.6975	0.1853	0.046
Mof_C 	C 	0.4302	0.7553	0.1199	-0.019
Mof_C 	C 	0.4562	0.772	0.0686	0.503
Mof_C 	C 	0.9467	0.5679	0.048	0.084
Mof_C 	C 	0.0486	0.5561	0.0839	-0.118
Mof_H 	H 	0.1068	0.5852	0.0938	0.094
Mof_C 	C 	0.0602	0.5054	0.1028	0.021
Mof_H 	H 	0.1237	0.4993	0.1275	0.029
Mof_C 	C 	0.9801	0.4592	0.0872	-0.05
Mof_H 	H 	0.9927	0.4226	0.1004	0.071
Mof_C 	C 	0.8756	0.4692	0.0497	-0.064
Mof_H 	H 	0.8193	0.4399	0.0385	0.077
Mof_C 	C 	0.8669	0.5248	0.0322	0.048
Mof_C 	C 	0.8086	0.601	0.9926	0.127
Mof_C 	C 	0.7375	0.6432	0.9596	-0.044
Mof_C 	C 	0.7304	0.6324	0.9116	0.013
Mof_H 	H 	0.7657	0.599	0.8998	0.033
Mof_C 	C 	0.6684	0.6734	0.8819	-0.094
Mof_H 	H 	0.6649	0.6688	0.8494	0.078
Mof_C 	C 	0.6121	0.7208	0.9008	0.063
Mof_H 	H 	0.5701	0.7479	0.8807	0.056
Mof_C 	C 	0.6771	0.6902	0.9765	0.045
Mof_H 	H 	0.6786	0.6951	0.0089	0.045
Mof_C 	C 	0.666	0.5113	0.9763	-0.052
Mof_H 	H 	0.6918	0.4713	0.9726	0.059
Mof_H 	H 	0.6349	0.5265	0.9456	0.055
Mof_C 	C 	0.5585	0.5152	0.0105	-0.105
Mof_H 	H 	0.5882	0.4976	0.0404	0.072
Mof_H 	H 	0.5382	0.5556	0.0161	0.077
Mof_N 	N 	0.9117	0.6169	0.0234	-0.154
Mof_N 	N 	0.7796	0.5469	0.9975	-0.132
Mof_N 	N 	0.616	0.7293	0.9482	-0.126
Mof_C 	C 	0.6301	0.7446	0.2354	0.122
Mof_O 	O 	0.7465	0.7376	0.2251	-0.183
Mof_O 	O 	0.2056	0.7375	0.0556	-0.269
Mof_O 	O 	0.1176	0.6889	0.1036	-0.163
Mof_C 	C 	0.3915	0.7422	0.2135	-0.054
Mof_C 	C 	0.512	0.7589	0.2011	0.035
Mof_C 	C 	0.5172	0.7733	0.1546	-0.034
Mof_H 	H 	0.5848	0.7968	0.1468	0.041
Mof_O 	O 	0.404	0.8155	0.0527	-0.197
Mof_O 	O 	0.5462	0.7497	0.0506	-0.112
Mof_O 	O 	0.242	0.6835	0.0567	-0.212
Mof_O 	O 	0.121	0.7276	0.1014	-0.355
Mof_C 	C 	0.417	0.6956	0.2086	0.03
Mof_C 	C 	0.522	0.722	0.2012	-0.042
Mof_C 	C 	0.554	0.7534	0.1546	-0.011
Mof_H 	H 	0.6346	0.7681	0.1488	0.041
Mof_O 	O 	0.501	0.82	0.0619	-0.209
Mof_O 	O 	0.4767	0.7363	0.0453	-0.257
Mof_Cd	Cd	0.47839	0.2025	0.47777	0.507
Mof_C 	C 	0.2914	0.2162	0.4062	0.685
Mof_C 	C 	0.1826	0.2305	0.3689	-0.147
Mof_C 	C 	0.1954	0.2201	0.3226	0.045
Mof_H 	H 	0.2642	0.1975	0.3147	0.046
Mof_C 	C 	0.0698	0.2553	0.3801	-0.019
Mof_C 	C 	0.0438	0.272	0.4314	0.503
Mof_C 	C 	0.5533	0.0679	0.452	0.084
Mof_C 	C 	0.4514	0.0561	0.4161	-0.118
Mof_H 	H 	0.3932	0.0852	0.4062	0.094
Mof_C 	C 	0.4398	0.0054	0.3972	0.021
Mof_H 	H 	0.3763	0.9993	0.3725	0.029
Mof_C 	C 	0.5199	0.9592	0.4128	-0.05
Mof_H 	H 	0.5073	0.9226	0.3996	0.071
Mof_C 	C 	0.6244	0.9692	0.4503	-0.064
Mof_H 	H 	0.6807	0.9399	0.4615	0.077
Mof_C 	C 	0.6331	0.0248	0.4678	0.048
Mof_C 	C 	0.6914	0.101	0.5074	0.127
Mof_C 	C 	0.7625	0.1432	0.5404	-0.044
Mof_C 	C 	0.7696	0.1324	0.5884	0.013
Mof_H 	H 	0.7343	0.099	0.6002	0.033
Mof_C 	C 	0.8316	0.1734	0.6181	-0.094
Mof_H 	H 	0.8351	0.1688	0.6506	0.078
Mof_C 	C 	0.8879	0.2208	0.5992	0.063
Mof_H 	H 	0.9299	0.2479	0.6193	0.056
Mof_C 	C 	0.8229	0.1902	0.5235	0.045
Mof_H 	H 	0.8214	0.1951	0.4911	0.045
Mof_C 	C 	0.834	0.0113	0.5237	-0.052
Mof_H 	H 	0.8082	0.9713	0.5274	0.059
Mof_H 	H 	0.8651	0.0265	0.5544	0.055
Mof_C 	C 	0.9415	0.0152	0.4895	-0.105
Mof_H 	H 	0.9118	0.9976	0.4596	0.072
Mof_H 	H 	0.9618	0.0556	0.4839	0.077
Mof_N 	N 	0.5883	0.1169	0.4766	-0.154
Mof_N 	N 	0.7204	0.0469	0.5025	-0.132
Mof_N 	N 	0.884	0.2293	0.5518	-0.126
Mof_C 	C 	0.8699	0.2446	0.2646	0.122
Mof_O 	O 	0.7535	0.2376	0.2749	-0.183
Mof_O 	O 	0.2944	0.2375	0.4444	-0.269
Mof_O 	O 	0.3824	0.1889	0.3964	-0.163
Mof_C 	C 	0.1085	0.2422	0.2865	-0.054
Mof_C 	C 	0.988	0.2589	0.2989	0.035
Mof_C 	C 	0.9828	0.2733	0.3454	-0.034
Mof_H 	H 	0.9152	0.2968	0.3532	0.041
Mof_O 	O 	0.096	0.3155	0.4473	-0.197
Mof_O 	O 	0.9538	0.2497	0.4494	-0.112
Mof_O 	O 	0.258	0.1835	0.4433	-0.212
Mof_O 	O 	0.379	0.2276	0.3986	-0.355
Mof_C 	C 	0.083	0.1956	0.2914	0.03
Mof_C 	C 	0.978	0.222	0.2988	-0.042
Mof_C 	C 	0.946	0.2534	0.3454	-0.011
Mof_H 	H 	0.8654	0.2681	0.3512	0.041
Mof_O 	O 	0.999	0.32	0.4381	-0.209
Mof_O 	O 	0.0233	0.2363	0.4547	-0.257
Mof_Cd	Cd	0.97839	0.7025	0.47777	0.507
Mof_C 	C 	0.7914	0.7162	0.4062	0.685
Mof_C 	C 	0.6826	0.7305	0.3689	-0.147
Mof_C 	C 	0.6954	0.7201	0.3226	0.045
Mof_H 	H 	0.7642	0.6975	0.3147	0.046
Mof_C 	C 	0.5698	0.7553	0.3801	-0.019
Mof_C 	C 	0.5438	0.772	0.4314	0.503
Mof_C 	C 	0.0533	0.5679	0.452	0.084
Mof_C 	C 	0.9514	0.5561	0.4161	-0.118
Mof_H 	H 	0.8932	0.5852	0.4062	0.094
Mof_C 	C 	0.9398	0.5054	0.3972	0.021
Mof_H 	H 	0.8763	0.4993	0.3725	0.029
Mof_C 	C 	0.0199	0.4592	0.4128	-0.051
Mof_H 	H 	0.0073	0.4226	0.3996	0.071
Mof_C 	C 	0.1244	0.4692	0.4503	-0.064
Mof_H 	H 	0.1807	0.4399	0.4615	0.077
Mof_C 	C 	0.1331	0.5248	0.4678	0.048
Mof_C 	C 	0.1914	0.601	0.5074	0.127
Mof_C 	C 	0.2625	0.6432	0.5404	-0.044
Mof_C 	C 	0.2696	0.6324	0.5884	0.013
Mof_H 	H 	0.2343	0.599	0.6002	0.033
Mof_C 	C 	0.3316	0.6734	0.6181	-0.094
Mof_H 	H 	0.3351	0.6688	0.6506	0.078
Mof_C 	C 	0.3879	0.7208	0.5992	0.063
Mof_H 	H 	0.4299	0.7479	0.6193	0.056
Mof_C 	C 	0.3229	0.6902	0.5235	0.045
Mof_H 	H 	0.3214	0.6951	0.4911	0.045
Mof_C 	C 	0.334	0.5113	0.5237	-0.052
Mof_H 	H 	0.3082	0.4713	0.5274	0.059
Mof_H 	H 	0.3651	0.5265	0.5544	0.055
Mof_C 	C 	0.4415	0.5152	0.4895	-0.105
Mof_H 	H 	0.4118	0.4976	0.4596	0.072
Mof_H 	H 	0.4618	0.5556	0.4839	0.077
Mof_N 	N 	0.0883	0.6169	0.4766	-0.154
Mof_N 	N 	0.2204	0.5469	0.5025	-0.132
Mof_N 	N 	0.384	0.7293	0.5518	-0.126
Mof_C 	C 	0.3699	0.7446	0.2646	0.122
Mof_O 	O 	0.2535	0.7376	0.2749	-0.183
Mof_O 	O 	0.7944	0.7375	0.4444	-0.269
Mof_O 	O 	0.8824	0.6889	0.3964	-0.163
Mof_C 	C 	0.6085	0.7422	0.2865	-0.054
Mof_C 	C 	0.488	0.7589	0.2989	0.035
Mof_C 	C 	0.4828	0.7733	0.3454	-0.034
Mof_H 	H 	0.4152	0.7968	0.3532	0.041
Mof_O 	O 	0.596	0.8155	0.4473	-0.197
Mof_O 	O 	0.4538	0.7497	0.4494	-0.112
Mof_O 	O 	0.758	0.6835	0.4433	-0.212
Mof_O 	O 	0.879	0.7276	0.3986	-0.355
Mof_C 	C 	0.583	0.6956	0.2914	0.03
Mof_C 	C 	0.478	0.722	0.2988	-0.042
Mof_C 	C 	0.446	0.7534	0.3454	-0.011
Mof_H 	H 	0.3654	0.7681	0.3512	0.041
Mof_O 	O 	0.499	0.82	0.4381	-0.209
Mof_O 	O 	0.5233	0.7363	0.4547	-0.257
Mof_Cd	Cd	0.47839	0.7975	0.97777	0.507
Mof_C 	C 	0.2914	0.7838	0.9062	0.685
Mof_C 	C 	0.1826	0.7695	0.8689	-0.147
Mof_C 	C 	0.1954	0.7799	0.8226	0.045
Mof_H 	H 	0.2642	0.8025	0.8147	0.046
Mof_C 	C 	0.0698	0.7447	0.8801	-0.019
Mof_C 	C 	0.0438	0.728	0.9314	0.503
Mof_C 	C 	0.5533	0.9321	0.952	0.084
Mof_C 	C 	0.4514	0.9439	0.9161	-0.118
Mof_H 	H 	0.3932	0.9148	0.9062	0.094
Mof_C 	C 	0.4398	0.9946	0.8972	0.021
Mof_H 	H 	0.3763	0.0007	0.8725	0.029
Mof_C 	C 	0.5199	0.0408	0.9128	-0.05
Mof_H 	H 	0.5073	0.0774	0.8996	0.071
Mof_C 	C 	0.6244	0.0308	0.9503	-0.064
Mof_H 	H 	0.6807	0.0601	0.9615	0.077
Mof_C 	C 	0.6331	0.9752	0.9678	0.048
Mof_C 	C 	0.6914	0.899	0.0074	0.127
Mof_C 	C 	0.7625	0.8568	0.0404	-0.044
Mof_C 	C 	0.7696	0.8676	0.0884	0.013
Mof_H 	H 	0.7343	0.901	0.1002	0.033
Mof_C 	C 	0.8316	0.8266	0.1181	-0.094
Mof_H 	H 	0.8351	0.8312	0.1506	0.078
Mof_C 	C 	0.8879	0.7792	0.0992	0.063
Mof_H 	H 	0.9299	0.7521	0.1193	0.056
Mof_C 	C 	0.8229	0.8098	0.0235	0.045
Mof_H 	H 	0.8214	0.8049	0.9911	0.045
Mof_C 	C 	0.834	0.9887	0.0237	-0.052
Mof_H 	H 	0.8082	0.0287	0.0274	0.059
Mof_H 	H 	0.8651	0.9735	0.0544	0.055
Mof_C 	C 	0.9415	0.9848	0.9895	-0.105
Mof_H 	H 	0.9118	0.0024	0.9596	0.072
Mof_H 	H 	0.9618	0.9444	0.9839	0.077
Mof_N 	N 	0.5883	0.8831	0.9766	-0.154
Mof_N 	N 	0.7204	0.9531	0.0025	-0.132
Mof_N 	N 	0.884	0.7707	0.0518	-0.126
Mof_C 	C 	0.8699	0.7554	0.7646	0.122
Mof_O 	O 	0.7535	0.7624	0.7749	-0.183
Mof_O 	O 	0.2944	0.7625	0.9444	-0.269
Mof_O 	O 	0.3824	0.8111	0.8964	-0.163
Mof_C 	C 	0.1085	0.7578	0.7865	-0.054
Mof_C 	C 	0.988	0.7411	0.7989	0.035
Mof_C 	C 	0.9828	0.7267	0.8454	-0.034
Mof_H 	H 	0.9152	0.7032	0.8532	0.041
Mof_O 	O 	0.096	0.6845	0.9473	-0.197
Mof_O 	O 	0.9538	0.7503	0.9494	-0.112
Mof_O 	O 	0.258	0.8165	0.9433	-0.212
Mof_O 	O 	0.379	0.7724	0.8986	-0.355
Mof_C 	C 	0.083	0.8044	0.7914	0.03
Mof_C 	C 	0.978	0.778	0.7988	-0.042
Mof_C 	C 	0.946	0.7466	0.8454	-0.011
Mof_H 	H 	0.8654	0.7319	0.8512	0.041
Mof_O 	O 	0.999	0.68	0.9381	-0.209
Mof_O 	O 	0.0233	0.7637	0.9547	-0.257
Mof_Cd	Cd	0.97839	0.2975	0.97777	0.507
Mof_C 	C 	0.7914	0.2838	0.9062	0.685
Mof_C 	C 	0.6826	0.2695	0.8689	-0.147
Mof_C 	C 	0.6954	0.2799	0.8226	0.045
Mof_H 	H 	0.7642	0.3025	0.8147	0.046
Mof_C 	C 	0.5698	0.2447	0.8801	-0.019
Mof_C 	C 	0.5438	0.228	0.9314	0.503
Mof_C 	C 	0.0533	0.4321	0.952	0.084
Mof_C 	C 	0.9514	0.4439	0.9161	-0.118
Mof_H 	H 	0.8932	0.4148	0.9062	0.094
Mof_C 	C 	0.9398	0.4946	0.8972	0.021
Mof_H 	H 	0.8763	0.5007	0.8725	0.029
Mof_C 	C 	0.0199	0.5408	0.9128	-0.05
Mof_H 	H 	0.0073	0.5774	0.8996	0.071
Mof_C 	C 	0.1244	0.5308	0.9503	-0.064
Mof_H 	H 	0.1807	0.5601	0.9615	0.077
Mof_C 	C 	0.1331	0.4752	0.9678	0.048
Mof_C 	C 	0.1914	0.399	0.0074	0.127
Mof_C 	C 	0.2625	0.3568	0.0404	-0.044
Mof_C 	C 	0.2696	0.3676	0.0884	0.013
Mof_H 	H 	0.2343	0.401	0.1002	0.033
Mof_C 	C 	0.3316	0.3266	0.1181	-0.094
Mof_H 	H 	0.3351	0.3312	0.1506	0.078
Mof_C 	C 	0.3879	0.2792	0.0992	0.063
Mof_H 	H 	0.4299	0.2521	0.1193	0.056
Mof_C 	C 	0.3229	0.3098	0.0235	0.045
Mof_H 	H 	0.3214	0.3049	0.9911	0.045
Mof_C 	C 	0.334	0.4887	0.0237	-0.052
Mof_H 	H 	0.3082	0.5287	0.0274	0.059
Mof_H 	H 	0.3651	0.4735	0.0544	0.055
Mof_C 	C 	0.4415	0.4848	0.9895	-0.105
Mof_H 	H 	0.4118	0.5024	0.9596	0.072
Mof_H 	H 	0.4618	0.4444	0.9839	0.077
Mof_N 	N 	0.0883	0.3831	0.9766	-0.154
Mof_N 	N 	0.2204	0.4531	0.0025	-0.132
Mof_N 	N 	0.384	0.2707	0.0518	-0.126
Mof_C 	C 	0.3699	0.2554	0.7646	0.122
Mof_O 	O 	0.2535	0.2624	0.7749	-0.183
Mof_O 	O 	0.7944	0.2625	0.9444	-0.269
Mof_O 	O 	0.8824	0.3111	0.8964	-0.163
Mof_C 	C 	0.6085	0.2578	0.7865	-0.054
Mof_C 	C 	0.488	0.2411	0.7989	0.035
Mof_C 	C 	0.4828	0.2267	0.8454	-0.034
Mof_H 	H 	0.4152	0.2032	0.8532	0.041
Mof_O 	O 	0.596	0.1845	0.9473	-0.197
Mof_O 	O 	0.4538	0.2503	0.9494	-0.112
Mof_O 	O 	0.758	0.3165	0.9433	-0.212
Mof_O 	O 	0.879	0.2724	0.8986	-0.355
Mof_C 	C 	0.583	0.3044	0.7914	0.03
Mof_C 	C 	0.478	0.278	0.7988	-0.042
Mof_C 	C 	0.446	0.2466	0.8454	-0.011
Mof_H 	H 	0.3654	0.2319	0.8512	0.041
Mof_O 	O 	0.499	0.18	0.9381	-0.209
Mof_O 	O 	0.5233	0.2637	0.9547	-0.257
Mof_Cd	Cd	0.52161	0.7975	0.52223	0.507
Mof_C 	C 	0.7086	0.7838	0.5938	0.685
Mof_C 	C 	0.8174	0.7695	0.6311	-0.147
Mof_C 	C 	0.8046	0.7799	0.6774	0.045
Mof_H 	H 	0.7358	0.8025	0.6853	0.046
Mof_C 	C 	0.9302	0.7447	0.6199	-0.019
Mof_C 	C 	0.9562	0.728	0.5686	0.503
Mof_C 	C 	0.4467	0.9321	0.548	0.084
Mof_C 	C 	0.5486	0.9439	0.5839	-0.118
Mof_H 	H 	0.6068	0.9148	0.5938	0.094
Mof_C 	C 	0.5602	0.9946	0.6028	0.021
Mof_H 	H 	0.6237	0.0007	0.6275	0.029
Mof_C 	C 	0.4801	0.0408	0.5872	-0.05
Mof_H 	H 	0.4927	0.0774	0.6004	0.071
Mof_C 	C 	0.3756	0.0308	0.5497	-0.064
Mof_H 	H 	0.3193	0.0601	0.5385	0.077
Mof_C 	C 	0.3669	0.9752	0.5322	0.048
Mof_C 	C 	0.3086	0.899	0.4926	0.127
Mof_C 	C 	0.2375	0.8568	0.4596	-0.044
Mof_C 	C 	0.2304	0.8676	0.4116	0.013
Mof_H 	H 	0.2657	0.901	0.3998	0.033
Mof_C 	C 	0.1684	0.8266	0.3819	-0.094
Mof_H 	H 	0.1649	0.8312	0.3494	0.078
Mof_C 	C 	0.1121	0.7792	0.4008	0.063
Mof_H 	H 	0.0701	0.7521	0.3807	0.056
Mof_C 	C 	0.1771	0.8098	0.4765	0.045
Mof_H 	H 	0.1786	0.8049	0.5089	0.045
Mof_C 	C 	0.166	0.9887	0.4763	-0.052
Mof_H 	H 	0.1918	0.0287	0.4726	0.059
Mof_H 	H 	0.1349	0.9735	0.4456	0.055
Mof_C 	C 	0.0585	0.9848	0.5105	-0.105
Mof_H 	H 	0.0882	0.0024	0.5404	0.072
Mof_H 	H 	0.0382	0.9444	0.5161	0.077
Mof_N 	N 	0.4117	0.8831	0.5234	-0.154
Mof_N 	N 	0.2796	0.9531	0.4975	-0.132
Mof_N 	N 	0.116	0.7707	0.4482	-0.126
Mof_C 	C 	0.1301	0.7554	0.7354	0.122
Mof_O 	O 	0.2465	0.7624	0.7251	-0.183
Mof_O 	O 	0.7056	0.7625	0.5556	-0.269
Mof_O 	O 	0.6176	0.8111	0.6036	-0.163
Mof_C 	C 	0.8915	0.7578	0.7135	-0.054
Mof_C 	C 	0.012	0.7411	0.7011	0.035
Mof_C 	C 	0.0172	0.7267	0.6546	-0.034
Mof_H 	H 	0.0848	0.7032	0.6468	0.041
Mof_O 	O 	0.904	0.6845	0.5527	-0.197
Mof_O 	O 	0.0462	0.7503	0.5506	-0.112
Mof_O 	O 	0.742	0.8165	0.5567	-0.212
Mof_O 	O 	0.621	0.7724	0.6014	-0.355
Mof_C 	C 	0.917	0.8044	0.7086	0.03
Mof_C 	C 	0.022	0.778	0.7012	-0.042
Mof_C 	C 	0.054	0.7466	0.6546	-0.011
Mof_H 	H 	0.1346	0.7319	0.6488	0.041
Mof_O 	O 	0.001	0.68	0.5619	-0.209
Mof_O 	O 	0.9767	0.7637	0.5453	-0.257
Mof_Cd	Cd	0.02161	0.2975	0.52223	0.507
Mof_C 	C 	0.2086	0.2838	0.5938	0.685
Mof_C 	C 	0.3174	0.2695	0.6311	-0.147
Mof_C 	C 	0.3046	0.2799	0.6774	0.045
Mof_H 	H 	0.2358	0.3025	0.6853	0.046
Mof_C 	C 	0.4302	0.2447	0.6199	-0.019
Mof_C 	C 	0.4562	0.228	0.5686	0.503
Mof_C 	C 	0.9467	0.4321	0.548	0.084
Mof_C 	C 	0.0486	0.4439	0.5839	-0.118
Mof_H 	H 	0.1068	0.4148	0.5938	0.094
Mof_C 	C 	0.0602	0.4946	0.6028	0.021
Mof_H 	H 	0.1237	0.5007	0.6275	0.029
Mof_C 	C 	0.9801	0.5408	0.5872	-0.051
Mof_H 	H 	0.9927	0.5774	0.6004	0.071
Mof_C 	C 	0.8756	0.5308	0.5497	-0.064
Mof_H 	H 	0.8193	0.5601	0.5385	0.077
Mof_C 	C 	0.8669	0.4752	0.5322	0.048
Mof_C 	C 	0.8086	0.399	0.4926	0.127
Mof_C 	C 	0.7375	0.3568	0.4596	-0.044
Mof_C 	C 	0.7304	0.3676	0.4116	0.013
Mof_H 	H 	0.7657	0.401	0.3998	0.033
Mof_C 	C 	0.6684	0.3266	0.3819	-0.094
Mof_H 	H 	0.6649	0.3312	0.3494	0.078
Mof_C 	C 	0.6121	0.2792	0.4008	0.063
Mof_H 	H 	0.5701	0.2521	0.3807	0.056
Mof_C 	C 	0.6771	0.3098	0.4765	0.045
Mof_H 	H 	0.6786	0.3049	0.5089	0.045
Mof_C 	C 	0.666	0.4887	0.4763	-0.052
Mof_H 	H 	0.6918	0.5287	0.4726	0.059
Mof_H 	H 	0.6349	0.4735	0.4456	0.055
Mof_C 	C 	0.5585	0.4848	0.5105	-0.105
Mof_H 	H 	0.5882	0.5024	0.5404	0.072
Mof_H 	H 	0.5382	0.4444	0.5161	0.077
Mof_N 	N 	0.9117	0.3831	0.5234	-0.154
Mof_N 	N 	0.7796	0.4531	0.4975	-0.132
Mof_N 	N 	0.616	0.2707	0.4482	-0.126
Mof_C 	C 	0.6301	0.2554	0.7354	0.122
Mof_O 	O 	0.7465	0.2624	0.7251	-0.183
Mof_O 	O 	0.2056	0.2625	0.5556	-0.269
Mof_O 	O 	0.1176	0.3111	0.6036	-0.163
Mof_C 	C 	0.3915	0.2578	0.7135	-0.054
Mof_C 	C 	0.512	0.2411	0.7011	0.035
Mof_C 	C 	0.5172	0.2267	0.6546	-0.034
Mof_H 	H 	0.5848	0.2032	0.6468	0.041
Mof_O 	O 	0.404	0.1845	0.5527	-0.197
Mof_O 	O 	0.5462	0.2503	0.5506	-0.112
Mof_O 	O 	0.242	0.3165	0.5567	-0.212
Mof_O 	O 	0.121	0.2724	0.6014	-0.355
Mof_C 	C 	0.417	0.3044	0.7086	0.03
Mof_C 	C 	0.522	0.278	0.7012	-0.042
Mof_C 	C 	0.554	0.2466	0.6546	-0.011
Mof_H 	H 	0.6346	0.2319	0.6488	0.041
Mof_O 	O 	0.501	0.18	0.5619	-0.209
Mof_O 	O 	0.4767	0.2637	0.5453	-0.257
_end
