# CIF file generated by openbabel 3.1.0, see https://openbabel.org
data_I
_chemical_name_common 'image0'
_cell_length_a 10.3314
_cell_length_b 12.3196
_cell_length_c 19.042
_cell_angle_alpha 106.785
_cell_angle_beta 93.694
_cell_angle_gamma 94.284
_space_group_name_H-M_alt 'P 1'
_space_group_name_Hall 'P 1'
loop_
    _symmetry_equiv_pos_as_xyz
    x,y,z
loop_
    _atom_site_label
    _atom_site_type_symbol
    _atom_site_fract_x
    _atom_site_fract_y
    _atom_site_fract_z
    _atom_site_occupancy
    Cu1      Cu       0.10869    0.47926    0.22495    1.000
    Cu2      Cu       0.34595    0.54578    0.28994    1.000
    Cu3      Cu       0.58850    0.20678    0.39764    1.000
    Cu4      Cu       0.88105    0.83383    0.03246    1.000
    O1       O        0.16940    0.32780    0.19270    1.000
    O2       O        0.74800    0.29870    0.43700    1.000
    O3       O        0.71770    0.74410    0.99110    1.000
    O4       O        0.37340    0.57220    0.19680    1.000
    O5       O        0.08430    0.63970    0.26330    1.000
    O6       O        0.08250    0.45770    0.32100    1.000
    O7       O        0.28560    0.70000    0.31940    1.000
    O8       O        0.28630    0.50460    0.37380    1.000
    N1       N        0.38300    0.42720    0.62080    1.000
    O9       O        0.04250    0.92760    0.07010    1.000
    O10      O        0.43220    0.10700    0.35740    1.000
    O11      O        0.17860    0.50860    0.13480    1.000
    O12      O        0.73370    0.73040    0.10460    1.000
    N2       N        0.09580    0.55690    0.81000    1.000
    N3       N        0.28330    0.34750    0.59270    1.000
    O13      O        0.29130    0.22590    0.34000    1.000
    O14      O        0.37440    0.38520    0.24120    1.000
    N4       N        0.78680    0.96810    0.08220    1.000
    N5       N        0.26480    0.57080    0.88340    1.000
    N6       N        0.68970    0.08160    0.33190    1.000
    N7       N        0.85310    0.99120    0.29860    1.000
    C1       C        0.06030    0.31600    0.53850    1.000
    H1       H        0.03700    0.28140    0.57390    1.000
    C2       C        0.46330    0.64260    0.96390    1.000
    H2       H        0.50070    0.66310    0.92590    1.000
    C3       C        0.33700    0.59200    0.95360    1.000
    N8       N        0.13540    0.57760    0.87940    1.000
    N9       N        0.81730    0.08590    0.34540    1.000
    N10      N        0.45600    0.38890    0.66510    1.000
    C4       C        0.18710    0.36060    0.53880    1.000
    N11      N        0.65880    0.95830    0.07860    1.000
    N12      N        0.62350    0.05650    0.11840    1.000
    C5       C        0.29030    0.25900    0.62010    1.000
    H3       H        0.23250    0.19360    0.60970    1.000
    O15      O        0.80550    0.20990    0.51950    1.000
    C6       C        0.17010    0.46360    0.37150    1.000
    C7       C        0.53310    0.66250    0.03110    1.000
    C8       C        0.27710    0.56290    0.00960    1.000
    H4       H        0.19160    0.52950    0.00180    1.000
    C9       C        0.22970    0.10570    0.13380    1.000
    H5       H        0.14210    0.11760    0.13660    1.000
    C10      C        0.82980    0.27230    0.48100    1.000
    C11      C        0.22530    0.41220    0.48650    1.000
    H6       H        0.31100    0.44220    0.48790    1.000
    C12      C        0.96740    0.32400    0.48370    1.000
    C13      C        0.08410    0.05750    0.31730    1.000
    H7       H        0.06360    0.13060    0.31980    1.000
    C14      C        0.98610    0.96800    0.30340    1.000
    C15      C        0.47460    0.63430    0.08760    1.000
    H8       H        0.52140    0.64900    0.13330    1.000
    C16      C        0.39360    0.98170    0.09180    1.000
    H9       H        0.41780    0.91040    0.06710    1.000
    C17      C        0.29340    0.55240    0.14090    1.000
    C18      C        0.31880    0.13310    0.34300    1.000
    C19      C        0.40180    0.28700    0.66670    1.000
    H10      H        0.43470    0.24300    0.69470    1.000
    C20      C        0.00390    0.37260    0.43140    1.000
    H11      H        0.94230    0.37590    0.39440    1.000
    C21      C        0.13220    0.41760    0.43220    1.000
    C22      C        0.21200    0.03580    0.32740    1.000
    C23      C        0.30680    0.54560    0.81580    1.000
    H12      H        0.39160    0.53580    0.80320    1.000
    O16      O        0.19140    0.81420    0.02070    1.000
    C24      C        0.64490    0.98540    0.27840    1.000
    H13      H        0.55850    0.96320    0.25970    1.000
    C25      C        0.19810    0.53750    0.77000    1.000
    H14      H        0.19510    0.52120    0.71900    1.000
    C26      C        0.67110    0.71440    0.04410    1.000
    C27      C        0.17400    0.71660    0.29680    1.000
    C28      C        0.48770    0.07350    0.12520    1.000
    C29      C        0.74930    0.92640    0.25640    1.000
    H15      H        0.74900    0.85690    0.22030    1.000
    C30      C        0.14330    0.83680    0.30570    1.000
    C31      C        0.01440    0.85870    0.29570    1.000
    H16      H        0.94790    0.79950    0.28390    1.000
    C32      C        0.24200    0.92630    0.32250    1.000
    H17      H        0.32820    0.91250    0.33040    1.000
    C33      C        0.34760    0.58480    0.07740    1.000
    C34      C        0.32320    0.19490    0.16710    1.000
    C35      C        0.15990    0.90430    0.05930    1.000
    C36      C        0.28620    0.31130    0.20430    1.000
    C37      C        0.26250    0.00080    0.09690    1.000
    C38      C        0.45510    0.17740    0.16370    1.000
    H18      H        0.51930    0.23590    0.18750    1.000
    C39      C        0.72970    0.13040    0.14890    1.000
    H19      H        0.73160    0.20460    0.17960    1.000
    C40      C        0.83230    0.07280    0.12510    1.000
    H20      H        0.91960    0.10080    0.13650    1.000
    Cu5      Cu       0.89131    0.52074    0.77505    1.000
    Cu6      Cu       0.65405    0.45422    0.71006    1.000
    Cu7      Cu       0.41150    0.79322    0.60236    1.000
    Cu8      Cu       0.11895    0.16617    0.96754    1.000
    O17      O        0.83060    0.67220    0.80730    1.000
    O18      O        0.25200    0.70130    0.56300    1.000
    O19      O        0.28230    0.25590    0.00890    1.000
    O20      O        0.62660    0.42780    0.80320    1.000
    O21      O        0.91570    0.36030    0.73670    1.000
    O22      O        0.91750    0.54230    0.67900    1.000
    O23      O        0.71440    0.30000    0.68060    1.000
    O24      O        0.71370    0.49540    0.62620    1.000
    N13      N        0.61700    0.57280    0.37920    1.000
    O25      O        0.95750    0.07240    0.92990    1.000
    O26      O        0.56780    0.89300    0.64260    1.000
    O27      O        0.82140    0.49140    0.86520    1.000
    O28      O        0.26630    0.26960    0.89540    1.000
    N14      N        0.90420    0.44310    0.19000    1.000
    N15      N        0.71670    0.65250    0.40730    1.000
    O29      O        0.70870    0.77410    0.66000    1.000
    O30      O        0.62560    0.61480    0.75880    1.000
    N16      N        0.21320    0.03190    0.91780    1.000
    N17      N        0.73520    0.42920    0.11660    1.000
    N18      N        0.31030    0.91840    0.66810    1.000
    N19      N        0.14690    0.00880    0.70140    1.000
    C41      C        0.93970    0.68400    0.46150    1.000
    H21      H        0.96300    0.71860    0.42610    1.000
    C42      C        0.53670    0.35740    0.03610    1.000
    H22      H        0.49930    0.33690    0.07410    1.000
    C43      C        0.66300    0.40800    0.04640    1.000
    N20      N        0.86460    0.42240    0.12060    1.000
    N21      N        0.18270    0.91410    0.65460    1.000
    N22      N        0.54400    0.61110    0.33490    1.000
    C44      C        0.81290    0.63940    0.46120    1.000
    N23      N        0.34120    0.04170    0.92140    1.000
    N24      N        0.37650    0.94350    0.88160    1.000
    C45      C        0.70970    0.74100    0.37990    1.000
    H23      H        0.76750    0.80640    0.39030    1.000
    O31      O        0.19450    0.79010    0.48050    1.000
    C46      C        0.82990    0.53640    0.62850    1.000
    C47      C        0.46690    0.33750    0.96890    1.000
    C48      C        0.72290    0.43710    0.99040    1.000
    H24      H        0.80840    0.47050    0.99820    1.000
    C49      C        0.77030    0.89430    0.86620    1.000
    H25      H        0.85790    0.88240    0.86340    1.000
    C50      C        0.17020    0.72770    0.51900    1.000
    C51      C        0.77470    0.58780    0.51350    1.000
    H26      H        0.68900    0.55780    0.51210    1.000
    C52      C        0.03260    0.67600    0.51630    1.000
    C53      C        0.91590    0.94250    0.68270    1.000
    H27      H        0.93640    0.86940    0.68020    1.000
    C54      C        0.01390    0.03200    0.69660    1.000
    C55      C        0.52540    0.36570    0.91240    1.000
    H28      H        0.47860    0.35100    0.86670    1.000
    C56      C        0.60640    0.01830    0.90820    1.000
    H29      H        0.58220    0.08960    0.93290    1.000
    C57      C        0.70660    0.44760    0.85910    1.000
    C58      C        0.68120    0.86690    0.65700    1.000
    C59      C        0.59820    0.71300    0.33330    1.000
    H30      H        0.56530    0.75700    0.30530    1.000
    C60      C        0.99610    0.62740    0.56860    1.000
    H31      H        0.05770    0.62410    0.60560    1.000
    C61      C        0.86780    0.58240    0.56780    1.000
    C62      C        0.78800    0.96420    0.67260    1.000
    C63      C        0.69320    0.45440    0.18420    1.000
    H32      H        0.60840    0.46420    0.19680    1.000
    O32      O        0.80860    0.18580    0.97930    1.000
    C64      C        0.35510    0.01460    0.72160    1.000
    H33      H        0.44150    0.03680    0.74030    1.000
    C65      C        0.80190    0.46250    0.23000    1.000
    H34      H        0.80490    0.47880    0.28100    1.000
    C66      C        0.32890    0.28560    0.95590    1.000
    C67      C        0.82600    0.28340    0.70320    1.000
    C68      C        0.51230    0.92650    0.87480    1.000
    C69      C        0.25070    0.07360    0.74360    1.000
    H35      H        0.25100    0.14310    0.77970    1.000
    C70      C        0.85670    0.16320    0.69430    1.000
    C71      C        0.98560    0.14130    0.70430    1.000
    H36      H        0.05210    0.20050    0.71610    1.000
    C72      C        0.75800    0.07370    0.67750    1.000
    H37      H        0.67180    0.08750    0.66960    1.000
    C73      C        0.65240    0.41520    0.92260    1.000
    C74      C        0.67680    0.80510    0.83290    1.000
    C75      C        0.84010    0.09570    0.94070    1.000
    C76      C        0.71380    0.68870    0.79570    1.000
    C77      C        0.73750    0.99920    0.90310    1.000
    C78      C        0.54490    0.82260    0.83630    1.000
    H38      H        0.48070    0.76410    0.81250    1.000
    C79      C        0.27030    0.86960    0.85110    1.000
    H39      H        0.26840    0.79540    0.82040    1.000
    C80      C        0.16770    0.92720    0.87490    1.000
    H40      H        0.08040    0.89920    0.86350    1.000
