# CIF file generated by openbabel 3.1.0, see https://openbabel.org
data_I
_chemical_name_common 'image0'
_cell_length_a 8.533
_cell_length_b 9.37
_cell_length_c 10.003
_cell_angle_alpha 63.283
_cell_angle_beta 75.905
_cell_angle_gamma 74.276
_space_group_name_H-M_alt 'P 1'
_space_group_name_Hall 'P 1'
loop_
    _symmetry_equiv_pos_as_xyz
    x,y,z
loop_
    _atom_site_label
    _atom_site_type_symbol
    _atom_site_fract_x
    _atom_site_fract_y
    _atom_site_fract_z
    _atom_site_occupancy
    Gd1      Gd       0.33250    0.36823    0.84050    1.000
    O1       O        0.08320    0.30230    0.01700    1.000
    O2       O        0.32040    0.08660    0.91900    1.000
    O3       O        0.52990    0.30700    0.64650    1.000
    O4       O        0.53310    0.52330    0.81330    1.000
    O5       O        0.43140    0.82450    0.03940    1.000
    O6       O        0.86290    0.39480    0.14980    1.000
    O7       O        0.65810    0.60840    0.92550    1.000
    O8       O        0.65730    0.39990    0.40820    1.000
    C1       C        0.98470    0.41310    0.04840    1.000
    C2       C        0.42870    0.97340    0.98810    1.000
    C3       C        0.55480    0.41500    0.51570    1.000
    C4       C        0.55630    0.53900    0.92410    1.000
    Gd2      Gd       0.66750    0.63177    0.15950    1.000
    O9       O        0.91680    0.69770    0.98300    1.000
    O10      O        0.67960    0.91340    0.08100    1.000
    O11      O        0.47010    0.69300    0.35350    1.000
    O12      O        0.46690    0.47670    0.18670    1.000
    O13      O        0.56860    0.17550    0.96060    1.000
    O14      O        0.13710    0.60520    0.85020    1.000
    O15      O        0.34190    0.39160    0.07450    1.000
    O16      O        0.34270    0.60010    0.59180    1.000
    C5       C        0.01530    0.58690    0.95160    1.000
    C6       C        0.57130    0.02660    0.01190    1.000
    C7       C        0.44520    0.58500    0.48430    1.000
    C8       C        0.44370    0.46100    0.07590    1.000
