# CIF file generated by openbabel 3.1.0, see https://openbabel.org
data_I
_chemical_name_common 'image0'
_cell_length_a 23.6635
_cell_length_b 23.6635
_cell_length_c 13.5686
_cell_angle_alpha 90
_cell_angle_beta 90
_cell_angle_gamma 120
_space_group_name_H-M_alt 'P 1'
_space_group_name_Hall 'P 1'
loop_
    _symmetry_equiv_pos_as_xyz
    x,y,z
loop_
    _atom_site_label
    _atom_site_type_symbol
    _atom_site_fract_x
    _atom_site_fract_y
    _atom_site_fract_z
    _atom_site_occupancy
    Mn1      Mn       0.36185    0.09333    0.11825    1.000
    Ga1      Ga       0.34991    0.24380    0.91802    1.000
    P1       P        0.42029    0.23786    0.12203    1.000
    P2       P        0.32703    0.98617    0.27484    1.000
    O1       O        0.36998    0.21215    0.03860    1.000
    O2       O        0.42439    0.17750    0.15760    1.000
    O3       O        0.39211    0.26001    0.20800    1.000
    O4       O        0.48570    0.29170    0.09290    1.000
    O5       O        0.37653    0.04436    0.21220    1.000
    O6       O        0.36473    0.95505    0.32180    1.000
    O7       O        0.27110    0.93641    0.21410    1.000
    O8       O        0.30090    0.00966    0.35930    1.000
    N1       N        0.44470    0.27850    0.86980    1.000
    N2       N        0.33340    0.15770    0.85270    1.000
    N3       N        0.25140    0.18840    0.94410    1.000
    C1       C        0.44900    0.22240    0.82830    1.000
    C2       C        0.38620    0.17570    0.77930    1.000
    C3       C        0.26650    0.12380    0.81810    1.000
    C4       C        0.22510    0.12090    0.90520    1.000
    H1       H        0.45020    0.30430    0.82170    1.000
    H2       H        0.47890    0.30470    0.92280    1.000
    H3       H        0.33530    0.13120    0.90760    1.000
    H4       H        0.23990    0.18270    0.01070    1.000
    H5       H        0.21790    0.20040    0.91440    1.000
    H6       H        0.46310    0.20150    0.88490    1.000
    H7       H        0.48050    0.23890    0.76520    1.000
    H8       H        0.38890    0.13740    0.75240    1.000
    H9       H        0.37670    0.20020    0.72660    1.000
    H10      H        0.25470    0.14640    0.75910    1.000
    H11      H        0.24910    0.07900    0.80080    1.000
    H12      H        0.18190    0.11010    0.87900    1.000
    H13      H        0.22370    0.09020    0.96470    1.000
    Ga2      Ga       0.30482    0.24000    0.21508    1.000
    Mn2      Mn       0.02852    0.42666    0.45158    1.000
    Ga3      Ga       0.01658    0.57713    0.25135    1.000
    P3       P        0.08696    0.57119    0.45536    1.000
    P4       P        0.99370    0.31950    0.60817    1.000
    O9       O        0.03665    0.54548    0.37193    1.000
    O10      O        0.09106    0.51083    0.49093    1.000
    O11      O        0.05878    0.59334    0.54133    1.000
    O12      O        0.15237    0.62503    0.42623    1.000
    O13      O        0.04320    0.37769    0.54553    1.000
    O14      O        0.03140    0.28838    0.65513    1.000
    O15      O        0.93777    0.26974    0.54743    1.000
    O16      O        0.96757    0.34299    0.69263    1.000
    N4       N        0.11137    0.61183    0.20313    1.000
    N5       N        0.00007    0.49103    0.18603    1.000
    N6       N        0.91807    0.52173    0.27743    1.000
    C5       C        0.11567    0.55573    0.16163    1.000
    C6       C        0.05287    0.50903    0.11263    1.000
    C7       C        0.93317    0.45713    0.15143    1.000
    C8       C        0.89177    0.45423    0.23853    1.000
    H14      H        0.11687    0.63763    0.15503    1.000
    H15      H        0.14557    0.63803    0.25613    1.000
    H16      H        0.00197    0.46453    0.24093    1.000
    H17      H        0.90657    0.51603    0.34403    1.000
    H18      H        0.88457    0.53373    0.24773    1.000
    H19      H        0.12977    0.53483    0.21823    1.000
    H20      H        0.14717    0.57223    0.09853    1.000
    H21      H        0.05557    0.47073    0.08573    1.000
    H22      H        0.04337    0.53353    0.05993    1.000
    H23      H        0.92137    0.47973    0.09243    1.000
    H24      H        0.91577    0.41233    0.13413    1.000
    H25      H        0.84857    0.44343    0.21233    1.000
    H26      H        0.89037    0.42353    0.29803    1.000
    Ga4      Ga       0.97148    0.57334    0.54842    1.000
    Mn3      Mn       0.69518    0.76000    0.78492    1.000
    Ga5      Ga       0.68324    0.91047    0.58469    1.000
    P5       P        0.75362    0.90453    0.78870    1.000
    P6       P        0.66036    0.65284    0.94151    1.000
    O17      O        0.70331    0.87882    0.70527    1.000
    O18      O        0.75772    0.84417    0.82427    1.000
    O19      O        0.72544    0.92668    0.87467    1.000
    O20      O        0.81903    0.95837    0.75957    1.000
    O21      O        0.70986    0.71103    0.87887    1.000
    O22      O        0.69806    0.62172    0.98847    1.000
    O23      O        0.60443    0.60308    0.88077    1.000
    O24      O        0.63423    0.67633    0.02597    1.000
    N7       N        0.77803    0.94517    0.53647    1.000
    N8       N        0.66673    0.82437    0.51937    1.000
    N9       N        0.58473    0.85507    0.61077    1.000
    C9       C        0.78233    0.88907    0.49497    1.000
    C10      C        0.71953    0.84237    0.44597    1.000
    C11      C        0.59983    0.79047    0.48477    1.000
    C12      C        0.55843    0.78757    0.57187    1.000
    H27      H        0.78353    0.97097    0.48837    1.000
    H28      H        0.81223    0.97137    0.58947    1.000
    H29      H        0.66863    0.79787    0.57427    1.000
    H30      H        0.57323    0.84937    0.67737    1.000
    H31      H        0.55123    0.86707    0.58107    1.000
    H32      H        0.79643    0.86817    0.55157    1.000
    H33      H        0.81383    0.90557    0.43187    1.000
    H34      H        0.72223    0.80407    0.41907    1.000
    H35      H        0.71003    0.86687    0.39327    1.000
    H36      H        0.58803    0.81307    0.42577    1.000
    H37      H        0.58243    0.74567    0.46747    1.000
    H38      H        0.51523    0.77677    0.54567    1.000
    H39      H        0.55703    0.75687    0.63137    1.000
    Ga6      Ga       0.63815    0.90667    0.88175    1.000
    Mn4      Mn       0.90667    0.26852    0.11825    1.000
    Ga7      Ga       0.75620    0.10611    0.91802    1.000
    P7       P        0.76214    0.18243    0.12203    1.000
    P8       P        0.01383    0.34086    0.27484    1.000
    O25      O        0.78785    0.15783    0.03860    1.000
    O26      O        0.82250    0.24689    0.15760    1.000
    O27      O        0.73999    0.13210    0.20800    1.000
    O28      O        0.70830    0.19400    0.09290    1.000
    O29      O        0.95564    0.33217    0.21220    1.000
    O30      O        0.04495    0.40968    0.32180    1.000
    O31      O        0.06359    0.33469    0.21410    1.000
    O32      O        0.99034    0.29124    0.35930    1.000
    N10      N        0.72150    0.16620    0.86980    1.000
    N11      N        0.84230    0.17570    0.85270    1.000
    N12      N        0.81160    0.06300    0.94410    1.000
    C13      C        0.77760    0.22660    0.82830    1.000
    C14      C        0.82430    0.21050    0.77930    1.000
    C15      C        0.87620    0.14270    0.81810    1.000
    C16      C        0.87910    0.10420    0.90520    1.000
    H40      H        0.69570    0.14590    0.82170    1.000
    H41      H        0.69530    0.17420    0.92280    1.000
    H42      H        0.86880    0.20410    0.90760    1.000
    H43      H        0.81730    0.05720    0.01070    1.000
    H44      H        0.79960    0.01750    0.91440    1.000
    H45      H        0.79850    0.26160    0.88490    1.000
    H46      H        0.76110    0.24160    0.76520    1.000
    H47      H        0.86260    0.25150    0.75240    1.000
    H48      H        0.79980    0.17650    0.72660    1.000
    H49      H        0.85360    0.10830    0.75910    1.000
    H50      H        0.92100    0.17010    0.80080    1.000
    H51      H        0.88990    0.07180    0.87900    1.000
    H52      H        0.90980    0.13350    0.96470    1.000
    Ga8      Ga       0.76000    0.06481    0.21508    1.000
    Mn5      Mn       0.57334    0.60185    0.45158    1.000
    Ga9      Ga       0.42287    0.43944    0.25135    1.000
    P9       P        0.42881    0.51576    0.45536    1.000
    P10      P        0.68050    0.67419    0.60817    1.000
    O33      O        0.45452    0.49116    0.37193    1.000
    O34      O        0.48917    0.58022    0.49093    1.000
    O35      O        0.40666    0.46543    0.54133    1.000
    O36      O        0.37497    0.52733    0.42623    1.000
    O37      O        0.62231    0.66550    0.54553    1.000
    O38      O        0.71162    0.74301    0.65513    1.000
    O39      O        0.73026    0.66802    0.54743    1.000
    O40      O        0.65701    0.62457    0.69263    1.000
    N13      N        0.38817    0.49953    0.20313    1.000
    N14      N        0.50897    0.50903    0.18603    1.000
    N15      N        0.47827    0.39633    0.27743    1.000
    C17      C        0.44427    0.55993    0.16163    1.000
    C18      C        0.49097    0.54383    0.11263    1.000
    C19      C        0.54287    0.47603    0.15143    1.000
    C20      C        0.54577    0.43753    0.23853    1.000
    H53      H        0.36237    0.47923    0.15503    1.000
    H54      H        0.36197    0.50753    0.25613    1.000
    H55      H        0.53547    0.53743    0.24093    1.000
    H56      H        0.48397    0.39053    0.34403    1.000
    H57      H        0.46627    0.35083    0.24773    1.000
    H58      H        0.46517    0.59493    0.21823    1.000
    H59      H        0.42777    0.57493    0.09853    1.000
    H60      H        0.52927    0.58483    0.08573    1.000
    H61      H        0.46647    0.50983    0.05993    1.000
    H62      H        0.52027    0.44163    0.09243    1.000
    H63      H        0.58767    0.50343    0.13413    1.000
    H64      H        0.55657    0.40513    0.21233    1.000
    H65      H        0.57647    0.46683    0.29803    1.000
    Ga10     Ga       0.42666    0.39815    0.54842    1.000
    Mn6      Mn       0.24000    0.93519    0.78492    1.000
    Ga11     Ga       0.08953    0.77278    0.58469    1.000
    P11      P        0.09547    0.84910    0.78870    1.000
    P12      P        0.34716    0.00753    0.94151    1.000
    O41      O        0.12118    0.82450    0.70527    1.000
    O42      O        0.15583    0.91356    0.82427    1.000
    O43      O        0.07332    0.79877    0.87467    1.000
    O44      O        0.04163    0.86067    0.75957    1.000
    O45      O        0.28897    0.99884    0.87887    1.000
    O46      O        0.37828    0.07635    0.98847    1.000
    O47      O        0.39692    0.00136    0.88077    1.000
    O48      O        0.32367    0.95791    0.02597    1.000
    N16      N        0.05483    0.83287    0.53647    1.000
    N17      N        0.17563    0.84237    0.51937    1.000
    N18      N        0.14493    0.72967    0.61077    1.000
    C21      C        0.11093    0.89327    0.49497    1.000
    C22      C        0.15763    0.87717    0.44597    1.000
    C23      C        0.20953    0.80937    0.48477    1.000
    C24      C        0.21243    0.77087    0.57187    1.000
    H66      H        0.02903    0.81257    0.48837    1.000
    H67      H        0.02863    0.84087    0.58947    1.000
    H68      H        0.20213    0.87077    0.57427    1.000
    H69      H        0.15063    0.72387    0.67737    1.000
    H70      H        0.13293    0.68417    0.58107    1.000
    H71      H        0.13183    0.92827    0.55157    1.000
    H72      H        0.09443    0.90827    0.43187    1.000
    H73      H        0.19593    0.91817    0.41907    1.000
    H74      H        0.13313    0.84317    0.39327    1.000
    H75      H        0.18693    0.77497    0.42577    1.000
    H76      H        0.25433    0.83677    0.46747    1.000
    H77      H        0.22323    0.73847    0.54567    1.000
    H78      H        0.24313    0.80017    0.63137    1.000
    Ga12     Ga       0.09333    0.73148    0.88175    1.000
    Mn7      Mn       0.73148    0.63815    0.11825    1.000
    Ga13     Ga       0.89389    0.65009    0.91802    1.000
    P13      P        0.81757    0.57971    0.12203    1.000
    P14      P        0.65914    0.67297    0.27484    1.000
    O49      O        0.84217    0.63002    0.03860    1.000
    O50      O        0.75311    0.57561    0.15760    1.000
    O51      O        0.86790    0.60789    0.20800    1.000
    O52      O        0.80600    0.51430    0.09290    1.000
    O53      O        0.66783    0.62347    0.21220    1.000
    O54      O        0.59032    0.63527    0.32180    1.000
    O55      O        0.66531    0.72890    0.21410    1.000
    O56      O        0.70876    0.69910    0.35930    1.000
    N19      N        0.83380    0.55530    0.86980    1.000
    N20      N        0.82430    0.66660    0.85270    1.000
    N21      N        0.93700    0.74860    0.94410    1.000
    C25      C        0.77340    0.55100    0.82830    1.000
    C26      C        0.78950    0.61380    0.77930    1.000
    C27      C        0.85730    0.73350    0.81810    1.000
    C28      C        0.89580    0.77490    0.90520    1.000
    H79      H        0.85410    0.54980    0.82170    1.000
    H80      H        0.82580    0.52110    0.92280    1.000
    H81      H        0.79590    0.66470    0.90760    1.000
    H82      H        0.94280    0.76010    0.01070    1.000
    H83      H        0.98250    0.78210    0.91440    1.000
    H84      H        0.73840    0.53690    0.88490    1.000
    H85      H        0.75840    0.51950    0.76520    1.000
    H86      H        0.74850    0.61110    0.75240    1.000
    H87      H        0.82350    0.62330    0.72660    1.000
    H88      H        0.89170    0.74530    0.75910    1.000
    H89      H        0.82990    0.75090    0.80080    1.000
    H90      H        0.92820    0.81810    0.87900    1.000
    H91      H        0.86650    0.77630    0.96470    1.000
    Ga14     Ga       0.93519    0.69518    0.21508    1.000
    Mn8      Mn       0.39815    0.97148    0.45158    1.000
    Ga15     Ga       0.56056    0.98342    0.25135    1.000
    P15      P        0.48424    0.91304    0.45536    1.000
    P16      P        0.32581    0.00630    0.60817    1.000
    O57      O        0.50884    0.96335    0.37193    1.000
    O58      O        0.41978    0.90894    0.49093    1.000
    O59      O        0.53457    0.94122    0.54133    1.000
    O60      O        0.47267    0.84763    0.42623    1.000
    O61      O        0.33450    0.95680    0.54553    1.000
    O62      O        0.25699    0.96860    0.65513    1.000
    O63      O        0.33198    0.06223    0.54743    1.000
    O64      O        0.37543    0.03243    0.69263    1.000
    N22      N        0.50047    0.88863    0.20313    1.000
    N23      N        0.49097    0.99993    0.18603    1.000
    N24      N        0.60367    0.08193    0.27743    1.000
    C29      C        0.44007    0.88433    0.16163    1.000
    C30      C        0.45617    0.94713    0.11263    1.000
    C31      C        0.52397    0.06683    0.15143    1.000
    C32      C        0.56247    0.10823    0.23853    1.000
    H92      H        0.52077    0.88313    0.15503    1.000
    H93      H        0.49247    0.85443    0.25613    1.000
    H94      H        0.46257    0.99803    0.24093    1.000
    H95      H        0.60947    0.09343    0.34403    1.000
    H96      H        0.64917    0.11543    0.24773    1.000
    H97      H        0.40507    0.87023    0.21823    1.000
    H98      H        0.42507    0.85283    0.09853    1.000
    H99      H        0.41517    0.94443    0.08573    1.000
    H100     H        0.49017    0.95663    0.05993    1.000
    H101     H        0.55837    0.07863    0.09243    1.000
    H102     H        0.49657    0.08423    0.13413    1.000
    H103     H        0.59487    0.15143    0.21233    1.000
    H104     H        0.53317    0.10963    0.29803    1.000
    Ga16     Ga       0.60185    0.02852    0.54842    1.000
    Mn9      Mn       0.06481    0.30482    0.78492    1.000
    Ga17     Ga       0.22722    0.31676    0.58469    1.000
    P17      P        0.15090    0.24638    0.78870    1.000
    P18      P        0.99247    0.33964    0.94151    1.000
    O65      O        0.17550    0.29669    0.70527    1.000
    O66      O        0.08644    0.24228    0.82427    1.000
    O67      O        0.20123    0.27456    0.87467    1.000
    O68      O        0.13933    0.18097    0.75957    1.000
    O69      O        0.00116    0.29014    0.87887    1.000
    O70      O        0.92365    0.30194    0.98847    1.000
    O71      O        0.99864    0.39557    0.88077    1.000
    O72      O        0.04209    0.36577    0.02597    1.000
    N25      N        0.16713    0.22197    0.53647    1.000
    N26      N        0.15763    0.33327    0.51937    1.000
    N27      N        0.27033    0.41527    0.61077    1.000
    C33      C        0.10673    0.21767    0.49497    1.000
    C34      C        0.12283    0.28047    0.44597    1.000
    C35      C        0.19063    0.40017    0.48477    1.000
    C36      C        0.22913    0.44157    0.57187    1.000
    H105     H        0.18743    0.21647    0.48837    1.000
    H106     H        0.15913    0.18777    0.58947    1.000
    H107     H        0.12923    0.33137    0.57427    1.000
    H108     H        0.27613    0.42677    0.67737    1.000
    H109     H        0.31583    0.44877    0.58107    1.000
    H110     H        0.07173    0.20357    0.55157    1.000
    H111     H        0.09173    0.18617    0.43187    1.000
    H112     H        0.08183    0.27777    0.41907    1.000
    H113     H        0.15683    0.28997    0.39327    1.000
    H114     H        0.22503    0.41197    0.42577    1.000
    H115     H        0.16323    0.41757    0.46747    1.000
    H116     H        0.26153    0.48477    0.54567    1.000
    H117     H        0.19983    0.44297    0.63137    1.000
    Ga18     Ga       0.26852    0.36185    0.88175    1.000
    Ga19     Ga       0.65009    0.75620    0.08198    1.000
    P19      P        0.57971    0.76214    0.87797    1.000
    P20      P        0.67297    0.01383    0.72516    1.000
    O73      O        0.63002    0.78785    0.96140    1.000
    O74      O        0.57561    0.82250    0.84240    1.000
    O75      O        0.60789    0.73999    0.79200    1.000
    O76      O        0.51430    0.70830    0.90710    1.000
    O77      O        0.62347    0.95564    0.78780    1.000
    O78      O        0.63527    0.04495    0.67820    1.000
    O79      O        0.72890    0.06359    0.78590    1.000
    O80      O        0.69910    0.99034    0.64070    1.000
    N28      N        0.55530    0.72150    0.13020    1.000
    N29      N        0.66660    0.84230    0.14730    1.000
    N30      N        0.74860    0.81160    0.05590    1.000
    C37      C        0.55100    0.77760    0.17170    1.000
    C38      C        0.61380    0.82430    0.22070    1.000
    C39      C        0.73350    0.87620    0.18190    1.000
    C40      C        0.77490    0.87910    0.09480    1.000
    H118     H        0.54980    0.69570    0.17830    1.000
    H119     H        0.52110    0.69530    0.07720    1.000
    H120     H        0.66470    0.86880    0.09240    1.000
    H121     H        0.76010    0.81730    0.98930    1.000
    H122     H        0.78210    0.79960    0.08560    1.000
    H123     H        0.53690    0.79850    0.11510    1.000
    H124     H        0.51950    0.76110    0.23480    1.000
    H125     H        0.61110    0.86260    0.24760    1.000
    H126     H        0.62330    0.79980    0.27340    1.000
    H127     H        0.74530    0.85360    0.24090    1.000
    H128     H        0.75090    0.92100    0.19920    1.000
    H129     H        0.81810    0.88990    0.12100    1.000
    H130     H        0.77630    0.90980    0.03530    1.000
    Ga20     Ga       0.31676    0.08953    0.41531    1.000
    P21      P        0.24638    0.09547    0.21130    1.000
    P22      P        0.33964    0.34716    0.05849    1.000
    O81      O        0.29669    0.12118    0.29473    1.000
    O82      O        0.24228    0.15583    0.17573    1.000
    O83      O        0.27456    0.07332    0.12533    1.000
    O84      O        0.18097    0.04163    0.24043    1.000
    O85      O        0.29014    0.28897    0.12113    1.000
    O86      O        0.30194    0.37828    0.01153    1.000
    O87      O        0.39557    0.39692    0.11923    1.000
    O88      O        0.36577    0.32367    0.97403    1.000
    N31      N        0.22197    0.05483    0.46353    1.000
    N32      N        0.33327    0.17563    0.48063    1.000
    N33      N        0.41527    0.14493    0.38923    1.000
    C41      C        0.21767    0.11093    0.50503    1.000
    C42      C        0.28047    0.15763    0.55403    1.000
    C43      C        0.40017    0.20953    0.51523    1.000
    C44      C        0.44157    0.21243    0.42813    1.000
    H131     H        0.21647    0.02903    0.51163    1.000
    H132     H        0.18777    0.02863    0.41053    1.000
    H133     H        0.33137    0.20213    0.42573    1.000
    H134     H        0.42677    0.15063    0.32263    1.000
    H135     H        0.44877    0.13293    0.41893    1.000
    H136     H        0.20357    0.13183    0.44843    1.000
    H137     H        0.18617    0.09443    0.56813    1.000
    H138     H        0.27777    0.19593    0.58093    1.000
    H139     H        0.28997    0.13313    0.60673    1.000
    H140     H        0.41197    0.18693    0.57423    1.000
    H141     H        0.41757    0.25433    0.53253    1.000
    H142     H        0.48477    0.22323    0.45433    1.000
    H143     H        0.44297    0.24313    0.36863    1.000
    Ga21     Ga       0.98342    0.42287    0.74865    1.000
    P23      P        0.91304    0.42881    0.54464    1.000
    P24      P        0.00630    0.68050    0.39183    1.000
    O89      O        0.96335    0.45452    0.62807    1.000
    O90      O        0.90894    0.48917    0.50907    1.000
    O91      O        0.94122    0.40666    0.45867    1.000
    O92      O        0.84763    0.37497    0.57377    1.000
    O93      O        0.95680    0.62231    0.45447    1.000
    O94      O        0.96860    0.71162    0.34487    1.000
    O95      O        0.06223    0.73026    0.45257    1.000
    O96      O        0.03243    0.65701    0.30737    1.000
    N34      N        0.88863    0.38817    0.79687    1.000
    N35      N        0.99993    0.50897    0.81397    1.000
    N36      N        0.08193    0.47827    0.72257    1.000
    C45      C        0.88433    0.44427    0.83837    1.000
    C46      C        0.94713    0.49097    0.88737    1.000
    C47      C        0.06683    0.54287    0.84857    1.000
    C48      C        0.10823    0.54577    0.76147    1.000
    H144     H        0.88313    0.36237    0.84497    1.000
    H145     H        0.85443    0.36197    0.74387    1.000
    H146     H        0.99803    0.53547    0.75907    1.000
    H147     H        0.09343    0.48397    0.65597    1.000
    H148     H        0.11543    0.46627    0.75227    1.000
    H149     H        0.87023    0.46517    0.78177    1.000
    H150     H        0.85283    0.42777    0.90147    1.000
    H151     H        0.94443    0.52927    0.91427    1.000
    H152     H        0.95663    0.46647    0.94007    1.000
    H153     H        0.07863    0.52027    0.90757    1.000
    H154     H        0.08423    0.58767    0.86587    1.000
    H155     H        0.15143    0.55657    0.78767    1.000
    H156     H        0.10963    0.57647    0.70197    1.000
    Ga22     Ga       0.24380    0.89389    0.08198    1.000
    P25      P        0.23786    0.81757    0.87797    1.000
    P26      P        0.98617    0.65914    0.72516    1.000
    O97      O        0.21215    0.84217    0.96140    1.000
    O98      O        0.17750    0.75311    0.84240    1.000
    O99      O        0.26001    0.86790    0.79200    1.000
    O100     O        0.29170    0.80600    0.90710    1.000
    O101     O        0.04436    0.66783    0.78780    1.000
    O102     O        0.95505    0.59032    0.67820    1.000
    O103     O        0.93641    0.66531    0.78590    1.000
    O104     O        0.00966    0.70876    0.64070    1.000
    N37      N        0.27850    0.83380    0.13020    1.000
    N38      N        0.15770    0.82430    0.14730    1.000
    N39      N        0.18840    0.93700    0.05590    1.000
    C49      C        0.22240    0.77340    0.17170    1.000
    C50      C        0.17570    0.78950    0.22070    1.000
    C51      C        0.12380    0.85730    0.18190    1.000
    C52      C        0.12090    0.89580    0.09480    1.000
    H157     H        0.30430    0.85410    0.17830    1.000
    H158     H        0.30470    0.82580    0.07720    1.000
    H159     H        0.13120    0.79590    0.09240    1.000
    H160     H        0.18270    0.94280    0.98930    1.000
    H161     H        0.20040    0.98250    0.08560    1.000
    H162     H        0.20150    0.73840    0.11510    1.000
    H163     H        0.23890    0.75840    0.23480    1.000
    H164     H        0.13740    0.74850    0.24760    1.000
    H165     H        0.20020    0.82350    0.27340    1.000
    H166     H        0.14640    0.89170    0.24090    1.000
    H167     H        0.07900    0.82990    0.19920    1.000
    H168     H        0.11010    0.92820    0.12100    1.000
    H169     H        0.09020    0.86650    0.03530    1.000
    Ga23     Ga       0.91047    0.22722    0.41531    1.000
    P27      P        0.90453    0.15090    0.21130    1.000
    P28      P        0.65284    0.99247    0.05849    1.000
    O105     O        0.87882    0.17550    0.29473    1.000
    O106     O        0.84417    0.08644    0.17573    1.000
    O107     O        0.92668    0.20123    0.12533    1.000
    O108     O        0.95837    0.13933    0.24043    1.000
    O109     O        0.71103    0.00116    0.12113    1.000
    O110     O        0.62172    0.92365    0.01153    1.000
    O111     O        0.60308    0.99864    0.11923    1.000
    O112     O        0.67633    0.04209    0.97403    1.000
    N40      N        0.94517    0.16713    0.46353    1.000
    N41      N        0.82437    0.15763    0.48063    1.000
    N42      N        0.85507    0.27033    0.38923    1.000
    C53      C        0.88907    0.10673    0.50503    1.000
    C54      C        0.84237    0.12283    0.55403    1.000
    C55      C        0.79047    0.19063    0.51523    1.000
    C56      C        0.78757    0.22913    0.42813    1.000
    H170     H        0.97097    0.18743    0.51163    1.000
    H171     H        0.97137    0.15913    0.41053    1.000
    H172     H        0.79787    0.12923    0.42573    1.000
    H173     H        0.84937    0.27613    0.32263    1.000
    H174     H        0.86707    0.31583    0.41893    1.000
    H175     H        0.86817    0.07173    0.44843    1.000
    H176     H        0.90557    0.09173    0.56813    1.000
    H177     H        0.80407    0.08183    0.58093    1.000
    H178     H        0.86687    0.15683    0.60673    1.000
    H179     H        0.81307    0.22503    0.57423    1.000
    H180     H        0.74567    0.16323    0.53253    1.000
    H181     H        0.77677    0.26153    0.45433    1.000
    H182     H        0.75687    0.19983    0.36863    1.000
    Ga24     Ga       0.57713    0.56056    0.74865    1.000
    P29      P        0.57119    0.48424    0.54464    1.000
    P30      P        0.31950    0.32581    0.39183    1.000
    O113     O        0.54548    0.50884    0.62807    1.000
    O114     O        0.51083    0.41978    0.50907    1.000
    O115     O        0.59334    0.53457    0.45867    1.000
    O116     O        0.62503    0.47267    0.57377    1.000
    O117     O        0.37769    0.33450    0.45447    1.000
    O118     O        0.28838    0.25699    0.34487    1.000
    O119     O        0.26974    0.33198    0.45257    1.000
    O120     O        0.34299    0.37543    0.30737    1.000
    N43      N        0.61183    0.50047    0.79687    1.000
    N44      N        0.49103    0.49097    0.81397    1.000
    N45      N        0.52173    0.60367    0.72257    1.000
    C57      C        0.55573    0.44007    0.83837    1.000
    C58      C        0.50903    0.45617    0.88737    1.000
    C59      C        0.45713    0.52397    0.84857    1.000
    C60      C        0.45423    0.56247    0.76147    1.000
    H183     H        0.63763    0.52077    0.84497    1.000
    H184     H        0.63803    0.49247    0.74387    1.000
    H185     H        0.46453    0.46257    0.75907    1.000
    H186     H        0.51603    0.60947    0.65597    1.000
    H187     H        0.53373    0.64917    0.75227    1.000
    H188     H        0.53483    0.40507    0.78177    1.000
    H189     H        0.57223    0.42507    0.90147    1.000
    H190     H        0.47073    0.41517    0.91427    1.000
    H191     H        0.53353    0.49017    0.94007    1.000
    H192     H        0.47973    0.55837    0.90757    1.000
    H193     H        0.41233    0.49657    0.86587    1.000
    H194     H        0.44343    0.59487    0.78767    1.000
    H195     H        0.42353    0.53317    0.70197    1.000
    Ga25     Ga       0.10611    0.34991    0.08198    1.000
    P31      P        0.18243    0.42029    0.87797    1.000
    P32      P        0.34086    0.32703    0.72516    1.000
    O121     O        0.15783    0.36998    0.96140    1.000
    O122     O        0.24689    0.42439    0.84240    1.000
    O123     O        0.13210    0.39211    0.79200    1.000
    O124     O        0.19400    0.48570    0.90710    1.000
    O125     O        0.33217    0.37653    0.78780    1.000
    O126     O        0.40968    0.36473    0.67820    1.000
    O127     O        0.33469    0.27110    0.78590    1.000
    O128     O        0.29124    0.30090    0.64070    1.000
    N46      N        0.16620    0.44470    0.13020    1.000
    N47      N        0.17570    0.33340    0.14730    1.000
    N48      N        0.06300    0.25140    0.05590    1.000
    C61      C        0.22660    0.44900    0.17170    1.000
    C62      C        0.21050    0.38620    0.22070    1.000
    C63      C        0.14270    0.26650    0.18190    1.000
    C64      C        0.10420    0.22510    0.09480    1.000
    H196     H        0.14590    0.45020    0.17830    1.000
    H197     H        0.17420    0.47890    0.07720    1.000
    H198     H        0.20410    0.33530    0.09240    1.000
    H199     H        0.05720    0.23990    0.98930    1.000
    H200     H        0.01750    0.21790    0.08560    1.000
    H201     H        0.26160    0.46310    0.11510    1.000
    H202     H        0.24160    0.48050    0.23480    1.000
    H203     H        0.25150    0.38890    0.24760    1.000
    H204     H        0.17650    0.37670    0.27340    1.000
    H205     H        0.10830    0.25470    0.24090    1.000
    H206     H        0.17010    0.24910    0.19920    1.000
    H207     H        0.07180    0.18190    0.12100    1.000
    H208     H        0.13350    0.22370    0.03530    1.000
    Ga26     Ga       0.77278    0.68324    0.41531    1.000
    P33      P        0.84910    0.75362    0.21130    1.000
    P34      P        0.00753    0.66036    0.05849    1.000
    O129     O        0.82450    0.70331    0.29473    1.000
    O130     O        0.91356    0.75772    0.17573    1.000
    O131     O        0.79877    0.72544    0.12533    1.000
    O132     O        0.86067    0.81903    0.24043    1.000
    O133     O        0.99884    0.70986    0.12113    1.000
    O134     O        0.07635    0.69806    0.01153    1.000
    O135     O        0.00136    0.60443    0.11923    1.000
    O136     O        0.95791    0.63423    0.97403    1.000
    N49      N        0.83287    0.77803    0.46353    1.000
    N50      N        0.84237    0.66673    0.48063    1.000
    N51      N        0.72967    0.58473    0.38923    1.000
    C65      C        0.89327    0.78233    0.50503    1.000
    C66      C        0.87717    0.71953    0.55403    1.000
    C67      C        0.80937    0.59983    0.51523    1.000
    C68      C        0.77087    0.55843    0.42813    1.000
    H209     H        0.81257    0.78353    0.51163    1.000
    H210     H        0.84087    0.81223    0.41053    1.000
    H211     H        0.87077    0.66863    0.42573    1.000
    H212     H        0.72387    0.57323    0.32263    1.000
    H213     H        0.68417    0.55123    0.41893    1.000
    H214     H        0.92827    0.79643    0.44843    1.000
    H215     H        0.90827    0.81383    0.56813    1.000
    H216     H        0.91817    0.72223    0.58093    1.000
    H217     H        0.84317    0.71003    0.60673    1.000
    H218     H        0.77497    0.58803    0.57423    1.000
    H219     H        0.83677    0.58243    0.53253    1.000
    H220     H        0.73847    0.51523    0.45433    1.000
    H221     H        0.80017    0.55703    0.36863    1.000
    Ga27     Ga       0.43944    0.01658    0.74865    1.000
    P35      P        0.51576    0.08696    0.54464    1.000
    P36      P        0.67419    0.99370    0.39183    1.000
    O137     O        0.49116    0.03665    0.62807    1.000
    O138     O        0.58022    0.09106    0.50907    1.000
    O139     O        0.46543    0.05878    0.45867    1.000
    O140     O        0.52733    0.15237    0.57377    1.000
    O141     O        0.66550    0.04320    0.45447    1.000
    O142     O        0.74301    0.03140    0.34487    1.000
    O143     O        0.66802    0.93777    0.45257    1.000
    O144     O        0.62457    0.96757    0.30737    1.000
    N52      N        0.49953    0.11137    0.79687    1.000
    N53      N        0.50903    0.00007    0.81397    1.000
    N54      N        0.39633    0.91807    0.72257    1.000
    C69      C        0.55993    0.11567    0.83837    1.000
    C70      C        0.54383    0.05287    0.88737    1.000
    C71      C        0.47603    0.93317    0.84857    1.000
    C72      C        0.43753    0.89177    0.76147    1.000
    H222     H        0.47923    0.11687    0.84497    1.000
    H223     H        0.50753    0.14557    0.74387    1.000
    H224     H        0.53743    0.00197    0.75907    1.000
    H225     H        0.39053    0.90657    0.65597    1.000
    H226     H        0.35083    0.88457    0.75227    1.000
    H227     H        0.59493    0.12977    0.78177    1.000
    H228     H        0.57493    0.14717    0.90147    1.000
    H229     H        0.58483    0.05557    0.91427    1.000
    H230     H        0.50983    0.04337    0.94007    1.000
    H231     H        0.44163    0.92137    0.90757    1.000
    H232     H        0.50343    0.91577    0.86587    1.000
    H233     H        0.40513    0.84857    0.78767    1.000
    H234     H        0.46683    0.89037    0.70197    1.000
