data_functionalizedCrystal
_audit_creation_method	'EQeq! by Chris Wilmer'
_symmetry_space_group_name_H-M	'P1'
_symmetry_Int_Tables_number	1
_symmetry_cell_setting	triclinic
loop_
_symmetry_equiv_pos_as_xyz
  x,y,z
_cell_length_a	10.9011
_cell_length_b	28.8367
_cell_length_c	23.3641
_cell_angle_alpha	90
_cell_angle_beta	102.5
_cell_angle_gamma	90
loop_
_atom_site_label
_atom_site_type_symbol
_atom_site_fract_x
_atom_site_fract_y
_atom_site_fract_z
_atom_site_charge
Mof_C 	C 	0.9987	0.85518	0.04951	0.376
Mof_C 	C 	0.0902	0.81638	0.06725	-0.127
Mof_C 	C 	0.0459	0.77143	0.06744	0.068
Mof_H 	H 	0.9581	0.7654	0.0577	0.025
Mof_C 	C 	0.1308	0.73523	0.08197	-0.137
Mof_C 	C 	0.0828	0.68661	0.08236	0.406
Mof_C 	C 	0.2584	0.74377	0.0955	0.057
Mof_C 	C 	0.2177	0.82583	0.0812	0.047
Mof_C 	C 	0.3004	0.7907	0.1026	0.048
Mof_C 	C 	0.4729	0.845	0.1301	-0.066
Mof_C 	C 	0.6117	0.8399	0.1603	-0.002
Mof_C 	C 	0.6954	0.8117	0.126	-0.062
Mof_C 	C 	0.8339	0.813	0.1632	0.06
Mof_C 	C 	0.2142	0.54177	0.99042	0.358
Mof_C 	C 	0.315	0.53114	0.95809	-0.052
Mof_C 	C 	0.4285	0.55525	0.97248	-0.002
Mof_H 	H 	0.4389	0.5797	0.0004	0.063
Mof_C 	C 	0.5258	0.5433	0.94577	-0.051
Mof_C 	C 	0.6527	0.5659	0.9641	0.374
Mof_C 	C 	0.5111	0.50739	0.90458	-0.101
Mof_H 	H 	0.5777	0.4996	0.886	0.081
Mof_C 	C 	0.3983	0.48337	0.89119	0.161
Mof_C 	C 	0.3	0.49559	0.91702	-0.099
Mof_H 	H 	0.2221	0.4796	0.9066	0.074
Mof_C 	C 	0.4737	0.43415	0.8228	0.006
Mof_H 	H 	0.5553	0.43	0.8508	0.039
Mof_H 	H 	0.4828	0.4595	0.7954	0.04
Mof_C 	C 	0.4361	0.3896	0.789	-0.003
Mof_C 	C 	0.4685	0.3482	0.8223	-0.004
Mof_C 	C 	0.4306	0.3039	0.7851	0.001
Mof_C 	C 	0.1613	0.51598	0.15233	0.35
Mof_C 	C 	0.226	0.48868	0.2039	-0.063
Mof_C 	C 	0.3097	0.51107	0.2486	-0.002
Mof_H 	H 	0.3269	0.5432	0.2454	0.055
Mof_C 	C 	0.3681	0.48623	0.298	-0.063
Mof_C 	C 	0.4563	0.51156	0.34556	0.362
Mof_C 	C 	0.3402	0.4397	0.30398	-0.096
Mof_H 	H 	0.3792	0.4231	0.3382	0.093
Mof_C 	C 	0.2543	0.41759	0.2593	0.168
Mof_C 	C 	0.1982	0.44149	0.2085	-0.102
Mof_H 	H 	0.1421	0.4261	0.1776	0.08
Mof_C 	C 	0.1358	0.3479	0.2264	0.006
Mof_C 	C 	0.1395	0.2969	0.2454	-0.02
Mof_C 	C 	0.2768	0.2764	0.2443	0.007
Mof_C 	C 	0.2813	0.225	0.2485	-0.008
Mof_C 	C 	0.4868	0.68432	0.40226	0.398
Mof_C 	C 	0.535	0.7326	0.4001	-0.126
Mof_C 	C 	0.4701	0.77013	0.41681	0.057
Mof_H 	H 	0.3932	0.7652	0.4288	0.028
Mof_C 	C 	0.5177	0.81466	0.41598	-0.119
Mof_C 	C 	0.4502	0.8549	0.43544	0.369
Mof_C 	C 	0.711	0.7854	0.3998	0.044
Mof_C 	C 	0.6623	0.7405	0.3975	0.039
Mof_C 	C 	0.64	0.8234	0.409	-0
Mof_C 	C 	0.8749	0.8326	0.3749	0.006
Mof_C 	C 	0.9819	0.8231	0.3398	-0.005
Mof_C 	C 	0.0483	0.8698	0.3338	0.008
Mof_C 	C 	0.9738	0.9036	0.2941	-0.003
Mof_C 	C 	0.7119	0.54339	0.503	0.367
Mof_C 	C 	0.8419	0.53653	0.53753	-0.058
Mof_C 	C 	0.9416	0.55711	0.51818	-0.001
Mof_H 	H 	0.9257	0.5771	0.4851	0.059
Mof_C 	C 	0.0638	0.54819	0.54758	-0.051
Mof_C 	C 	0.1729	0.5683	0.52615	0.37
Mof_C 	C 	0.0887	0.51824	0.59531	-0.107
Mof_H 	H 	0.1729	0.5117	0.6146	0.083
Mof_C 	C 	0.9893	0.49791	0.61456	0.167
Mof_C 	C 	0.866	0.50777	0.58637	-0.098
Mof_H 	H 	0.7982	0.4948	0.6006	0.079
Mof_C 	C 	0.128	0.45874	0.6947	0.051
Mof_H 	H 	0.1867	0.4524	0.6687	0.018
Mof_H 	H 	0.1275	0.4314	0.7202	0.024
Mof_C 	C 	0.1737	0.5021	0.7332	-0.127
Mof_H 	H 	0.2595	0.496	0.7565	0.076
Mof_H 	H 	0.1787	0.5288	0.7072	0.077
Mof_C 	C 	0.0899	0.5149	0.7745	-0.103
Mof_H 	H 	0.0921	0.4897	0.8034	0.067
Mof_H 	H 	0.0024	0.5179	0.7518	0.079
Mof_C 	C 	0.1289	0.5601	0.807	0.015
Mof_O 	O 	0.8879	0.84458	0.02541	-0.45
Mof_O 	O 	0.9457	0.57694	0.04133	-0.623
Mof_O 	O 	0.0418	0.89559	0.05985	-0.438
Mof_O 	O 	0.3918	0.57575	0.44888	-0.611
Mof_O 	O 	0.9678	0.68045	0.07685	-0.476
Mof_O 	O 	0.1638	0.65498	0.08842	-0.462
Mof_O 	O 	0.4293	0.79663	0.1186	-0.091
Mof_O 	O 	0.1126	0.5185	0.97999	-0.492
Mof_O 	O 	0.2373	0.57377	0.02778	-0.45
Mof_O 	O 	0.7367	0.55082	0.93941	-0.44
Mof_O 	O 	0.6662	0.59643	0.00317	-0.447
Mof_O 	O 	0.3774	0.44566	0.85407	-0.227
Mof_O 	O 	0.0887	0.49727	0.10992	-0.45
Mof_O 	O 	0.1809	0.55963	0.1541	-0.437
Mof_O 	O 	0.5017	0.49249	0.39286	-0.459
Mof_O 	O 	0.4786	0.55395	0.33588	-0.444
Mof_O 	O 	0.2242	0.37204	0.2717	-0.096
Mof_O 	O 	0.5652	0.65203	0.4011	-0.454
Mof_O 	O 	0.3749	0.67836	0.40466	-0.469
Mof_O 	O 	0.3597	0.84565	0.45862	-0.448
Mof_O 	O 	0.4897	0.89504	0.42785	-0.434
Mof_O 	O 	0.8351	0.7881	0.3947	-0.111
Mof_O 	O 	0.6973	0.57295	0.46243	-0.452
Mof_O 	O 	0.62311	0.51944	0.5153	-0.514
Mof_O 	O 	0.1488	0.5968	0.48434	-0.448
Mof_O 	O 	0.2796	0.55401	0.55169	-0.433
Mof_O 	O 	0.0026	0.46638	0.65947	-0.234
Mof_Co	Co	0.94856	0.95412	0.03156	1.19
Mof_Co	Co	0.12191	0.58997	0.0775	1.174
Mof_Co	Co	0.82505	0.63339	0.03792	1.133
Mof_Co	Co	0.92513	0.54626	0.96048	1.182
Mof_Co	Co	0.53455	0.58602	0.41096	1.173
Mof_Co	Co	0.27489	0.6328	0.44847	1.136
Mof_C 	C 	0.3032	0.7862	0.0814	0.022
Mof_C 	C 	0.4882	0.836	0.1006	0.15
Mof_C 	C 	0.643	0.8287	0.1092	0.015
Mof_C 	C 	0.677	0.7955	0.1582	0.055
Mof_C 	C 	0.8235	0.7864	0.1686	-0.057
Mof_C 	C 	0.5355	0.3599	0.78	-0.004
Mof_C 	C 	0.491	0.3117	0.7516	0.004
Mof_C 	C 	0.1783	0.3451	0.2116	0.072
Mof_C 	C 	0.17	0.2933	0.2353	0.027
Mof_C 	C 	0.6211	0.8214	0.3874	0.029
Mof_C 	C 	0.6346	0.7391	0.3706	0.006
Mof_C 	C 	0.8497	0.8328	0.3483	0.081
Mof_C 	C 	0.6829	0.784	0.3699	0.044
Mof_O 	O 	0.4317	0.7899	0.0885	-0.123
Mof_O 	O 	0.2699	0.3687	0.2565	-0.124
Mof_O 	O 	0.7927	0.78698	0.3507	-0.128
Mof_C 	C 	0.5013	0.35518	0.45049	0.378
Mof_C 	C 	0.4098	0.31638	0.43275	-0.126
Mof_C 	C 	0.4541	0.27143	0.43256	0.068
Mof_H 	H 	0.5419	0.2654	0.4423	0.026
Mof_C 	C 	0.3692	0.23523	0.41803	-0.135
Mof_C 	C 	0.4172	0.18661	0.41764	0.407
Mof_C 	C 	0.2416	0.24377	0.4045	0.057
Mof_C 	C 	0.2823	0.32583	0.4188	0.047
Mof_C 	C 	0.1996	0.2907	0.3974	0.048
Mof_C 	C 	0.0271	0.345	0.3699	-0.066
Mof_C 	C 	0.8883	0.3399	0.3397	-0.002
Mof_C 	C 	0.8046	0.3117	0.374	-0.062
Mof_C 	C 	0.6661	0.313	0.3368	0.06
Mof_C 	C 	0.2858	0.04177	0.50958	0.358
Mof_C 	C 	0.185	0.03114	0.54191	-0.053
Mof_C 	C 	0.0715	0.05525	0.52752	-0.002
Mof_H 	H 	0.0611	0.0797	0.4996	0.063
Mof_C 	C 	0.9742	0.0433	0.55423	-0.051
Mof_C 	C 	0.8473	0.0659	0.5359	0.374
Mof_C 	C 	0.9889	0.00739	0.59542	-0.1
Mof_H 	H 	0.9223	0.9996	0.614	0.08
Mof_C 	C 	0.1017	0.98337	0.60881	0.161
Mof_C 	C 	0.2	0.99559	0.58298	-0.099
Mof_H 	H 	0.2779	0.9796	0.5934	0.074
Mof_C 	C 	0.0263	0.93415	0.6772	0.006
Mof_H 	H 	0.9447	0.93	0.6492	0.039
Mof_H 	H 	0.0172	0.9595	0.7046	0.04
Mof_C 	C 	0.0639	0.8896	0.711	-0.003
Mof_C 	C 	0.0315	0.8482	0.6777	-0.003
Mof_C 	C 	0.0694	0.8039	0.7149	0.001
Mof_C 	C 	0.3387	0.01598	0.34767	0.349
Mof_C 	C 	0.274	0.98868	0.2961	-0.061
Mof_C 	C 	0.1903	0.01107	0.2514	-0.005
Mof_H 	H 	0.1731	0.0432	0.2546	0.056
Mof_C 	C 	0.1319	0.98623	0.202	-0.061
Mof_C 	C 	0.0437	0.01156	0.15444	0.36
Mof_C 	C 	0.1598	0.9397	0.19602	-0.098
Mof_H 	H 	0.1208	0.9231	0.1618	0.094
Mof_C 	C 	0.2457	0.91759	0.2407	0.169
Mof_C 	C 	0.3018	0.94149	0.2915	-0.103
Mof_H 	H 	0.3579	0.9261	0.3224	0.081
Mof_C 	C 	0.3642	0.8479	0.2736	0.006
Mof_C 	C 	0.3605	0.7969	0.2546	-0.02
Mof_C 	C 	0.2232	0.7764	0.2557	0.007
Mof_C 	C 	0.2187	0.725	0.2515	-0.008
Mof_C 	C 	0.0132	0.18432	0.09774	0.397
Mof_C 	C 	0.965	0.2326	0.0999	-0.125
Mof_C 	C 	0.0299	0.27013	0.08319	0.057
Mof_H 	H 	0.1068	0.2652	0.0712	0.028
Mof_C 	C 	0.9823	0.31466	0.08402	-0.118
Mof_C 	C 	0.0498	0.3549	0.06456	0.369
Mof_C 	C 	0.789	0.2854	0.1002	0.044
Mof_C 	C 	0.8377	0.2405	0.1025	0.039
Mof_C 	C 	0.86	0.3234	0.091	-0.001
Mof_C 	C 	0.6251	0.3326	0.1251	0.005
Mof_C 	C 	0.5181	0.3231	0.1602	-0.005
Mof_C 	C 	0.4517	0.3698	0.1662	0.008
Mof_C 	C 	0.5262	0.4036	0.2059	-0.003
Mof_C 	C 	0.7881	0.04339	0.997	0.369
Mof_C 	C 	0.6581	0.03653	0.96247	-0.06
Mof_C 	C 	0.5584	0.05711	0.98182	0.002
Mof_H 	H 	0.5743	0.0771	0.0149	0.058
Mof_C 	C 	0.4362	0.04819	0.95242	-0.053
Mof_C 	C 	0.3271	0.0683	0.97385	0.371
Mof_C 	C 	0.4113	0.01824	0.90469	-0.104
Mof_H 	H 	0.3271	0.0117	0.8854	0.082
Mof_C 	C 	0.5107	0.99791	0.88544	0.165
Mof_C 	C 	0.634	0.00777	0.91363	-0.095
Mof_H 	H 	0.7018	0.9948	0.8994	0.078
Mof_C 	C 	0.372	0.95874	0.8053	0.051
Mof_H 	H 	0.3133	0.9524	0.8313	0.018
Mof_H 	H 	0.3725	0.9314	0.7798	0.024
Mof_C 	C 	0.3263	0.0021	0.7668	-0.127
Mof_H 	H 	0.2405	0.996	0.7435	0.076
Mof_H 	H 	0.3213	0.0288	0.7928	0.077
Mof_C 	C 	0.4101	0.0149	0.7255	-0.103
Mof_H 	H 	0.4079	0.9897	0.6966	0.067
Mof_H 	H 	0.4976	0.0179	0.7482	0.079
Mof_C 	C 	0.3711	0.0601	0.693	0.015
Mof_O 	O 	0.6121	0.34458	0.47459	-0.45
Mof_O 	O 	0.5543	0.07694	0.45867	-0.623
Mof_O 	O 	0.4582	0.39559	0.44015	-0.439
Mof_O 	O 	0.1082	0.07575	0.05112	-0.611
Mof_O 	O 	0.5322	0.18045	0.42315	-0.476
Mof_O 	O 	0.3362	0.15498	0.41158	-0.462
Mof_O 	O 	0.0707	0.29663	0.3814	-0.091
Mof_O 	O 	0.3874	0.0185	0.52001	-0.492
Mof_O 	O 	0.2627	0.07377	0.47222	-0.45
Mof_O 	O 	0.7633	0.05082	0.56059	-0.44
Mof_O 	O 	0.8338	0.09643	0.49683	-0.448
Mof_O 	O 	0.1226	0.94566	0.64593	-0.227
Mof_O 	O 	0.4113	0.99727	0.39008	-0.449
Mof_O 	O 	0.3191	0.05963	0.3459	-0.437
Mof_O 	O 	0.9983	0.99249	0.10714	-0.458
Mof_O 	O 	0.0214	0.05395	0.16412	-0.444
Mof_O 	O 	0.2758	0.87204	0.2283	-0.096
Mof_O 	O 	0.9348	0.15203	0.0989	-0.454
Mof_O 	O 	0.1251	0.17836	0.09534	-0.469
Mof_O 	O 	0.1403	0.34565	0.04138	-0.448
Mof_O 	O 	0.0103	0.39504	0.07215	-0.434
Mof_O 	O 	0.6649	0.2881	0.1053	-0.111
Mof_O 	O 	0.8027	0.07295	0.03757	-0.452
Mof_O 	O 	0.87689	0.01944	0.9847	-0.514
Mof_O 	O 	0.3512	0.0968	0.01566	-0.449
Mof_O 	O 	0.2204	0.05401	0.94831	-0.434
Mof_O 	O 	0.4974	0.96638	0.84053	-0.234
Mof_Co	Co	0.55144	0.45412	0.46844	1.19
Mof_Co	Co	0.37809	0.08997	0.4225	1.174
Mof_Co	Co	0.67495	0.13339	0.46208	1.133
Mof_Co	Co	0.57487	0.04626	0.53952	1.182
Mof_Co	Co	0.96545	0.08602	0.08904	1.174
Mof_Co	Co	0.22511	0.1328	0.05153	1.136
Mof_C 	C 	0.1968	0.2862	0.4186	0.022
Mof_C 	C 	0.0118	0.336	0.3994	0.15
Mof_C 	C 	0.857	0.3287	0.3908	0.015
Mof_C 	C 	0.823	0.2955	0.3418	0.055
Mof_C 	C 	0.6765	0.2864	0.3314	-0.057
Mof_C 	C 	0.9645	0.8599	0.72	-0.004
Mof_C 	C 	0.009	0.8117	0.7484	0.004
Mof_C 	C 	0.3217	0.8451	0.2884	0.072
Mof_C 	C 	0.33	0.7933	0.2647	0.027
Mof_C 	C 	0.8789	0.3214	0.1126	0.029
Mof_C 	C 	0.8654	0.2391	0.1294	0.006
Mof_C 	C 	0.6503	0.3328	0.1517	0.081
Mof_C 	C 	0.8171	0.284	0.1301	0.044
Mof_O 	O 	0.0683	0.2899	0.4115	-0.123
Mof_O 	O 	0.2301	0.8687	0.2435	-0.124
Mof_O 	O 	0.7073	0.28698	0.1493	-0.128
Mof_C 	C 	0.0013	0.14482	0.95049	0.377
Mof_C 	C 	0.9098	0.18362	0.93275	-0.126
Mof_C 	C 	0.9541	0.22857	0.93256	0.069
Mof_H 	H 	0.0419	0.2346	0.9423	0.026
Mof_C 	C 	0.8692	0.26477	0.91803	-0.136
Mof_C 	C 	0.9172	0.31339	0.91764	0.407
Mof_C 	C 	0.7416	0.25623	0.9045	0.057
Mof_C 	C 	0.7823	0.17417	0.9188	0.047
Mof_C 	C 	0.6996	0.2093	0.8974	0.048
Mof_C 	C 	0.5271	0.155	0.8699	-0.066
Mof_C 	C 	0.3883	0.1601	0.8397	-0.002
Mof_C 	C 	0.3046	0.1883	0.874	-0.062
Mof_C 	C 	0.1661	0.187	0.8368	0.06
Mof_C 	C 	0.7858	0.45823	0.00958	0.358
Mof_C 	C 	0.685	0.46886	0.04191	-0.052
Mof_C 	C 	0.5715	0.44475	0.02752	-0.002
Mof_H 	H 	0.5611	0.4203	0.9996	0.063
Mof_C 	C 	0.4742	0.4567	0.05423	-0.051
Mof_C 	C 	0.3473	0.4341	0.0359	0.374
Mof_C 	C 	0.4889	0.49261	0.09542	-0.101
Mof_H 	H 	0.4223	0.5004	0.114	0.081
Mof_C 	C 	0.6017	0.51663	0.10881	0.161
Mof_C 	C 	0.7	0.50441	0.08298	-0.099
Mof_H 	H 	0.7779	0.5204	0.0934	0.074
Mof_C 	C 	0.5263	0.56585	0.1772	0.006
Mof_H 	H 	0.4447	0.57	0.1492	0.039
Mof_H 	H 	0.5172	0.5405	0.2046	0.04
Mof_C 	C 	0.5639	0.6104	0.211	-0.003
Mof_C 	C 	0.5315	0.6518	0.1777	-0.004
Mof_C 	C 	0.5694	0.6961	0.2149	0.001
Mof_C 	C 	0.8387	0.48402	0.84767	0.35
Mof_C 	C 	0.774	0.51132	0.7961	-0.063
Mof_C 	C 	0.6903	0.48893	0.7514	-0.002
Mof_H 	H 	0.6731	0.4568	0.7546	0.055
Mof_C 	C 	0.6319	0.51377	0.702	-0.063
Mof_C 	C 	0.5437	0.48844	0.65444	0.362
Mof_C 	C 	0.6598	0.5603	0.69602	-0.096
Mof_H 	H 	0.6208	0.5769	0.6618	0.093
Mof_C 	C 	0.7457	0.58241	0.7407	0.168
Mof_C 	C 	0.8018	0.55851	0.7915	-0.102
Mof_H 	H 	0.8579	0.5739	0.8224	0.08
Mof_C 	C 	0.8642	0.6521	0.7736	0.006
Mof_C 	C 	0.8605	0.7031	0.7546	-0.02
Mof_C 	C 	0.7232	0.7236	0.7557	0.007
Mof_C 	C 	0.7187	0.775	0.7515	-0.008
Mof_C 	C 	0.5132	0.31568	0.59774	0.398
Mof_C 	C 	0.465	0.2674	0.5999	-0.126
Mof_C 	C 	0.5299	0.22987	0.58319	0.057
Mof_H 	H 	0.6068	0.2348	0.5712	0.028
Mof_C 	C 	0.4823	0.18534	0.58402	-0.119
Mof_C 	C 	0.5498	0.1451	0.56456	0.369
Mof_C 	C 	0.289	0.2146	0.6002	0.044
Mof_C 	C 	0.3377	0.2595	0.6025	0.039
Mof_C 	C 	0.36	0.1766	0.591	-0
Mof_C 	C 	0.1251	0.1674	0.6251	0.006
Mof_C 	C 	0.0181	0.1769	0.6602	-0.005
Mof_C 	C 	0.9517	0.1302	0.6662	0.008
Mof_C 	C 	0.0262	0.0964	0.7059	-0.003
Mof_C 	C 	0.2881	0.45661	0.497	0.367
Mof_C 	C 	0.1581	0.46347	0.46247	-0.058
Mof_C 	C 	0.0584	0.44289	0.48182	-0.001
Mof_H 	H 	0.0743	0.4229	0.5149	0.059
Mof_C 	C 	0.9362	0.45181	0.45242	-0.051
Mof_C 	C 	0.8271	0.4317	0.47385	0.37
Mof_C 	C 	0.9113	0.48176	0.40469	-0.107
Mof_H 	H 	0.8271	0.4883	0.3854	0.083
Mof_C 	C 	0.0107	0.50209	0.38544	0.167
Mof_C 	C 	0.134	0.49223	0.41363	-0.098
Mof_H 	H 	0.2018	0.5052	0.3994	0.079
Mof_C 	C 	0.872	0.54126	0.3053	0.051
Mof_H 	H 	0.8133	0.5476	0.3313	0.018
Mof_H 	H 	0.8725	0.5686	0.2798	0.024
Mof_C 	C 	0.8263	0.4979	0.2668	-0.127
Mof_H 	H 	0.7405	0.504	0.2435	0.076
Mof_H 	H 	0.8213	0.4712	0.2928	0.077
Mof_C 	C 	0.9101	0.4851	0.2255	-0.103
Mof_H 	H 	0.9079	0.5103	0.1966	0.067
Mof_H 	H 	0.9976	0.4821	0.2482	0.079
Mof_C 	C 	0.8711	0.4399	0.193	0.015
Mof_O 	O 	0.1121	0.15542	0.97459	-0.45
Mof_O 	O 	0.0543	0.42306	0.95867	-0.623
Mof_O 	O 	0.9582	0.10441	0.94015	-0.438
Mof_O 	O 	0.6082	0.42425	0.55112	-0.611
Mof_O 	O 	0.0322	0.31955	0.92315	-0.476
Mof_O 	O 	0.8362	0.34502	0.91158	-0.462
Mof_O 	O 	0.5707	0.20337	0.8814	-0.091
Mof_O 	O 	0.8874	0.4815	0.02001	-0.492
Mof_O 	O 	0.7627	0.42623	0.97222	-0.45
Mof_O 	O 	0.2633	0.44918	0.06059	-0.44
Mof_O 	O 	0.3338	0.40357	0.99683	-0.447
Mof_O 	O 	0.6226	0.55434	0.14593	-0.227
Mof_O 	O 	0.9113	0.50273	0.89008	-0.45
Mof_O 	O 	0.8191	0.44037	0.8459	-0.437
Mof_O 	O 	0.4983	0.50751	0.60714	-0.459
Mof_O 	O 	0.5214	0.44605	0.66412	-0.444
Mof_O 	O 	0.7758	0.62796	0.7283	-0.096
Mof_O 	O 	0.4348	0.34797	0.5989	-0.454
Mof_O 	O 	0.6251	0.32164	0.59534	-0.469
Mof_O 	O 	0.6403	0.15435	0.54138	-0.448
Mof_O 	O 	0.5103	0.10496	0.57215	-0.434
Mof_O 	O 	0.1649	0.2119	0.6053	-0.111
Mof_O 	O 	0.3027	0.42705	0.53757	-0.452
Mof_O 	O 	0.37689	0.48056	0.4847	-0.514
Mof_O 	O 	0.8512	0.4032	0.51566	-0.448
Mof_O 	O 	0.7204	0.44599	0.44831	-0.433
Mof_O 	O 	0.9974	0.53362	0.34053	-0.234
Mof_Co	Co	0.05144	0.04588	0.96844	1.19
Mof_Co	Co	0.87809	0.41003	0.9225	1.174
Mof_Co	Co	0.17495	0.36661	0.96208	1.133
Mof_Co	Co	0.07487	0.45374	0.03952	1.182
Mof_Co	Co	0.46545	0.41398	0.58904	1.173
Mof_Co	Co	0.72511	0.3672	0.55153	1.136
Mof_C 	C 	0.6968	0.2138	0.9186	0.022
Mof_C 	C 	0.5118	0.164	0.8994	0.15
Mof_C 	C 	0.357	0.1713	0.8908	0.015
Mof_C 	C 	0.323	0.2045	0.8418	0.055
Mof_C 	C 	0.1765	0.2136	0.8314	-0.057
Mof_C 	C 	0.4645	0.6401	0.22	-0.004
Mof_C 	C 	0.509	0.6883	0.2484	0.004
Mof_C 	C 	0.8217	0.6549	0.7884	0.072
Mof_C 	C 	0.83	0.7067	0.7647	0.027
Mof_C 	C 	0.3789	0.1786	0.6126	0.029
Mof_C 	C 	0.3654	0.2609	0.6294	0.006
Mof_C 	C 	0.1503	0.1672	0.6517	0.081
Mof_C 	C 	0.3171	0.216	0.6301	0.044
Mof_O 	O 	0.5683	0.2101	0.9115	-0.123
Mof_O 	O 	0.7301	0.6313	0.7435	-0.124
Mof_O 	O 	0.2073	0.21302	0.6493	-0.128
Mof_C 	C 	0.4987	0.64482	0.54951	0.378
Mof_C 	C 	0.5902	0.68362	0.56725	-0.126
Mof_C 	C 	0.5459	0.72857	0.56744	0.068
Mof_H 	H 	0.4581	0.7346	0.5577	0.026
Mof_C 	C 	0.6308	0.76477	0.58197	-0.135
Mof_C 	C 	0.5828	0.81339	0.58236	0.407
Mof_C 	C 	0.7584	0.75623	0.5955	0.057
Mof_C 	C 	0.7177	0.67417	0.5812	0.047
Mof_C 	C 	0.8004	0.7093	0.6026	0.048
Mof_C 	C 	0.9729	0.655	0.6301	-0.066
Mof_C 	C 	0.1117	0.6601	0.6603	-0.002
Mof_C 	C 	0.1954	0.6883	0.626	-0.062
Mof_C 	C 	0.3339	0.687	0.6632	0.06
Mof_C 	C 	0.7142	0.95823	0.49042	0.358
Mof_C 	C 	0.815	0.96886	0.45809	-0.053
Mof_C 	C 	0.9285	0.94475	0.47248	-0.002
Mof_H 	H 	0.9389	0.9203	0.5004	0.063
Mof_C 	C 	0.0258	0.9567	0.44577	-0.051
Mof_C 	C 	0.1527	0.9341	0.4641	0.374
Mof_C 	C 	0.0111	0.99261	0.40458	-0.1
Mof_H 	H 	0.0777	0.0004	0.386	0.08
Mof_C 	C 	0.8983	0.01663	0.39119	0.161
Mof_C 	C 	0.8	0.00441	0.41702	-0.099
Mof_H 	H 	0.7221	0.0204	0.4066	0.074
Mof_C 	C 	0.9737	0.06585	0.3228	0.006
Mof_H 	H 	0.0553	0.07	0.3508	0.039
Mof_H 	H 	0.9828	0.0405	0.2954	0.04
Mof_C 	C 	0.9361	0.1104	0.289	-0.003
Mof_C 	C 	0.9685	0.1518	0.3223	-0.003
Mof_C 	C 	0.9306	0.1961	0.2851	0.001
Mof_C 	C 	0.6613	0.98402	0.65233	0.349
Mof_C 	C 	0.726	0.01132	0.7039	-0.061
Mof_C 	C 	0.8097	0.98893	0.7486	-0.005
Mof_H 	H 	0.8269	0.9568	0.7454	0.056
Mof_C 	C 	0.8681	0.01377	0.798	-0.061
Mof_C 	C 	0.9563	0.98844	0.84556	0.36
Mof_C 	C 	0.8402	0.0603	0.80398	-0.098
Mof_H 	H 	0.8792	0.0769	0.8382	0.094
Mof_C 	C 	0.7543	0.08241	0.7593	0.169
Mof_C 	C 	0.6982	0.05851	0.7085	-0.103
Mof_H 	H 	0.6421	0.0739	0.6776	0.081
Mof_C 	C 	0.6358	0.1521	0.7264	0.006
Mof_C 	C 	0.6395	0.2031	0.7454	-0.02
Mof_C 	C 	0.7768	0.2236	0.7443	0.007
Mof_C 	C 	0.7813	0.275	0.7485	-0.008
Mof_C 	C 	0.9868	0.81568	0.90226	0.397
Mof_C 	C 	0.035	0.7674	0.9001	-0.125
Mof_C 	C 	0.9701	0.72987	0.91681	0.057
Mof_H 	H 	0.8932	0.7348	0.9288	0.028
Mof_C 	C 	0.0177	0.68534	0.91598	-0.118
Mof_C 	C 	0.9502	0.6451	0.93544	0.369
Mof_C 	C 	0.211	0.7146	0.8998	0.044
Mof_C 	C 	0.1623	0.7595	0.8975	0.039
Mof_C 	C 	0.14	0.6766	0.909	-0.001
Mof_C 	C 	0.3749	0.6674	0.8749	0.005
Mof_C 	C 	0.4819	0.6769	0.8398	-0.005
Mof_C 	C 	0.5483	0.6302	0.8338	0.008
Mof_C 	C 	0.4738	0.5964	0.7941	-0.003
Mof_C 	C 	0.2119	0.95661	0.003	0.369
Mof_C 	C 	0.3419	0.96347	0.03753	-0.06
Mof_C 	C 	0.4416	0.94289	0.01818	0.002
Mof_H 	H 	0.4257	0.9229	0.9851	0.058
Mof_C 	C 	0.5638	0.95181	0.04758	-0.053
Mof_C 	C 	0.6729	0.9317	0.02615	0.371
Mof_C 	C 	0.5887	0.98176	0.09531	-0.104
Mof_H 	H 	0.6729	0.9883	0.1146	0.082
Mof_C 	C 	0.4893	0.00209	0.11456	0.165
Mof_C 	C 	0.366	0.99223	0.08637	-0.095
Mof_H 	H 	0.2982	0.0052	0.1006	0.078
Mof_C 	C 	0.628	0.04126	0.1947	0.051
Mof_H 	H 	0.6867	0.0476	0.1687	0.018
Mof_H 	H 	0.6275	0.0686	0.2202	0.024
Mof_C 	C 	0.6737	0.9979	0.2332	-0.127
Mof_H 	H 	0.7595	0.004	0.2565	0.076
Mof_H 	H 	0.6787	0.9712	0.2072	0.077
Mof_C 	C 	0.5899	0.9851	0.2745	-0.103
Mof_H 	H 	0.5921	0.0103	0.3034	0.067
Mof_H 	H 	0.5024	0.9821	0.2518	0.079
Mof_C 	C 	0.6289	0.9399	0.307	0.015
Mof_O 	O 	0.3879	0.65542	0.52541	-0.45
Mof_O 	O 	0.4457	0.92306	0.54133	-0.623
Mof_O 	O 	0.5418	0.60441	0.55985	-0.439
Mof_O 	O 	0.8918	0.92425	0.94888	-0.611
Mof_O 	O 	0.4678	0.81955	0.57685	-0.476
Mof_O 	O 	0.6638	0.84502	0.58842	-0.462
Mof_O 	O 	0.9293	0.70337	0.6186	-0.091
Mof_O 	O 	0.6126	0.9815	0.47999	-0.492
Mof_O 	O 	0.7373	0.92623	0.52778	-0.45
Mof_O 	O 	0.2367	0.94918	0.43941	-0.44
Mof_O 	O 	0.1662	0.90357	0.50317	-0.448
Mof_O 	O 	0.8774	0.05434	0.35407	-0.227
Mof_O 	O 	0.5887	0.00273	0.60992	-0.449
Mof_O 	O 	0.6809	0.94037	0.6541	-0.437
Mof_O 	O 	0.0017	0.00751	0.89286	-0.458
Mof_O 	O 	0.9786	0.94605	0.83588	-0.444
Mof_O 	O 	0.7242	0.12796	0.7717	-0.096
Mof_O 	O 	0.0652	0.84797	0.9011	-0.454
Mof_O 	O 	0.8749	0.82164	0.90466	-0.469
Mof_O 	O 	0.8597	0.65435	0.95862	-0.448
Mof_O 	O 	0.9897	0.60496	0.92785	-0.434
Mof_O 	O 	0.3351	0.7119	0.8947	-0.111
Mof_O 	O 	0.1973	0.92705	0.96243	-0.452
Mof_O 	O 	0.12311	0.98056	0.0153	-0.514
Mof_O 	O 	0.6488	0.9032	0.98434	-0.449
Mof_O 	O 	0.7796	0.94599	0.05169	-0.434
Mof_O 	O 	0.5026	0.03362	0.15947	-0.234
Mof_Co	Co	0.44856	0.54588	0.53156	1.19
Mof_Co	Co	0.62191	0.91003	0.5775	1.174
Mof_Co	Co	0.32505	0.86661	0.53792	1.133
Mof_Co	Co	0.42513	0.95374	0.46048	1.182
Mof_Co	Co	0.03455	0.91398	0.91096	1.174
Mof_Co	Co	0.77489	0.8672	0.94847	1.136
Mof_C 	C 	0.8032	0.7138	0.5814	0.022
Mof_C 	C 	0.9882	0.664	0.6006	0.15
Mof_C 	C 	0.143	0.6713	0.6092	0.015
Mof_C 	C 	0.177	0.7045	0.6582	0.055
Mof_C 	C 	0.3235	0.7136	0.6686	-0.057
Mof_C 	C 	0.0355	0.1401	0.28	-0.004
Mof_C 	C 	0.991	0.1883	0.2516	0.004
Mof_C 	C 	0.6783	0.1549	0.7116	0.072
Mof_C 	C 	0.67	0.2067	0.7353	0.027
Mof_C 	C 	0.1211	0.6786	0.8874	0.029
Mof_C 	C 	0.1346	0.7609	0.8706	0.006
Mof_C 	C 	0.3497	0.6672	0.8483	0.081
Mof_C 	C 	0.1829	0.716	0.8699	0.044
Mof_O 	O 	0.9317	0.7101	0.5885	-0.123
Mof_O 	O 	0.7699	0.1313	0.7565	-0.124
Mof_O 	O 	0.2927	0.71302	0.8507	-0.128
_end
