data_functionalizedCrystal
_audit_creation_method	'EQeq! by Chris Wilmer'
_symmetry_space_group_name_H-M	'P1'
_symmetry_Int_Tables_number	1
_symmetry_cell_setting	triclinic
loop_
_symmetry_equiv_pos_as_xyz
  x,y,z
_cell_length_a	15.035
_cell_length_b	15.035
_cell_length_c	19.294
_cell_angle_alpha	90
_cell_angle_beta	90
_cell_angle_gamma	90
loop_
_atom_site_label
_atom_site_type_symbol
_atom_site_fract_x
_atom_site_fract_y
_atom_site_fract_z
_atom_site_charge
Mof_O 	O 	0.0523	0.8779	0.0573	-0.482
Mof_C 	C 	0.169	0.7342	0.0623	0.218
Mof_O 	O 	0.1416	0.7572	0.1216	-0.377
Mof_H 	H 	0.1067	0.8005	0.1177	0.269
Mof_C 	C 	0.023	0.9093	0.2092	-0.197
Mof_C 	C 	0.923	0.051	0.2083	-0.482
Mof_O 	O 	0.5523	0.3779	0.5573	-0.494
Mof_C 	C 	0.669	0.2342	0.5623	0.216
Mof_O 	O 	0.6416	0.2572	0.6216	-0.373
Mof_H 	H 	0.6067	0.3005	0.6177	0.269
Mof_C 	C 	0.523	0.4093	0.7092	0.014
Mof_C 	C 	0.423	0.551	0.7083	0.004
Mof_O 	O 	0.9477	0.1221	0.0573	-0.476
Mof_C 	C 	0.831	0.2658	0.0623	0.216
Mof_O 	O 	0.8584	0.2428	0.1216	-0.372
Mof_H 	H 	0.8933	0.1995	0.1177	0.271
Mof_C 	C 	0.977	0.0907	0.2092	0.269
Mof_C 	C 	0.077	0.949	0.2083	0.51
Mof_O 	O 	0.4477	0.6221	0.5573	-0.494
Mof_C 	C 	0.331	0.7658	0.5623	0.217
Mof_O 	O 	0.3584	0.7428	0.6216	-0.37
Mof_H 	H 	0.3933	0.6995	0.6177	0.269
Mof_C 	C 	0.477	0.5907	0.7092	0.019
Mof_C 	C 	0.577	0.449	0.7083	0.01
Mof_O 	O 	0.1221	0.0523	0.0573	-0.51
Mof_C 	C 	0.2658	0.169	0.0623	0.214
Mof_O 	O 	0.2428	0.1416	0.1216	-0.383
Mof_H 	H 	0.1995	0.1067	0.1177	0.27
Mof_C 	C 	0.0907	0.023	0.2092	-0.513
Mof_C 	C 	0.949	0.923	0.2083	-0.211
Mof_O 	O 	0.6221	0.5523	0.5573	-0.493
Mof_C 	C 	0.7658	0.669	0.5623	0.219
Mof_O 	O 	0.7428	0.6416	0.6216	-0.367
Mof_H 	H 	0.6995	0.6067	0.6177	0.269
Mof_C 	C 	0.5907	0.523	0.7092	0.016
Mof_C 	C 	0.449	0.423	0.7083	0.005
Mof_O 	O 	0.8779	0.9477	0.0573	-0.458
Mof_C 	C 	0.7342	0.831	0.0623	0.219
Mof_O 	O 	0.7572	0.8584	0.1216	-0.368
Mof_H 	H 	0.8005	0.8933	0.1177	0.268
Mof_C 	C 	0.9093	0.977	0.2092	0.558
Mof_C 	C 	0.051	0.077	0.2083	0.225
Mof_O 	O 	0.3779	0.4477	0.5573	-0.496
Mof_C 	C 	0.2342	0.331	0.5623	0.213
Mof_O 	O 	0.2572	0.3584	0.6216	-0.377
Mof_H 	H 	0.3005	0.3933	0.6177	0.268
Mof_C 	C 	0.4093	0.477	0.7092	0.018
Mof_C 	C 	0.551	0.577	0.7083	0.009
Mof_O 	O 	0.9477	0.8779	0.4427	-0.462
Mof_C 	C 	0.831	0.7342	0.4377	0.217
Mof_O 	O 	0.8584	0.7572	0.3784	-0.366
Mof_H 	H 	0.8933	0.8005	0.3823	0.267
Mof_C 	C 	0.977	0.9093	0.2908	0.558
Mof_C 	C 	0.077	0.051	0.2917	0.223
Mof_O 	O 	0.4477	0.3779	0.9427	-0.463
Mof_C 	C 	0.331	0.2342	0.9377	0.245
Mof_O 	O 	0.3584	0.2572	0.8784	-0.385
Mof_H 	H 	0.3933	0.3005	0.8823	0.275
Mof_C 	C 	0.477	0.4093	0.7908	0.018
Mof_C 	C 	0.577	0.551	0.7917	0.008
Mof_O 	O 	0.0523	0.1221	0.4427	-0.515
Mof_C 	C 	0.169	0.2658	0.4377	0.213
Mof_O 	O 	0.1416	0.2428	0.3784	-0.381
Mof_H 	H 	0.1067	0.1995	0.3823	0.269
Mof_C 	C 	0.023	0.0907	0.2908	-0.512
Mof_C 	C 	0.923	0.949	0.2917	-0.209
Mof_O 	O 	0.5523	0.6221	0.9427	-0.46
Mof_C 	C 	0.669	0.7658	0.9377	0.252
Mof_O 	O 	0.6416	0.7428	0.8784	-0.376
Mof_H 	H 	0.6067	0.6995	0.8823	0.276
Mof_C 	C 	0.523	0.5907	0.7908	0.016
Mof_C 	C 	0.423	0.449	0.7917	0.005
Mof_O 	O 	0.8779	0.0523	0.4427	-0.487
Mof_C 	C 	0.7342	0.169	0.4377	0.215
Mof_O 	O 	0.7572	0.1416	0.3784	-0.376
Mof_H 	H 	0.8005	0.1067	0.3823	0.267
Mof_C 	C 	0.9093	0.023	0.2908	-0.2
Mof_C 	C 	0.051	0.923	0.2917	-0.485
Mof_O 	O 	0.3779	0.5523	0.9427	-0.462
Mof_C 	C 	0.2342	0.669	0.9377	0.248
Mof_O 	O 	0.2572	0.6416	0.8784	-0.382
Mof_H 	H 	0.3005	0.6067	0.8823	0.275
Mof_C 	C 	0.4093	0.523	0.7908	0.015
Mof_C 	C 	0.551	0.423	0.7917	0.004
Mof_O 	O 	0.1221	0.9477	0.4427	-0.479
Mof_C 	C 	0.2658	0.831	0.4377	0.215
Mof_O 	O 	0.2428	0.8584	0.3784	-0.369
Mof_H 	H 	0.1995	0.8933	0.3823	0.27
Mof_C 	C 	0.0907	0.977	0.2908	0.273
Mof_C 	C 	0.949	0.077	0.2917	0.513
Mof_O 	O 	0.6221	0.4477	0.9427	-0.46
Mof_C 	C 	0.7658	0.331	0.9377	0.249
Mof_O 	O 	0.7428	0.3584	0.8784	-0.378
Mof_H 	H 	0.6995	0.3933	0.8823	0.276
Mof_C 	C 	0.5907	0.477	0.7908	0.02
Mof_C 	C 	0.449	0.577	0.7917	0.01
Mof_O 	O 	0.9477	0.1221	0.9427	-0.447
Mof_C 	C 	0.831	0.2658	0.9377	0.247
Mof_O 	O 	0.8584	0.2428	0.8784	-0.376
Mof_H 	H 	0.8933	0.1995	0.8823	0.277
Mof_C 	C 	0.977	0.0907	0.7908	0.271
Mof_C 	C 	0.077	0.949	0.7917	0.511
Mof_O 	O 	0.4477	0.6221	0.4427	-0.494
Mof_C 	C 	0.331	0.7658	0.4377	0.217
Mof_O 	O 	0.3584	0.7428	0.3784	-0.371
Mof_H 	H 	0.3933	0.6995	0.3823	0.269
Mof_C 	C 	0.477	0.5907	0.2908	0.019
Mof_C 	C 	0.577	0.449	0.2917	0.01
Mof_O 	O 	0.0523	0.8779	0.9427	-0.455
Mof_C 	C 	0.169	0.7342	0.9377	0.247
Mof_O 	O 	0.1416	0.7572	0.8784	-0.383
Mof_H 	H 	0.1067	0.8005	0.8823	0.274
Mof_C 	C 	0.023	0.9093	0.7908	-0.197
Mof_C 	C 	0.923	0.051	0.7917	-0.483
Mof_O 	O 	0.5523	0.3779	0.4427	-0.495
Mof_C 	C 	0.669	0.2342	0.4377	0.215
Mof_O 	O 	0.6416	0.2572	0.3784	-0.375
Mof_H 	H 	0.6067	0.3005	0.3823	0.269
Mof_C 	C 	0.523	0.4093	0.2908	0.014
Mof_C 	C 	0.423	0.551	0.2917	0.003
Mof_O 	O 	0.8779	0.9477	0.9427	-0.43
Mof_C 	C 	0.7342	0.831	0.9377	0.249
Mof_O 	O 	0.7572	0.8584	0.8784	-0.372
Mof_H 	H 	0.8005	0.8933	0.8823	0.274
Mof_C 	C 	0.9093	0.977	0.7908	0.56
Mof_C 	C 	0.051	0.077	0.7917	0.225
Mof_O 	O 	0.3779	0.4477	0.4427	-0.496
Mof_C 	C 	0.2342	0.331	0.4377	0.213
Mof_O 	O 	0.2572	0.3584	0.3784	-0.378
Mof_H 	H 	0.3005	0.3933	0.3823	0.268
Mof_C 	C 	0.4093	0.477	0.2908	0.018
Mof_C 	C 	0.551	0.577	0.2917	0.008
Mof_O 	O 	0.1221	0.0523	0.9427	-0.482
Mof_C 	C 	0.2658	0.169	0.9377	0.245
Mof_O 	O 	0.2428	0.1416	0.8784	-0.388
Mof_H 	H 	0.1995	0.1067	0.8823	0.276
Mof_C 	C 	0.0907	0.023	0.7908	-0.512
Mof_C 	C 	0.949	0.923	0.7917	-0.211
Mof_O 	O 	0.6221	0.5523	0.4427	-0.493
Mof_C 	C 	0.7658	0.669	0.4377	0.219
Mof_O 	O 	0.7428	0.6416	0.3784	-0.369
Mof_H 	H 	0.6995	0.6067	0.3823	0.269
Mof_C 	C 	0.5907	0.523	0.2908	0.016
Mof_C 	C 	0.449	0.423	0.2917	0.004
Mof_O 	O 	0.0523	0.1221	0.5573	-0.514
Mof_C 	C 	0.169	0.2658	0.5623	0.213
Mof_O 	O 	0.1416	0.2428	0.6216	-0.38
Mof_H 	H 	0.1067	0.1995	0.6177	0.269
Mof_C 	C 	0.023	0.0907	0.7092	-0.512
Mof_C 	C 	0.923	0.949	0.7083	-0.209
Mof_O 	O 	0.5523	0.6221	0.0573	-0.489
Mof_C 	C 	0.669	0.7658	0.0623	0.221
Mof_O 	O 	0.6416	0.7428	0.1216	-0.371
Mof_H 	H 	0.6067	0.6995	0.1177	0.27
Mof_C 	C 	0.523	0.5907	0.2092	0.015
Mof_C 	C 	0.423	0.449	0.2083	0.004
Mof_O 	O 	0.9477	0.8779	0.5573	-0.462
Mof_C 	C 	0.831	0.7342	0.5623	0.217
Mof_O 	O 	0.8584	0.7572	0.6216	-0.364
Mof_H 	H 	0.8933	0.8005	0.6177	0.267
Mof_C 	C 	0.977	0.9093	0.7092	0.559
Mof_C 	C 	0.077	0.051	0.7083	0.224
Mof_O 	O 	0.4477	0.3779	0.0573	-0.492
Mof_C 	C 	0.331	0.2342	0.0623	0.214
Mof_O 	O 	0.3584	0.2572	0.1216	-0.38
Mof_H 	H 	0.3933	0.3005	0.1177	0.269
Mof_C 	C 	0.477	0.4093	0.2092	0.017
Mof_C 	C 	0.577	0.551	0.2083	0.008
Mof_O 	O 	0.1221	0.9477	0.5573	-0.479
Mof_C 	C 	0.2658	0.831	0.5623	0.215
Mof_O 	O 	0.2428	0.8584	0.6216	-0.368
Mof_H 	H 	0.1995	0.8933	0.6177	0.27
Mof_C 	C 	0.0907	0.977	0.7092	0.273
Mof_C 	C 	0.949	0.077	0.7083	0.513
Mof_O 	O 	0.6221	0.4477	0.0573	-0.49
Mof_C 	C 	0.7658	0.331	0.0623	0.218
Mof_O 	O 	0.7428	0.3584	0.1216	-0.373
Mof_H 	H 	0.6995	0.3933	0.1177	0.269
Mof_C 	C 	0.5907	0.477	0.2092	0.018
Mof_C 	C 	0.449	0.577	0.2083	0.009
Mof_O 	O 	0.8779	0.0523	0.5573	-0.487
Mof_C 	C 	0.7342	0.169	0.5623	0.215
Mof_O 	O 	0.7572	0.1416	0.6216	-0.375
Mof_H 	H 	0.8005	0.1067	0.6177	0.267
Mof_C 	C 	0.9093	0.023	0.7092	-0.2
Mof_C 	C 	0.051	0.923	0.7083	-0.485
Mof_O 	O 	0.3779	0.5523	0.0573	-0.491
Mof_C 	C 	0.2342	0.669	0.0623	0.217
Mof_O 	O 	0.2572	0.6416	0.1216	-0.378
Mof_H 	H 	0.3005	0.6067	0.1177	0.269
Mof_C 	C 	0.4093	0.523	0.2092	0.014
Mof_C 	C 	0.551	0.423	0.2083	0.003
Mof_Zn	Zn	-1.07558e-33	-7.23488e-34	0.07719	1.189
Mof_N 	N 	8.85316e-34	0	0.184	-0.282
Mof_Zn	Zn	0.5	0.5	0.57719	1.22
Mof_N 	N 	0.5	0.5	0.684	-0.221
Mof_Zn	Zn	2.03435e-33	0	0.42281	1.192
Mof_N 	N 	-4.26747e-33	-2.89395e-33	0.316	-0.282
Mof_Zn	Zn	0.5	0.5	0.92281	1.221
Mof_N 	N 	0.5	0.5	0.816	-0.221
Mof_Zn	Zn	4.4401e-33	-1.15758e-32	0.92281	1.194
Mof_N 	N 	-7.64962e-33	-1.15758e-32	0.816	-0.283
Mof_Zn	Zn	0.5	0.5	0.42281	1.22
Mof_N 	N 	0.5	0.5	0.316	-0.22
Mof_Zn	Zn	-3.01075e-33	-5.7879e-33	0.57719	1.192
Mof_N 	N 	3.29107e-33	-1.15758e-32	0.684	-0.283
Mof_Zn	Zn	0.5	0.5	0.07719	1.216
Mof_N 	N 	0.5	0.5	0.184	-0.22
Mof_C 	C 	0.0767	0.848	-0	0.432
Mof_C 	C 	0.1375	0.7699	-0	-0.284
Mof_C 	C 	0.5767	0.348	0.5	0.471
Mof_C 	C 	0.6375	0.2699	0.5	-0.255
Mof_C 	C 	0.9233	0.152	-0	0.428
Mof_C 	C 	0.8625	0.2301	-0	-0.28
Mof_C 	C 	0.4233	0.652	0.5	0.472
Mof_C 	C 	0.3625	0.7301	0.5	-0.253
Mof_C 	C 	0.152	0.0767	-0	0.431
Mof_C 	C 	0.2301	0.1375	-0	-0.292
Mof_C 	C 	0.652	0.5767	0.5	0.473
Mof_C 	C 	0.7301	0.6375	0.5	-0.251
Mof_C 	C 	0.848	0.9233	-0	0.43
Mof_C 	C 	0.7699	0.8625	-0	-0.274
Mof_C 	C 	0.348	0.4233	0.5	0.47
Mof_C 	C 	0.2699	0.3625	0.5	-0.257
Mof_C 	C 	0.9233	0.848	0.5	0.468
Mof_C 	C 	0.8625	0.7699	0.5	-0.244
Mof_C 	C 	0.4233	0.348	-0	0.432
Mof_C 	C 	0.3625	0.2699	-0	-0.287
Mof_C 	C 	0.0767	0.152	0.5	0.468
Mof_C 	C 	0.1375	0.2301	0.5	-0.262
Mof_C 	C 	0.5767	0.652	-0	0.434
Mof_C 	C 	0.6375	0.7301	-0	-0.282
Mof_C 	C 	0.848	0.0767	0.5	0.469
Mof_C 	C 	0.7699	0.1375	0.5	-0.254
Mof_C 	C 	0.348	0.5767	-0	0.433
Mof_C 	C 	0.2699	0.6375	-0	-0.285
Mof_C 	C 	0.152	0.9233	0.5	0.465
Mof_C 	C 	0.2301	0.8625	0.5	-0.249
Mof_C 	C 	0.652	0.4233	-0	0.433
Mof_C 	C 	0.7301	0.3625	-0	-0.284
_end
