data_functionalizedCrystal
_audit_creation_method	'EQeq! by Chris Wilmer'
_symmetry_space_group_name_H-M	'P1'
_symmetry_Int_Tables_number	1
_symmetry_cell_setting	triclinic
loop_
_symmetry_equiv_pos_as_xyz
  x,y,z
_cell_length_a	16.8527
_cell_length_b	16.9018
_cell_length_c	26.7132
_cell_angle_alpha	102.989
_cell_angle_beta	90
_cell_angle_gamma	119.904
loop_
_atom_site_label
_atom_site_type_symbol
_atom_site_fract_x
_atom_site_fract_y
_atom_site_fract_z
_atom_site_charge
Mof_Cu	Cu	0.43272	0.75896	0.52183	0.864
Mof_Cu	Cu	0.29912	0.40638	0.02951	0.941
Mof_Cu	Cu	0.79323	0.94408	0.54207	0.898
Mof_Cu	Cu	0.63694	7.13846e-17	0.75	0.933
Mof_Cu	Cu	0.12803	0.72532	0.50613	0.913
Mof_Cu	Cu	0.05938	0.78936	0.10256	0.875
Mof_Cu	Cu	0.72998	0.78936	0.60256	0.881
Mof_Cu	Cu	0.32624	0.75896	0.02183	0.858
Mof_Cu	Cu	0.70088	0.59362	0.97049	0.951
Mof_Cu	Cu	0.87197	0.27468	0.49387	0.91
Mof_Cu	Cu	0.67376	0.24104	0.97817	0.863
Mof_Cu	Cu	0.89274	0.59362	0.47049	0.948
Mof_Cu	Cu	0.94062	0.21064	0.89744	0.876
Mof_Cu	Cu	0.40271	0.27468	0.99387	0.914
Mof_Cu	Cu	0.56728	0.24104	0.47817	0.858
Mof_Cu	Cu	0.84915	0.05592	0.95793	0.866
Mof_Cu	Cu	0.20677	0.05592	0.45793	0.863
Mof_Cu	Cu	0.10726	0.40638	0.52951	0.943
Mof_Cu	Cu	0.5	0.5	-0	0.928
Mof_Cu	Cu	0.27002	0.21064	0.39744	0.873
Mof_Cu	Cu	0.15085	0.94408	0.04207	0.889
Mof_Cu	Cu	0.59729	0.72532	0.00613	0.907
Mof_Cu	Cu	0.36306	1.78461e-17	0.25	0.933
Mof_Cu	Cu	-0	0.5	0.5	0.928
Mof_H 	H 	0.3399	0.496	0.6391	0.097
Mof_H 	H 	0.1372	0.7294	0.2298	0.088
Mof_H 	H 	0.1561	0.496	0.1391	0.088
Mof_H 	H 	0.6245	0.4552	0.8562	0.091
Mof_H 	H 	0.4015	0.7306	0.7413	0.102
Mof_H 	H 	0.7157	0.564	0.72	0.101
Mof_H 	H 	0.5356	0.4298	0.6514	0.101
Mof_H 	H 	0.4093	0.629	0.8484	0.095
Mof_H 	H 	0.1693	0.5448	0.6438	0.091
Mof_H 	H 	0.8628	0.2706	0.7702	0.082
Mof_H 	H 	0.6709	0.2694	0.7587	0.098
Mof_H 	H 	0.3755	0.5448	0.1438	0.091
Mof_H 	H 	0.2197	0.629	0.3484	0.095
Mof_H 	H 	0.8307	0.4552	0.3562	0.091
Mof_H 	H 	0.5985	0.2694	0.2587	0.099
Mof_H 	H 	0.4078	0.2706	0.2702	0.084
Mof_H 	H 	0.1058	0.5702	0.8486	0.11
Mof_H 	H 	0.3291	0.7306	0.2413	0.102
Mof_H 	H 	0.9753	0.573	0.3214	0.115
Mof_H 	H 	0.5907	0.371	0.1516	0.093
Mof_H 	H 	0.0247	0.427	0.6786	0.075
Mof_H 	H 	0.4644	0.5702	0.3486	0.102
Mof_H 	H 	0.8483	0.564	0.22	0.104
Mof_H 	H 	0.8439	0.504	0.8609	0.105
Mof_H 	H 	0.7803	0.371	0.6516	0.093
Mof_H 	H 	0.8942	0.4298	0.1514	0.091
Mof_H 	H 	0.2843	0.436	0.28	0.1
Mof_H 	H 	0.5977	0.573	0.8214	0.093
Mof_H 	H 	0.6601	0.504	0.3609	0.098
Mof_H 	H 	0.1517	0.436	0.78	0.098
Mof_H 	H 	0.4023	0.427	0.1786	0.093
Mof_H 	H 	0.5922	0.7294	0.7298	0.086
Mof_C 	C 	0.6152	0.2204	0.3172	-0.011
Mof_C 	C 	0.1381	0.3892	0.423	0.334
Mof_C 	C 	0.7038	0.8844	0.8996	0.333
Mof_C 	C 	0.225	0.4112	0.3444	0.002
Mof_C 	C 	0.4151	0.3624	0.2307	0.117
Mof_C 	C 	0.0297	0.4736	0.1532	0.094
Mof_C 	C 	0.8619	0.6108	0.577	0.332
Mof_C 	C 	0.1814	0.5248	0.3846	-0.011
Mof_C 	C 	0.3619	0.7154	0.7119	-0.101
Mof_C 	C 	0.3948	0.7796	0.1828	-0.002
Mof_C 	C 	0.3641	0.4576	0.6268	-0.112
Mof_C 	C 	0.2296	0.3654	0.5588	0.307
Mof_C 	C 	0.868	0.2032	0.6461	-0.033
Mof_C 	C 	0.7489	0.6108	0.077	0.333
Mof_C 	C 	0.7681	0.676	0.6569	0.303
Mof_C 	C 	0.6192	0.3962	0.8462	-0.095
Mof_C 	C 	0.1562	0.8048	0.3044	0.003
Mof_C 	C 	0.4928	0.2984	0.5682	0.306
Mof_C 	C 	0.6359	0.5424	0.3732	-0.112
Mof_C 	C 	0.1862	0.4112	0.8444	0.001
Mof_C 	C 	0.4439	0.4736	0.6532	0.126
Mof_C 	C 	0.3534	0.2908	0.1401	-0.025
Mof_C 	C 	0.8006	0.5414	0.1935	-0.111
Mof_C 	C 	0.9775	0.3694	0.6824	-0.061
Mof_C 	C 	0.3939	0.2756	0.2378	-0.091
Mof_C 	C 	0.6465	0.2846	0.7881	-0.099
Mof_C 	C 	0.3848	0.7796	0.6828	-0.002
Mof_C 	C 	0.4249	0.5614	0.9252	0.319
Mof_C 	C 	0.2511	0.3892	0.923	0.332
Mof_C 	C 	0.2962	0.1156	0.1004	0.343
Mof_C 	C 	0.3514	0.1952	0.1956	-0.011
Mof_C 	C 	0.9079	0.676	0.1569	0.301
Mof_C 	C 	0.5072	0.7016	0.4318	0.307
Mof_C 	C 	0.6048	0.1302	0.8013	0.293
Mof_C 	C 	0.3593	0.3288	0.5622	-0.065
Mof_C 	C 	0.9359	0.6154	0.9177	0.031
Mof_C 	C 	0.9473	0.3624	0.7307	0.108
Mof_C 	C 	0.6081	0.6306	0.8176	-0.091
Mof_C 	C 	0.9367	0.4186	0.1338	-0.075
Mof_C 	C 	0.5181	0.5814	0.3662	-0.112
Mof_C 	C 	0.059	0.7458	0.9884	0.404
Mof_C 	C 	0.2797	0.6276	0.6979	0.121
Mof_C 	C 	0.1848	0.4432	0.3834	-0.048
Mof_C 	C 	0.6519	0.169	0.3921	0.337
Mof_C 	C 	0.5254	0.1302	0.3013	0.293
Mof_C 	C 	0.1799	0.6448	0.5768	0.354
Mof_C 	C 	0.9069	0.3474	0.0887	-0.018
Mof_C 	C 	0.3205	0.3846	0.5823	0.002
Mof_C 	C 	0.223	0.6038	0.6538	-0.096
Mof_C 	C 	0.7704	0.6346	0.4412	0.306
Mof_C 	C 	0.3434	0.5248	0.8846	-0.01
Mof_C 	C 	0.3479	0.6276	0.1979	0.122
Mof_C 	C 	0.5751	0.4386	0.0748	0.32
Mof_C 	C 	0.6521	0.3724	0.8021	0.118
Mof_C 	C 	0.326	0.7564	0.6381	-0.062
Mof_C 	C 	0.8201	0.3552	0.4232	0.354
Mof_C 	C 	0.4304	0.7564	0.1381	-0.062
Mof_C 	C 	0.2584	0.4432	0.8834	-0.046
Mof_C 	C 	0.9374	0.2908	0.6401	-0.038
Mof_C 	C 	0.3541	0.5734	0.847	-0.102
Mof_C 	C 	0.5561	0.5264	0.3468	0.128
Mof_C 	C 	0.6486	0.8048	0.8044	-0.002
Mof_C 	C 	0.7416	0.5568	0.1166	-0.046
Mof_C 	C 	0.6655	0.6962	0.9116	0.341
Mof_C 	C 	0.0225	0.6306	0.3176	-0.129
Mof_C 	C 	0.7169	0.4606	0.1923	0.135
Mof_C 	C 	0.6381	0.2846	0.2881	-0.099
Mof_C 	C 	0.9695	0.3288	0.0622	-0.034
Mof_C 	C 	0.0527	0.6376	0.2693	0.131
Mof_C 	C 	0.5774	0.3318	0.8765	-0.032
Mof_C 	C 	0.4746	0.8698	0.6987	0.286
Mof_C 	C 	0.3288	0.1016	0.2054	0.3
Mof_C 	C 	0.1994	0.4586	0.8065	-0.11
Mof_C 	C 	0.8138	0.5888	0.1556	0.007
Mof_C 	C 	0.8056	0.2984	0.0682	0.314
Mof_C 	C 	0.5696	0.2436	0.8619	-0.064
Mof_C 	C 	0.6566	0.4752	0.1154	-0.011
Mof_C 	C 	0.5171	0.169	0.8921	0.336
Mof_C 	C 	0.4405	0.3474	0.5887	0.003
Mof_C 	C 	0.2319	0.324	0.3431	0.302
Mof_C 	C 	0.0935	0.4576	0.1268	-0.088
Mof_C 	C 	0.2831	0.5394	0.8077	0.133
Mof_C 	C 	0.6407	0.6712	0.4378	-0.061
Mof_C 	C 	0.6061	0.7244	0.7622	-0.093
Mof_C 	C 	0.4226	0.6682	0.1235	-0.031
Mof_C 	C 	0.2456	0.6682	0.6235	-0.031
Mof_C 	C 	0.8817	0.2756	0.7378	-0.083
Mof_C 	C 	0.3952	0.8698	0.1987	0.287
Mof_C 	C 	0.0305	0.6712	0.9378	-0.088
Mof_C 	C 	0.5351	0.3552	0.9232	0.354
Mof_C 	C 	0.674	0.2436	0.3619	-0.064
Mof_C 	C 	0.8438	0.1952	0.6956	-0.016
Mof_C 	C 	0.1944	0.7016	0.9318	0.3
Mof_C 	C 	0.0931	0.6526	0.9113	0.026
Mof_C 	C 	0.6795	0.6154	0.4177	0.005
Mof_C 	C 	0.775	0.5888	0.6556	0.005
Mof_C 	C 	0.2272	0.8984	0.2946	0.29
Mof_C 	C 	0.5595	0.6526	0.4113	0.007
Mof_C 	C 	0.2592	0.4586	0.3065	-0.111
Mof_C 	C 	0.3919	0.3694	0.1824	-0.092
Mof_C 	C 	0.3345	0.3038	0.0884	0.342
Mof_C 	C 	0.0626	0.7092	0.3599	-0.006
Mof_C 	C 	0.7437	0.4606	0.6923	0.134
Mof_C 	C 	0.9693	0.3038	0.5884	0.361
Mof_C 	C 	0.7807	0.4266	0.653	-0.101
Mof_C 	C 	0.6868	0.7458	0.4884	0.377
Mof_C 	C 	0.3535	0.7154	0.2119	-0.101
Mof_C 	C 	0.0921	0.324	0.8431	0.303
Mof_C 	C 	0.4649	0.6448	0.0768	0.354
Mof_C 	C 	0.941	0.2542	0.0116	0.361
Mof_C 	C 	0.3808	0.6038	0.1538	-0.095
Mof_C 	C 	0.4829	0.831	0.1079	0.333
Mof_C 	C 	0.7203	0.3724	0.3021	0.119
Mof_C 	C 	0.9065	0.5424	0.8732	-0.131
Mof_C 	C 	0.3481	0.831	0.6079	0.333
Mof_C 	C 	0.1358	0.3654	0.0588	0.315
Mof_C 	C 	0.8194	0.1156	0.6004	0.34
Mof_C 	C 	0.9703	0.5264	0.8468	0.153
Mof_C 	C 	0.6648	0.7968	0.8539	-0.034
Mof_C 	C 	0.8152	0.5568	0.6166	-0.045
Mof_C 	C 	0.7408	0.5414	0.6935	-0.11
Mof_C 	C 	0.6459	0.4266	0.153	-0.102
Mof_C 	C 	0.6052	0.2204	0.8172	-0.011
Mof_C 	C 	0.0633	0.5814	0.8662	-0.142
Mof_C 	C 	0.0307	0.6962	0.4116	0.319
Mof_C 	C 	0.8186	0.4752	0.6154	-0.01
Mof_C 	C 	0.0641	0.3846	0.0823	-0.03
Mof_C 	C 	0.777	0.3962	0.3462	-0.095
Mof_C 	C 	0.8642	0.6346	0.9412	0.299
Mof_C 	C 	0.1183	0.7244	0.2622	-0.103
Mof_C 	C 	0.3352	0.2032	0.1461	-0.041
Mof_C 	C 	0.7728	0.1016	0.7054	0.302
Mof_C 	C 	0.1365	0.5614	0.4252	0.32
Mof_C 	C 	0.8635	0.4386	0.5748	0.319
Mof_C 	C 	0.1806	0.8844	0.3996	0.338
Mof_C 	C 	0.5849	0.6376	0.7693	0.119
Mof_C 	C 	0.4819	0.4186	0.6338	-0.113
Mof_C 	C 	0.6466	0.7092	0.8599	-0.022
Mof_C 	C 	0.6712	0.8984	0.7946	0.293
Mof_C 	C 	0.3132	0.2542	0.5116	0.38
Mof_C 	C 	0.132	0.7968	0.3539	-0.044
Mof_C 	C 	0.7544	0.3318	0.3765	-0.032
Mof_C 	C 	0.2563	0.5394	0.3077	0.134
Mof_C 	C 	0.2193	0.5734	0.347	-0.102
Mof_N 	N 	0.6897	0.4382	0.7697	-0.083
Mof_N 	N 	0.4854	0.5536	0.6977	-0.091
Mof_N 	N 	0.6957	0.4034	0.2278	-0.086
Mof_N 	N 	0.0123	0.5528	0.2285	-0.094
Mof_N 	N 	0.0682	0.5536	0.1977	-0.088
Mof_N 	N 	0.9318	0.4464	0.8023	-0.094
Mof_N 	N 	0.7077	0.4034	0.7278	-0.086
Mof_N 	N 	0.2515	0.5618	0.7303	-0.084
Mof_N 	N 	0.5146	0.4464	0.3023	-0.091
Mof_N 	N 	0.5405	0.5528	0.7285	-0.087
Mof_N 	N 	0.9877	0.4472	0.7715	-0.081
Mof_N 	N 	0.3103	0.5618	0.2303	-0.083
Mof_N 	N 	0.7485	0.4382	0.2697	-0.082
Mof_N 	N 	0.3043	0.5966	0.7722	-0.084
Mof_N 	N 	0.4595	0.4472	0.2715	-0.086
Mof_N 	N 	0.2923	0.5966	0.2722	-0.084
Mof_O 	O 	0.23528	0.90016	0.24732	-0.343
Mof_O 	O 	0.2078	0.066	0.0934	-0.416
Mof_O 	O 	0.03276	0.71852	0.02859	-0.426
Mof_O 	O 	0.93304	0.68928	0.59173	-0.246
Mof_O 	O 	0.33253	0.37746	0.09005	-0.393
Mof_O 	O 	0.21567	0.43714	0.06624	-0.369
Mof_O 	O 	0.34748	0.09656	0.07433	-0.295
Mof_O 	O 	0.04493	0.37746	0.59005	-0.405
Mof_O 	O 	0.46833	0.64746	0.9478	-0.354
Mof_O 	O 	0.68746	0.96432	0.83097	-0.243
Mof_O 	O 	0.25092	0.90344	0.42567	-0.263
Mof_O 	O 	0.57267	0.43734	0.95005	-0.413
Mof_O 	O 	0.6066	0.0904	0.83547	-0.282
Mof_O 	O 	0.2932	0.1152	0.4116	-0.436
Mof_O 	O 	0.86467	0.43734	0.45005	-0.415
Mof_O 	O 	0.27686	0.96432	0.33097	-0.245
Mof_O 	O 	0.91972	0.24124	0.54853	-0.417
Mof_O 	O 	0.72314	0.03568	0.66903	-0.292
Mof_O 	O 	0.26036	0.43412	0.96976	-0.354
Mof_O 	O 	0.8582	0.066	0.5934	-0.412
Mof_O 	O 	0.93714	0.68908	0.11424	-0.365
Mof_O 	O 	0.66488	0.90016	0.74732	-0.34
Mof_O 	O 	0.65801	0.09922	0.36977	-0.23
Mof_O 	O 	0.7068	0.8848	0.5884	-0.402
Mof_O 	O 	0.39527	0.90154	0.24544	-0.315
Mof_O 	O 	0.2486	0.7056	0.89983	-0.251
Mof_O 	O 	0.33512	0.09984	0.25268	-0.372
Mof_O 	O 	0.82087	0.35254	0.5522	-0.362
Mof_O 	O 	0.31424	0.28148	0.47141	-0.404
Mof_O 	O 	0.3934	0.9096	0.16453	-0.249
Mof_O 	O 	0.76472	0.09984	0.75268	-0.372
Mof_O 	O 	0.60473	0.09846	0.75456	-0.348
Mof_O 	O 	0.94291	0.49902	0.56716	-0.349
Mof_O 	O 	0.88563	0.71586	0.9654	-0.271
Mof_O 	O 	0.42733	0.56266	0.04995	-0.421
Mof_O 	O 	0.06286	0.31092	0.88576	-0.379
Mof_O 	O 	0.06696	0.31072	0.40827	-0.266
Mof_O 	O 	0.0513	0.2732	0.79938	-0.272
Mof_O 	O 	0.13533	0.56266	0.54995	-0.419
Mof_O 	O 	0.178	0.8848	0.0884	-0.409
Mof_O 	O 	0.82378	0.28536	0.43065	-0.389
Mof_O 	O 	0.77853	0.56286	0.43376	-0.362
Mof_O 	O 	0.00607	0.62194	0.50954	-0.503
Mof_O 	O 	0.53167	0.35254	0.0522	-0.368
Mof_O 	O 	0.66747	0.62254	0.90995	-0.388
Mof_O 	O 	0.6293	0.1806	0.43723	-0.412
Mof_O 	O 	0.5162	0.9096	0.66453	-0.247
Mof_O 	O 	0.24806	0.31092	0.38576	-0.377
Mof_O 	O 	0.78433	0.56286	0.93376	-0.357
Mof_O 	O 	0.5513	0.1806	0.93723	-0.409
Mof_O 	O 	0.17622	0.71464	0.56935	-0.386
Mof_O 	O 	0.95507	0.62254	0.40995	-0.375
Mof_O 	O 	0.4838	0.0904	0.33547	-0.282
Mof_O 	O 	0.4487	0.8194	0.06277	-0.402
Mof_O 	O 	0.75194	0.68908	0.61424	-0.371
Mof_O 	O 	0.51571	0.73082	0.48074	-0.4
Mof_O 	O 	0.3707	0.8194	0.56277	-0.398
Mof_O 	O 	0.38413	0.37806	0.99046	-0.487
Mof_O 	O 	0.61587	0.62194	0.00954	-0.501
Mof_O 	O 	0.74908	0.09656	0.57433	-0.292
Mof_O 	O 	0.16977	0.28414	0.5346	-0.294
Mof_O 	O 	0.99393	0.37806	0.49046	-0.488
Mof_O 	O 	0.48429	0.26918	0.51926	-0.407
Mof_O 	O 	0.49373	0.09846	0.25456	-0.347
Mof_O 	O 	0.05709	0.50098	0.43284	-0.361
Mof_O 	O 	0.22147	0.43714	0.56624	-0.363
Mof_O 	O 	0.7514	0.2944	0.10017	-0.267
Mof_O 	O 	0.9487	0.7268	0.20062	-0.25
Mof_O 	O 	0.2219	0.2732	0.29938	-0.269
Mof_O 	O 	0.53842	0.71464	0.06935	-0.386
Mof_O 	O 	0.7781	0.7268	0.70062	-0.255
Mof_O 	O 	0.75624	0.68928	0.09173	-0.252
Mof_O 	O 	0.72477	0.82934	0.4849	-0.408
Mof_O 	O 	0.44389	0.50098	0.93284	-0.352
Mof_O 	O 	0.08028	0.75876	0.45147	-0.403
Mof_O 	O 	0.55879	0.90078	0.13023	-0.202
Mof_O 	O 	0.17376	0.43412	0.46976	-0.363
Mof_O 	O 	0.822	0.1152	0.9116	-0.434
Mof_O 	O 	0.55611	0.49902	0.06716	-0.357
Mof_O 	O 	0.543	0.2944	0.60017	-0.265
Mof_O 	O 	0.17913	0.64746	0.4478	-0.361
Mof_O 	O 	0.10457	0.82934	0.9849	-0.41
Mof_O 	O 	0.44121	0.09922	0.86977	-0.231
Mof_O 	O 	0.46158	0.28536	0.93065	-0.389
Mof_O 	O 	0.83023	0.71586	0.4654	-0.279
Mof_O 	O 	0.1418	0.934	0.4066	-0.373
Mof_O 	O 	0.32152	0.24124	0.04853	-0.42
Mof_O 	O 	0.89543	0.17066	0.0151	-0.424
Mof_O 	O 	0.24376	0.31072	0.90827	-0.26
Mof_O 	O 	0.65252	0.90344	0.92567	-0.257
Mof_O 	O 	0.68576	0.71852	0.52859	-0.4
Mof_O 	O 	0.11437	0.28414	0.0346	-0.303
Mof_O 	O 	0.78489	0.26918	0.01926	-0.414
Mof_O 	O 	0.27523	0.17066	0.5151	-0.428
Mof_O 	O 	0.73964	0.56588	0.03024	-0.366
Mof_O 	O 	0.457	0.7056	0.39983	-0.254
Mof_O 	O 	0.31254	0.03568	0.16903	-0.291
Mof_O 	O 	0.21511	0.73082	0.98074	-0.39
Mof_O 	O 	0.50627	0.90154	0.74544	-0.314
Mof_O 	O 	0.96724	0.28148	0.97141	-0.386
Mof_O 	O 	0.7922	0.934	0.9066	-0.364
Mof_O 	O 	0.82624	0.56588	0.53024	-0.359
Mof_O 	O 	0.34199	0.90078	0.63023	-0.202
Mof_O 	O 	0.67848	0.75876	0.95147	-0.399
_end
