data_functionalizedCrystal
_audit_creation_method	'EQeq! by Chris Wilmer'
_symmetry_space_group_name_H-M	'P1'
_symmetry_Int_Tables_number	1
_symmetry_cell_setting	triclinic
loop_
_symmetry_equiv_pos_as_xyz
  x,y,z
_cell_length_a	22.917
_cell_length_b	22.917
_cell_length_c	15.9024
_cell_angle_alpha	90
_cell_angle_beta	90
_cell_angle_gamma	120
loop_
_atom_site_label
_atom_site_type_symbol
_atom_site_fract_x
_atom_site_fract_y
_atom_site_fract_z
_atom_site_charge
Mof_C 	C 	0.4395	0.4635	0.0454	-0.231
Mof_C 	C 	0.3747	0.4231	0.0885	0.409
Mof_C 	C 	0.1663	0.3255	0.9204	0.206
Mof_C 	C 	0.2248	0.3485	0.8749	-0.158
Mof_H 	H 	0.263	0.36	0.9	0.075
Mof_O 	O 	0.1658	0.3171	0.0055	-0.739
Mof_O 	O 	0.3228	0.4086	0.0462	-0.52
Mof_O 	O 	0.0693	0.3654	0.1697	-0.687
Mof_Zn	Zn	0.12318	0.36583	0.07464	1.011
Mof_C 	C 	0.10617	0.79683	0.37873	-0.219
Mof_C 	C 	0.04137	0.75643	0.42183	0.363
Mof_C 	C 	0.83297	0.65883	0.25373	0.211
Mof_C 	C 	0.89147	0.68183	0.20823	-0.148
Mof_H 	H 	0.92967	0.69333	0.23333	0.081
Mof_O 	O 	0.83247	0.65043	0.33883	-0.734
Mof_O 	O 	0.98947	0.74193	0.37953	-0.476
Mof_O 	O 	0.73597	0.69873	0.50303	-0.674
Mof_Zn	Zn	0.78985	0.69916	0.40797	1.014
Mof_C 	C 	0.77283	0.13017	0.71207	-0.232
Mof_C 	C 	0.70803	0.08977	0.75517	0.41
Mof_C 	C 	0.49963	0.99217	0.58707	0.307
Mof_C 	C 	0.55813	0.01517	0.54157	-0.281
Mof_H 	H 	0.59633	0.02667	0.56667	0.112
Mof_O 	O 	0.49913	0.98377	0.67217	-0.737
Mof_O 	O 	0.65613	0.07527	0.71287	-0.529
Mof_O 	O 	0.40263	0.03207	0.83637	-0.682
Mof_Zn	Zn	0.45651	0.0325	0.74131	1.001
Mof_C 	C 	0.5365	0.976	0.0454	-0.291
Mof_C 	C 	0.5769	0.9516	0.0885	0.436
Mof_C 	C 	0.6745	0.8408	0.9204	0.219
Mof_C 	C 	0.6515	0.8763	0.8749	-0.161
Mof_H 	H 	0.64	0.903	0.9	0.083
Mof_O 	O 	0.6829	0.8487	0.0055	-0.734
Mof_O 	O 	0.5914	0.9142	0.0462	-0.522
Mof_O 	O 	0.6346	0.7039	0.1697	-0.674
Mof_Zn	Zn	0.63417	0.75735	0.07464	1.012
Mof_C 	C 	0.20317	0.30933	0.37873	-0.231
Mof_C 	C 	0.24357	0.28493	0.42183	0.409
Mof_C 	C 	0.34117	0.17413	0.25373	0.213
Mof_C 	C 	0.31817	0.20963	0.20823	-0.162
Mof_H 	H 	0.30667	0.23633	0.23333	0.076
Mof_O 	O 	0.34957	0.18203	0.33883	-0.738
Mof_O 	O 	0.25807	0.24753	0.37953	-0.524
Mof_O 	O 	0.30127	0.03723	0.50303	-0.68
Mof_Zn	Zn	0.30084	0.09068	0.40797	1.008
Mof_C 	C 	0.86983	0.64267	0.71207	-0.224
Mof_C 	C 	0.91023	0.61827	0.75517	0.409
Mof_C 	C 	0.00783	0.50747	0.58707	0.12
Mof_C 	C 	0.98483	0.54297	0.54157	-0.038
Mof_H 	H 	0.97333	0.56967	0.56667	0.041
Mof_O 	O 	0.01623	0.51537	0.67217	-0.731
Mof_O 	O 	0.92473	0.58087	0.71287	-0.505
Mof_O 	O 	0.96793	0.37057	0.83637	-0.669
Mof_Zn	Zn	0.9675	0.42402	0.74131	1.023
Mof_C 	C 	0.024	0.5605	0.0454	-0.174
Mof_C 	C 	0.0484	0.6253	0.0885	0.385
Mof_C 	C 	0.1592	0.8337	0.9204	0.221
Mof_C 	C 	0.1237	0.7752	0.8749	-0.164
Mof_H 	H 	0.097	0.737	0.9	0.073
Mof_O 	O 	0.1513	0.8342	0.0055	-0.742
Mof_O 	O 	0.0858	0.6772	0.0462	-0.519
Mof_O 	O 	0.2961	0.9307	0.1697	-0.664
Mof_Zn	Zn	0.24265	0.87682	0.07464	1.013
Mof_C 	C 	0.69067	0.89383	0.37873	-0.239
Mof_C 	C 	0.71507	0.95863	0.42183	0.458
Mof_C 	C 	0.82587	0.16703	0.25373	0.215
Mof_C 	C 	0.79037	0.10853	0.20823	-0.166
Mof_H 	H 	0.76367	0.07033	0.23333	0.071
Mof_O 	O 	0.81797	0.16753	0.33883	-0.736
Mof_O 	O 	0.75247	0.01053	0.37953	-0.558
Mof_O 	O 	0.96277	0.26403	0.50303	-0.672
Mof_Zn	Zn	0.90932	0.21015	0.40797	1.014
Mof_C 	C 	0.35733	0.22717	0.71207	-0.234
Mof_C 	C 	0.38173	0.29197	0.75517	0.411
Mof_C 	C 	0.49253	0.50037	0.58707	0.214
Mof_C 	C 	0.45703	0.44187	0.54157	-0.16
Mof_H 	H 	0.43033	0.40367	0.56667	0.076
Mof_O 	O 	0.48463	0.50087	0.67217	-0.736
Mof_O 	O 	0.41913	0.34387	0.71287	-0.52
Mof_O 	O 	0.62943	0.59737	0.83637	-0.675
Mof_Zn	Zn	0.57598	0.54349	0.74131	1.012
Mof_C 	C 	0.4635	0.4395	0.4546	-0.23
Mof_C 	C 	0.4231	0.3747	0.4115	0.41
Mof_C 	C 	0.3255	0.1663	0.5796	0.206
Mof_C 	C 	0.3485	0.2248	0.6251	-0.157
Mof_H 	H 	0.36	0.263	0.6	0.074
Mof_O 	O 	0.3171	0.1658	0.4945	-0.738
Mof_O 	O 	0.4086	0.3228	0.4538	-0.52
Mof_O 	O 	0.3654	0.0693	0.3303	-0.686
Mof_Zn	Zn	0.36583	0.12318	0.42536	1.011
Mof_C 	C 	0.13017	0.77283	0.78793	-0.231
Mof_C 	C 	0.08977	0.70803	0.74483	0.409
Mof_C 	C 	0.99217	0.49963	0.91293	0.303
Mof_C 	C 	0.01517	0.55813	0.95843	-0.274
Mof_H 	H 	0.02667	0.59633	0.93333	0.11
Mof_O 	O 	0.98377	0.49913	0.82783	-0.737
Mof_O 	O 	0.07527	0.65613	0.78713	-0.529
Mof_O 	O 	0.03207	0.40263	0.66363	-0.681
Mof_Zn	Zn	0.0325	0.45651	0.75869	1.001
Mof_C 	C 	0.79683	0.10617	0.12127	-0.221
Mof_C 	C 	0.75643	0.04137	0.07817	0.366
Mof_C 	C 	0.65883	0.83297	0.24627	0.212
Mof_C 	C 	0.68183	0.89147	0.29177	-0.149
Mof_H 	H 	0.69333	0.92967	0.26667	0.081
Mof_O 	O 	0.65043	0.83247	0.16117	-0.734
Mof_O 	O 	0.74193	0.98947	0.12047	-0.478
Mof_O 	O 	0.69873	0.73597	0.99697	-0.674
Mof_Zn	Zn	0.69916	0.78985	0.09203	1.014
Mof_C 	C 	0.976	0.5365	0.4546	-0.289
Mof_C 	C 	0.9516	0.5769	0.4115	0.436
Mof_C 	C 	0.8408	0.6745	0.5796	0.218
Mof_C 	C 	0.8763	0.6515	0.6251	-0.161
Mof_H 	H 	0.903	0.64	0.6	0.083
Mof_O 	O 	0.8487	0.6829	0.4945	-0.733
Mof_O 	O 	0.9142	0.5914	0.4538	-0.521
Mof_O 	O 	0.7039	0.6346	0.3303	-0.674
Mof_Zn	Zn	0.75735	0.63417	0.42536	1.012
Mof_C 	C 	0.64267	0.86983	0.78793	-0.223
Mof_C 	C 	0.61827	0.91023	0.74483	0.409
Mof_C 	C 	0.50747	0.00783	0.91293	0.119
Mof_C 	C 	0.54297	0.98483	0.95843	-0.035
Mof_H 	H 	0.56967	0.97333	0.93333	0.04
Mof_O 	O 	0.51537	0.01623	0.82783	-0.731
Mof_O 	O 	0.58087	0.92473	0.78713	-0.504
Mof_O 	O 	0.37057	0.96793	0.66363	-0.669
Mof_Zn	Zn	0.42402	0.9675	0.75869	1.024
Mof_C 	C 	0.30933	0.20317	0.12127	-0.232
Mof_C 	C 	0.28493	0.24357	0.07817	0.409
Mof_C 	C 	0.17413	0.34117	0.24627	0.213
Mof_C 	C 	0.20963	0.31817	0.29177	-0.163
Mof_H 	H 	0.23633	0.30667	0.26667	0.076
Mof_O 	O 	0.18203	0.34957	0.16117	-0.739
Mof_O 	O 	0.24753	0.25807	0.12047	-0.524
Mof_O 	O 	0.03723	0.30127	0.99697	-0.68
Mof_Zn	Zn	0.09068	0.30084	0.09203	1.008
Mof_C 	C 	0.5605	0.024	0.4546	-0.17
Mof_C 	C 	0.6253	0.0484	0.4115	0.384
Mof_C 	C 	0.8337	0.1592	0.5796	0.217
Mof_C 	C 	0.7752	0.1237	0.6251	-0.162
Mof_H 	H 	0.737	0.097	0.6	0.071
Mof_O 	O 	0.8342	0.1513	0.4945	-0.739
Mof_O 	O 	0.6772	0.0858	0.4538	-0.518
Mof_O 	O 	0.9307	0.2961	0.3303	-0.663
Mof_Zn	Zn	0.87682	0.24265	0.42536	1.013
Mof_C 	C 	0.22717	0.35733	0.78793	-0.234
Mof_C 	C 	0.29197	0.38173	0.74483	0.411
Mof_C 	C 	0.50037	0.49253	0.91293	0.214
Mof_C 	C 	0.44187	0.45703	0.95843	-0.16
Mof_H 	H 	0.40367	0.43033	0.93333	0.076
Mof_O 	O 	0.50087	0.48463	0.82783	-0.737
Mof_O 	O 	0.34387	0.41913	0.78713	-0.52
Mof_O 	O 	0.59737	0.62943	0.66363	-0.675
Mof_Zn	Zn	0.54349	0.57598	0.75869	1.012
Mof_C 	C 	0.89383	0.69067	0.12127	-0.24
Mof_C 	C 	0.95863	0.71507	0.07817	0.46
Mof_C 	C 	0.16703	0.82587	0.24627	0.216
Mof_C 	C 	0.10853	0.79037	0.29177	-0.168
Mof_H 	H 	0.07033	0.76367	0.26667	0.072
Mof_O 	O 	0.16753	0.81797	0.16117	-0.737
Mof_O 	O 	0.01053	0.75247	0.12047	-0.559
Mof_O 	O 	0.26403	0.96277	0.99697	-0.672
Mof_Zn	Zn	0.21015	0.90932	0.09203	1.014
Mof_C 	C 	0.5605	0.5365	0.9546	-0.23
Mof_C 	C 	0.6253	0.5769	0.9115	0.41
Mof_C 	C 	0.8337	0.6745	0.0796	0.222
Mof_C 	C 	0.7752	0.6515	0.1251	-0.163
Mof_H 	H 	0.737	0.64	0.1	0.078
Mof_O 	O 	0.8342	0.6829	0.9945	-0.736
Mof_O 	O 	0.6772	0.5914	0.9538	-0.52
Mof_O 	O 	0.9307	0.6346	0.8303	-0.663
Mof_Zn	Zn	0.87682	0.63417	0.92536	1.013
Mof_C 	C 	0.22717	0.86983	0.28793	-0.228
Mof_C 	C 	0.29197	0.91023	0.24483	0.41
Mof_C 	C 	0.50037	0.00783	0.41293	0.12
Mof_C 	C 	0.44187	0.98483	0.45843	-0.038
Mof_H 	H 	0.40367	0.97333	0.43333	0.041
Mof_O 	O 	0.50087	0.01623	0.32783	-0.731
Mof_O 	O 	0.34387	0.92473	0.28713	-0.505
Mof_O 	O 	0.59737	0.96793	0.16363	-0.669
Mof_Zn	Zn	0.54349	0.9675	0.25869	1.023
Mof_C 	C 	0.89383	0.20317	0.62127	-0.241
Mof_C 	C 	0.95863	0.24357	0.57817	0.457
Mof_C 	C 	0.16703	0.34117	0.74627	0.215
Mof_C 	C 	0.10853	0.31817	0.79177	-0.17
Mof_H 	H 	0.07033	0.30667	0.76667	0.072
Mof_O 	O 	0.16753	0.34957	0.66117	-0.739
Mof_O 	O 	0.01053	0.25807	0.62047	-0.562
Mof_O 	O 	0.26403	0.30127	0.49697	-0.677
Mof_Zn	Zn	0.21015	0.30084	0.59203	1.01
Mof_C 	C 	0.4635	0.024	0.9546	-0.173
Mof_C 	C 	0.4231	0.0484	0.9115	0.385
Mof_C 	C 	0.3255	0.1592	0.0796	0.21
Mof_C 	C 	0.3485	0.1237	0.1251	-0.16
Mof_H 	H 	0.36	0.097	0.1	0.07
Mof_O 	O 	0.3171	0.1513	0.9945	-0.741
Mof_O 	O 	0.4086	0.0858	0.9538	-0.518
Mof_O 	O 	0.3654	0.2961	0.8303	-0.676
Mof_Zn	Zn	0.36583	0.24265	0.92536	1.012
Mof_C 	C 	0.13017	0.35733	0.28793	-0.236
Mof_C 	C 	0.08977	0.38173	0.24483	0.411
Mof_C 	C 	0.99217	0.49253	0.41293	0.306
Mof_C 	C 	0.01517	0.45703	0.45843	-0.281
Mof_H 	H 	0.02667	0.43033	0.43333	0.112
Mof_O 	O 	0.98377	0.48463	0.32783	-0.737
Mof_O 	O 	0.07527	0.41913	0.28713	-0.53
Mof_O 	O 	0.03207	0.62943	0.16363	-0.682
Mof_Zn	Zn	0.0325	0.57598	0.25869	1
Mof_C 	C 	0.79683	0.69067	0.62127	-0.229
Mof_C 	C 	0.75643	0.71507	0.57817	0.412
Mof_C 	C 	0.65883	0.82587	0.74627	0.213
Mof_C 	C 	0.68183	0.79037	0.79177	-0.156
Mof_H 	H 	0.69333	0.76367	0.76667	0.076
Mof_O 	O 	0.65043	0.81797	0.66117	-0.734
Mof_O 	O 	0.74193	0.75247	0.62047	-0.515
Mof_O 	O 	0.69873	0.96277	0.49697	-0.67
Mof_Zn	Zn	0.69916	0.90932	0.59203	1.016
Mof_C 	C 	0.976	0.4395	0.9546	-0.291
Mof_C 	C 	0.9516	0.3747	0.9115	0.437
Mof_C 	C 	0.8408	0.1663	0.0796	0.214
Mof_C 	C 	0.8763	0.2248	0.1251	-0.16
Mof_H 	H 	0.903	0.263	0.1	0.082
Mof_O 	O 	0.8487	0.1658	0.9945	-0.737
Mof_O 	O 	0.9142	0.3228	0.9538	-0.523
Mof_O 	O 	0.7039	0.0693	0.8303	-0.686
Mof_Zn	Zn	0.75735	0.12318	0.92536	1.01
Mof_C 	C 	0.64267	0.77283	0.28793	-0.226
Mof_C 	C 	0.61827	0.70803	0.24483	0.41
Mof_C 	C 	0.50747	0.49963	0.41293	0.214
Mof_C 	C 	0.54297	0.55813	0.45843	-0.16
Mof_H 	H 	0.56967	0.59633	0.43333	0.076
Mof_O 	O 	0.51537	0.49913	0.32783	-0.736
Mof_O 	O 	0.58087	0.65613	0.28713	-0.519
Mof_O 	O 	0.37057	0.40263	0.16363	-0.675
Mof_Zn	Zn	0.42402	0.45651	0.25869	1.012
Mof_C 	C 	0.30933	0.10617	0.62127	-0.22
Mof_C 	C 	0.28493	0.04137	0.57817	0.361
Mof_C 	C 	0.17413	0.83297	0.74627	0.211
Mof_C 	C 	0.20963	0.89147	0.79177	-0.151
Mof_H 	H 	0.23633	0.92967	0.76667	0.08
Mof_O 	O 	0.18203	0.83247	0.66117	-0.736
Mof_O 	O 	0.24753	0.98947	0.62047	-0.48
Mof_O 	O 	0.03723	0.73597	0.49697	-0.678
Mof_Zn	Zn	0.09068	0.78985	0.59203	1.01
Mof_C 	C 	0.5365	0.5605	0.5454	-0.23
Mof_C 	C 	0.5769	0.6253	0.5885	0.41
Mof_C 	C 	0.6745	0.8337	0.4204	0.221
Mof_C 	C 	0.6515	0.7752	0.3749	-0.163
Mof_H 	H 	0.64	0.737	0.4	0.078
Mof_O 	O 	0.6829	0.8342	0.5055	-0.735
Mof_O 	O 	0.5914	0.6772	0.5462	-0.519
Mof_O 	O 	0.6346	0.9307	0.6697	-0.662
Mof_Zn	Zn	0.63417	0.87682	0.57464	1.013
Mof_C 	C 	0.20317	0.89383	0.87873	-0.242
Mof_C 	C 	0.24357	0.95863	0.92183	0.459
Mof_C 	C 	0.34117	0.16703	0.75373	0.215
Mof_C 	C 	0.31817	0.10853	0.70823	-0.171
Mof_H 	H 	0.30667	0.07033	0.73333	0.072
Mof_O 	O 	0.34957	0.16753	0.83883	-0.739
Mof_O 	O 	0.25807	0.01053	0.87953	-0.563
Mof_O 	O 	0.30127	0.26403	0.00303	-0.677
Mof_Zn	Zn	0.30084	0.21015	0.90797	1.01
Mof_C 	C 	0.86983	0.22717	0.21207	-0.226
Mof_C 	C 	0.91023	0.29197	0.25517	0.409
Mof_C 	C 	0.00783	0.50037	0.08707	0.12
Mof_C 	C 	0.98483	0.44187	0.04157	-0.035
Mof_H 	H 	0.97333	0.40367	0.06667	0.04
Mof_O 	O 	0.01623	0.50087	0.17217	-0.731
Mof_O 	O 	0.92473	0.34387	0.21287	-0.504
Mof_O 	O 	0.96793	0.59737	0.33637	-0.669
Mof_Zn	Zn	0.9675	0.54349	0.24131	1.024
Mof_C 	C 	0.024	0.4635	0.5454	-0.17
Mof_C 	C 	0.0484	0.4231	0.5885	0.384
Mof_C 	C 	0.1592	0.3255	0.4204	0.209
Mof_C 	C 	0.1237	0.3485	0.3749	-0.159
Mof_H 	H 	0.097	0.36	0.4	0.07
Mof_O 	O 	0.1513	0.3171	0.5055	-0.74
Mof_O 	O 	0.0858	0.4086	0.5462	-0.518
Mof_O 	O 	0.2961	0.3654	0.6697	-0.676
Mof_Zn	Zn	0.24265	0.36583	0.57464	1.012
Mof_C 	C 	0.69067	0.79683	0.87873	-0.229
Mof_C 	C 	0.71507	0.75643	0.92183	0.412
Mof_C 	C 	0.82587	0.65883	0.75373	0.214
Mof_C 	C 	0.79037	0.68183	0.70823	-0.157
Mof_H 	H 	0.76367	0.69333	0.73333	0.077
Mof_O 	O 	0.81797	0.65043	0.83883	-0.735
Mof_O 	O 	0.75247	0.74193	0.87953	-0.515
Mof_O 	O 	0.96277	0.69873	0.00303	-0.671
Mof_Zn	Zn	0.90932	0.69916	0.90797	1.016
Mof_C 	C 	0.35733	0.13017	0.21207	-0.236
Mof_C 	C 	0.38173	0.08977	0.25517	0.411
Mof_C 	C 	0.49253	0.99217	0.08707	0.303
Mof_C 	C 	0.45703	0.01517	0.04157	-0.275
Mof_H 	H 	0.43033	0.02667	0.06667	0.11
Mof_O 	O 	0.48463	0.98377	0.17217	-0.737
Mof_O 	O 	0.41913	0.07527	0.21287	-0.529
Mof_O 	O 	0.62943	0.03207	0.33637	-0.681
Mof_Zn	Zn	0.57598	0.0325	0.24131	1.001
Mof_C 	C 	0.4395	0.976	0.5454	-0.29
Mof_C 	C 	0.3747	0.9516	0.5885	0.436
Mof_C 	C 	0.1663	0.8408	0.4204	0.21
Mof_C 	C 	0.2248	0.8763	0.3749	-0.158
Mof_H 	H 	0.263	0.903	0.4	0.081
Mof_O 	O 	0.1658	0.8487	0.5055	-0.734
Mof_O 	O 	0.3228	0.9142	0.5462	-0.521
Mof_O 	O 	0.0693	0.7039	0.6697	-0.685
Mof_Zn	Zn	0.12318	0.75735	0.57464	1.011
Mof_C 	C 	0.10617	0.30933	0.87873	-0.221
Mof_C 	C 	0.04137	0.28493	0.92183	0.364
Mof_C 	C 	0.83297	0.17413	0.75373	0.211
Mof_C 	C 	0.89147	0.20963	0.70823	-0.152
Mof_H 	H 	0.92967	0.23633	0.73333	0.081
Mof_O 	O 	0.83247	0.18203	0.83883	-0.736
Mof_O 	O 	0.98947	0.24753	0.87953	-0.483
Mof_O 	O 	0.73597	0.03723	0.00303	-0.678
Mof_Zn	Zn	0.78985	0.09068	0.90797	1.009
Mof_C 	C 	0.77283	0.64267	0.21207	-0.226
Mof_C 	C 	0.70803	0.61827	0.25517	0.409
Mof_C 	C 	0.49963	0.50747	0.08707	0.214
Mof_C 	C 	0.55813	0.54297	0.04157	-0.16
Mof_H 	H 	0.59633	0.56967	0.06667	0.076
Mof_O 	O 	0.49913	0.51537	0.17217	-0.737
Mof_O 	O 	0.65613	0.58087	0.21287	-0.519
Mof_O 	O 	0.40263	0.37057	0.33637	-0.675
Mof_Zn	Zn	0.45651	0.42402	0.24131	1.012
Mof_Zn	Zn	0.2382	0.33333	0.08333	1.218
Mof_Zn	Zn	0.66667	0.90486	0.08333	1.22
Mof_Zn	Zn	0.33333	0.2382	0.41667	1.218
Mof_Zn	Zn	0.09514	0.7618	0.08333	1.217
Mof_Zn	Zn	0.42847	0.42847	0.75	1.219
Mof_Zn	Zn	6.20103e-17	0.57153	0.75	1.207
Mof_Zn	Zn	0.90486	0.66667	0.41667	1.22
Mof_Zn	Zn	0.57153	1.39605e-32	0.75	1.206
Mof_Zn	Zn	0.7618	0.09514	0.41667	1.217
Mof_Zn	Zn	0.7618	0.66667	0.91667	1.219
Mof_Zn	Zn	0.42847	0	0.25	1.207
Mof_Zn	Zn	0.09514	0.33333	0.58333	1.217
Mof_Zn	Zn	0.33333	0.09514	0.91667	1.217
Mof_Zn	Zn	1.01913e-17	0.42847	0.25	1.207
Mof_Zn	Zn	0.90486	0.2382	0.91667	1.22
Mof_Zn	Zn	0.57153	0.57153	0.25	1.219
Mof_Zn	Zn	0.66667	0.7618	0.58333	1.219
Mof_Zn	Zn	0.2382	0.90486	0.58333	1.22
_end
