# CIF file generated by openbabel 3.1.0, see https://openbabel.org
data_I
_chemical_name_common 'VIWKIX_clean'
_cell_length_a 11.006
_cell_length_b 19.847
_cell_length_c 23.228
_cell_angle_alpha 90
_cell_angle_beta 90
_cell_angle_gamma 99.91
_space_group_name_H-M_alt 'P 1'
_space_group_name_Hall 'P 1'
loop_
    _symmetry_equiv_pos_as_xyz
    x,y,z
loop_
    _atom_site_label
    _atom_site_type_symbol
    _atom_site_fract_x
    _atom_site_fract_y
    _atom_site_fract_z
    _atom_site_occupancy
    La1      La       0.46193    0.60177    0.85561    1.000
    La2      La       0.53807    0.39823    0.14439    1.000
    La3      La       0.14886    0.85527    0.85631    1.000
    La4      La       0.85114    0.14473    0.14369    1.000
    La5      La       0.03807    0.89823    0.35561    1.000
    La6      La       0.64886    0.35527    0.64369    1.000
    La7      La       0.96193    0.10177    0.64439    1.000
    La8      La       0.35114    0.64473    0.35631    1.000
    Cu1      Cu       0.90985    0.10248    0.82038    1.000
    Cu2      Cu       0.40985    0.60248    0.67962    1.000
    Cu3      Cu       0.19867    0.84996    0.67992    1.000
    Cu4      Cu       0.59015    0.39752    0.32038    1.000
    Cu5      Cu       0.09015    0.89752    0.17962    1.000
    Cu6      Cu       0.80133    0.15004    0.32008    1.000
    Cu7      Cu       0.30133    0.65004    0.17992    1.000
    Cu8      Cu       0.69867    0.34996    0.82008    1.000
    H1       H        0.27180    0.24100    0.20590    1.000
    H2       H        0.41950    0.04090    0.58160    1.000
    H3       H        0.37920    0.05650    0.30340    1.000
    H4       H        0.58050    0.95910    0.41840    1.000
    H5       H        0.48420    0.00970    0.80330    1.000
    H6       H        0.77180    0.74100    0.29410    1.000
    H7       H        0.01580    0.49030    0.30330    1.000
    H8       H        0.87920    0.55650    0.19660    1.000
    H9       H        0.60860    0.80640    0.29970    1.000
    H10      H        0.39140    0.19360    0.70030    1.000
    H11      H        0.89140    0.69360    0.79970    1.000
    H12      H        0.98420    0.50970    0.69670    1.000
    H13      H        0.10860    0.30640    0.20030    1.000
    H14      H        0.72820    0.75900    0.79410    1.000
    H15      H        0.91950    0.54090    0.91840    1.000
    H16      H        0.22820    0.25900    0.70590    1.000
    H17      H        0.08050    0.45910    0.08160    1.000
    H18      H        0.62080    0.94350    0.69660    1.000
    H19      H        0.12080    0.44350    0.80340    1.000
    H20      H        0.51580    0.99030    0.19670    1.000
    C1       C        0.72060    0.64110    0.27980    1.000
    C2       C        0.83490    0.59350    0.78420    1.000
    C3       C        0.27940    0.35890    0.72020    1.000
    C4       C        0.16510    0.40650    0.21580    1.000
    C5       C        0.42300    0.97650    0.45430    1.000
    C6       C        0.99120    0.33290    0.25930    1.000
    C7       C        0.45560    0.83660    0.67460    1.000
    C8       C        0.37290    0.00200    0.50360    1.000
    C9       C        0.22060    0.14110    0.22020    1.000
    C10      C        0.40890    0.15690    0.72180    1.000
    C11      C        0.53580    0.71500    0.72980    1.000
    C12      C        0.10410    0.28590    0.76160    1.000
    C13      C        0.60410    0.78590    0.73840    1.000
    C14      C        0.79240    0.70400    0.27400    1.000
    C15      C        0.57700    0.02350    0.54570    1.000
    C16      C        0.29240    0.20400    0.22600    1.000
    C17      C        0.92300    0.47650    0.04570    1.000
    C18      C        0.42820    0.15840    0.29120    1.000
    C19      C        0.60140    0.63490    0.31170    1.000
    C20      C        0.23940    0.00820    0.51000    1.000
    C21      C        0.65910    0.05390    0.59430    1.000
    C22      C        0.73940    0.50820    0.99000    1.000
    C23      C        0.28520    0.41150    0.18310    1.000
    C24      C        0.49120    0.83290    0.24070    1.000
    C25      C        0.20760    0.29600    0.72600    1.000
    C26      C        0.53800    0.11100    0.79000    1.000
    C27      C        0.59110    0.84310    0.27820    1.000
    C28      C        0.25190    0.08380    0.24970    1.000
    C29      C        0.21480    0.08850    0.68310    1.000
    C30      C        0.96420    0.78500    0.22980    1.000
    C31      C        0.65150    0.11490    0.82680    1.000
    C32      C        0.89860    0.86510    0.81170    1.000
    C33      C        0.03800    0.61100    0.71000    1.000
    C34      C        0.96490    0.54690    0.71690    1.000
    C35      C        0.07180    0.34160    0.79120    1.000
    C36      C        0.81670    0.98710    0.75950    1.000
    C37      C        0.39860    0.36510    0.68830    1.000
    C38      C        0.68330    0.51290    0.25950    1.000
    C39      C        0.70760    0.79600    0.77400    1.000
    C40      C        0.07700    0.52350    0.95430    1.000
    C41      C        0.50880    0.16710    0.75930    1.000
    C42      C        0.71480    0.58850    0.81690    1.000
    C43      C        0.85660    0.59370    0.21560    1.000
    C44      C        0.00880    0.66710    0.74070    1.000
    C45      C        0.39590    0.21410    0.26160    1.000
    C46      C        0.70720    0.03350    0.26070    1.000
    C47      C        0.31670    0.48710    0.74050    1.000
    C48      C        0.29280    0.96650    0.73930    1.000
    C49      C        0.15150    0.61490    0.67320    1.000
    C50      C        0.57790    0.23820    0.76820    1.000
    C51      C        0.54440    0.16340    0.32540    1.000
    C52      C        0.76060    0.99180    0.49000    1.000
    C53      C        0.45160    0.02450    0.54840    1.000
    C54      C        0.57180    0.84160    0.70880    1.000
    C55      C        0.86370    0.53790    0.75330    1.000
    C56      C        0.64340    0.90630    0.71560    1.000
    C57      C        0.33490    0.09350    0.71580    1.000
    C58      C        0.46200    0.88900    0.21000    1.000
    C59      C        0.46420    0.28500    0.27020    1.000
    C60      C        0.09110    0.34310    0.22180    1.000
    C61      C        0.10140    0.13490    0.18830    1.000
    C62      C        0.15910    0.55390    0.90570    1.000
    C63      C        0.34850    0.88510    0.17320    1.000
    C64      C        0.36370    0.03790    0.74670    1.000
    C65      C        0.78520    0.91150    0.31690    1.000
    C66      C        0.53510    0.95310    0.21690    1.000
    C67      C        0.04440    0.66340    0.17460    1.000
    C68      C        0.89590    0.71410    0.23840    1.000
    C69      C        0.90890    0.65690    0.77820    1.000
    C70      C        0.54840    0.97550    0.45160    1.000
    C71      C        0.63630    0.96210    0.25330    1.000
    C72      C        0.62710    0.99800    0.49640    1.000
    C73      C        0.95560    0.33660    0.82540    1.000
    C74      C        0.77940    0.85890    0.77980    1.000
    C75      C        0.35660    0.09370    0.28440    1.000
    C76      C        0.26060    0.49180    0.01000    1.000
    C77      C        0.75190    0.58380    0.25030    1.000
    C78      C        0.46490    0.04690    0.78310    1.000
    C79      C        0.24810    0.41620    0.74970    1.000
    C80      C        0.96200    0.38900    0.29000    1.000
    C81      C        0.04840    0.47550    0.04840    1.000
    C82      C        0.12710    0.49800    0.00360    1.000
    C83      C        0.84090    0.44610    0.09430    1.000
    C84      C        0.03580    0.21500    0.77020    1.000
    C85      C        0.79280    0.46650    0.76070    1.000
    C86      C        0.18330    0.01290    0.24050    1.000
    C87      C        0.20720    0.53350    0.23930    1.000
    C88      C        0.14340    0.40630    0.78440    1.000
    C89      C        0.42210    0.76180    0.23180    1.000
    C90      C        0.92820    0.65840    0.20880    1.000
    C91      C        0.92210    0.26180    0.26820    1.000
    C92      C        0.13630    0.46210    0.24670    1.000
    C93      C        0.66510    0.90650    0.28420    1.000
    C94      C        0.07790    0.73820    0.73180    1.000
    C95      C        0.03510    0.45310    0.28310    1.000
    C96      C        0.84850    0.38510    0.32680    1.000
    C97      C        0.87290    0.50200    0.99640    1.000
    C98      C        0.74810    0.91620    0.75030    1.000
    C99      C        0.95160    0.52450    0.95160    1.000
    C100     C        0.34090    0.94610    0.40570    1.000
    O1       O        0.59270    0.67070    0.35540    1.000
    O2       O        0.09020    0.77900    0.77300    1.000
    O3       O        0.79700    0.94190    0.51290    1.000
    O4       O        0.96190    0.34880    0.87740    1.000
    O5       O        0.14120    0.59530    0.62310    1.000
    O6       O        0.52620    0.67470    0.77160    1.000
    O7       O        0.60490    0.07130    0.63780    1.000
    O8       O        0.50660    0.59540    0.29170    1.000
    O9       O        0.32670    0.50800    0.68880    1.000
    O10      O        0.87880    0.95020    0.29600    1.000
    O11      O        0.38460    0.74530    0.18170    1.000
    O12      O        0.64120    0.09530    0.87690    1.000
    O13      O        0.53810    0.15120    0.37740    1.000
    O14      O        0.74640    0.36570    0.30130    1.000
    O15      O        0.76090    0.43160    0.71640    1.000
    O16      O        0.97380    0.82530    0.27160    1.000
    O17      O        0.47380    0.32530    0.22840    1.000
    O18      O        0.37880    0.45020    0.20400    1.000
    O19      O        0.77100    0.05980    0.58900    1.000
    O20      O        0.99340    0.90460    0.79170    1.000
    O21      O        0.17330    0.99200    0.18880    1.000
    O22      O        0.35630    0.82240    0.70380    1.000
    O23      O        0.20300    0.05810    0.48710    1.000
    O24      O        0.24640    0.86570    0.19870    1.000
    O25      O        0.32810    0.53570    0.03970    1.000
    O26      O        0.03810    0.65120    0.12260    1.000
    O27      O        0.40730    0.32930    0.64460    1.000
    O28      O        0.50700    0.30200    0.31930    1.000
    O29      O        0.75360    0.13430    0.80130    1.000
    O30      O        0.09270    0.17070    0.14460    1.000
    O31      O        0.89510    0.42870    0.13780    1.000
    O32      O        0.79220    0.87650    0.36140    1.000
    O33      O        0.25360    0.63430    0.69870    1.000
    O34      O        0.62120    0.54980    0.79600    1.000
    O35      O        0.00700    0.80200    0.18070    1.000
    O36      O        0.88460    0.24530    0.31830    1.000
    O37      O        0.17190    0.96430    0.53970    1.000
    O38      O        0.70300    0.55810    0.01290    1.000
    O39      O        0.02620    0.17470    0.72840    1.000
    O40      O        0.10490    0.57130    0.86220    1.000
    O41      O        0.40980    0.72100    0.27300    1.000
    O42      O        0.39510    0.92870    0.36220    1.000
    O43      O        0.26090    0.93160    0.78360    1.000
    O44      O        0.22900    0.94020    0.41100    1.000
    O45      O        0.85880    0.40470    0.37690    1.000
    O46      O        0.14560    0.97800    0.28310    1.000
    O47      O        0.11540    0.75470    0.68170    1.000
    O48      O        0.72900    0.44020    0.08900    1.000
    O49      O        0.77710    0.44480    0.81170    1.000
    O50      O        0.99300    0.19800    0.81930    1.000
    O51      O        0.85440    0.02200    0.71690    1.000
    O52      O        0.90980    0.22100    0.22700    1.000
    O53      O        0.61540    0.25470    0.81830    1.000
    O54      O        0.64370    0.17760    0.29620    1.000
    O55      O        0.82670    0.00800    0.81120    1.000
    O56      O        0.00660    0.09540    0.20830    1.000
    O57      O        0.59020    0.27900    0.72700    1.000
    O58      O        0.85630    0.32240    0.79620    1.000
    O59      O        0.29700    0.44190    0.98710    1.000
    O60      O        0.23910    0.56840    0.28360    1.000
    O61      O        0.49300    0.69800    0.68070    1.000
    O62      O        0.12120    0.04980    0.70400    1.000
    O63      O        0.46190    0.84880    0.62260    1.000
    O64      O        0.49340    0.40460    0.70830    1.000
    O65      O        0.67330    0.49200    0.31120    1.000
    O66      O        0.72290    0.05520    0.31170    1.000
    O67      O        0.20780    0.12350    0.63860    1.000
    O68      O        0.29220    0.37650    0.13860    1.000
    O69      O        0.90730    0.82930    0.85540    1.000
    O70      O        0.14370    0.67760    0.20380    1.000
    O71      O        0.35880    0.90470    0.12310    1.000
    O72      O        0.27710    0.94480    0.68830    1.000
    O73      O        0.70780    0.62350    0.86140    1.000
    O74      O        0.64560    0.47800    0.21690    1.000
    O75      O        0.73910    0.06840    0.21640    1.000
    O76      O        0.35440    0.52200    0.78310    1.000
    O77      O        0.22290    0.55520    0.18830    1.000
    O78      O        0.27100    0.55980    0.91100    1.000
    O79      O        0.82810    0.03570    0.46030    1.000
    O80      O        0.67190    0.46430    0.96030    1.000
