data_functionalizedCrystal
_audit_creation_method	'EQeq! by Chris Wilmer'
_symmetry_space_group_name_H-M	'P1'
_symmetry_Int_Tables_number	1
_symmetry_cell_setting	triclinic
loop_
_symmetry_equiv_pos_as_xyz
  x,y,z
_cell_length_a	12.248
_cell_length_b	12.248
_cell_length_c	22.8767
_cell_angle_alpha	90
_cell_angle_beta	90
_cell_angle_gamma	90
loop_
_atom_site_label
_atom_site_type_symbol
_atom_site_fract_x
_atom_site_fract_y
_atom_site_fract_z
_atom_site_charge
Mof_Cu	Cu	7.35575e-33	0.60771	-0	0.845
Mof_Cu	Cu	3.67787e-33	0.39229	-0	0.837
Mof_Cu	Cu	0.39229	0	0.5	0.862
Mof_Cu	Cu	0.60771	0	0.5	0.869
Mof_H 	H 	0.6111	0.662	0.8013	0.105
Mof_H 	H 	0.7465	0.6623	0.8704	0.044
Mof_H 	H 	0.3889	0.338	0.8013	0.092
Mof_H 	H 	0.2535	0.3377	0.8704	0.006
Mof_H 	H 	0.338	0.6111	0.3013	0.091
Mof_H 	H 	0.3377	0.7465	0.3704	0.017
Mof_H 	H 	0.662	0.3889	0.3013	0.107
Mof_H 	H 	0.6623	0.2535	0.3704	0.012
Mof_H 	H 	0.3889	0.662	0.1987	0.106
Mof_H 	H 	0.2535	0.6623	0.1296	0.006
Mof_H 	H 	0.6111	0.338	0.1987	0.09
Mof_H 	H 	0.7465	0.3377	0.1296	0.01
Mof_H 	H 	0.662	0.6111	0.6987	0.105
Mof_H 	H 	0.6623	0.7465	0.6296	0.036
Mof_H 	H 	0.338	0.3889	0.6987	0.092
Mof_H 	H 	0.3377	0.2535	0.6296	-0.003
Mof_H 	H 	0.3889	0.338	0.1987	0.092
Mof_H 	H 	0.2535	0.3377	0.1296	-0.011
Mof_H 	H 	0.6111	0.662	0.1987	0.105
Mof_H 	H 	0.7465	0.6623	0.1296	0.027
Mof_H 	H 	0.662	0.3889	0.6987	0.106
Mof_H 	H 	0.6623	0.2535	0.6296	0.014
Mof_H 	H 	0.338	0.6111	0.6987	0.091
Mof_H 	H 	0.3377	0.7465	0.6296	0.019
Mof_H 	H 	0.6111	0.338	0.8013	0.091
Mof_H 	H 	0.7465	0.3377	0.8704	0.026
Mof_H 	H 	0.3889	0.662	0.8013	0.107
Mof_H 	H 	0.2535	0.6623	0.8704	0.023
Mof_H 	H 	0.338	0.3889	0.3013	0.093
Mof_H 	H 	0.3377	0.2535	0.3704	-0.004
Mof_H 	H 	0.662	0.6111	0.3013	0.105
Mof_H 	H 	0.6623	0.7465	0.3704	0.034
Mof_C 	C 	0.6392	0.5961	0.81475	-0.168
Mof_C 	C 	0.72	0.5962	0.8564	0.08
Mof_C 	C 	0.3608	0.4039	0.81475	-0.19
Mof_C 	C 	0.28	0.4038	0.8564	0.091
Mof_C 	C 	0.4039	0.6392	0.31475	-0.18
Mof_C 	C 	0.4038	0.72	0.3564	0.084
Mof_C 	C 	0.5961	0.3608	0.31475	-0.199
Mof_C 	C 	0.5962	0.28	0.3564	0.1
Mof_C 	C 	0.3608	0.5961	0.18525	-0.204
Mof_C 	C 	0.28	0.5962	0.1436	0.103
Mof_C 	C 	0.6392	0.4039	0.18525	-0.186
Mof_C 	C 	0.72	0.4038	0.1436	0.088
Mof_C 	C 	0.5961	0.6392	0.68525	-0.174
Mof_C 	C 	0.5962	0.72	0.6436	0.085
Mof_C 	C 	0.4039	0.3608	0.68525	-0.198
Mof_C 	C 	0.4038	0.28	0.6436	0.096
Mof_C 	C 	0.3608	0.4039	0.18525	-0.207
Mof_C 	C 	0.28	0.4038	0.1436	0.101
Mof_C 	C 	0.6392	0.5961	0.18525	-0.184
Mof_C 	C 	0.72	0.5962	0.1436	0.09
Mof_C 	C 	0.5961	0.3608	0.68525	-0.196
Mof_C 	C 	0.5962	0.28	0.6436	0.098
Mof_C 	C 	0.4039	0.6392	0.68525	-0.177
Mof_C 	C 	0.4038	0.72	0.6436	0.083
Mof_C 	C 	0.6392	0.4039	0.81475	-0.17
Mof_C 	C 	0.72	0.4038	0.8564	0.078
Mof_C 	C 	0.3608	0.5961	0.81475	-0.188
Mof_C 	C 	0.28	0.5962	0.8564	0.093
Mof_C 	C 	0.4039	0.3608	0.31475	-0.201
Mof_C 	C 	0.4038	0.28	0.3564	0.098
Mof_C 	C 	0.5961	0.6392	0.31475	-0.178
Mof_C 	C 	0.5962	0.72	0.3564	0.086
Mof_C 	C 	0.5996	0.5	0.7928	0.137
Mof_C 	C 	0.8551	0.5	0.9236	0.354
Mof_C 	C 	0.7625	0.5	0.8777	-0.106
Mof_C 	C 	0.4004	0.5	0.7928	0.144
Mof_C 	C 	0.1449	0.5	0.9236	0.36
Mof_C 	C 	0.2375	0.5	0.8777	-0.137
Mof_C 	C 	0.5	0.5996	0.2928	0.142
Mof_C 	C 	0.5	0.8551	0.4236	0.358
Mof_C 	C 	0.5	0.7625	0.3777	-0.12
Mof_C 	C 	0.5	0.4004	0.2928	0.15
Mof_C 	C 	0.5	0.1449	0.4236	0.366
Mof_C 	C 	0.5	0.2375	0.3777	-0.152
Mof_C 	C 	0.4004	0.5	0.2072	0.152
Mof_C 	C 	0.1449	0.5	0.0764	0.366
Mof_C 	C 	0.2375	0.5	0.1223	-0.161
Mof_C 	C 	0.5996	0.5	0.2072	0.144
Mof_C 	C 	0.8551	0.5	0.0764	0.359
Mof_C 	C 	0.7625	0.5	0.1223	-0.13
Mof_C 	C 	0.5	0.5996	0.7072	0.139
Mof_C 	C 	0.5	0.8551	0.5764	0.358
Mof_C 	C 	0.5	0.7625	0.6223	-0.117
Mof_C 	C 	0.5	0.4004	0.7072	0.147
Mof_C 	C 	0.5	0.1449	0.5764	0.366
Mof_C 	C 	0.5	0.2375	0.6223	-0.15
Mof_C 	C 	0.5	0.5	0.75	-0.161
Mof_C 	C 	0.5	0.5	0.25	-0.167
Mof_O 	O 	0.8869	0.5925	0.94047	-0.335
Mof_O 	O 	0.1131	0.4075	0.94047	-0.408
Mof_O 	O 	0.4075	0.8869	0.44047	-0.375
Mof_O 	O 	0.5925	0.1131	0.44047	-0.425
Mof_O 	O 	0.1131	0.5925	0.05953	-0.439
Mof_O 	O 	0.8869	0.4075	0.05953	-0.39
Mof_O 	O 	0.5925	0.8869	0.55953	-0.361
Mof_O 	O 	0.4075	0.1131	0.55953	-0.437
Mof_O 	O 	0.1131	0.4075	0.05953	-0.453
Mof_O 	O 	0.8869	0.5925	0.05953	-0.377
Mof_O 	O 	0.5925	0.1131	0.55953	-0.425
Mof_O 	O 	0.4075	0.8869	0.55953	-0.374
Mof_O 	O 	0.8869	0.4075	0.94047	-0.349
Mof_O 	O 	0.1131	0.5925	0.94047	-0.394
Mof_O 	O 	0.4075	0.1131	0.44047	-0.438
Mof_O 	O 	0.5925	0.8869	0.44047	-0.362
_end
