data_functionalizedCrystal
_audit_creation_method	'EQeq! by Chris Wilmer'
_symmetry_space_group_name_H-M	'P1'
_symmetry_Int_Tables_number	1
_symmetry_cell_setting	triclinic
loop_
_symmetry_equiv_pos_as_xyz
  x,y,z
_cell_length_a	12.385
_cell_length_b	15.352
_cell_length_c	25.0378
_cell_angle_alpha	107.853
_cell_angle_beta	104.319
_cell_angle_gamma	90.0001
loop_
_atom_site_label
_atom_site_type_symbol
_atom_site_fract_x
_atom_site_fract_y
_atom_site_fract_z
_atom_site_charge
Mof_Sc	Sc	0.47934	0.04169	0.20854	1.921
Mof_Sc	Sc	0.68745	0.9998	0.12486	1.907
Mof_Sc	Sc	0.60412	0.79173	0.45818	1.911
Mof_Sc	Sc	0.2292	0.16685	0.20854	1.918
Mof_Sc	Sc	0.93741	0.12506	0.12486	1.914
Mof_Sc	Sc	0.35406	0.66645	0.45818	1.911
Mof_Sc	Sc	0.2708	0.45831	0.79146	1.917
Mof_Sc	Sc	0.56259	0.5002	0.87514	1.913
Mof_Sc	Sc	0.14594	0.70827	0.54182	1.911
Mof_Sc	Sc	0.02066	0.33315	0.79146	1.914
Mof_Sc	Sc	0.81255	0.37494	0.87514	1.913
Mof_Sc	Sc	0.89588	0.83355	0.54182	1.907
Mof_H 	H 	0.569	0.1281	0.158	0.375
Mof_H 	H 	0.9243	0.939	0.2556	0.016
Mof_H 	H 	0.1012	0.0144	0.2934	0.018
Mof_H 	H 	0.405	0.9167	0.3336	0.022
Mof_H 	H 	0.1421	0.8197	0.3746	0.014
Mof_H 	H 	0.0016	0.8958	0.4118	0.019
Mof_H 	H 	0.6784	0.9176	0.3334	0.025
Mof_H 	H 	0.2424	0.848	0.0774	0.016
Mof_H 	H 	0.0661	0.8859	0.0392	0.008
Mof_H 	H 	0.089	0.0299	0.158	0.376
Mof_H 	H 	0.8313	0.3166	0.2556	0.017
Mof_H 	H 	0.6922	0.279	0.2934	0.018
Mof_H 	H 	0.4286	0.4169	0.3336	0.022
Mof_H 	H 	0.7325	0.5549	0.3746	0.014
Mof_H 	H 	0.9102	0.516	0.4118	0.016
Mof_H 	H 	0.155	0.4158	0.3334	0.024
Mof_H 	H 	0.335	0.2294	0.0774	0.015
Mof_H 	H 	0.4731	0.1533	0.0392	0.009
Mof_H 	H 	0.411	0.3719	0.842	0.376
Mof_H 	H 	0.6687	0.561	0.7444	0.017
Mof_H 	H 	0.8078	0.4856	0.7066	0.018
Mof_H 	H 	0.0714	0.5833	0.6664	0.023
Mof_H 	H 	0.7675	0.6803	0.6254	0.014
Mof_H 	H 	0.5898	0.6042	0.5882	0.015
Mof_H 	H 	0.345	0.5824	0.6666	0.025
Mof_H 	H 	0.165	0.652	0.9226	0.015
Mof_H 	H 	0.0269	0.6141	0.9608	0.008
Mof_H 	H 	0.931	0.4701	0.842	0.376
Mof_H 	H 	0.5757	0.1834	0.7444	0.018
Mof_H 	H 	0.3988	0.221	0.7066	0.018
Mof_H 	H 	0.095	0.0831	0.6664	0.021
Mof_H 	H 	0.3579	0.9451	0.6254	0.013
Mof_H 	H 	0.4984	0.984	0.5882	0.014
Mof_H 	H 	0.8216	0.0842	0.6666	0.026
Mof_H 	H 	0.2576	0.2706	0.9226	0.014
Mof_H 	H 	0.4339	0.3467	0.9608	0.009
Mof_H 	H 	0.8506	0.1006	0.2012	0.38
Mof_H 	H 	0.6494	0.3994	0.7988	0.38
Mof_H 	H 	0.3161	0.0661	0.1322	0.372
Mof_H 	H 	0.1839	0.4339	0.8678	0.373
Mof_H 	H 	0.5172	0.7672	0.5344	0.378
Mof_H 	H 	0.9828	0.7328	0.4656	0.375
Mof_H 	H 	0.75	0.698	0.5	0.374
Mof_H 	H 	0.25	0.802	0.5	0.374
Mof_H 	H 	0.4876	0.75	-0	0.026
Mof_H 	H 	0.7614	0.75	-0	0.024
Mof_H 	H 	0.0124	0.25	-0	0.026
Mof_H 	H 	0.7386	0.25	-0	0.024
Mof_C 	C 	0.7046	0.953	0.2406	0.49
Mof_C 	C 	0.7893	0.9313	0.2876	-0.173
Mof_C 	C 	0.9018	0.9301	0.2872	0.033
Mof_C 	C 	0.9808	0.9159	0.3332	-0.032
Mof_C 	C 	0.1021	0.9159	0.3332	-0.029
Mof_C 	C 	0.1472	0.974	0.3092	0.036
Mof_C 	C 	0.2598	0.9722	0.3082	-0.18
Mof_C 	C 	0.3042	0.0283	0.2788	0.484
Mof_C 	C 	0.3282	0.9166	0.3334	0.112
Mof_C 	C 	0.2844	0.8605	0.3584	-0.181
Mof_C 	C 	0.3589	0.8056	0.3886	0.486
Mof_C 	C 	0.1716	0.8592	0.358	0.036
Mof_C 	C 	0.9474	0.9031	0.3796	0.029
Mof_C 	C 	0.8342	0.9011	0.379	-0.174
Mof_C 	C 	0.755	0.9168	0.3332	0.102
Mof_C 	C 	0.7968	0.8811	0.426	0.483
Mof_C 	C 	0.461	0.8808	0.093	0.478
Mof_C 	C 	0.379	0.8103	0.0458	-0.17
Mof_C 	C 	0.2649	0.8082	0.0454	0.028
Mof_C 	C 	0.0196	0.8299	0.0234	0.047
Mof_C 	C 	0.9068	0.8312	0.0248	-0.185
Mof_C 	C 	0.8624	0.9164	0.0552	0.483
Mof_C 	C 	0.036	0.2876	0.2406	0.491
Mof_C 	C 	0.9983	0.3563	0.2876	-0.175
Mof_C 	C 	0.8854	0.3571	0.2872	0.033
Mof_C 	C 	0.8524	0.4173	0.3332	-0.029
Mof_C 	C 	0.7311	0.4173	0.3332	-0.032
Mof_C 	C 	0.662	0.3352	0.3092	0.035
Mof_C 	C 	0.5484	0.336	0.3082	-0.18
Mof_C 	C 	0.4746	0.2505	0.2788	0.484
Mof_C 	C 	0.5052	0.4168	0.3334	0.112
Mof_C 	C 	0.574	0.4979	0.3584	-0.181
Mof_C 	C 	0.5297	0.583	0.3886	0.487
Mof_C 	C 	0.6864	0.4988	0.358	0.037
Mof_C 	C 	0.9322	0.4765	0.3796	0.033
Mof_C 	C 	0.0448	0.4779	0.379	-0.175
Mof_C 	C 	0.0782	0.4164	0.3332	0.104
Mof_C 	C 	0.1292	0.5449	0.426	0.484
Mof_C 	C 	0.132	0.2122	0.093	0.479
Mof_C 	C 	0.1668	0.2355	0.0458	-0.171
Mof_C 	C 	0.2805	0.2372	0.0454	0.029
Mof_C 	C 	0.5038	0.1935	0.0234	0.039
Mof_C 	C 	0.618	0.1936	0.0248	-0.178
Mof_C 	C 	0.6928	0.1388	0.0552	0.481
Mof_C 	C 	0.464	0.547	0.7594	0.49
Mof_C 	C 	0.5017	0.5687	0.7124	-0.173
Mof_C 	C 	0.6146	0.5699	0.7128	0.033
Mof_C 	C 	0.6476	0.5841	0.6668	-0.029
Mof_C 	C 	0.7689	0.5841	0.6668	-0.031
Mof_C 	C 	0.838	0.526	0.6908	0.034
Mof_C 	C 	0.9516	0.5278	0.6918	-0.178
Mof_C 	C 	0.0254	0.4717	0.7212	0.482
Mof_C 	C 	0.9948	0.5834	0.6666	0.111
Mof_C 	C 	0.926	0.6395	0.6416	-0.18
Mof_C 	C 	0.9703	0.6944	0.6114	0.485
Mof_C 	C 	0.8136	0.6408	0.642	0.037
Mof_C 	C 	0.5678	0.5969	0.6204	0.034
Mof_C 	C 	0.4552	0.5989	0.621	-0.175
Mof_C 	C 	0.4218	0.5832	0.6668	0.103
Mof_C 	C 	0.3708	0.6189	0.574	0.484
Mof_C 	C 	0.368	0.6192	0.907	0.478
Mof_C 	C 	0.3332	0.6897	0.9542	-0.163
Mof_C 	C 	0.2195	0.6918	0.9546	0.034
Mof_C 	C 	0.9962	0.6701	0.9766	0.048
Mof_C 	C 	0.882	0.6688	0.9752	-0.171
Mof_C 	C 	0.8072	0.5836	0.9448	0.481
Mof_C 	C 	0.7954	0.2124	0.7594	0.49
Mof_C 	C 	0.7107	0.1437	0.7124	-0.172
Mof_C 	C 	0.5982	0.1429	0.7128	0.033
Mof_C 	C 	0.5192	0.0827	0.6668	-0.029
Mof_C 	C 	0.3979	0.0827	0.6668	-0.032
Mof_C 	C 	0.3528	0.1648	0.6908	0.036
Mof_C 	C 	0.2402	0.164	0.6918	-0.18
Mof_C 	C 	0.1958	0.2495	0.7212	0.484
Mof_C 	C 	0.1718	0.0832	0.6666	0.113
Mof_C 	C 	0.2156	0.0021	0.6416	-0.182
Mof_C 	C 	0.1411	0.917	0.6114	0.487
Mof_C 	C 	0.3284	0.0012	0.642	0.039
Mof_C 	C 	0.5526	0.0235	0.6204	0.035
Mof_C 	C 	0.6658	0.0221	0.621	-0.173
Mof_C 	C 	0.745	0.0836	0.6668	0.102
Mof_C 	C 	0.7032	0.9551	0.574	0.481
Mof_C 	C 	0.039	0.2878	0.907	0.475
Mof_C 	C 	0.121	0.2645	0.9542	-0.165
Mof_C 	C 	0.2351	0.2628	0.9546	0.036
Mof_C 	C 	0.4804	0.3065	0.9766	0.047
Mof_C 	C 	0.5932	0.3064	0.9752	-0.17
Mof_C 	C 	0.6376	0.3612	0.9448	0.481
Mof_C 	C 	0.4109	0.75	-0	0.095
Mof_C 	C 	0.1859	0.75	-0	-0.032
Mof_C 	C 	0.0637	0.75	-0	-0.046
Mof_C 	C 	0.8381	0.75	-0	0.098
Mof_C 	C 	0.0891	0.25	-0	0.097
Mof_C 	C 	0.3141	0.25	-0	-0.035
Mof_C 	C 	0.4363	0.25	-0	-0.045
Mof_C 	C 	0.6619	0.25	-0	0.097
Mof_O 	O 	0.72913	0.94103	0.19266	-0.543
Mof_O 	O 	0.61517	0.98227	0.25174	-0.526
Mof_O 	O 	0.69629	0.85079	0.41518	-0.527
Mof_O 	O 	0.86998	0.89268	0.47416	-0.541
Mof_O 	O 	0.31552	0.73722	0.39624	-0.544
Mof_O 	O 	0.4633	0.8296	0.4044	-0.522
Mof_O 	O 	0.39228	0.00348	0.26216	-0.519
Mof_O 	O 	0.25311	0.09641	0.27042	-0.542
Mof_O 	O 	0.55194	0.89784	0.08168	-0.523
Mof_O 	O 	0.43808	0.91568	0.14136	-0.551
Mof_O 	O 	0.9136	0.9929	0.0628	-0.55
Mof_O 	O 	0.774	0.9083	0.0712	-0.523
Mof_O 	O 	0.58368	0.08098	0.16716	-0.969
Mof_O 	O 	0.96353	0.25163	0.19266	-0.544
Mof_O 	O 	0.13657	0.26947	0.25174	-0.525
Mof_O 	O 	0.21889	0.56439	0.41518	-0.527
Mof_O 	O 	0.10418	0.58148	0.47416	-0.54
Mof_O 	O 	0.58072	0.65902	0.39624	-0.544
Mof_O 	O 	0.4411	0.5748	0.4044	-0.522
Mof_O 	O 	0.36988	0.25868	0.26216	-0.52
Mof_O 	O 	0.51731	0.17401	0.27042	-0.542
Mof_O 	O 	0.02974	0.18384	0.08168	-0.524
Mof_O 	O 	0.20328	0.22568	0.14136	-0.55
Mof_O 	O 	0.6492	0.0699	0.0628	-0.545
Mof_O 	O 	0.7972	0.1629	0.0712	-0.522
Mof_O 	O 	0.08348	0.08618	0.16716	-0.971
Mof_O 	O 	0.53647	0.55897	0.80734	-0.543
Mof_O 	O 	0.36343	0.51773	0.74826	-0.525
Mof_O 	O 	0.28111	0.64921	0.58482	-0.527
Mof_O 	O 	0.39582	0.60732	0.52584	-0.541
Mof_O 	O 	0.91928	0.76278	0.60376	-0.543
Mof_O 	O 	0.0589	0.6704	0.5956	-0.521
Mof_O 	O 	0.13012	0.49652	0.73784	-0.519
Mof_O 	O 	0.98269	0.40359	0.72958	-0.54
Mof_O 	O 	0.47026	0.60216	0.91832	-0.521
Mof_O 	O 	0.29672	0.58432	0.85864	-0.549
Mof_O 	O 	0.8508	0.5071	0.9372	-0.544
Mof_O 	O 	0.7028	0.5917	0.9288	-0.519
Mof_O 	O 	0.41652	0.41902	0.83284	-0.971
Mof_O 	O 	0.77087	0.24837	0.80734	-0.542
Mof_O 	O 	0.88483	0.23053	0.74826	-0.523
Mof_O 	O 	0.80371	0.93561	0.58482	-0.526
Mof_O 	O 	0.63002	0.91852	0.52584	-0.54
Mof_O 	O 	0.18448	0.84098	0.60376	-0.543
Mof_O 	O 	0.0367	0.9252	0.5956	-0.52
Mof_O 	O 	0.10772	0.24132	0.73784	-0.52
Mof_O 	O 	0.24689	0.32599	0.72958	-0.542
Mof_O 	O 	0.94806	0.31616	0.91832	-0.518
Mof_O 	O 	0.06192	0.27432	0.85864	-0.549
Mof_O 	O 	0.5864	0.4301	0.9372	-0.544
Mof_O 	O 	0.726	0.3371	0.9288	-0.519
Mof_O 	O 	0.91632	0.41382	0.83284	-0.97
Mof_O 	O 	0.83249	0.08249	0.16498	-0.963
Mof_O 	O 	0.66751	0.41751	0.83502	-0.965
Mof_O 	O 	0.3342	0.0842	0.1684	-0.973
Mof_O 	O 	0.1658	0.4158	0.8316	-0.973
Mof_O 	O 	0.4991	0.7491	0.4982	-0.97
Mof_O 	O 	0.0009	0.7509	0.5018	-0.967
Mof_O 	O 	0.75	0.7524	0.5	-0.965
Mof_O 	O 	0.25	0.7476	0.5	-0.965
_end
