# CIF file generated by openbabel 3.1.0, see https://openbabel.org
data_I
_chemical_name_common 'image0'
_cell_length_a 9.153
_cell_length_b 17.895
_cell_length_c 10.668
_cell_angle_alpha 90
_cell_angle_beta 96.395
_cell_angle_gamma 90
_space_group_name_H-M_alt 'P 1'
_space_group_name_Hall 'P 1'
loop_
    _symmetry_equiv_pos_as_xyz
    x,y,z
loop_
    _atom_site_label
    _atom_site_type_symbol
    _atom_site_fract_x
    _atom_site_fract_y
    _atom_site_fract_z
    _atom_site_occupancy
    Ag1      Ag       0.63075    0.40979    0.97481    1.000
    Ag2      Ag       0.95235    0.45099    0.82649    1.000
    N1       N        0.64450    0.47560    0.15520    1.000
    N2       N        0.55530    0.53720    0.17230    1.000
    N3       N        0.71490    0.52430    0.33670    1.000
    N4       N        0.78910    0.53380    0.45540    1.000
    N5       N        0.93130    0.58090    0.61240    1.000
    N6       N        0.88880    0.50860    0.64310    1.000
    N7       N        0.82170    0.33780    0.76870    1.000
    N8       N        0.69080    0.32670    0.82090    1.000
    N9       N        0.72120    0.23540    0.69570    1.000
    N10      N        0.69540    0.17060    0.62590    1.000
    N11      N        0.59930    0.09350    0.48580    1.000
    N12      N        0.69820    0.05420    0.57040    1.000
    C1       C        0.73930    0.46880    0.25480    1.000
    H1       H        0.81140    0.43210    0.26770    1.000
    C2       C        0.59900    0.56490    0.28320    1.000
    H2       H        0.55750    0.60580    0.31970    1.000
    C3       C        0.87120    0.59400    0.49850    1.000
    H3       H        0.88240    0.63770    0.45340    1.000
    C4       C        0.80180    0.48250    0.54890    1.000
    H4       H        0.75580    0.43610    0.54620    1.000
    C5       C        0.83750    0.28150    0.69390    1.000
    H5       H        0.91610    0.27430    0.64700    1.000
    C6       C        0.63240    0.26470    0.77630    1.000
    H6       H        0.54470    0.24410    0.79630    1.000
    C7       C        0.59930    0.16270    0.52040    1.000
    H7       H        0.54290    0.20070    0.47990    1.000
    C8       C        0.75370    0.10220    0.65410    1.000
    H8       H        0.82250    0.09130    0.72250    1.000
    Ag3      Ag       0.86925    0.90979    0.52519    1.000
    Ag4      Ag       0.54765    0.95099    0.67351    1.000
    N13      N        0.85550    0.97560    0.34480    1.000
    N14      N        0.94470    0.03720    0.32770    1.000
    N15      N        0.78510    0.02430    0.16330    1.000
    N16      N        0.71090    0.03380    0.04460    1.000
    N17      N        0.56870    0.08090    0.88760    1.000
    N18      N        0.61120    0.00860    0.85690    1.000
    N19      N        0.67830    0.83780    0.73130    1.000
    N20      N        0.80920    0.82670    0.67910    1.000
    N21      N        0.77880    0.73540    0.80430    1.000
    N22      N        0.80460    0.67060    0.87410    1.000
    N23      N        0.90070    0.59350    0.01420    1.000
    N24      N        0.80180    0.55420    0.92960    1.000
    C9       C        0.76070    0.96880    0.24520    1.000
    H9       H        0.68860    0.93210    0.23230    1.000
    C10      C        0.90100    0.06490    0.21680    1.000
    H10      H        0.94250    0.10580    0.18030    1.000
    C11      C        0.62880    0.09400    0.00150    1.000
    H11      H        0.61760    0.13770    0.04660    1.000
    C12      C        0.69820    0.98250    0.95110    1.000
    H12      H        0.74420    0.93610    0.95380    1.000
    C13      C        0.66250    0.78150    0.80610    1.000
    H13      H        0.58390    0.77430    0.85300    1.000
    C14      C        0.86760    0.76470    0.72370    1.000
    H14      H        0.95530    0.74410    0.70370    1.000
    C15      C        0.90070    0.66270    0.97960    1.000
    H15      H        0.95710    0.70070    0.02010    1.000
    C16      C        0.74630    0.60220    0.84590    1.000
    H16      H        0.67750    0.59130    0.77750    1.000
    Ag5      Ag       0.36925    0.59021    0.02519    1.000
    Ag6      Ag       0.04765    0.54901    0.17351    1.000
    N25      N        0.35550    0.52440    0.84480    1.000
    N26      N        0.44470    0.46280    0.82770    1.000
    N27      N        0.28510    0.47570    0.66330    1.000
    N28      N        0.21090    0.46620    0.54460    1.000
    N29      N        0.06870    0.41910    0.38760    1.000
    N30      N        0.11120    0.49140    0.35690    1.000
    N31      N        0.17830    0.66220    0.23130    1.000
    N32      N        0.30920    0.67330    0.17910    1.000
    N33      N        0.27880    0.76460    0.30430    1.000
    N34      N        0.30460    0.82940    0.37410    1.000
    N35      N        0.40070    0.90650    0.51420    1.000
    N36      N        0.30180    0.94580    0.42960    1.000
    C17      C        0.26070    0.53120    0.74520    1.000
    H17      H        0.18860    0.56790    0.73230    1.000
    C18      C        0.40100    0.43510    0.71680    1.000
    H18      H        0.44250    0.39420    0.68030    1.000
    C19      C        0.12880    0.40600    0.50150    1.000
    H19      H        0.11760    0.36230    0.54660    1.000
    C20      C        0.19820    0.51750    0.45110    1.000
    H20      H        0.24420    0.56390    0.45380    1.000
    C21      C        0.16250    0.71850    0.30610    1.000
    H21      H        0.08390    0.72570    0.35300    1.000
    C22      C        0.36760    0.73530    0.22370    1.000
    H22      H        0.45530    0.75590    0.20370    1.000
    C23      C        0.40070    0.83730    0.47960    1.000
    H23      H        0.45710    0.79930    0.52010    1.000
    C24      C        0.24630    0.89780    0.34590    1.000
    H24      H        0.17750    0.90870    0.27750    1.000
    Ag7      Ag       0.13075    0.09021    0.47481    1.000
    Ag8      Ag       0.45235    0.04901    0.32649    1.000
    N37      N        0.14450    0.02440    0.65520    1.000
    N38      N        0.05530    0.96280    0.67230    1.000
    N39      N        0.21490    0.97570    0.83670    1.000
    N40      N        0.28910    0.96620    0.95540    1.000
    N41      N        0.43130    0.91910    0.11240    1.000
    N42      N        0.38880    0.99140    0.14310    1.000
    N43      N        0.32170    0.16220    0.26870    1.000
    N44      N        0.19080    0.17330    0.32090    1.000
    N45      N        0.22120    0.26460    0.19570    1.000
    N46      N        0.19540    0.32940    0.12590    1.000
    N47      N        0.09930    0.40650    0.98580    1.000
    N48      N        0.19820    0.44580    0.07040    1.000
    C25      C        0.23930    0.03120    0.75480    1.000
    H25      H        0.31140    0.06790    0.76770    1.000
    C26      C        0.09900    0.93510    0.78320    1.000
    H26      H        0.05750    0.89420    0.81970    1.000
    C27      C        0.37120    0.90600    0.99850    1.000
    H27      H        0.38240    0.86230    0.95340    1.000
    C28      C        0.30180    0.01750    0.04890    1.000
    H28      H        0.25580    0.06390    0.04620    1.000
    C29      C        0.33750    0.21850    0.19390    1.000
    H29      H        0.41610    0.22570    0.14700    1.000
    C30      C        0.13240    0.23530    0.27630    1.000
    H30      H        0.04470    0.25590    0.29630    1.000
    C31      C        0.09930    0.33730    0.02040    1.000
    H31      H        0.04290    0.29930    0.97990    1.000
    C32      C        0.25370    0.39780    0.15410    1.000
    H32      H        0.32250    0.40870    0.22250    1.000
