# CIF file generated by openbabel 3.1.0, see https://openbabel.org
data_I
_chemical_name_common 'image0'
_cell_length_a 19.6993
_cell_length_b 19.6993
_cell_length_c 29.2983
_cell_angle_alpha 90
_cell_angle_beta 90
_cell_angle_gamma 120
_space_group_name_H-M_alt 'P 1'
_space_group_name_Hall 'P 1'
loop_
    _symmetry_equiv_pos_as_xyz
    x,y,z
loop_
    _atom_site_label
    _atom_site_type_symbol
    _atom_site_fract_x
    _atom_site_fract_y
    _atom_site_fract_z
    _atom_site_occupancy
    Cu1      Cu       0.36310    0.67135    0.66933    1.000
    O1       O        0.30970    0.70320    0.62330    1.000
    O2       O        0.25750    0.66570    0.55270    1.000
    O3       O        0.29050    0.54430    0.55530    1.000
    N1       N        0.34060    0.58980    0.62640    1.000
    C1       C        0.30780    0.59170    0.59000    1.000
    C2       C        0.28500    0.65670    0.58700    1.000
    C3       C        0.42140    0.56800    0.67830    1.000
    C4       C        0.37310    0.53780    0.63590    1.000
    H1       H        0.40690    0.53980    0.60990    1.000
    O4       O        0.42710    0.62960    0.69820    1.000
    O5       O        0.45410    0.53180    0.69440    1.000
    Cu2      Cu       0.24382    0.56530    0.50181    1.000
    O6       O        0.34470    0.61590    0.46660    1.000
    O7       O        0.23820    0.63510    0.37450    1.000
    O8       O        0.38510    0.65920    0.39560    1.000
    N2       N        0.20240    0.58580    0.44800    1.000
    O9       O        0.13300    0.51160    0.52020    1.000
    O10      O        0.01670    0.50810    0.50540    1.000
    C5       C        0.31090    0.45410    0.64480    1.000
    C6       C        0.30800    0.39500    0.62290    1.000
    H2       H        0.34380    0.40390    0.59850    1.000
    C7       C        0.25500    0.32000    0.63510    1.000
    H3       H        0.25870    0.27870    0.62000    1.000
    C8       C        0.19700    0.29740    0.66730    1.000
    H4       H        0.16010    0.24410    0.67350    1.000
    C9       C        0.19650    0.35570    0.68850    1.000
    H5       H        0.15790    0.34460    0.71120    1.000
    C10      C        0.25280    0.43580    0.67860    1.000
    H6       H        0.25110    0.47680    0.69470    1.000
    C11      C        0.33570    0.63370    0.42530    1.000
    C12      C        0.25100    0.61710    0.41360    1.000
    C13      C        0.12010    0.56200    0.44790    1.000
    H7       H        0.09320    0.52130    0.42380    1.000
    C14      C        0.08600    0.52310    0.49650    1.000
    C15      C        0.10320    0.62880    0.43940    1.000
    C16      C        0.13930    0.69610    0.46460    1.000
    H8       H        0.18030    0.70450    0.48490    1.000
    C17      C        0.11670    0.75270    0.46080    1.000
    H9       H        0.14000    0.79690    0.48050    1.000
    C18      C        0.06000    0.74700    0.42880    1.000
    H10      H        0.04560    0.78560    0.42570    1.000
    C19      C        0.02700    0.67600    0.40120    1.000
    H11      H        0.99110    0.66990    0.37760    1.000
    C20      C        0.04580    0.61900    0.40800    1.000
    H12      H        0.01920    0.57190    0.39100    1.000
    Ni1      Ni       0.48805    0.51648    0.76037    1.000
    N3       N        0.59660    0.59790    0.74880    1.000
    H13      H        0.62860    0.58690    0.77090    1.000
    N4       N        0.51040    0.43950    0.72990    1.000
    H14      H        0.53810    0.42470    0.75300    1.000
    C21      C        0.63100    0.53100    0.69870    1.000
    H15      H        0.66410    0.54020    0.67140    1.000
    H16      H        0.65710    0.52080    0.72450    1.000
    N5       N        0.46420    0.59830    0.79050    1.000
    H17      H        0.44470    0.61890    0.76570    1.000
    C22      C        0.55300    0.45600    0.69030    1.000
    H18      H        0.52480    0.46270    0.66460    1.000
    H19      H        0.56280    0.41210    0.68280    1.000
    C23      C        0.53600    0.65850    0.80310    1.000
    H20      H        0.55100    0.64880    0.83380    1.000
    H21      H        0.53630    0.70870    0.80380    1.000
    C24      C        0.63200    0.60800    0.70930    1.000
    H22      H        0.68690    0.65230    0.71110    1.000
    H23      H        0.60450    0.62010    0.68510    1.000
    C25      C        0.40900    0.57400    0.82670    1.000
    H24      H        0.39810    0.61720    0.83400    1.000
    H25      H        0.43070    0.56350    0.85430    1.000
    C26      C        0.32300    0.42000    0.80040    1.000
    H26      H        0.33410    0.39820    0.82770    1.000
    H27      H        0.26760    0.38430    0.79150    1.000
    C27      C        0.33100    0.50000    0.81300    1.000
    H28      H        0.29490    0.48960    0.83890    1.000
    H29      H        0.31030    0.51550    0.78710    1.000
    C28      C        0.43800    0.37400    0.72380    1.000
    H30      H        0.44650    0.32920    0.71930    1.000
    H31      H        0.41670    0.38150    0.69470    1.000
    N6       N        0.36930    0.42420    0.76660    1.000
    H32      H        0.34300    0.42830    0.73840    1.000
    C29      C        0.59400    0.66100    0.76690    1.000
    H33      H        0.58830    0.68910    0.74050    1.000
    H34      H        0.64690    0.69590    0.77950    1.000
    C30      C        0.37500    0.35000    0.75960    1.000
    H35      H        0.38940    0.33450    0.78830    1.000
    H36      H        0.32410    0.30650    0.74860    1.000
    Cu3      Cu       0.32865    0.69175    0.33600    1.000
    O11      O        0.29680    0.60650    0.28997    1.000
    O12      O        0.33430    0.59180    0.21937    1.000
    O13      O        0.45570    0.74620    0.22197    1.000
    N7       N        0.41020    0.75080    0.29307    1.000
    C31      C        0.40830    0.71610    0.25667    1.000
    C32      C        0.34330    0.62830    0.25367    1.000
    C33      C        0.43200    0.85340    0.34497    1.000
    C34      C        0.46220    0.83530    0.30257    1.000
    H37      H        0.46020    0.86710    0.27657    1.000
    O14      O        0.37040    0.79750    0.36487    1.000
    O15      O        0.46820    0.92230    0.36107    1.000
    Cu4      Cu       0.43470    0.67852    0.16848    1.000
    O16      O        0.38410    0.72880    0.13327    1.000
    O17      O        0.36490    0.60310    0.04117    1.000
    O18      O        0.34080    0.72590    0.06227    1.000
    N8       N        0.41420    0.61660    0.11467    1.000
    O19      O        0.48840    0.62140    0.18687    1.000
    O20      O        0.49190    0.50860    0.17207    1.000
    C35      C        0.54590    0.85680    0.31147    1.000
    C36      C        0.60500    0.91300    0.28957    1.000
    H38      H        0.59610    0.93990    0.26517    1.000
    C37      C        0.68000    0.93500    0.30177    1.000
    H39      H        0.72130    0.98000    0.28667    1.000
    C38      C        0.70260    0.89960    0.33397    1.000
    H40      H        0.75590    0.91600    0.34017    1.000
    C39      C        0.64430    0.84080    0.35517    1.000
    H41      H        0.65540    0.81330    0.37787    1.000
    C40      C        0.56420    0.81700    0.34527    1.000
    H42      H        0.52320    0.77430    0.36137    1.000
    C41      C        0.36630    0.70200    0.09197    1.000
    C42      C        0.38290    0.63390    0.08027    1.000
    C43      C        0.43800    0.55810    0.11457    1.000
    H43      H        0.47870    0.57190    0.09047    1.000
    C44      C        0.47690    0.56290    0.16317    1.000
    C45      C        0.37120    0.47440    0.10607    1.000
    C46      C        0.30390    0.44320    0.13127    1.000
    H44      H        0.29550    0.47580    0.15157    1.000
    C47      C        0.24730    0.36400    0.12747    1.000
    H45      H        0.20310    0.34310    0.14717    1.000
    C48      C        0.25300    0.31300    0.09547    1.000
    H46      H        0.21440    0.26000    0.09237    1.000
    C49      C        0.32400    0.35100    0.06787    1.000
    H47      H        0.33010    0.32120    0.04427    1.000
    C50      C        0.38100    0.42680    0.07467    1.000
    H48      H        0.42810    0.44730    0.05767    1.000
    Ni2      Ni       0.48352    0.97157    0.42704    1.000
    N9       N        0.40210    0.99870    0.41547    1.000
    H49      H        0.41310    0.04170    0.43757    1.000
    N10      N        0.56050    0.07090    0.39657    1.000
    H50      H        0.57530    0.11340    0.41967    1.000
    C51      C        0.46900    0.10000    0.36537    1.000
    H51      H        0.45980    0.12390    0.33807    1.000
    H52      H        0.47920    0.13630    0.39117    1.000
    N11      N        0.40170    0.86590    0.45717    1.000
    H53      H        0.38110    0.82580    0.43237    1.000
    C52      C        0.54400    0.09700    0.35697    1.000
    H54      H        0.53730    0.06210    0.33127    1.000
    H55      H        0.58790    0.15070    0.34947    1.000
    C53      C        0.34150    0.87750    0.46977    1.000
    H56      H        0.35120    0.90220    0.50047    1.000
    H57      H        0.29130    0.82760    0.47047    1.000
    C54      C        0.39200    0.02400    0.37597    1.000
    H58      H        0.34770    0.03460    0.37777    1.000
    H59      H        0.37990    0.98440    0.35177    1.000
    C55      C        0.42600    0.83500    0.49337    1.000
    H60      H        0.38280    0.78090    0.50067    1.000
    H61      H        0.43650    0.86720    0.52097    1.000
    C56      C        0.58000    0.90300    0.46707    1.000
    H62      H        0.60180    0.93590    0.49437    1.000
    H63      H        0.61570    0.88330    0.45817    1.000
    C57      C        0.50000    0.83100    0.47967    1.000
    H64      H        0.51040    0.80530    0.50557    1.000
    H65      H        0.48450    0.79480    0.45377    1.000
    C58      C        0.62600    0.06400    0.39047    1.000
    H66      H        0.67080    0.11730    0.38597    1.000
    H67      H        0.61850    0.03520    0.36137    1.000
    N12      N        0.57580    0.94510    0.43327    1.000
    H68      H        0.57170    0.91470    0.40507    1.000
    C59      C        0.33900    0.93300    0.43357    1.000
    H69      H        0.31090    0.89920    0.40717    1.000
    H70      H        0.30410    0.95100    0.44617    1.000
    C60      C        0.65000    0.02500    0.42627    1.000
    H71      H        0.66550    0.05490    0.45497    1.000
    H72      H        0.69350    0.01760    0.41527    1.000
    Cu5      Cu       0.30825    0.63690    0.00266    1.000
    O21      O        0.39350    0.69030    0.95663    1.000
    O22      O        0.40820    0.74250    0.88603    1.000
    O23      O        0.25380    0.70950    0.88863    1.000
    N13      N        0.24920    0.65940    0.95973    1.000
    C61      C        0.28390    0.69220    0.92333    1.000
    C62      C        0.37170    0.71500    0.92033    1.000
    C63      C        0.14660    0.57860    0.01163    1.000
    C64      C        0.16470    0.62690    0.96923    1.000
    H73      H        0.13290    0.59310    0.94323    1.000
    O24      O        0.20250    0.57290    0.03153    1.000
    O25      O        0.07770    0.54590    0.02773    1.000
    Cu6      Cu       0.32148    0.75618    0.83514    1.000
    O26      O        0.27120    0.65530    0.79993    1.000
    O27      O        0.39690    0.76180    0.70783    1.000
    O28      O        0.27410    0.61490    0.72893    1.000
    N14      N        0.38340    0.79760    0.78133    1.000
    O29      O        0.37860    0.86700    0.85353    1.000
    O30      O        0.49140    0.98330    0.83873    1.000
    C65      C        0.14320    0.68910    0.97813    1.000
    C66      C        0.08700    0.69200    0.95623    1.000
    H74      H        0.06010    0.65620    0.93183    1.000
    C67      C        0.06500    0.74500    0.96843    1.000
    H75      H        0.02000    0.74130    0.95333    1.000
    C68      C        0.10040    0.80300    0.00063    1.000
    H76      H        0.08400    0.83990    0.00683    1.000
    C69      C        0.15920    0.80350    0.02183    1.000
    H77      H        0.18670    0.84210    0.04453    1.000
    C70      C        0.18300    0.74720    0.01193    1.000
    H78      H        0.22570    0.74890    0.02803    1.000
    C71      C        0.29800    0.66430    0.75863    1.000
    C72      C        0.36610    0.74900    0.74693    1.000
    C73      C        0.44190    0.87990    0.78123    1.000
    H79      H        0.42810    0.90680    0.75713    1.000
    C74      C        0.43710    0.91400    0.82983    1.000
    C75      C        0.52560    0.89680    0.77273    1.000
    C76      C        0.55680    0.86070    0.79793    1.000
    H80      H        0.52420    0.81970    0.81823    1.000
    C77      C        0.63600    0.88330    0.79413    1.000
    H81      H        0.65690    0.86000    0.81383    1.000
    C78      C        0.68700    0.94000    0.76213    1.000
    H82      H        0.74000    0.95440    0.75903    1.000
    C79      C        0.64900    0.97300    0.73453    1.000
    H83      H        0.67880    0.00890    0.71093    1.000
    C80      C        0.57320    0.95420    0.74133    1.000
    H84      H        0.55270    0.98080    0.72433    1.000
    Ni3      Ni       0.02843    0.51195    0.09370    1.000
    N15      N        0.00130    0.40340    0.08213    1.000
    H85      H        0.95830    0.37140    0.10423    1.000
    N16      N        0.92910    0.48960    0.06323    1.000
    H86      H        0.88660    0.46190    0.08633    1.000
    C81      C        0.90000    0.36900    0.03203    1.000
    H87      H        0.87610    0.33590    0.00473    1.000
    H88      H        0.86370    0.34290    0.05783    1.000
    N17      N        0.13410    0.53580    0.12383    1.000
    H89      H        0.17420    0.55530    0.09903    1.000
    C82      C        0.90300    0.44700    0.02363    1.000
    H90      H        0.93790    0.47520    0.99793    1.000
    H91      H        0.84930    0.43720    0.01613    1.000
    C83      C        0.12250    0.46400    0.13643    1.000
    H92      H        0.09780    0.44900    0.16713    1.000
    H93      H        0.17240    0.46370    0.13713    1.000
    C84      C        0.97600    0.36800    0.04263    1.000
    H94      H        0.96540    0.31310    0.04443    1.000
    H95      H        0.01560    0.39550    0.01843    1.000
    C85      C        0.16500    0.59100    0.16003    1.000
    H96      H        0.21910    0.60190    0.16733    1.000
    H97      H        0.13280    0.56930    0.18763    1.000
    C86      C        0.09700    0.67700    0.13373    1.000
    H98      H        0.06410    0.66590    0.16103    1.000
    H99      H        0.11670    0.73240    0.12483    1.000
    C87      C        0.16900    0.66900    0.14633    1.000
    H100     H        0.19470    0.70510    0.17223    1.000
    H101     H        0.20520    0.68970    0.12043    1.000
    C88      C        0.93600    0.56200    0.05713    1.000
    H102     H        0.88270    0.55350    0.05263    1.000
    H103     H        0.96480    0.58330    0.02803    1.000
    N18      N        0.05490    0.63070    0.09993    1.000
    H104     H        0.08530    0.65700    0.07173    1.000
    C89      C        0.06700    0.40600    0.10023    1.000
    H105     H        0.10080    0.41170    0.07383    1.000
    H106     H        0.04900    0.35310    0.11283    1.000
    C90      C        0.97500    0.62500    0.09293    1.000
    H107     H        0.94510    0.61060    0.12163    1.000
    H108     H        0.98240    0.67590    0.08193    1.000
    Cu7      Cu       0.67135    0.36310    0.33067    1.000
    O31      O        0.70320    0.30970    0.37670    1.000
    O32      O        0.66570    0.25750    0.44730    1.000
    O33      O        0.54430    0.29050    0.44470    1.000
    N19      N        0.58980    0.34060    0.37360    1.000
    C91      C        0.59170    0.30780    0.41000    1.000
    C92      C        0.65670    0.28500    0.41300    1.000
    C93      C        0.56800    0.42140    0.32170    1.000
    C94      C        0.53780    0.37310    0.36410    1.000
    H109     H        0.53980    0.40690    0.39010    1.000
    O34      O        0.62960    0.42710    0.30180    1.000
    O35      O        0.53180    0.45410    0.30560    1.000
    Cu8      Cu       0.56530    0.24382    0.49819    1.000
    O36      O        0.61590    0.34470    0.53340    1.000
    O37      O        0.63510    0.23820    0.62550    1.000
    O38      O        0.65920    0.38510    0.60440    1.000
    N20      N        0.58580    0.20240    0.55200    1.000
    O39      O        0.51160    0.13300    0.47980    1.000
    O40      O        0.50810    0.01670    0.49460    1.000
    C95      C        0.45410    0.31090    0.35520    1.000
    C96      C        0.39500    0.30800    0.37710    1.000
    H110     H        0.40390    0.34380    0.40150    1.000
    C97      C        0.32000    0.25500    0.36490    1.000
    H111     H        0.27870    0.25870    0.38000    1.000
    C98      C        0.29740    0.19700    0.33270    1.000
    H112     H        0.24410    0.16010    0.32650    1.000
    C99      C        0.35570    0.19650    0.31150    1.000
    H113     H        0.34460    0.15790    0.28880    1.000
    C100     C        0.43580    0.25280    0.32140    1.000
    H114     H        0.47680    0.25110    0.30530    1.000
    C101     C        0.63370    0.33570    0.57470    1.000
    C102     C        0.61710    0.25100    0.58640    1.000
    C103     C        0.56200    0.12010    0.55210    1.000
    H115     H        0.52130    0.09320    0.57620    1.000
    C104     C        0.52310    0.08600    0.50350    1.000
    C105     C        0.62880    0.10320    0.56060    1.000
    C106     C        0.69610    0.13930    0.53540    1.000
    H116     H        0.70450    0.18030    0.51510    1.000
    C107     C        0.75270    0.11670    0.53920    1.000
    H117     H        0.79690    0.14000    0.51950    1.000
    C108     C        0.74700    0.06000    0.57120    1.000
    H118     H        0.78560    0.04560    0.57430    1.000
    C109     C        0.67600    0.02700    0.59880    1.000
    H119     H        0.66990    0.99110    0.62240    1.000
    C110     C        0.61900    0.04580    0.59200    1.000
    H120     H        0.57190    0.01920    0.60900    1.000
    Ni4      Ni       0.51648    0.48805    0.23963    1.000
    N21      N        0.59790    0.59660    0.25120    1.000
    H121     H        0.58690    0.62860    0.22910    1.000
    N22      N        0.43950    0.51040    0.27010    1.000
    H122     H        0.42470    0.53810    0.24700    1.000
    C111     C        0.53100    0.63100    0.30130    1.000
    H123     H        0.54020    0.66410    0.32860    1.000
    H124     H        0.52080    0.65710    0.27550    1.000
    N23      N        0.59830    0.46420    0.20950    1.000
    H125     H        0.61890    0.44470    0.23430    1.000
    C112     C        0.45600    0.55300    0.30970    1.000
    H126     H        0.46270    0.52480    0.33540    1.000
    H127     H        0.41210    0.56280    0.31720    1.000
    C113     C        0.65850    0.53600    0.19690    1.000
    H128     H        0.64880    0.55100    0.16620    1.000
    H129     H        0.70870    0.53630    0.19620    1.000
    C114     C        0.60800    0.63200    0.29070    1.000
    H130     H        0.65230    0.68690    0.28890    1.000
    H131     H        0.62010    0.60450    0.31490    1.000
    C115     C        0.57400    0.40900    0.17330    1.000
    H132     H        0.61720    0.39810    0.16600    1.000
    H133     H        0.56350    0.43070    0.14570    1.000
    C116     C        0.42000    0.32300    0.19960    1.000
    H134     H        0.39820    0.33410    0.17230    1.000
    H135     H        0.38430    0.26760    0.20850    1.000
    C117     C        0.50000    0.33100    0.18700    1.000
    H136     H        0.48960    0.29490    0.16110    1.000
    H137     H        0.51550    0.31030    0.21290    1.000
    C118     C        0.37400    0.43800    0.27620    1.000
    H138     H        0.32920    0.44650    0.28070    1.000
    H139     H        0.38150    0.41670    0.30530    1.000
    N24      N        0.42420    0.36930    0.23340    1.000
    H140     H        0.42830    0.34300    0.26160    1.000
    C119     C        0.66100    0.59400    0.23310    1.000
    H141     H        0.68910    0.58830    0.25950    1.000
    H142     H        0.69590    0.64690    0.22050    1.000
    C120     C        0.35000    0.37500    0.24040    1.000
    H143     H        0.33450    0.38940    0.21170    1.000
    H144     H        0.30650    0.32410    0.25140    1.000
    Cu9      Cu       0.69175    0.32865    0.66400    1.000
    O41      O        0.60650    0.29680    0.71003    1.000
    O42      O        0.59180    0.33430    0.78063    1.000
    O43      O        0.74620    0.45570    0.77803    1.000
    N25      N        0.75080    0.41020    0.70693    1.000
    C121     C        0.71610    0.40830    0.74333    1.000
    C122     C        0.62830    0.34330    0.74633    1.000
    C123     C        0.85340    0.43200    0.65503    1.000
    C124     C        0.83530    0.46220    0.69743    1.000
    H145     H        0.86710    0.46020    0.72343    1.000
    O44      O        0.79750    0.37040    0.63513    1.000
    O45      O        0.92230    0.46820    0.63893    1.000
    Cu10     Cu       0.67852    0.43470    0.83152    1.000
    O46      O        0.72880    0.38410    0.86673    1.000
    O47      O        0.60310    0.36490    0.95883    1.000
    O48      O        0.72590    0.34080    0.93773    1.000
    N26      N        0.61660    0.41420    0.88533    1.000
    O49      O        0.62140    0.48840    0.81313    1.000
    O50      O        0.50860    0.49190    0.82793    1.000
    C125     C        0.85680    0.54590    0.68853    1.000
    C126     C        0.91300    0.60500    0.71043    1.000
    H146     H        0.93990    0.59610    0.73483    1.000
    C127     C        0.93500    0.68000    0.69823    1.000
    H147     H        0.98000    0.72130    0.71333    1.000
    C128     C        0.89960    0.70260    0.66603    1.000
    H148     H        0.91600    0.75590    0.65983    1.000
    C129     C        0.84080    0.64430    0.64483    1.000
    H149     H        0.81330    0.65540    0.62213    1.000
    C130     C        0.81700    0.56420    0.65473    1.000
    H150     H        0.77430    0.52320    0.63863    1.000
    C131     C        0.70200    0.36630    0.90803    1.000
    C132     C        0.63390    0.38290    0.91973    1.000
    C133     C        0.55810    0.43800    0.88543    1.000
    H151     H        0.57190    0.47870    0.90953    1.000
    C134     C        0.56290    0.47690    0.83683    1.000
    C135     C        0.47440    0.37120    0.89393    1.000
    C136     C        0.44320    0.30390    0.86873    1.000
    H152     H        0.47580    0.29550    0.84843    1.000
    C137     C        0.36400    0.24730    0.87253    1.000
    H153     H        0.34310    0.20310    0.85283    1.000
    C138     C        0.31300    0.25300    0.90453    1.000
    H154     H        0.26000    0.21440    0.90763    1.000
    C139     C        0.35100    0.32400    0.93213    1.000
    H155     H        0.32120    0.33010    0.95573    1.000
    C140     C        0.42680    0.38100    0.92533    1.000
    H156     H        0.44730    0.42810    0.94233    1.000
    Ni5      Ni       0.97157    0.48352    0.57296    1.000
    N27      N        0.99870    0.40210    0.58453    1.000
    H157     H        0.04170    0.41310    0.56243    1.000
    N28      N        0.07090    0.56050    0.60343    1.000
    H158     H        0.11340    0.57530    0.58033    1.000
    C141     C        0.10000    0.46900    0.63463    1.000
    H159     H        0.12390    0.45980    0.66193    1.000
    H160     H        0.13630    0.47920    0.60883    1.000
    N29      N        0.86590    0.40170    0.54283    1.000
    H161     H        0.82580    0.38110    0.56763    1.000
    C142     C        0.09700    0.54400    0.64303    1.000
    H162     H        0.06210    0.53730    0.66873    1.000
    H163     H        0.15070    0.58790    0.65053    1.000
    C143     C        0.87750    0.34150    0.53023    1.000
    H164     H        0.90220    0.35120    0.49953    1.000
    H165     H        0.82760    0.29130    0.52953    1.000
    C144     C        0.02400    0.39200    0.62403    1.000
    H166     H        0.03460    0.34770    0.62223    1.000
    H167     H        0.98440    0.37990    0.64823    1.000
    C145     C        0.83500    0.42600    0.50663    1.000
    H168     H        0.78090    0.38280    0.49933    1.000
    H169     H        0.86720    0.43650    0.47903    1.000
    C146     C        0.90300    0.58000    0.53293    1.000
    H170     H        0.93590    0.60180    0.50563    1.000
    H171     H        0.88330    0.61570    0.54183    1.000
    C147     C        0.83100    0.50000    0.52033    1.000
    H172     H        0.80530    0.51040    0.49443    1.000
    H173     H        0.79480    0.48450    0.54623    1.000
    C148     C        0.06400    0.62600    0.60953    1.000
    H174     H        0.11730    0.67080    0.61403    1.000
    H175     H        0.03520    0.61850    0.63863    1.000
    N30      N        0.94510    0.57580    0.56673    1.000
    H176     H        0.91470    0.57170    0.59493    1.000
    C149     C        0.93300    0.33900    0.56643    1.000
    H177     H        0.89920    0.31090    0.59283    1.000
    H178     H        0.95100    0.30410    0.55383    1.000
    C150     C        0.02500    0.65000    0.57373    1.000
    H179     H        0.05490    0.66550    0.54503    1.000
    H180     H        0.01760    0.69350    0.58473    1.000
    Cu11     Cu       0.63690    0.30825    0.99734    1.000
    O51      O        0.69030    0.39350    0.04337    1.000
    O52      O        0.74250    0.40820    0.11397    1.000
    O53      O        0.70950    0.25380    0.11137    1.000
    N31      N        0.65940    0.24920    0.04027    1.000
    C151     C        0.69220    0.28390    0.07667    1.000
    C152     C        0.71500    0.37170    0.07967    1.000
    C153     C        0.57860    0.14660    0.98837    1.000
    C154     C        0.62690    0.16470    0.03077    1.000
    H181     H        0.59310    0.13290    0.05677    1.000
    O54      O        0.57290    0.20250    0.96847    1.000
    O55      O        0.54590    0.07770    0.97227    1.000
    Cu12     Cu       0.75618    0.32148    0.16486    1.000
    O56      O        0.65530    0.27120    0.20007    1.000
    O57      O        0.76180    0.39690    0.29217    1.000
    O58      O        0.61490    0.27410    0.27107    1.000
    N32      N        0.79760    0.38340    0.21867    1.000
    O59      O        0.86700    0.37860    0.14647    1.000
    O60      O        0.98330    0.49140    0.16127    1.000
    C155     C        0.68910    0.14320    0.02187    1.000
    C156     C        0.69200    0.08700    0.04377    1.000
    H182     H        0.65620    0.06010    0.06817    1.000
    C157     C        0.74500    0.06500    0.03157    1.000
    H183     H        0.74130    0.02000    0.04667    1.000
    C158     C        0.80300    0.10040    0.99937    1.000
    H184     H        0.83990    0.08400    0.99317    1.000
    C159     C        0.80350    0.15920    0.97817    1.000
    H185     H        0.84210    0.18670    0.95547    1.000
    C160     C        0.74720    0.18300    0.98807    1.000
    H186     H        0.74890    0.22570    0.97197    1.000
    C161     C        0.66430    0.29800    0.24137    1.000
    C162     C        0.74900    0.36610    0.25307    1.000
    C163     C        0.87990    0.44190    0.21877    1.000
    H187     H        0.90680    0.42810    0.24287    1.000
    C164     C        0.91400    0.43710    0.17017    1.000
    C165     C        0.89680    0.52560    0.22727    1.000
    C166     C        0.86070    0.55680    0.20207    1.000
    H188     H        0.81970    0.52420    0.18177    1.000
    C167     C        0.88330    0.63600    0.20587    1.000
    H189     H        0.86000    0.65690    0.18617    1.000
    C168     C        0.94000    0.68700    0.23787    1.000
    H190     H        0.95440    0.74000    0.24097    1.000
    C169     C        0.97300    0.64900    0.26547    1.000
    H191     H        0.00890    0.67880    0.28907    1.000
    C170     C        0.95420    0.57320    0.25867    1.000
    H192     H        0.98080    0.55270    0.27567    1.000
    Ni6      Ni       0.51195    0.02843    0.90630    1.000
    N33      N        0.40340    0.00130    0.91787    1.000
    H193     H        0.37140    0.95830    0.89577    1.000
    N34      N        0.48960    0.92910    0.93677    1.000
    H194     H        0.46190    0.88660    0.91367    1.000
    C171     C        0.36900    0.90000    0.96797    1.000
    H195     H        0.33590    0.87610    0.99527    1.000
    H196     H        0.34290    0.86370    0.94217    1.000
    N35      N        0.53580    0.13410    0.87617    1.000
    H197     H        0.55530    0.17420    0.90097    1.000
    C172     C        0.44700    0.90300    0.97637    1.000
    H198     H        0.47520    0.93790    0.00207    1.000
    H199     H        0.43720    0.84930    0.98387    1.000
    C173     C        0.46400    0.12250    0.86357    1.000
    H200     H        0.44900    0.09780    0.83287    1.000
    H201     H        0.46370    0.17240    0.86287    1.000
    C174     C        0.36800    0.97600    0.95737    1.000
    H202     H        0.31310    0.96540    0.95557    1.000
    H203     H        0.39550    0.01560    0.98157    1.000
    C175     C        0.59100    0.16500    0.83997    1.000
    H204     H        0.60190    0.21910    0.83267    1.000
    H205     H        0.56930    0.13280    0.81237    1.000
    C176     C        0.67700    0.09700    0.86627    1.000
    H206     H        0.66590    0.06410    0.83897    1.000
    H207     H        0.73240    0.11670    0.87517    1.000
    C177     C        0.66900    0.16900    0.85367    1.000
    H208     H        0.70510    0.19470    0.82777    1.000
    H209     H        0.68970    0.20520    0.87957    1.000
    C178     C        0.56200    0.93600    0.94287    1.000
    H210     H        0.55350    0.88270    0.94737    1.000
    H211     H        0.58330    0.96480    0.97197    1.000
    N36      N        0.63070    0.05490    0.90007    1.000
    H212     H        0.65700    0.08530    0.92827    1.000
    C179     C        0.40600    0.06700    0.89977    1.000
    H213     H        0.41170    0.10080    0.92617    1.000
    H214     H        0.35310    0.04900    0.88717    1.000
    C180     C        0.62500    0.97500    0.90707    1.000
    H215     H        0.61060    0.94510    0.87837    1.000
    H216     H        0.67590    0.98240    0.91807    1.000
