# CIF file generated by openbabel 3.1.0, see https://openbabel.org
data_I
_chemical_name_common 'UGEPEB01_clean'
_cell_length_a 3.5521
_cell_length_b 12.9977
_cell_length_c 15.8665
_cell_angle_alpha 90
_cell_angle_beta 90
_cell_angle_gamma 95.285
_space_group_name_H-M_alt 'P 1'
_space_group_name_Hall 'P 1'
loop_
    _symmetry_equiv_pos_as_xyz
    x,y,z
loop_
    _atom_site_label
    _atom_site_type_symbol
    _atom_site_fract_x
    _atom_site_fract_y
    _atom_site_fract_z
    _atom_site_occupancy
    Cu1      Cu       0.73444    0.50430    0.42254    1.000
    Cu2      Cu       0.76556    0.99570    0.92254    1.000
    Cu3      Cu       0.26556    0.49570    0.57746    1.000
    Cu4      Cu       0.23444    0.00430    0.07746    1.000
    H1       H        0.69000    0.36750    0.51500    1.000
    H2       H        0.02270    0.09430    0.37570    1.000
    H3       H        0.16370    0.33510    0.21810    1.000
    H4       H        0.16150    0.98890    0.26630    1.000
    H5       H        0.30020    0.22340    0.11340    1.000
    H6       H        0.81000    0.13250    0.01500    1.000
    H7       H        0.47730    0.40570    0.87570    1.000
    H8       H        0.33630    0.16490    0.71810    1.000
    H9       H        0.33850    0.51110    0.76630    1.000
    H10      H        0.19980    0.27660    0.61340    1.000
    H11      H        0.31000    0.63250    0.48500    1.000
    H12      H        0.97730    0.90570    0.62430    1.000
    H13      H        0.83630    0.66490    0.78190    1.000
    H14      H        0.83850    0.01110    0.73370    1.000
    H15      H        0.69980    0.77660    0.88660    1.000
    H16      H        0.19000    0.86750    0.98500    1.000
    H17      H        0.52270    0.59430    0.12430    1.000
    H18      H        0.66370    0.83510    0.28190    1.000
    H19      H        0.66150    0.48890    0.23370    1.000
    H20      H        0.80020    0.72340    0.38660    1.000
    C1       C        0.94640    0.29764    0.37784    1.000
    C2       C        0.06690    0.22717    0.30846    1.000
    C3       C        0.07390    0.12204    0.32250    1.000
    C4       C        0.15760    0.26473    0.22922    1.000
    C5       C        0.15790    0.05931    0.25633    1.000
    C6       C        0.23900    0.19712    0.16663    1.000
    C7       C        0.55360    0.20236    0.87784    1.000
    C8       C        0.43310    0.27283    0.80846    1.000
    C9       C        0.42610    0.37796    0.82250    1.000
    C10      C        0.34240    0.23527    0.72922    1.000
    C11      C        0.34210    0.44069    0.75633    1.000
    C12      C        0.26100    0.30288    0.66663    1.000
    C13      C        0.05360    0.70236    0.62216    1.000
    C14      C        0.93310    0.77283    0.69154    1.000
    C15      C        0.92610    0.87796    0.67750    1.000
    C16      C        0.84240    0.73527    0.77078    1.000
    C17      C        0.84210    0.94069    0.74367    1.000
    C18      C        0.76100    0.80288    0.83337    1.000
    C19      C        0.44640    0.79764    0.12216    1.000
    C20      C        0.56690    0.72717    0.19154    1.000
    C21      C        0.57390    0.62204    0.17750    1.000
    C22      C        0.65760    0.76473    0.27078    1.000
    C23      C        0.65790    0.55931    0.24367    1.000
    C24      C        0.73900    0.69712    0.33337    1.000
    N1       N        0.23410    0.09479    0.17886    1.000
    N2       N        0.26590    0.40521    0.67886    1.000
    N3       N        0.76590    0.90521    0.82114    1.000
    N4       N        0.73410    0.59479    0.32114    1.000
    O1       O        0.69360    0.43012    0.52842    1.000
    O2       O        0.96410    0.39266    0.35873    1.000
    O3       O        0.83690    0.25785    0.44540    1.000
    O4       O        0.80640    0.06988    0.02842    1.000
    O5       O        0.53590    0.10734    0.85873    1.000
    O6       O        0.66310    0.24215    0.94540    1.000
    O7       O        0.30640    0.56988    0.47158    1.000
    O8       O        0.03590    0.60734    0.64127    1.000
    O9       O        0.16310    0.74215    0.55460    1.000
    O10      O        0.19360    0.93012    0.97158    1.000
    O11      O        0.46410    0.89266    0.14127    1.000
    O12      O        0.33690    0.75785    0.05460    1.000
