data_functionalizedCrystal
_audit_creation_method	'EQeq! by Chris Wilmer'
_symmetry_space_group_name_H-M	'P1'
_symmetry_Int_Tables_number	1
_symmetry_cell_setting	triclinic
loop_
_symmetry_equiv_pos_as_xyz
  x,y,z
_cell_length_a	7.4196
_cell_length_b	16.7276
_cell_length_c	15.4905
_cell_angle_alpha	90
_cell_angle_beta	113.207
_cell_angle_gamma	90
loop_
_atom_site_label
_atom_site_type_symbol
_atom_site_fract_x
_atom_site_fract_y
_atom_site_fract_z
_atom_site_charge
Mof_Zn	Zn	0.46318	0.98302	0.1837	1.22
Mof_Zn	Zn	0.28995	0.87559	0.97764	1.236
Mof_C 	C 	0.0663	0.8401	0.0948	0.323
Mof_C 	C 	0.0082	0.7776	0.148	-0.158
Mof_C 	C 	0.1326	0.7131	0.1842	0.071
Mof_H 	H 	0.2428	0.7079	0.1702	0.018
Mof_C 	C 	0.8377	0.7835	0.1652	0.024
Mof_C 	C 	0.0976	0.6561	0.2411	-0.187
Mof_C 	C 	0.9266	0.6614	0.2583	-0.003
Mof_C 	C 	0.7976	0.7242	0.2182	-0.046
Mof_H 	H 	0.6809	0.7267	0.2271	0.054
Mof_C 	C 	0.6873	0.8483	0.1282	0.367
Mof_C 	C 	0.8697	0.6014	0.3149	0.395
Mof_C 	C 	0.2509	0.5928	0.2801	0.385
Mof_O 	O 	0.1938	0.819	0.0645	-0.511
Mof_O 	O 	0.9851	0.9063	0.0841	-0.399
Mof_O 	O 	0.579	0.8467	0.0421	-0.479
Mof_O 	O 	0.6744	0.8961	0.1871	-0.426
Mof_O 	O 	0.9926	0.5846	0.395	-0.527
Mof_O 	O 	0.7005	0.5739	0.279	-0.442
Mof_O 	O 	0.3439	0.585	0.3668	-0.532
Mof_O 	O 	0.2934	0.5508	0.2239	-0.42
Mof_O 	O 	0.2991	0.9844	0.0439	-0.724
Mof_H 	H 	0.3401	0.0302	0.0227	0.144
Mof_Zn	Zn	0.53682	0.48302	0.3163	1.204
Mof_Zn	Zn	0.71005	0.37559	0.52236	1.232
Mof_C 	C 	0.9337	0.3401	0.4052	0.41
Mof_C 	C 	0.9918	0.2776	0.352	0.019
Mof_C 	C 	0.8674	0.2131	0.3158	-0.066
Mof_H 	H 	0.7572	0.2079	0.3298	0.068
Mof_C 	C 	0.1623	0.2835	0.3348	-0.172
Mof_C 	C 	0.9024	0.1561	0.2589	0.017
Mof_C 	C 	0.0734	0.1614	0.2417	-0.225
Mof_C 	C 	0.2024	0.2242	0.2818	0.102
Mof_H 	H 	0.3191	0.2267	0.2729	-0.004
Mof_C 	C 	0.3127	0.3483	0.3718	0.423
Mof_C 	C 	0.1303	0.1014	0.1851	0.46
Mof_C 	C 	0.7491	0.0928	0.2199	0.332
Mof_O 	O 	0.8062	0.319	0.4355	-0.495
Mof_O 	O 	0.0149	0.4063	0.4159	-0.518
Mof_O 	O 	0.421	0.3467	0.4579	-0.479
Mof_O 	O 	0.3256	0.3961	0.3129	-0.474
Mof_O 	O 	0.0074	0.0846	0.105	-0.638
Mof_O 	O 	0.2995	0.0739	0.221	-0.489
Mof_O 	O 	0.6561	0.085	0.1332	-0.532
Mof_O 	O 	0.7066	0.0508	0.2761	-0.409
Mof_O 	O 	0.7009	0.4844	0.4561	-0.765
Mof_H 	H 	0.6599	0.5302	0.4773	0.223
Mof_Zn	Zn	0.53682	0.01698	0.8163	1.192
Mof_Zn	Zn	0.71005	0.12441	0.02236	1.21
Mof_C 	C 	0.9337	0.1599	0.9052	0.405
Mof_C 	C 	0.9918	0.2224	0.852	0.026
Mof_C 	C 	0.8674	0.2869	0.8158	-0.067
Mof_H 	H 	0.7572	0.2921	0.8298	0.076
Mof_C 	C 	0.1623	0.2165	0.8348	-0.165
Mof_C 	C 	0.9024	0.3439	0.7589	0.029
Mof_C 	C 	0.0734	0.3386	0.7417	-0.217
Mof_C 	C 	0.2024	0.2758	0.7818	0.104
Mof_H 	H 	0.3191	0.2733	0.7729	0
Mof_C 	C 	0.3127	0.1517	0.8718	0.419
Mof_C 	C 	0.1303	0.3986	0.6851	0.459
Mof_C 	C 	0.7491	0.4072	0.7199	0.327
Mof_O 	O 	0.8062	0.181	0.9355	-0.469
Mof_O 	O 	0.0149	0.0937	0.9159	-0.5
Mof_O 	O 	0.421	0.1533	0.9579	-0.445
Mof_O 	O 	0.3256	0.1039	0.8129	-0.478
Mof_O 	O 	0.0074	0.4154	0.605	-0.609
Mof_O 	O 	0.2995	0.4261	0.721	-0.461
Mof_O 	O 	0.6561	0.415	0.6332	-0.503
Mof_O 	O 	0.7066	0.4492	0.7761	-0.373
Mof_O 	O 	0.7009	0.0156	0.9561	-0.795
Mof_H 	H 	0.6599	0.9698	0.9773	0.284
Mof_Zn	Zn	0.46318	0.51698	0.6837	1.205
Mof_Zn	Zn	0.28995	0.62441	0.47764	1.22
Mof_C 	C 	0.0663	0.6599	0.5948	0.329
Mof_C 	C 	0.0082	0.7224	0.648	-0.154
Mof_C 	C 	0.1326	0.7869	0.6842	0.072
Mof_H 	H 	0.2428	0.7921	0.6702	0.025
Mof_C 	C 	0.8377	0.7165	0.6652	0.029
Mof_C 	C 	0.0976	0.8439	0.7411	-0.178
Mof_C 	C 	0.9266	0.8386	0.7583	0.006
Mof_C 	C 	0.7976	0.7758	0.7182	-0.044
Mof_H 	H 	0.6809	0.7733	0.7271	0.059
Mof_C 	C 	0.6873	0.6517	0.6282	0.364
Mof_C 	C 	0.8697	0.8986	0.8149	0.391
Mof_C 	C 	0.2509	0.9072	0.7801	0.38
Mof_O 	O 	0.1938	0.681	0.5645	-0.492
Mof_O 	O 	0.9851	0.5937	0.5841	-0.406
Mof_O 	O 	0.579	0.6533	0.5421	-0.454
Mof_O 	O 	0.6744	0.6039	0.6871	-0.435
Mof_O 	O 	0.9926	0.9154	0.895	-0.493
Mof_O 	O 	0.7005	0.9261	0.779	-0.415
Mof_O 	O 	0.3439	0.915	0.8668	-0.508
Mof_O 	O 	0.2934	0.9492	0.7239	-0.388
Mof_O 	O 	0.2991	0.5156	0.5439	-0.787
Mof_H 	H 	0.3401	0.4698	0.5227	0.224
Mof_Zn	Zn	-0	0	-0	1.178
Mof_Zn	Zn	5.45628e-33	0.5	0.5	1.216
_end
