data_functionalizedCrystal
_audit_creation_method	'EQeq! by Chris Wilmer'
_symmetry_space_group_name_H-M	'P1'
_symmetry_Int_Tables_number	1
_symmetry_cell_setting	triclinic
loop_
_symmetry_equiv_pos_as_xyz
  x,y,z
_cell_length_a	8.9199
_cell_length_b	9.4566
_cell_length_c	10.414
_cell_angle_alpha	90
_cell_angle_beta	90
_cell_angle_gamma	90
loop_
_atom_site_label
_atom_site_type_symbol
_atom_site_fract_x
_atom_site_fract_y
_atom_site_fract_z
_atom_site_charge
Mof_Co	Co	0.79756	0.55381	0.27399	1.195
Mof_O 	O 	0.9313	0.3905	0.3296	-0.52
Mof_O 	O 	0.047	0.1902	0.3057	-0.499
Mof_O 	O 	0.7785	0.4806	0.0846	-0.406
Mof_O 	O 	0.6441	0.3531	0.9482	-0.383
Mof_N 	N 	0.6136	0.3995	0.279	-0.173
Mof_N 	N 	0.3814	0.2085	0.2488	-0.206
Mof_C 	C 	0.0048	0.3063	0.277	0.676
Mof_H 	H 	0.0373	0.3353	0.1964	-0.182
Mof_C 	C 	0.6756	0.3978	0.0582	0.339
Mof_C 	C 	0.5815	0.3451	0.1704	-0.045
Mof_C 	C 	0.4615	0.2514	0.1505	0.052
Mof_H 	H 	0.439	0.22	0.0681	0.028
Mof_C 	C 	0.4118	0.2611	0.3647	0.03
Mof_H 	H 	0.354	0.2328	0.4345	0.037
Mof_C 	C 	0.5277	0.3571	0.384	-0.01
Mof_H 	H 	0.5476	0.3925	0.4656	0.065
Mof_Co	Co	0.70244	0.44619	0.77399	1.194
Mof_O 	O 	0.5687	0.6095	0.8296	-0.522
Mof_O 	O 	0.453	0.8098	0.8057	-0.5
Mof_O 	O 	0.7215	0.5194	0.5846	-0.406
Mof_O 	O 	0.8559	0.6469	0.4482	-0.385
Mof_N 	N 	0.8864	0.6005	0.779	-0.173
Mof_N 	N 	0.1186	0.7915	0.7488	-0.206
Mof_C 	C 	0.4952	0.6937	0.777	0.677
Mof_H 	H 	0.4627	0.6647	0.6964	-0.182
Mof_C 	C 	0.8244	0.6022	0.5582	0.342
Mof_C 	C 	0.9185	0.6549	0.6704	-0.047
Mof_C 	C 	0.0385	0.7486	0.6505	0.053
Mof_H 	H 	0.061	0.78	0.5681	0.029
Mof_C 	C 	0.0882	0.7389	0.8647	0.03
Mof_H 	H 	0.146	0.7672	0.9345	0.036
Mof_C 	C 	0.9723	0.6429	0.884	-0.011
Mof_H 	H 	0.9524	0.6075	0.9656	0.065
Mof_Co	Co	0.20244	0.05381	0.22601	1.193
Mof_O 	O 	0.0687	0.8905	0.1704	-0.514
Mof_O 	O 	0.953	0.6902	0.1943	-0.496
Mof_O 	O 	0.2215	0.9806	0.4154	-0.405
Mof_O 	O 	0.3559	0.8531	0.5518	-0.385
Mof_N 	N 	0.3864	0.8995	0.221	-0.172
Mof_N 	N 	0.6186	0.7085	0.2512	-0.205
Mof_C 	C 	0.9952	0.8063	0.223	0.669
Mof_H 	H 	0.9627	0.8353	0.3036	-0.18
Mof_C 	C 	0.3244	0.8978	0.4418	0.341
Mof_C 	C 	0.4185	0.8451	0.3296	-0.045
Mof_C 	C 	0.5385	0.7514	0.3495	0.052
Mof_H 	H 	0.561	0.72	0.4319	0.029
Mof_C 	C 	0.5882	0.7611	0.1353	0.03
Mof_H 	H 	0.646	0.7328	0.0655	0.038
Mof_C 	C 	0.4723	0.8571	0.116	-0.01
Mof_H 	H 	0.4524	0.8925	0.0344	0.066
Mof_Co	Co	0.29756	0.94619	0.72601	1.194
Mof_O 	O 	0.4313	0.1095	0.6704	-0.52
Mof_O 	O 	0.547	0.3098	0.6943	-0.498
Mof_O 	O 	0.2785	0.0194	0.9154	-0.406
Mof_O 	O 	0.1441	0.1469	0.0518	-0.388
Mof_N 	N 	0.1136	0.1005	0.721	-0.171
Mof_N 	N 	0.8814	0.2915	0.7512	-0.207
Mof_C 	C 	0.5048	0.1937	0.723	0.676
Mof_H 	H 	0.5373	0.1647	0.8036	-0.181
Mof_C 	C 	0.1756	0.1022	0.9418	0.345
Mof_C 	C 	0.0815	0.1549	0.8296	-0.05
Mof_C 	C 	0.9615	0.2486	0.8495	0.057
Mof_H 	H 	0.939	0.28	0.9319	0.028
Mof_C 	C 	0.9118	0.2389	0.6353	0.035
Mof_H 	H 	0.854	0.2672	0.5655	0.036
Mof_C 	C 	0.0277	0.1429	0.616	-0.014
Mof_H 	H 	0.0476	0.1075	0.5344	0.066
_end
