data_functionalizedCrystal
_audit_creation_method	'EQeq! by Chris Wilmer'
_symmetry_space_group_name_H-M	'P1'
_symmetry_Int_Tables_number	1
_symmetry_cell_setting	triclinic
loop_
_symmetry_equiv_pos_as_xyz
  x,y,z
_cell_length_a	10.488
_cell_length_b	10.212
_cell_length_c	11.273
_cell_angle_alpha	90
_cell_angle_beta	92.89
_cell_angle_gamma	90
loop_
_atom_site_label
_atom_site_type_symbol
_atom_site_fract_x
_atom_site_fract_y
_atom_site_fract_z
_atom_site_charge
Mof_Cd	Cd	0.6341	0.13621	0.6066	0.337
Mof_S 	S 	0.39839	0.14701	0.56416	-0.111
Mof_N 	N 	0.2909	0.9066	0.5712	-0.129
Mof_N 	N 	0.2366	0.8241	0.6519	-0.127
Mof_N 	N 	0.3107	0.9995	0.7493	-0.168
Mof_C 	C 	0.3338	0.0113	0.6324	0.105
Mof_C 	C 	0.2509	0.8833	0.7556	0.092
Mof_H 	H 	0.2226	0.8484	0.8258	0.002
Mof_Cd	Cd	0.1341	0.63621	0.6066	0.337
Mof_S 	S 	0.89839	0.64701	0.56416	-0.112
Mof_N 	N 	0.7909	0.4066	0.5712	-0.129
Mof_N 	N 	0.7366	0.3241	0.6519	-0.127
Mof_N 	N 	0.8107	0.4995	0.7493	-0.169
Mof_C 	C 	0.8338	0.5113	0.6324	0.107
Mof_C 	C 	0.7509	0.3833	0.7556	0.092
Mof_H 	H 	0.7226	0.3484	0.8258	0.001
Mof_Cd	Cd	0.3659	0.13621	0.8934	0.335
Mof_S 	S 	0.60161	0.14701	0.93584	-0.113
Mof_N 	N 	0.7091	0.9066	0.9288	-0.127
Mof_N 	N 	0.7634	0.8241	0.8481	-0.127
Mof_N 	N 	0.6893	0.9995	0.7507	-0.167
Mof_C 	C 	0.6662	0.0113	0.8676	0.103
Mof_C 	C 	0.7491	0.8833	0.7444	0.092
Mof_H 	H 	0.7774	0.8484	0.6742	0.002
Mof_Cd	Cd	0.8659	0.63621	0.8934	0.336
Mof_S 	S 	0.10161	0.64701	0.93584	-0.11
Mof_N 	N 	0.2091	0.4066	0.9288	-0.129
Mof_N 	N 	0.2634	0.3241	0.8481	-0.127
Mof_N 	N 	0.1893	0.4995	0.7507	-0.169
Mof_C 	C 	0.1662	0.5113	0.8676	0.107
Mof_C 	C 	0.2491	0.3833	0.7444	0.092
Mof_H 	H 	0.2774	0.3484	0.6742	0.002
Mof_Cd	Cd	0.3659	0.86379	0.3934	0.336
Mof_S 	S 	0.60161	0.85299	0.43584	-0.112
Mof_N 	N 	0.7091	0.0934	0.4288	-0.129
Mof_N 	N 	0.7634	0.1759	0.3481	-0.127
Mof_N 	N 	0.6893	0.0005	0.2507	-0.168
Mof_C 	C 	0.6662	0.9887	0.3676	0.105
Mof_C 	C 	0.7491	0.1167	0.2444	0.092
Mof_H 	H 	0.7774	0.1516	0.1742	0.002
Mof_Cd	Cd	0.8659	0.36379	0.3934	0.337
Mof_S 	S 	0.10161	0.35299	0.43584	-0.112
Mof_N 	N 	0.2091	0.5934	0.4288	-0.129
Mof_N 	N 	0.2634	0.6759	0.3481	-0.127
Mof_N 	N 	0.1893	0.5005	0.2507	-0.169
Mof_C 	C 	0.1662	0.4887	0.3676	0.107
Mof_C 	C 	0.2491	0.6167	0.2444	0.092
Mof_H 	H 	0.2774	0.6516	0.1742	0.001
Mof_Cd	Cd	0.6341	0.86379	0.1066	0.335
Mof_S 	S 	0.39839	0.85299	0.06416	-0.113
Mof_N 	N 	0.2909	0.0934	0.0712	-0.127
Mof_N 	N 	0.2366	0.1759	0.1519	-0.127
Mof_N 	N 	0.3107	0.0005	0.2493	-0.167
Mof_C 	C 	0.3338	0.9887	0.1324	0.103
Mof_C 	C 	0.2509	0.1167	0.2556	0.092
Mof_H 	H 	0.2226	0.1516	0.3258	0.002
Mof_Cd	Cd	0.1341	0.36379	0.1066	0.336
Mof_S 	S 	0.89839	0.35299	0.06416	-0.11
Mof_N 	N 	0.7909	0.5934	0.0712	-0.129
Mof_N 	N 	0.7366	0.6759	0.1519	-0.127
Mof_N 	N 	0.8107	0.5005	0.2493	-0.169
Mof_C 	C 	0.8338	0.4887	0.1324	0.107
Mof_C 	C 	0.7509	0.6167	0.2556	0.092
Mof_H 	H 	0.7226	0.6516	0.3258	0.002
_end
