data_functionalizedCrystal
_audit_creation_method	'EQeq! by Chris Wilmer'
_symmetry_space_group_name_H-M	'P1'
_symmetry_Int_Tables_number	1
_symmetry_cell_setting	triclinic
loop_
_symmetry_equiv_pos_as_xyz
  x,y,z
_cell_length_a	12.706
_cell_length_b	12.706
_cell_length_c	23.817
_cell_angle_alpha	90
_cell_angle_beta	90
_cell_angle_gamma	90
loop_
_atom_site_label
_atom_site_type_symbol
_atom_site_fract_x
_atom_site_fract_y
_atom_site_fract_z
_atom_site_charge
Mof_Zn	Zn	0.61758	0	-0	1.145
Mof_Zn	Zn	0.38242	0	-0	1.138
Mof_Zn	Zn	3.51407e-33	0.61758	0.5	1.168
Mof_Zn	Zn	-9.61626e-33	0.38242	0.5	1.16
Mof_Si	Si	0.5	0.5	0.75	0.794
Mof_Si	Si	0.5	0.5	0.25	0.78
Mof_H 	H 	0.6591	0.6336	0.8044	-0.002
Mof_H 	H 	0.6576	0.7645	0.8714	0.099
Mof_H 	H 	0.3409	0.3664	0.8044	-0.022
Mof_H 	H 	0.3424	0.2355	0.8714	0.052
Mof_H 	H 	0.3664	0.6591	0.3044	-0.005
Mof_H 	H 	0.2355	0.6576	0.3714	0.061
Mof_H 	H 	0.6336	0.3409	0.3044	-0.021
Mof_H 	H 	0.7645	0.3424	0.3714	0.068
Mof_H 	H 	0.3409	0.6336	0.1956	-0.023
Mof_H 	H 	0.3424	0.7645	0.1286	0.06
Mof_H 	H 	0.6591	0.3664	0.1956	-0.006
Mof_H 	H 	0.6576	0.2355	0.1286	0.053
Mof_H 	H 	0.6336	0.6591	0.6956	-0.003
Mof_H 	H 	0.7645	0.6576	0.6286	0.091
Mof_H 	H 	0.3664	0.3409	0.6956	-0.023
Mof_H 	H 	0.2355	0.3424	0.6286	0.042
Mof_H 	H 	0.3409	0.3664	0.1956	-0.024
Mof_H 	H 	0.3424	0.2355	0.1286	0.033
Mof_H 	H 	0.6591	0.6336	0.1956	-0.004
Mof_H 	H 	0.6576	0.7645	0.1286	0.081
Mof_H 	H 	0.6336	0.3409	0.6956	-0.021
Mof_H 	H 	0.7645	0.3424	0.6286	0.07
Mof_H 	H 	0.3664	0.6591	0.6956	-0.005
Mof_H 	H 	0.2355	0.6576	0.6286	0.063
Mof_H 	H 	0.6591	0.3664	0.8044	-0.004
Mof_H 	H 	0.6576	0.2355	0.8714	0.073
Mof_H 	H 	0.3409	0.6336	0.8044	-0.02
Mof_H 	H 	0.3424	0.7645	0.8714	0.078
Mof_H 	H 	0.3664	0.3409	0.3044	-0.023
Mof_H 	H 	0.2355	0.3424	0.3714	0.04
Mof_H 	H 	0.6336	0.6591	0.3044	-0.003
Mof_H 	H 	0.7645	0.6576	0.3714	0.089
Mof_C 	C 	0.59369	0.65927	0.81807	0.107
Mof_C 	C 	0.59277	0.73692	0.85812	-0.097
Mof_C 	C 	0.40631	0.34073	0.81807	0.082
Mof_C 	C 	0.40723	0.26308	0.85812	-0.088
Mof_C 	C 	0.34073	0.59369	0.31807	0.073
Mof_C 	C 	0.26308	0.59277	0.35812	-0.079
Mof_C 	C 	0.65927	0.40631	0.31807	0.092
Mof_C 	C 	0.73692	0.40723	0.35812	-0.094
Mof_C 	C 	0.40631	0.65927	0.18193	0.087
Mof_C 	C 	0.40723	0.73692	0.14188	-0.091
Mof_C 	C 	0.59369	0.34073	0.18193	0.068
Mof_C 	C 	0.59277	0.26308	0.14188	-0.076
Mof_C 	C 	0.65927	0.59369	0.68193	0.1
Mof_C 	C 	0.73692	0.59277	0.64188	-0.092
Mof_C 	C 	0.34073	0.40631	0.68193	0.074
Mof_C 	C 	0.26308	0.40723	0.64188	-0.083
Mof_C 	C 	0.40631	0.34073	0.18193	0.065
Mof_C 	C 	0.40723	0.26308	0.14188	-0.079
Mof_C 	C 	0.59369	0.65927	0.18193	0.09
Mof_C 	C 	0.59277	0.73692	0.14188	-0.088
Mof_C 	C 	0.65927	0.40631	0.68193	0.097
Mof_C 	C 	0.73692	0.40723	0.64188	-0.095
Mof_C 	C 	0.34073	0.59369	0.68193	0.078
Mof_C 	C 	0.26308	0.59277	0.64188	-0.08
Mof_C 	C 	0.59369	0.34073	0.81807	0.085
Mof_C 	C 	0.59277	0.26308	0.85812	-0.085
Mof_C 	C 	0.40631	0.65927	0.81807	0.103
Mof_C 	C 	0.40723	0.73692	0.85812	-0.1
Mof_C 	C 	0.34073	0.40631	0.31807	0.07
Mof_C 	C 	0.26308	0.40723	0.35812	-0.081
Mof_C 	C 	0.65927	0.59369	0.31807	0.096
Mof_C 	C 	0.73692	0.59277	0.35812	-0.091
Mof_C 	C 	0.5	0.61743	0.79711	-0.283
Mof_C 	C 	0.5	0.7755	0.87939	-0
Mof_C 	C 	0.5	0.8588	0.92364	0.352
Mof_C 	C 	0.5	0.38257	0.79711	-0.279
Mof_C 	C 	0.5	0.2245	0.87939	-0.037
Mof_C 	C 	0.5	0.1412	0.92364	0.361
Mof_C 	C 	0.38257	0.5	0.29711	-0.273
Mof_C 	C 	0.2245	0.5	0.37939	-0.055
Mof_C 	C 	0.1412	0.5	0.42364	0.368
Mof_C 	C 	0.61743	0.5	0.29711	-0.277
Mof_C 	C 	0.7755	0.5	0.37939	-0.016
Mof_C 	C 	0.8588	0.5	0.42364	0.358
Mof_C 	C 	0.5	0.61743	0.20289	-0.276
Mof_C 	C 	0.5	0.7755	0.12061	-0.027
Mof_C 	C 	0.5	0.8588	0.07636	0.36
Mof_C 	C 	0.5	0.38257	0.20289	-0.272
Mof_C 	C 	0.5	0.2245	0.12061	-0.066
Mof_C 	C 	0.5	0.1412	0.07636	0.37
Mof_C 	C 	0.61743	0.5	0.70289	-0.281
Mof_C 	C 	0.7755	0.5	0.62061	-0.013
Mof_C 	C 	0.8588	0.5	0.57636	0.358
Mof_C 	C 	0.38257	0.5	0.70289	-0.277
Mof_C 	C 	0.2245	0.5	0.62061	-0.052
Mof_C 	C 	0.1412	0.5	0.57636	0.368
Mof_O 	O 	0.58849	0.88956	0.9414	-0.389
Mof_O 	O 	0.41151	0.11044	0.9414	-0.479
Mof_O 	O 	0.11044	0.58849	0.4414	-0.498
Mof_O 	O 	0.88956	0.41151	0.4414	-0.434
Mof_O 	O 	0.41151	0.88956	0.0586	-0.455
Mof_O 	O 	0.58849	0.11044	0.0586	-0.518
Mof_O 	O 	0.88956	0.58849	0.5586	-0.418
Mof_O 	O 	0.11044	0.41151	0.5586	-0.513
Mof_O 	O 	0.41151	0.11044	0.0586	-0.534
Mof_O 	O 	0.58849	0.88956	0.0586	-0.439
Mof_O 	O 	0.88956	0.41151	0.5586	-0.433
Mof_O 	O 	0.11044	0.58849	0.5586	-0.497
Mof_O 	O 	0.58849	0.11044	0.9414	-0.463
Mof_O 	O 	0.41151	0.88956	0.9414	-0.405
Mof_O 	O 	0.11044	0.41151	0.4414	-0.514
Mof_O 	O 	0.88956	0.58849	0.4414	-0.419
_end
