data_functionalizedCrystal
_audit_creation_method	'EQeq! by Chris Wilmer'
_symmetry_space_group_name_H-M	'P1'
_symmetry_Int_Tables_number	1
_symmetry_cell_setting	triclinic
loop_
_symmetry_equiv_pos_as_xyz
  x,y,z
_cell_length_a	18.3489
_cell_length_b	18.349
_cell_length_c	19.8664
_cell_angle_alpha	64.5275
_cell_angle_beta	64.5277
_cell_angle_gamma	93.9399
loop_
_atom_site_label
_atom_site_type_symbol
_atom_site_fract_x
_atom_site_fract_y
_atom_site_fract_z
_atom_site_charge
Mof_Cu	Cu	0.43476	0.00302	0.56222	0.911
Mof_Cu	Cu	0.00302	0.43476	0.56222	0.911
Mof_Cu	Cu	0.99698	0.56524	0.43778	0.911
Mof_Cu	Cu	0.56524	0.99698	0.43778	0.911
Mof_Cu	Cu	0.99107	0.99107	0.44056	0.916
Mof_Cu	Cu	0.56837	0.56837	0.44056	0.916
Mof_Cu	Cu	0.00893	0.00893	0.55944	0.916
Mof_Cu	Cu	0.43163	0.43163	0.55944	0.916
Mof_H 	H 	0.7502	0.9824	0.7296	0.106
Mof_H 	H 	0.539	0.9908	0.723	0.1
Mof_H 	H 	0.7329	0.9793	0.5318	0.073
Mof_H 	H 	0.4884	0.9638	0.8532	0.035
Mof_H 	H 	0.539	0.0638	0.798	0.044
Mof_H 	H 	0.5202	0.288	0.7296	0.106
Mof_H 	H 	0.738	0.2862	0.723	0.1
Mof_H 	H 	0.7353	0.4889	0.5318	0.073
Mof_H 	H 	0.6584	0.183	0.8532	0.032
Mof_H 	H 	0.663	0.1382	0.798	0.042
Mof_H 	H 	0.0176	0.2498	0.2704	0.107
Mof_H 	H 	0.0092	0.461	0.277	0.1
Mof_H 	H 	0.0207	0.2671	0.4682	0.073
Mof_H 	H 	0.0362	0.5116	0.1468	0.034
Mof_H 	H 	0.9362	0.461	0.202	0.044
Mof_H 	H 	0.712	0.4798	0.2704	0.106
Mof_H 	H 	0.7138	0.262	0.277	0.1
Mof_H 	H 	0.5111	0.2647	0.4682	0.073
Mof_H 	H 	0.817	0.3416	0.1468	0.033
Mof_H 	H 	0.8618	0.337	0.202	0.044
Mof_H 	H 	0.2498	0.0176	0.2704	0.107
Mof_H 	H 	0.461	0.0092	0.277	0.1
Mof_H 	H 	0.2671	0.0207	0.4682	0.073
Mof_H 	H 	0.5116	0.0362	0.1468	0.034
Mof_H 	H 	0.461	0.9362	0.202	0.044
Mof_H 	H 	0.4798	0.712	0.2704	0.106
Mof_H 	H 	0.262	0.7138	0.277	0.1
Mof_H 	H 	0.2647	0.5111	0.4682	0.073
Mof_H 	H 	0.3416	0.817	0.1468	0.033
Mof_H 	H 	0.337	0.8618	0.202	0.044
Mof_H 	H 	0.9824	0.7502	0.7296	0.106
Mof_H 	H 	0.9908	0.539	0.723	0.1
Mof_H 	H 	0.9793	0.7329	0.5318	0.073
Mof_H 	H 	0.9638	0.4884	0.8532	0.035
Mof_H 	H 	0.0638	0.539	0.798	0.044
Mof_H 	H 	0.288	0.5202	0.7296	0.106
Mof_H 	H 	0.2862	0.738	0.723	0.1
Mof_H 	H 	0.4889	0.7353	0.5318	0.073
Mof_H 	H 	0.183	0.6584	0.8532	0.032
Mof_H 	H 	0.1382	0.663	0.798	0.042
Mof_H 	H 	0.4362	0.8866	-0	0.069
Mof_H 	H 	0.5638	0.1134	-0	0.066
Mof_H 	H 	0.1134	0.5638	-0	0.066
Mof_H 	H 	0.8866	0.4362	-0	0.069
Mof_C 	C 	0.8487	0.9831	0.5804	0.331
Mof_C 	C 	0.75722	0.98022	0.62196	-0.016
Mof_C 	C 	0.7192	0.9834	0.7014	-0.133
Mof_C 	C 	0.63906	0.98766	0.73448	0.207
Mof_C 	C 	0.59509	0.98789	0.69762	-0.151
Mof_C 	C 	0.62832	0.98392	0.62096	-0.015
Mof_C 	C 	0.70935	0.98095	0.5839	-0.03
Mof_C 	C 	0.5349	0.0073	0.8406	0.009
Mof_C 	C 	0.51952	0.00492	0.92196	0.029
Mof_C 	C 	0.5774	0.9872	0.5784	0.345
Mof_C 	C 	0.5709	0.4365	0.5804	0.331
Mof_C 	C 	0.62082	0.39782	0.62196	-0.016
Mof_C 	C 	0.5794	0.3152	0.7014	-0.134
Mof_C 	C 	0.62646	0.27786	0.73448	0.208
Mof_C 	C 	0.70729	0.31449	0.69762	-0.152
Mof_C 	C 	0.75072	0.39512	0.62096	-0.015
Mof_C 	C 	0.70675	0.43515	0.5839	-0.031
Mof_C 	C 	0.6245	0.1521	0.8406	0.017
Mof_C 	C 	0.55852	0.07312	0.92196	0.022
Mof_C 	C 	0.8442	0.4344	0.5784	0.345
Mof_C 	C 	0.0169	0.1513	0.4196	0.331
Mof_C 	C 	0.01978	0.24278	0.37804	-0.016
Mof_C 	C 	0.0166	0.2808	0.2986	-0.133
Mof_C 	C 	0.01234	0.36094	0.26552	0.208
Mof_C 	C 	0.01211	0.40491	0.30238	-0.151
Mof_C 	C 	0.01608	0.37168	0.37904	-0.015
Mof_C 	C 	0.01905	0.29065	0.4161	-0.03
Mof_C 	C 	0.9927	0.4651	0.1594	0.012
Mof_C 	C 	0.99508	0.48048	0.07804	0.024
Mof_C 	C 	0.0128	0.4226	0.4216	0.345
Mof_C 	C 	0.5635	0.4291	0.4196	0.331
Mof_C 	C 	0.60218	0.37918	0.37804	-0.016
Mof_C 	C 	0.6848	0.4206	0.2986	-0.134
Mof_C 	C 	0.72214	0.37354	0.26552	0.207
Mof_C 	C 	0.68551	0.29271	0.30238	-0.152
Mof_C 	C 	0.60488	0.24928	0.37904	-0.015
Mof_C 	C 	0.56485	0.29325	0.4161	-0.03
Mof_C 	C 	0.8479	0.3755	0.1594	0.012
Mof_C 	C 	0.92688	0.44148	0.07804	0.03
Mof_C 	C 	0.5656	0.1558	0.4216	0.345
Mof_C 	C 	0.1513	0.0169	0.4196	0.331
Mof_C 	C 	0.24278	0.01978	0.37804	-0.016
Mof_C 	C 	0.2808	0.0166	0.2986	-0.133
Mof_C 	C 	0.36094	0.01234	0.26552	0.208
Mof_C 	C 	0.40491	0.01211	0.30238	-0.151
Mof_C 	C 	0.37168	0.01608	0.37904	-0.015
Mof_C 	C 	0.29065	0.01905	0.4161	-0.03
Mof_C 	C 	0.4651	0.9927	0.1594	0.012
Mof_C 	C 	0.48048	0.99508	0.07804	0.024
Mof_C 	C 	0.4226	0.0128	0.4216	0.345
Mof_C 	C 	0.4291	0.5635	0.4196	0.331
Mof_C 	C 	0.37918	0.60218	0.37804	-0.016
Mof_C 	C 	0.4206	0.6848	0.2986	-0.134
Mof_C 	C 	0.37354	0.72214	0.26552	0.207
Mof_C 	C 	0.29271	0.68551	0.30238	-0.152
Mof_C 	C 	0.24928	0.60488	0.37904	-0.015
Mof_C 	C 	0.29325	0.56485	0.4161	-0.03
Mof_C 	C 	0.3755	0.8479	0.1594	0.012
Mof_C 	C 	0.44148	0.92688	0.07804	0.03
Mof_C 	C 	0.1558	0.5656	0.4216	0.345
Mof_C 	C 	0.9831	0.8487	0.5804	0.331
Mof_C 	C 	0.98022	0.75722	0.62196	-0.016
Mof_C 	C 	0.9834	0.7192	0.7014	-0.133
Mof_C 	C 	0.98766	0.63906	0.73448	0.207
Mof_C 	C 	0.98789	0.59509	0.69762	-0.151
Mof_C 	C 	0.98392	0.62832	0.62096	-0.015
Mof_C 	C 	0.98095	0.70935	0.5839	-0.03
Mof_C 	C 	0.0073	0.5349	0.8406	0.009
Mof_C 	C 	0.00492	0.51952	0.92196	0.029
Mof_C 	C 	0.9872	0.5774	0.5784	0.345
Mof_C 	C 	0.4365	0.5709	0.5804	0.331
Mof_C 	C 	0.39782	0.62082	0.62196	-0.016
Mof_C 	C 	0.3152	0.5794	0.7014	-0.134
Mof_C 	C 	0.27786	0.62646	0.73448	0.208
Mof_C 	C 	0.31449	0.70729	0.69762	-0.152
Mof_C 	C 	0.39512	0.75072	0.62096	-0.015
Mof_C 	C 	0.43515	0.70675	0.5839	-0.031
Mof_C 	C 	0.1521	0.6245	0.8406	0.017
Mof_C 	C 	0.07312	0.55852	0.92196	0.022
Mof_C 	C 	0.4344	0.8442	0.5784	0.345
Mof_C 	C 	0.4622	0.9332	-0	-0.082
Mof_C 	C 	0.5378	0.0668	-0	-0.072
Mof_C 	C 	0.0668	0.5378	-0	-0.072
Mof_C 	C 	0.9332	0.4622	-0	-0.082
Mof_O 	O 	0.8741	0.97468	0.51372	-0.399
Mof_O 	O 	0.50447	0.98995	0.61418	-0.411
Mof_O 	O 	0.88876	0.9888	0.61552	-0.405
Mof_O 	O 	0.61517	0.98519	0.50924	-0.403
Mof_O 	O 	0.61044	0.99038	0.81008	-0.222
Mof_O 	O 	0.61218	0.5116	0.51372	-0.399
Mof_O 	O 	0.88135	0.39587	0.61418	-0.411
Mof_O 	O 	0.49572	0.39568	0.61552	-0.405
Mof_O 	O 	0.87559	0.50557	0.50924	-0.403
Mof_O 	O 	0.57948	0.19954	0.81008	-0.225
Mof_O 	O 	0.02532	0.1259	0.48628	-0.398
Mof_O 	O 	0.01005	0.49553	0.38582	-0.411
Mof_O 	O 	0.0112	0.11124	0.38448	-0.405
Mof_O 	O 	0.01481	0.38483	0.49076	-0.403
Mof_O 	O 	0.00962	0.38956	0.18992	-0.222
Mof_O 	O 	0.4884	0.38782	0.48628	-0.399
Mof_O 	O 	0.60413	0.11865	0.38582	-0.411
Mof_O 	O 	0.60432	0.50428	0.38448	-0.405
Mof_O 	O 	0.49443	0.12441	0.49076	-0.403
Mof_O 	O 	0.80046	0.42052	0.18992	-0.224
Mof_O 	O 	0.1259	0.02532	0.48628	-0.398
Mof_O 	O 	0.49553	0.01005	0.38582	-0.411
Mof_O 	O 	0.11124	0.0112	0.38448	-0.405
Mof_O 	O 	0.38483	0.01481	0.49076	-0.403
Mof_O 	O 	0.38956	0.00962	0.18992	-0.222
Mof_O 	O 	0.38782	0.4884	0.48628	-0.399
Mof_O 	O 	0.11865	0.60413	0.38582	-0.411
Mof_O 	O 	0.50428	0.60432	0.38448	-0.405
Mof_O 	O 	0.12441	0.49443	0.49076	-0.403
Mof_O 	O 	0.42052	0.80046	0.18992	-0.224
Mof_O 	O 	0.97468	0.8741	0.51372	-0.399
Mof_O 	O 	0.98995	0.50447	0.61418	-0.411
Mof_O 	O 	0.9888	0.88876	0.61552	-0.405
Mof_O 	O 	0.98519	0.61517	0.50924	-0.403
Mof_O 	O 	0.99038	0.61044	0.81008	-0.222
Mof_O 	O 	0.5116	0.61218	0.51372	-0.399
Mof_O 	O 	0.39587	0.88135	0.61418	-0.411
Mof_O 	O 	0.39568	0.49572	0.61552	-0.405
Mof_O 	O 	0.50557	0.87559	0.50924	-0.403
Mof_O 	O 	0.19954	0.57948	0.81008	-0.225
_end
