# CIF file generated by openbabel 3.1.0, see https://openbabel.org
data_I
_chemical_name_common 'image0'
_cell_length_a 20.2996
_cell_length_b 9.4001
_cell_length_c 9.6941
_cell_angle_alpha 90
_cell_angle_beta 111.31
_cell_angle_gamma 90
_space_group_name_H-M_alt 'P 1'
_space_group_name_Hall 'P 1'
loop_
    _symmetry_equiv_pos_as_xyz
    x,y,z
loop_
    _atom_site_label
    _atom_site_type_symbol
    _atom_site_fract_x
    _atom_site_fract_y
    _atom_site_fract_z
    _atom_site_occupancy
    P1       P        0.39466    0.41990    0.96426    1.000
    F1       F        0.31292    0.12274    0.16309    1.000
    O1       O        0.44000    0.45586    0.12312    1.000
    O2       O        0.43845    0.36620    0.87825    1.000
    F2       F        0.55997    0.78084    0.38300    1.000
    F3       F        0.26405    0.40722    0.14605    1.000
    O3       O        0.33953    0.30780    0.95548    1.000
    O4       O        0.35762    0.56260    0.89610    1.000
    H1       H        0.33150    0.56400    0.82300    1.000
    P2       P        0.89466    0.91990    0.96426    1.000
    F4       F        0.81292    0.62274    0.16309    1.000
    O5       O        0.94000    0.95586    0.12312    1.000
    O6       O        0.93845    0.86620    0.87825    1.000
    F5       F        0.05997    0.28084    0.38300    1.000
    F6       F        0.76405    0.90722    0.14605    1.000
    O7       O        0.83953    0.80780    0.95548    1.000
    O8       O        0.85762    0.06260    0.89610    1.000
    H2       H        0.83150    0.06400    0.82300    1.000
    P3       P        0.60534    0.41990    0.53574    1.000
    F7       F        0.68708    0.12274    0.33691    1.000
    O9       O        0.56000    0.45586    0.37688    1.000
    O10      O        0.56155    0.36620    0.62175    1.000
    F8       F        0.44003    0.78084    0.11700    1.000
    F9       F        0.73595    0.40722    0.35395    1.000
    O11      O        0.66047    0.30780    0.54452    1.000
    O12      O        0.64238    0.56260    0.60390    1.000
    H3       H        0.66850    0.56400    0.67700    1.000
    P4       P        0.10534    0.91990    0.53574    1.000
    F10      F        0.18708    0.62274    0.33691    1.000
    O13      O        0.06000    0.95586    0.37688    1.000
    O14      O        0.06155    0.86620    0.62175    1.000
    F11      F        0.94003    0.28084    0.11700    1.000
    F12      F        0.23595    0.90722    0.35395    1.000
    O15      O        0.16047    0.80780    0.54452    1.000
    O16      O        0.14238    0.06260    0.60390    1.000
    H4       H        0.16850    0.06400    0.67700    1.000
    P5       P        0.60534    0.58010    0.03574    1.000
    F13      F        0.68708    0.87726    0.83691    1.000
    O17      O        0.56000    0.54414    0.87688    1.000
    O18      O        0.56155    0.63380    0.12175    1.000
    F14      F        0.44003    0.21916    0.61700    1.000
    F15      F        0.73595    0.59278    0.85395    1.000
    O19      O        0.66047    0.69220    0.04452    1.000
    O20      O        0.64238    0.43740    0.10390    1.000
    H5       H        0.66850    0.43600    0.17700    1.000
    P6       P        0.10534    0.08010    0.03574    1.000
    F16      F        0.18708    0.37726    0.83691    1.000
    O21      O        0.06000    0.04414    0.87688    1.000
    O22      O        0.06155    0.13380    0.12175    1.000
    F17      F        0.94003    0.71916    0.61700    1.000
    F18      F        0.23595    0.09278    0.85395    1.000
    O23      O        0.16047    0.19220    0.04452    1.000
    O24      O        0.14238    0.93740    0.10390    1.000
    H6       H        0.16850    0.93600    0.17700    1.000
    P7       P        0.39466    0.58010    0.46426    1.000
    F19      F        0.31292    0.87726    0.66309    1.000
    O25      O        0.44000    0.54414    0.62312    1.000
    O26      O        0.43845    0.63380    0.37825    1.000
    F20      F        0.55997    0.21916    0.88300    1.000
    F21      F        0.26405    0.59278    0.64605    1.000
    O27      O        0.33953    0.69220    0.45548    1.000
    O28      O        0.35762    0.43740    0.39610    1.000
    H7       H        0.33150    0.43600    0.32300    1.000
    P8       P        0.89466    0.08010    0.46426    1.000
    F22      F        0.81292    0.37726    0.66309    1.000
    O29      O        0.94000    0.04414    0.62312    1.000
    O30      O        0.93845    0.13380    0.37825    1.000
    F23      F        0.05997    0.71916    0.88300    1.000
    F24      F        0.76405    0.09278    0.64605    1.000
    O31      O        0.83953    0.19220    0.45548    1.000
    O32      O        0.85762    0.93740    0.39610    1.000
    H8       H        0.83150    0.93600    0.32300    1.000
    Sc1      Sc       0.50000    0.62667    0.25000    1.000
    Sc2      Sc       0.00000    0.12667    0.25000    1.000
    Sc3      Sc       0.50000    0.37333    0.75000    1.000
    Sc4      Sc       0.00000    0.87333    0.75000    1.000
    Sc5      Sc       0.25000    0.25000    0.00000    1.000
    Sc6      Sc       0.75000    0.25000    0.50000    1.000
    Sc7      Sc       0.75000    0.75000    0.00000    1.000
    Sc8      Sc       0.25000    0.75000    0.50000    1.000
