data_functionalizedCrystal
_audit_creation_method	'EQeq! by Chris Wilmer'
_symmetry_space_group_name_H-M	'P1'
_symmetry_Int_Tables_number	1
_symmetry_cell_setting	triclinic
loop_
_symmetry_equiv_pos_as_xyz
  x,y,z
_cell_length_a	15.1738
_cell_length_b	15.1738
_cell_length_c	18.859
_cell_angle_alpha	90
_cell_angle_beta	90
_cell_angle_gamma	120
loop_
_atom_site_label
_atom_site_type_symbol
_atom_site_fract_x
_atom_site_fract_y
_atom_site_fract_z
_atom_site_charge
Mof_Ni	Ni	5.45554e-17	0.83518	0.83333	1.072
Mof_Ni	Ni	0.16482	0.16482	0.16667	1.077
Mof_Ni	Ni	0.83518	-1.34259e-32	0.5	1.073
Mof_H 	H 	0.44	0.497	0.2649	0.115
Mof_H 	H 	0.9917	0.9141	0.97863	0.022
Mof_H 	H 	0.503	0.943	0.59823	0.108
Mof_H 	H 	0.1936	0.849	0.77793	0.049
Mof_H 	H 	0.9474	0.6572	0.7371	0.023
Mof_H 	H 	0.0083	0.9224	0.68803	-0.001
Mof_H 	H 	0.0526	0.7098	0.92957	0.021
Mof_H 	H 	0.9141	0.9917	0.3547	0.022
Mof_H 	H 	0.9224	0.0083	0.6453	-0
Mof_H 	H 	0.895	0.87	0.07883	0.105
Mof_H 	H 	0.7098	0.0526	0.40377	0.022
Mof_H 	H 	0.1025	0.3992	0.01137	0.114
Mof_H 	H 	0.13	0.025	0.41217	0.09
Mof_H 	H 	0.56	0.057	0.40177	0.109
Mof_H 	H 	0.151	0.3446	0.11127	0.05
Mof_H 	H 	0.0776	0.0859	0.02137	-0.004
Mof_H 	H 	0.0859	0.0776	0.31197	-0.004
Mof_H 	H 	0.6572	0.9474	0.59623	0.023
Mof_H 	H 	0.975	0.105	0.7455	0.099
Mof_H 	H 	0.6008	0.7033	0.3447	0.117
Mof_H 	H 	0.849	0.1936	0.5554	0.049
Mof_H 	H 	0.87	0.895	0.2545	0.106
Mof_H 	H 	0.057	0.56	0.93157	0.108
Mof_H 	H 	0.8975	0.2967	0.6553	0.116
Mof_H 	H 	0.8064	0.6554	0.88873	0.05
Mof_H 	H 	0.2902	0.3428	0.2629	0.021
Mof_H 	H 	0.497	0.44	0.06843	0.115
Mof_H 	H 	0.2967	0.8975	0.67803	0.116
Mof_H 	H 	0.7033	0.6008	0.98863	0.117
Mof_H 	H 	0.3428	0.2902	0.07043	0.022
Mof_H 	H 	0.3446	0.151	0.22207	0.049
Mof_H 	H 	0.025	0.13	0.92117	0.091
Mof_H 	H 	0.943	0.503	0.7351	0.108
Mof_H 	H 	0.6554	0.8064	0.4446	0.051
Mof_H 	H 	0.105	0.975	0.58783	0.099
Mof_H 	H 	0.3992	0.1025	0.32197	0.115
Mof_C 	C 	0.17583	0.87433	0.73889	0.089
Mof_C 	C 	0.36325	0.33198	0.11029	0.102
Mof_C 	C 	0.87573	0.82473	0.04104	-0.112
Mof_C 	C 	0.81343	0.78873	0.74345	0.384
Mof_C 	C 	0.21058	0.9413	0.62157	0.075
Mof_C 	C 	0.27799	0.9878	0.96327	-0.076
Mof_C 	C 	0.58281	0.58281	0.16667	0.12
Mof_C 	C 	0.72201	0.70981	0.70339	-0.094
Mof_C 	C 	0.17527	0.051	0.37438	-0.122
Mof_C 	C 	0.3015	0.12567	0.26111	0.088
Mof_C 	C 	0.02808	0.30327	0.88987	0.115
Mof_C 	C 	0.03127	0.66802	0.88971	0.09
Mof_C 	C 	0.97192	0.27519	0.7768	0.139
Mof_C 	C 	0.5621	0.5522	0.704	0.186
Mof_C 	C 	0.9901	0.4379	0.37067	0.219
Mof_C 	C 	0.08216	0.14934	0.01948	0.096
Mof_C 	C 	0.82417	0.6985	0.92777	0.094
Mof_C 	C 	0.78873	0.81343	0.58988	0.384
Mof_C 	C 	0.9753	0.18657	0.41012	0.404
Mof_C 	C 	0.63675	0.96873	0.55637	0.117
Mof_C 	C 	0.33198	0.36325	0.22304	0.102
Mof_C 	C 	0.9413	0.21058	0.71176	0.075
Mof_C 	C 	0.12427	0.949	0.62562	-0.118
Mof_C 	C 	0.051	0.17527	0.95896	-0.125
Mof_C 	C 	0.76139	0.66471	0.9874	-0.11
Mof_C 	C 	0.949	0.12427	0.70771	-0.118
Mof_C 	C 	2.4323e-17	0.51528	0.83333	0.058
Mof_C 	C 	0.3529	0.9762	0.92916	0.266
Mof_C 	C 	0.6985	0.82417	0.40556	0.094
Mof_C 	C 	0.87433	0.17583	0.59444	0.089
Mof_C 	C 	0.91784	0.06718	0.64719	0.094
Mof_C 	C 	0.96662	0.5444	0.77506	-0.098
Mof_C 	C 	0.9762	0.3529	0.40417	0.264
Mof_C 	C 	0.66471	0.76139	0.34593	-0.106
Mof_C 	C 	0.57778	0.03338	0.44173	-0.12
Mof_C 	C 	0.85066	0.93282	0.35281	0.099
Mof_C 	C 	0.78942	0.73072	0.04509	0.083
Mof_C 	C 	0.30327	0.02808	0.44347	0.115
Mof_C 	C 	0.90332	0.23861	0.65407	-0.106
Mof_C 	C 	0.5522	0.5621	0.62933	0.186
Mof_C 	C 	0.48472	0.48472	0.16667	0.089
Mof_C 	C 	0.6471	0.6233	0.7375	0.276
Mof_C 	C 	0.06718	0.91784	0.68614	0.094
Mof_C 	C 	0.0247	0.21127	0.25655	0.371
Mof_C 	C 	0.41719	-1.34259e-32	0.5	0.105
Mof_C 	C 	0.26928	0.0587	0.37843	0.075
Mof_C 	C 	0.72481	0.69673	0.11013	0.123
Mof_C 	C 	0.0587	0.26928	0.95491	0.072
Mof_C 	C 	0.0238	0.3767	0.2625	0.289
Mof_C 	C 	0.51528	-1.34259e-32	0.5	0.058
Mof_C 	C 	0.96873	0.63675	0.77696	0.117
Mof_C 	C 	0.42222	0.4556	0.22494	-0.13
Mof_C 	C 	0.69673	0.72481	0.2232	0.123
Mof_C 	C 	0.14934	0.08216	0.31386	0.092
Mof_C 	C 	0.0122	0.29019	0.29661	-0.122
Mof_C 	C 	0.6233	0.6471	0.59583	0.276
Mof_C 	C 	0.23861	0.90332	0.67926	-0.106
Mof_C 	C 	0.27519	0.97192	0.55653	0.139
Mof_C 	C 	0.9878	0.27799	0.37006	-0.072
Mof_C 	C 	2.4323e-17	0.41719	0.83333	0.105
Mof_C 	C 	0.70981	0.72201	0.62994	-0.094
Mof_C 	C 	0.12567	0.3015	0.07223	0.087
Mof_C 	C 	0.4478	0.0099	0.03734	0.157
Mof_C 	C 	0.82473	0.87573	0.29229	-0.115
Mof_C 	C 	0.93282	0.85066	0.98052	0.094
Mof_C 	C 	0.09668	0.33529	0.0126	-0.105
Mof_C 	C 	0.18657	0.9753	0.92321	0.404
Mof_C 	C 	0.3767	0.0238	0.07084	0.287
Mof_C 	C 	0.5444	0.96662	0.55827	-0.098
Mof_C 	C 	0.29019	0.0122	0.03673	-0.118
Mof_C 	C 	0.03338	0.57778	0.89161	-0.12
Mof_C 	C 	0.4379	0.9901	0.96266	0.216
Mof_C 	C 	0.21127	0.0247	0.07679	0.367
Mof_C 	C 	0.66802	0.03127	0.44363	0.091
Mof_C 	C 	0.73072	0.78942	0.28824	0.081
Mof_C 	C 	0.33529	0.09668	0.32074	-0.109
Mof_C 	C 	0.4556	0.42222	0.10839	-0.13
Mof_C 	C 	0.0099	0.4478	0.296	0.154
Mof_N 	N 	0.90889	0.78995	0.92374	-0.221
Mof_N 	N 	5.45554e-17	0.69702	0.83333	-0.237
Mof_N 	N 	9.20685e-18	0.24089	0.83333	-0.144
Mof_N 	N 	0.9729	0.36354	0.77354	-0.118
Mof_N 	N 	0.75911	0.75911	0.16667	-0.126
Mof_N 	N 	0.24089	-1.34259e-32	0.5	-0.144
Mof_N 	N 	0.36354	0.9729	0.55979	-0.118
Mof_N 	N 	0.60936	0.63646	0.22646	-0.127
Mof_N 	N 	0.21005	0.11894	0.25708	-0.232
Mof_N 	N 	0.0271	0.39064	0.89313	-0.129
Mof_N 	N 	0.09111	0.88106	0.74292	-0.232
Mof_N 	N 	0.11894	0.21005	0.07626	-0.232
Mof_N 	N 	0.30298	0.30298	0.16667	-0.224
Mof_N 	N 	0.39064	0.0271	0.44021	-0.128
Mof_N 	N 	0.88106	0.09111	0.59041	-0.232
Mof_N 	N 	0.69702	-1.34259e-32	0.5	-0.237
Mof_N 	N 	0.78995	0.90889	0.40959	-0.221
Mof_N 	N 	0.63646	0.60936	0.10687	-0.127
Mof_O 	O 	0.1308	0.8912	0.89519	-0.397
Mof_O 	O 	0.8692	0.7604	0.77147	-0.379
Mof_O 	O 	0.17463	0.05133	0.92188	-0.289
Mof_O 	O 	0.8767	0.82537	0.58855	-0.25
Mof_O 	O 	0.7604	0.8692	0.56186	-0.379
Mof_O 	O 	0.82537	0.8767	0.74478	-0.251
Mof_O 	O 	0.2396	0.1088	0.10481	-0.388
Mof_O 	O 	0.94867	0.1233	0.25522	-0.254
Mof_O 	O 	0.8912	0.1308	0.43814	-0.396
Mof_O 	O 	0.05133	0.17463	0.41145	-0.288
Mof_O 	O 	0.1088	0.2396	0.22853	-0.389
Mof_O 	O 	0.1233	0.94867	0.07812	-0.249
Mof_F 	F 	0.38856	0.04261	0.14097	-0.405
Mof_F 	F 	0.0228	0.53106	0.26284	-0.341
Mof_F 	F 	0.49174	0.46894	0.73716	-0.343
Mof_F 	F 	0.53106	0.0228	0.0705	-0.342
Mof_F 	F 	0.34595	0.95739	0.85903	-0.395
Mof_F 	F 	0.04261	0.38856	0.19237	-0.405
Mof_F 	F 	0.65405	0.61144	0.80763	-0.399
Mof_F 	F 	0.61144	0.65405	0.5257	-0.399
Mof_F 	F 	0.95739	0.34595	0.4743	-0.394
Mof_F 	F 	0.46894	0.49174	0.59617	-0.343
Mof_F 	F 	0.9772	0.50826	0.40383	-0.338
Mof_F 	F 	0.50826	0.9772	0.9295	-0.338
_end
