# CIF file generated by openbabel 3.1.0, see https://openbabel.org
data_I
_chemical_name_common 'NEZWOG_clean'
_cell_length_a 11.2668
_cell_length_b 13.3604
_cell_length_c 26.282
_cell_angle_alpha 90
_cell_angle_beta 90
_cell_angle_gamma 90
_space_group_name_H-M_alt 'P 1'
_space_group_name_Hall 'P 1'
loop_
    _symmetry_equiv_pos_as_xyz
    x,y,z
loop_
    _atom_site_label
    _atom_site_type_symbol
    _atom_site_fract_x
    _atom_site_fract_y
    _atom_site_fract_z
    _atom_site_occupancy
    La1      La       0.97221    0.65859    0.21852    1.000
    La2      La       0.47221    0.84141    0.28148    1.000
    La3      La       0.52779    0.65859    0.78148    1.000
    La4      La       0.02779    0.84141    0.71852    1.000
    La5      La       0.02779    0.34141    0.78148    1.000
    La6      La       0.52779    0.15859    0.71852    1.000
    La7      La       0.47221    0.34141    0.21852    1.000
    La8      La       0.97221    0.15859    0.28148    1.000
    La9      La       0.25000    0.48870    0.00000    1.000
    La10     La       0.75000    0.01130    0.50000    1.000
    La11     La       0.75000    0.51130    0.00000    1.000
    La12     La       0.25000    0.98870    0.50000    1.000
    P1       P        0.13990    0.81630    0.31108    1.000
    P2       P        0.29460    0.70750    0.08599    1.000
    P3       P        0.63990    0.68370    0.18892    1.000
    P4       P        0.79460    0.79250    0.41401    1.000
    P5       P        0.36010    0.81630    0.68892    1.000
    P6       P        0.20540    0.70750    0.91401    1.000
    P7       P        0.86010    0.68370    0.81108    1.000
    P8       P        0.70540    0.79250    0.58599    1.000
    P9       P        0.86010    0.18370    0.68892    1.000
    P10      P        0.70540    0.29250    0.91401    1.000
    P11      P        0.36010    0.31630    0.81108    1.000
    P12      P        0.20540    0.20750    0.58599    1.000
    P13      P        0.63990    0.18370    0.31108    1.000
    P14      P        0.79460    0.29250    0.08599    1.000
    P15      P        0.13990    0.31630    0.18892    1.000
    P16      P        0.29460    0.20750    0.41401    1.000
    C1       C        0.06100    0.91060    0.27460    1.000
    C2       C        0.92730    0.90620    0.27650    1.000
    C3       C        0.20240    0.64790    0.13360    1.000
    C4       C        0.09530    0.60040    0.10910    1.000
    C5       C        0.56100    0.58940    0.22540    1.000
    C6       C        0.42730    0.59380    0.22350    1.000
    C7       C        0.70240    0.85210    0.36640    1.000
    C8       C        0.59530    0.89960    0.39090    1.000
    C9       C        0.43900    0.91060    0.72540    1.000
    C10      C        0.57270    0.90620    0.72350    1.000
    C11      C        0.29760    0.64790    0.86640    1.000
    C12      C        0.40470    0.60040    0.89090    1.000
    C13      C        0.93900    0.58940    0.77460    1.000
    C14      C        0.07270    0.59380    0.77650    1.000
    C15      C        0.79760    0.85210    0.63360    1.000
    C16      C        0.90470    0.89960    0.60910    1.000
    C17      C        0.93900    0.08940    0.72540    1.000
    C18      C        0.07270    0.09380    0.72350    1.000
    C19      C        0.79760    0.35210    0.86640    1.000
    C20      C        0.90470    0.39960    0.89090    1.000
    C21      C        0.43900    0.41060    0.77460    1.000
    C22      C        0.57270    0.40620    0.77650    1.000
    C23      C        0.29760    0.14790    0.63360    1.000
    C24      C        0.40470    0.10040    0.60910    1.000
    C25      C        0.56100    0.08940    0.27460    1.000
    C26      C        0.42730    0.09380    0.27650    1.000
    C27      C        0.70240    0.35210    0.13360    1.000
    C28      C        0.59530    0.39960    0.10910    1.000
    C29      C        0.06100    0.41060    0.22540    1.000
    C30      C        0.92730    0.40620    0.22350    1.000
    C31      C        0.20240    0.14790    0.36640    1.000
    C32      C        0.09530    0.10040    0.39090    1.000
    O1       O        0.13080    0.71600    0.28290    1.000
    O2       O        0.08300    0.81170    0.36430    1.000
    O3       O        0.26960    0.85130    0.31530    1.000
    O4       O        0.13100    0.99690    0.26970    1.000
    O5       O        0.87960    0.82380    0.26960    1.000
    O6       O        0.87350    0.98260    0.28970    1.000
    O7       O        0.34830    0.62520    0.05200    1.000
    O8       O        0.21570    0.77880    0.05480    1.000
    O9       O        0.39300    0.76620    0.11400    1.000
    O10      O        0.20610    0.69820    0.18030    1.000
    O11      O        0.11380    0.54560    0.07190    1.000
    O12      O        0.99920    0.61110    0.13120    1.000
    O13      O        0.63080    0.78400    0.21710    1.000
    O14      O        0.58300    0.68830    0.13570    1.000
    O15      O        0.76960    0.64870    0.18470    1.000
    O16      O        0.63100    0.50310    0.23030    1.000
    O17      O        0.37960    0.67620    0.23040    1.000
    O18      O        0.37350    0.51740    0.21030    1.000
    O19      O        0.84830    0.87480    0.44800    1.000
    O20      O        0.71570    0.72120    0.44520    1.000
    O21      O        0.89300    0.73380    0.38600    1.000
    O22      O        0.70610    0.80180    0.31970    1.000
    O23      O        0.61380    0.95440    0.42810    1.000
    O24      O        0.49920    0.88890    0.36880    1.000
    O25      O        0.36920    0.71600    0.71710    1.000
    O26      O        0.41700    0.81170    0.63570    1.000
    O27      O        0.23040    0.85130    0.68470    1.000
    O28      O        0.36900    0.99690    0.73030    1.000
    O29      O        0.62040    0.82380    0.73040    1.000
    O30      O        0.62650    0.98260    0.71030    1.000
    O31      O        0.15170    0.62520    0.94800    1.000
    O32      O        0.28430    0.77880    0.94520    1.000
    O33      O        0.10700    0.76620    0.88600    1.000
    O34      O        0.29390    0.69820    0.81970    1.000
    O35      O        0.38620    0.54560    0.92810    1.000
    O36      O        0.50080    0.61110    0.86880    1.000
    O37      O        0.86920    0.78400    0.78290    1.000
    O38      O        0.91700    0.68830    0.86430    1.000
    O39      O        0.73040    0.64870    0.81530    1.000
    O40      O        0.86900    0.50310    0.76970    1.000
    O41      O        0.12040    0.67620    0.76960    1.000
    O42      O        0.12650    0.51740    0.78970    1.000
    O43      O        0.65170    0.87480    0.55200    1.000
    O44      O        0.78430    0.72120    0.55480    1.000
    O45      O        0.60700    0.73380    0.61400    1.000
    O46      O        0.79390    0.80180    0.68030    1.000
    O47      O        0.88620    0.95440    0.57190    1.000
    O48      O        0.00080    0.88890    0.63120    1.000
    O49      O        0.86920    0.28400    0.71710    1.000
    O50      O        0.91700    0.18830    0.63570    1.000
    O51      O        0.73040    0.14870    0.68470    1.000
    O52      O        0.86900    0.00310    0.73030    1.000
    O53      O        0.12040    0.17620    0.73040    1.000
    O54      O        0.12650    0.01740    0.71030    1.000
    O55      O        0.65170    0.37480    0.94800    1.000
    O56      O        0.78430    0.22120    0.94520    1.000
    O57      O        0.60700    0.23380    0.88600    1.000
    O58      O        0.79390    0.30180    0.81970    1.000
    O59      O        0.88620    0.45440    0.92810    1.000
    O60      O        0.00080    0.38890    0.86880    1.000
    O61      O        0.36920    0.21600    0.78290    1.000
    O62      O        0.41700    0.31170    0.86430    1.000
    O63      O        0.23040    0.35130    0.81530    1.000
    O64      O        0.36900    0.49690    0.76970    1.000
    O65      O        0.62040    0.32380    0.76960    1.000
    O66      O        0.62650    0.48260    0.78970    1.000
    O67      O        0.15170    0.12520    0.55200    1.000
    O68      O        0.28430    0.27880    0.55480    1.000
    O69      O        0.10700    0.26620    0.61400    1.000
    O70      O        0.29390    0.19820    0.68030    1.000
    O71      O        0.38620    0.04560    0.57190    1.000
    O72      O        0.50080    0.11110    0.63120    1.000
    O73      O        0.63080    0.28400    0.28290    1.000
    O74      O        0.58300    0.18830    0.36430    1.000
    O75      O        0.76960    0.14870    0.31530    1.000
    O76      O        0.63100    0.00310    0.26970    1.000
    O77      O        0.37960    0.17620    0.26960    1.000
    O78      O        0.37350    0.01740    0.28970    1.000
    O79      O        0.84830    0.37480    0.05200    1.000
    O80      O        0.71570    0.22120    0.05480    1.000
    O81      O        0.89300    0.23380    0.11400    1.000
    O82      O        0.70610    0.30180    0.18030    1.000
    O83      O        0.61380    0.45440    0.07190    1.000
    O84      O        0.49920    0.38890    0.13120    1.000
    O85      O        0.13080    0.21600    0.21710    1.000
    O86      O        0.08300    0.31170    0.13570    1.000
    O87      O        0.26960    0.35130    0.18470    1.000
    O88      O        0.13100    0.49690    0.23030    1.000
    O89      O        0.87960    0.32380    0.23040    1.000
    O90      O        0.87350    0.48260    0.21030    1.000
    O91      O        0.34830    0.12520    0.44800    1.000
    O92      O        0.21570    0.27880    0.44520    1.000
    O93      O        0.39300    0.26620    0.38600    1.000
    O94      O        0.20610    0.19820    0.31970    1.000
    O95      O        0.11380    0.04560    0.42810    1.000
    O96      O        0.99920    0.11110    0.36880    1.000
