# CIF file generated by openbabel 3.1.0, see https://openbabel.org
data_I
_chemical_name_common 'image0'
_cell_length_a 22.06
_cell_length_b 16.3472
_cell_length_c 25.677
_cell_angle_alpha 90
_cell_angle_beta 115.392
_cell_angle_gamma 90
_space_group_name_H-M_alt 'P 1'
_space_group_name_Hall 'P 1'
loop_
    _symmetry_equiv_pos_as_xyz
    x,y,z
loop_
    _atom_site_label
    _atom_site_type_symbol
    _atom_site_fract_x
    _atom_site_fract_y
    _atom_site_fract_z
    _atom_site_occupancy
    Ag1      Ag       0.34370    0.04236    0.36783    1.000
    N1       N        0.43914    0.11500    0.41198    1.000
    N2       N        0.79628    0.46908    0.41715    1.000
    N3       N        0.27458    0.02700    0.27197    1.000
    C1       C        0.46659    0.12370    0.46983    1.000
    C2       C        0.47336    0.14550    0.38451    1.000
    C3       C        0.52626    0.16400    0.50017    1.000
    H1       H        0.44420    0.10160    0.49010    1.000
    C4       C        0.53309    0.18840    0.41143    1.000
    H2       H        0.45620    0.13760    0.34490    1.000
    C5       C        0.55995    0.19780    0.47058    1.000
    H3       H        0.54380    0.16850    0.54010    1.000
    H4       H        0.55450    0.21020    0.39030    1.000
    C6       C        0.62415    0.24300    0.50266    1.000
    N4       N        0.64795    0.28910    0.47297    1.000
    N5       N        0.65326    0.23140    0.55986    1.000
    C7       C        0.70614    0.32740    0.50561    1.000
    C8       C        0.70980    0.27350    0.58774    1.000
    C9       C        0.73629    0.37780    0.47503    1.000
    N6       N        0.73850    0.32277    0.56330    1.000
    C10      C        0.74292    0.26330    0.65184    1.000
    C11      C        0.79854    0.41590    0.50537    1.000
    C12      C        0.70468    0.38880    0.41552    1.000
    C13      C        0.71527    0.21180    0.67860    1.000
    C14      C        0.80145    0.30550    0.68546    1.000
    H5       H        0.82080    0.41210    0.54530    1.000
    C15      C        0.82601    0.45920    0.47437    1.000
    C16      C        0.73576    0.43320    0.38850    1.000
    H6       H        0.66260    0.36610    0.39410    1.000
    H7       H        0.67730    0.18110    0.65690    1.000
    C17      C        0.74494    0.20680    0.73787    1.000
    C18      C        0.82680    0.29710    0.74475    1.000
    H8       H        0.82280    0.33820    0.66880    1.000
    H9       H        0.86790    0.48310    0.49470    1.000
    H10      H        0.71410    0.43880    0.34860    1.000
    H11      H        0.72630    0.17140    0.75540    1.000
    N7       N        0.79922    0.25030    0.77162    1.000
    H12      H        0.86560    0.32590    0.76740    1.000
    Ag2      Ag       0.82292    0.25016    0.86749    1.000
    N8       N        0.91278    0.15970    0.90782    1.000
    N9       N        0.27981    0.81458    0.92177    1.000
    C19      C        0.94293    0.15770    0.96580    1.000
    C20      C        0.94299    0.11900    0.87972    1.000
    C21      C        0.00229    0.11720    0.99677    1.000
    H13      H        0.92260    0.18500    0.98590    1.000
    C22      C        0.00189    0.07510    0.90760    1.000
    H14      H        0.92330    0.12040    0.83960    1.000
    H15      H        0.02190    0.11800    0.03690    1.000
    C23      C        0.03250    0.07520    0.96725    1.000
    H16      H        0.02040    0.04620    0.88670    1.000
    C24      C        0.09719    0.03080    0.00141    1.000
    N10      N        0.12602    0.99040    0.97325    1.000
    N11      N        0.12166    0.03776    0.05930    1.000
    C25      C        0.18197    0.94930    0.00724    1.000
    C26      C        0.17946    0.99790    0.08865    1.000
    C27      C        0.21506    0.90000    0.97804    1.000
    N12      N        0.21071    0.95090    0.06479    1.000
    C28      C        0.21098    0.00730    0.15224    1.000
    C29      C        0.27766    0.86260    0.00950    1.000
    C30      C        0.18613    0.89190    0.91859    1.000
    C31      C        0.17763    0.04290    0.18162    1.000
    C32      C        0.27721    0.98180    0.18392    1.000
    H17      H        0.29850    0.86530    0.04950    1.000
    C33      C        0.30755    0.82170    0.97951    1.000
    C34      C        0.21942    0.84960    0.89267    1.000
    H18      H        0.14440    0.91490    0.89640    1.000
    H19      H        0.13360    0.06060    0.16170    1.000
    C35      C        0.21051    0.05160    0.24065    1.000
    C36      C        0.30583    0.99320    0.24288    1.000
    H20      H        0.30130    0.95790    0.16580    1.000
    H21      H        0.34920    0.79770    0.00050    1.000
    H22      H        0.19910    0.84500    0.85270    1.000
    H23      H        0.18760    0.07550    0.25980    1.000
    H24      H        0.35000    0.97610    0.26380    1.000
    Ag3      Ag       0.84370    0.54236    0.36783    1.000
    N13      N        0.93914    0.61500    0.41198    1.000
    N14      N        0.29628    0.96908    0.41715    1.000
    N15      N        0.77458    0.52700    0.27197    1.000
    C37      C        0.96659    0.62370    0.46983    1.000
    C38      C        0.97336    0.64550    0.38451    1.000
    C39      C        0.02626    0.66400    0.50017    1.000
    H25      H        0.94420    0.60160    0.49010    1.000
    C40      C        0.03309    0.68840    0.41143    1.000
    H26      H        0.95620    0.63760    0.34490    1.000
    C41      C        0.05995    0.69780    0.47058    1.000
    H27      H        0.04380    0.66850    0.54010    1.000
    H28      H        0.05450    0.71020    0.39030    1.000
    C42      C        0.12415    0.74300    0.50266    1.000
    N16      N        0.14795    0.78910    0.47297    1.000
    N17      N        0.15326    0.73140    0.55986    1.000
    C43      C        0.20614    0.82740    0.50561    1.000
    C44      C        0.20980    0.77350    0.58774    1.000
    C45      C        0.23629    0.87780    0.47503    1.000
    N18      N        0.23850    0.82277    0.56330    1.000
    C46      C        0.24292    0.76330    0.65184    1.000
    C47      C        0.29854    0.91590    0.50537    1.000
    C48      C        0.20468    0.88880    0.41552    1.000
    C49      C        0.21527    0.71180    0.67860    1.000
    C50      C        0.30145    0.80550    0.68546    1.000
    H29      H        0.32080    0.91210    0.54530    1.000
    C51      C        0.32601    0.95920    0.47437    1.000
    C52      C        0.23576    0.93320    0.38850    1.000
    H30      H        0.16260    0.86610    0.39410    1.000
    H31      H        0.17730    0.68110    0.65690    1.000
    C53      C        0.24494    0.70680    0.73787    1.000
    C54      C        0.32680    0.79710    0.74475    1.000
    H32      H        0.32280    0.83820    0.66880    1.000
    H33      H        0.36790    0.98310    0.49470    1.000
    H34      H        0.21410    0.93880    0.34860    1.000
    H35      H        0.22630    0.67140    0.75540    1.000
    N19      N        0.29922    0.75030    0.77162    1.000
    H36      H        0.36560    0.82590    0.76740    1.000
    Ag4      Ag       0.32292    0.75016    0.86749    1.000
    N20      N        0.41278    0.65970    0.90782    1.000
    N21      N        0.77981    0.31458    0.92177    1.000
    C55      C        0.44293    0.65770    0.96580    1.000
    C56      C        0.44299    0.61900    0.87972    1.000
    C57      C        0.50229    0.61720    0.99677    1.000
    H37      H        0.42260    0.68500    0.98590    1.000
    C58      C        0.50189    0.57510    0.90760    1.000
    H38      H        0.42330    0.62040    0.83960    1.000
    H39      H        0.52190    0.61800    0.03690    1.000
    C59      C        0.53250    0.57520    0.96725    1.000
    H40      H        0.52040    0.54620    0.88670    1.000
    C60      C        0.59719    0.53080    0.00141    1.000
    N22      N        0.62602    0.49040    0.97325    1.000
    N23      N        0.62166    0.53776    0.05930    1.000
    C61      C        0.68197    0.44930    0.00724    1.000
    C62      C        0.67946    0.49790    0.08865    1.000
    C63      C        0.71506    0.40000    0.97804    1.000
    N24      N        0.71071    0.45090    0.06479    1.000
    C64      C        0.71098    0.50730    0.15224    1.000
    C65      C        0.77766    0.36260    0.00950    1.000
    C66      C        0.68613    0.39190    0.91859    1.000
    C67      C        0.67763    0.54290    0.18162    1.000
    C68      C        0.77721    0.48180    0.18392    1.000
    H41      H        0.79850    0.36530    0.04950    1.000
    C69      C        0.80755    0.32170    0.97951    1.000
    C70      C        0.71942    0.34960    0.89267    1.000
    H42      H        0.64440    0.41490    0.89640    1.000
    H43      H        0.63360    0.56060    0.16170    1.000
    C71      C        0.71051    0.55160    0.24065    1.000
    C72      C        0.80583    0.49320    0.24288    1.000
    H44      H        0.80130    0.45790    0.16580    1.000
    H45      H        0.84920    0.29770    0.00050    1.000
    H46      H        0.69910    0.34500    0.85270    1.000
    H47      H        0.68760    0.57550    0.25980    1.000
    H48      H        0.85000    0.47610    0.26380    1.000
    Ag5      Ag       0.65630    0.04236    0.13217    1.000
    N25      N        0.56086    0.11500    0.08802    1.000
    N26      N        0.20372    0.46908    0.08285    1.000
    N27      N        0.72542    0.02700    0.22803    1.000
    C73      C        0.53341    0.12370    0.03017    1.000
    C74      C        0.52664    0.14550    0.11549    1.000
    C75      C        0.47374    0.16400    0.99983    1.000
    H49      H        0.55580    0.10160    0.00990    1.000
    C76      C        0.46691    0.18840    0.08857    1.000
    H50      H        0.54380    0.13760    0.15510    1.000
    C77      C        0.44005    0.19780    0.02942    1.000
    H51      H        0.45620    0.16850    0.95990    1.000
    H52      H        0.44550    0.21020    0.10970    1.000
    C78      C        0.37585    0.24300    0.99734    1.000
    N28      N        0.35205    0.28910    0.02703    1.000
    N29      N        0.34674    0.23140    0.94014    1.000
    C79      C        0.29386    0.32740    0.99439    1.000
    C80      C        0.29020    0.27350    0.91226    1.000
    C81      C        0.26371    0.37780    0.02497    1.000
    N30      N        0.26150    0.32277    0.93670    1.000
    C82      C        0.25708    0.26330    0.84816    1.000
    C83      C        0.20146    0.41590    0.99463    1.000
    C84      C        0.29532    0.38880    0.08448    1.000
    C85      C        0.28473    0.21180    0.82140    1.000
    C86      C        0.19855    0.30550    0.81454    1.000
    H53      H        0.17920    0.41210    0.95470    1.000
    C87      C        0.17399    0.45920    0.02563    1.000
    C88      C        0.26424    0.43320    0.11150    1.000
    H54      H        0.33740    0.36610    0.10590    1.000
    H55      H        0.32270    0.18110    0.84310    1.000
    C89      C        0.25506    0.20680    0.76213    1.000
    C90      C        0.17320    0.29710    0.75525    1.000
    H56      H        0.17720    0.33820    0.83120    1.000
    H57      H        0.13210    0.48310    0.00530    1.000
    H58      H        0.28590    0.43880    0.15140    1.000
    H59      H        0.27370    0.17140    0.74460    1.000
    N31      N        0.20078    0.25030    0.72838    1.000
    H60      H        0.13440    0.32590    0.73260    1.000
    Ag6      Ag       0.17708    0.25016    0.63251    1.000
    N32      N        0.08722    0.15970    0.59218    1.000
    N33      N        0.72019    0.81458    0.57823    1.000
    C91      C        0.05707    0.15770    0.53420    1.000
    C92      C        0.05701    0.11900    0.62028    1.000
    C93      C        0.99771    0.11720    0.50323    1.000
    H61      H        0.07740    0.18500    0.51410    1.000
    C94      C        0.99811    0.07510    0.59240    1.000
    H62      H        0.07670    0.12040    0.66040    1.000
    H63      H        0.97810    0.11800    0.46310    1.000
    C95      C        0.96750    0.07520    0.53275    1.000
    H64      H        0.97960    0.04620    0.61330    1.000
    C96      C        0.90281    0.03080    0.49859    1.000
    N34      N        0.87398    0.99040    0.52675    1.000
    N35      N        0.87834    0.03776    0.44070    1.000
    C97      C        0.81803    0.94930    0.49276    1.000
    C98      C        0.82054    0.99790    0.41135    1.000
    C99      C        0.78494    0.90000    0.52196    1.000
    N36      N        0.78929    0.95090    0.43521    1.000
    C100     C        0.78902    0.00730    0.34776    1.000
    C101     C        0.72234    0.86260    0.49050    1.000
    C102     C        0.81387    0.89190    0.58141    1.000
    C103     C        0.82237    0.04290    0.31838    1.000
    C104     C        0.72279    0.98180    0.31608    1.000
    H65      H        0.70150    0.86530    0.45050    1.000
    C105     C        0.69245    0.82170    0.52049    1.000
    C106     C        0.78058    0.84960    0.60733    1.000
    H66      H        0.85560    0.91490    0.60360    1.000
    H67      H        0.86640    0.06060    0.33830    1.000
    C107     C        0.78949    0.05160    0.25935    1.000
    C108     C        0.69417    0.99320    0.25712    1.000
    H68      H        0.69870    0.95790    0.33420    1.000
    H69      H        0.65080    0.79770    0.49950    1.000
    H70      H        0.80090    0.84500    0.64730    1.000
    H71      H        0.81240    0.07550    0.24020    1.000
    H72      H        0.65000    0.97610    0.23620    1.000
    Ag7      Ag       0.15630    0.54236    0.13217    1.000
    N37      N        0.06086    0.61500    0.08802    1.000
    N38      N        0.70372    0.96908    0.08285    1.000
    N39      N        0.22542    0.52700    0.22803    1.000
    C109     C        0.03341    0.62370    0.03017    1.000
    C110     C        0.02664    0.64550    0.11549    1.000
    C111     C        0.97374    0.66400    0.99983    1.000
    H73      H        0.05580    0.60160    0.00990    1.000
    C112     C        0.96691    0.68840    0.08857    1.000
    H74      H        0.04380    0.63760    0.15510    1.000
    C113     C        0.94005    0.69780    0.02942    1.000
    H75      H        0.95620    0.66850    0.95990    1.000
    H76      H        0.94550    0.71020    0.10970    1.000
    C114     C        0.87585    0.74300    0.99734    1.000
    N40      N        0.85205    0.78910    0.02703    1.000
    N41      N        0.84674    0.73140    0.94014    1.000
    C115     C        0.79386    0.82740    0.99439    1.000
    C116     C        0.79020    0.77350    0.91226    1.000
    C117     C        0.76371    0.87780    0.02497    1.000
    N42      N        0.76150    0.82277    0.93670    1.000
    C118     C        0.75708    0.76330    0.84816    1.000
    C119     C        0.70146    0.91590    0.99463    1.000
    C120     C        0.79532    0.88880    0.08448    1.000
    C121     C        0.78473    0.71180    0.82140    1.000
    C122     C        0.69855    0.80550    0.81454    1.000
    H77      H        0.67920    0.91210    0.95470    1.000
    C123     C        0.67399    0.95920    0.02563    1.000
    C124     C        0.76424    0.93320    0.11150    1.000
    H78      H        0.83740    0.86610    0.10590    1.000
    H79      H        0.82270    0.68110    0.84310    1.000
    C125     C        0.75506    0.70680    0.76213    1.000
    C126     C        0.67320    0.79710    0.75525    1.000
    H80      H        0.67720    0.83820    0.83120    1.000
    H81      H        0.63210    0.98310    0.00530    1.000
    H82      H        0.78590    0.93880    0.15140    1.000
    H83      H        0.77370    0.67140    0.74460    1.000
    N43      N        0.70078    0.75030    0.72838    1.000
    H84      H        0.63440    0.82590    0.73260    1.000
    Ag8      Ag       0.67708    0.75016    0.63251    1.000
    N44      N        0.58722    0.65970    0.59218    1.000
    N45      N        0.22019    0.31458    0.57823    1.000
    C127     C        0.55707    0.65770    0.53420    1.000
    C128     C        0.55701    0.61900    0.62028    1.000
    C129     C        0.49771    0.61720    0.50323    1.000
    H85      H        0.57740    0.68500    0.51410    1.000
    C130     C        0.49811    0.57510    0.59240    1.000
    H86      H        0.57670    0.62040    0.66040    1.000
    H87      H        0.47810    0.61800    0.46310    1.000
    C131     C        0.46750    0.57520    0.53275    1.000
    H88      H        0.47960    0.54620    0.61330    1.000
    C132     C        0.40281    0.53080    0.49859    1.000
    N46      N        0.37398    0.49040    0.52675    1.000
    N47      N        0.37834    0.53776    0.44070    1.000
    C133     C        0.31803    0.44930    0.49276    1.000
    C134     C        0.32054    0.49790    0.41135    1.000
    C135     C        0.28494    0.40000    0.52196    1.000
    N48      N        0.28929    0.45090    0.43521    1.000
    C136     C        0.28902    0.50730    0.34776    1.000
    C137     C        0.22234    0.36260    0.49050    1.000
    C138     C        0.31387    0.39190    0.58141    1.000
    C139     C        0.32237    0.54290    0.31838    1.000
    C140     C        0.22279    0.48180    0.31608    1.000
    H89      H        0.20150    0.36530    0.45050    1.000
    C141     C        0.19245    0.32170    0.52049    1.000
    C142     C        0.28058    0.34960    0.60733    1.000
    H90      H        0.35560    0.41490    0.60360    1.000
    H91      H        0.36640    0.56060    0.33830    1.000
    C143     C        0.28949    0.55160    0.25935    1.000
    C144     C        0.19417    0.49320    0.25712    1.000
    H92      H        0.19870    0.45790    0.33420    1.000
    H93      H        0.15080    0.29770    0.49950    1.000
    H94      H        0.30090    0.34500    0.64730    1.000
    H95      H        0.31240    0.57550    0.24020    1.000
    H96      H        0.15000    0.47610    0.23620    1.000
    Ag9      Ag       0.65630    0.95764    0.63217    1.000
    N49      N        0.56086    0.88500    0.58802    1.000
    N50      N        0.20372    0.53092    0.58285    1.000
    N51      N        0.72542    0.97300    0.72803    1.000
    C145     C        0.53341    0.87630    0.53017    1.000
    C146     C        0.52664    0.85450    0.61549    1.000
    C147     C        0.47374    0.83600    0.49983    1.000
    H97      H        0.55580    0.89840    0.50990    1.000
    C148     C        0.46691    0.81160    0.58857    1.000
    H98      H        0.54380    0.86240    0.65510    1.000
    C149     C        0.44005    0.80220    0.52942    1.000
    H99      H        0.45620    0.83150    0.45990    1.000
    H100     H        0.44550    0.78980    0.60970    1.000
    C150     C        0.37585    0.75700    0.49734    1.000
    N52      N        0.35205    0.71090    0.52703    1.000
    N53      N        0.34674    0.76860    0.44014    1.000
    C151     C        0.29386    0.67260    0.49439    1.000
    C152     C        0.29020    0.72650    0.41226    1.000
    C153     C        0.26371    0.62220    0.52497    1.000
    N54      N        0.26150    0.67723    0.43670    1.000
    C154     C        0.25708    0.73670    0.34816    1.000
    C155     C        0.20146    0.58410    0.49463    1.000
    C156     C        0.29532    0.61120    0.58448    1.000
    C157     C        0.28473    0.78820    0.32140    1.000
    C158     C        0.19855    0.69450    0.31454    1.000
    H101     H        0.17920    0.58790    0.45470    1.000
    C159     C        0.17399    0.54080    0.52563    1.000
    C160     C        0.26424    0.56680    0.61150    1.000
    H102     H        0.33740    0.63390    0.60590    1.000
    H103     H        0.32270    0.81890    0.34310    1.000
    C161     C        0.25506    0.79320    0.26213    1.000
    C162     C        0.17320    0.70290    0.25525    1.000
    H104     H        0.17720    0.66180    0.33120    1.000
    H105     H        0.13210    0.51690    0.50530    1.000
    H106     H        0.28590    0.56120    0.65140    1.000
    H107     H        0.27370    0.82860    0.24460    1.000
    N55      N        0.20078    0.74970    0.22838    1.000
    H108     H        0.13440    0.67410    0.23260    1.000
    Ag10     Ag       0.17708    0.74984    0.13251    1.000
    N56      N        0.08722    0.84030    0.09218    1.000
    N57      N        0.72019    0.18542    0.07823    1.000
    C163     C        0.05707    0.84230    0.03420    1.000
    C164     C        0.05701    0.88100    0.12028    1.000
    C165     C        0.99771    0.88280    0.00323    1.000
    H109     H        0.07740    0.81500    0.01410    1.000
    C166     C        0.99811    0.92490    0.09240    1.000
    H110     H        0.07670    0.87960    0.16040    1.000
    H111     H        0.97810    0.88200    0.96310    1.000
    C167     C        0.96750    0.92480    0.03275    1.000
    H112     H        0.97960    0.95380    0.11330    1.000
    C168     C        0.90281    0.96920    0.99859    1.000
    N58      N        0.87398    0.00960    0.02675    1.000
    N59      N        0.87834    0.96224    0.94070    1.000
    C169     C        0.81803    0.05070    0.99276    1.000
    C170     C        0.82054    0.00210    0.91135    1.000
    C171     C        0.78494    0.10000    0.02196    1.000
    N60      N        0.78929    0.04910    0.93521    1.000
    C172     C        0.78902    0.99270    0.84776    1.000
    C173     C        0.72234    0.13740    0.99050    1.000
    C174     C        0.81387    0.10810    0.08141    1.000
    C175     C        0.82237    0.95710    0.81838    1.000
    C176     C        0.72279    0.01820    0.81608    1.000
    H113     H        0.70150    0.13470    0.95050    1.000
    C177     C        0.69245    0.17830    0.02049    1.000
    C178     C        0.78058    0.15040    0.10733    1.000
    H114     H        0.85560    0.08510    0.10360    1.000
    H115     H        0.86640    0.93940    0.83830    1.000
    C179     C        0.78949    0.94840    0.75935    1.000
    C180     C        0.69417    0.00680    0.75712    1.000
    H116     H        0.69870    0.04210    0.83420    1.000
    H117     H        0.65080    0.20230    0.99950    1.000
    H118     H        0.80090    0.15500    0.14730    1.000
    H119     H        0.81240    0.92450    0.74020    1.000
    H120     H        0.65000    0.02390    0.73620    1.000
    Ag11     Ag       0.15630    0.45764    0.63217    1.000
    N61      N        0.06086    0.38500    0.58802    1.000
    N62      N        0.70372    0.03092    0.58285    1.000
    N63      N        0.22542    0.47300    0.72803    1.000
    C181     C        0.03341    0.37630    0.53017    1.000
    C182     C        0.02664    0.35450    0.61549    1.000
    C183     C        0.97374    0.33600    0.49983    1.000
    H121     H        0.05580    0.39840    0.50990    1.000
    C184     C        0.96691    0.31160    0.58857    1.000
    H122     H        0.04380    0.36240    0.65510    1.000
    C185     C        0.94005    0.30220    0.52942    1.000
    H123     H        0.95620    0.33150    0.45990    1.000
    H124     H        0.94550    0.28980    0.60970    1.000
    C186     C        0.87585    0.25700    0.49734    1.000
    N64      N        0.85205    0.21090    0.52703    1.000
    N65      N        0.84674    0.26860    0.44014    1.000
    C187     C        0.79386    0.17260    0.49439    1.000
    C188     C        0.79020    0.22650    0.41226    1.000
    C189     C        0.76371    0.12220    0.52497    1.000
    N66      N        0.76150    0.17723    0.43670    1.000
    C190     C        0.75708    0.23670    0.34816    1.000
    C191     C        0.70146    0.08410    0.49463    1.000
    C192     C        0.79532    0.11120    0.58448    1.000
    C193     C        0.78473    0.28820    0.32140    1.000
    C194     C        0.69855    0.19450    0.31454    1.000
    H125     H        0.67920    0.08790    0.45470    1.000
    C195     C        0.67399    0.04080    0.52563    1.000
    C196     C        0.76424    0.06680    0.61150    1.000
    H126     H        0.83740    0.13390    0.60590    1.000
    H127     H        0.82270    0.31890    0.34310    1.000
    C197     C        0.75506    0.29320    0.26213    1.000
    C198     C        0.67320    0.20290    0.25525    1.000
    H128     H        0.67720    0.16180    0.33120    1.000
    H129     H        0.63210    0.01690    0.50530    1.000
    H130     H        0.78590    0.06120    0.65140    1.000
    H131     H        0.77370    0.32860    0.24460    1.000
    N67      N        0.70078    0.24970    0.22838    1.000
    H132     H        0.63440    0.17410    0.23260    1.000
    Ag12     Ag       0.67708    0.24984    0.13251    1.000
    N68      N        0.58722    0.34030    0.09218    1.000
    N69      N        0.22019    0.68542    0.07823    1.000
    C199     C        0.55707    0.34230    0.03420    1.000
    C200     C        0.55701    0.38100    0.12028    1.000
    C201     C        0.49771    0.38280    0.00323    1.000
    H133     H        0.57740    0.31500    0.01410    1.000
    C202     C        0.49811    0.42490    0.09240    1.000
    H134     H        0.57670    0.37960    0.16040    1.000
    H135     H        0.47810    0.38200    0.96310    1.000
    C203     C        0.46750    0.42480    0.03275    1.000
    H136     H        0.47960    0.45380    0.11330    1.000
    C204     C        0.40281    0.46920    0.99859    1.000
    N70      N        0.37398    0.50960    0.02675    1.000
    N71      N        0.37834    0.46224    0.94070    1.000
    C205     C        0.31803    0.55070    0.99276    1.000
    C206     C        0.32054    0.50210    0.91135    1.000
    C207     C        0.28494    0.60000    0.02196    1.000
    N72      N        0.28929    0.54910    0.93521    1.000
    C208     C        0.28902    0.49270    0.84776    1.000
    C209     C        0.22234    0.63740    0.99050    1.000
    C210     C        0.31387    0.60810    0.08141    1.000
    C211     C        0.32237    0.45710    0.81838    1.000
    C212     C        0.22279    0.51820    0.81608    1.000
    H137     H        0.20150    0.63470    0.95050    1.000
    C213     C        0.19245    0.67830    0.02049    1.000
    C214     C        0.28058    0.65040    0.10733    1.000
    H138     H        0.35560    0.58510    0.10360    1.000
    H139     H        0.36640    0.43940    0.83830    1.000
    C215     C        0.28949    0.44840    0.75935    1.000
    C216     C        0.19417    0.50680    0.75712    1.000
    H140     H        0.19870    0.54210    0.83420    1.000
    H141     H        0.15080    0.70230    0.99950    1.000
    H142     H        0.30090    0.65500    0.14730    1.000
    H143     H        0.31240    0.42450    0.74020    1.000
    H144     H        0.15000    0.52390    0.73620    1.000
    Ag13     Ag       0.34370    0.95764    0.86783    1.000
    N73      N        0.43914    0.88500    0.91198    1.000
    N74      N        0.79628    0.53092    0.91715    1.000
    N75      N        0.27458    0.97300    0.77197    1.000
    C217     C        0.46659    0.87630    0.96983    1.000
    C218     C        0.47336    0.85450    0.88451    1.000
    C219     C        0.52626    0.83600    0.00017    1.000
    H145     H        0.44420    0.89840    0.99010    1.000
    C220     C        0.53309    0.81160    0.91143    1.000
    H146     H        0.45620    0.86240    0.84490    1.000
    C221     C        0.55995    0.80220    0.97058    1.000
    H147     H        0.54380    0.83150    0.04010    1.000
    H148     H        0.55450    0.78980    0.89030    1.000
    C222     C        0.62415    0.75700    0.00266    1.000
    N76      N        0.64795    0.71090    0.97297    1.000
    N77      N        0.65326    0.76860    0.05986    1.000
    C223     C        0.70614    0.67260    0.00561    1.000
    C224     C        0.70980    0.72650    0.08774    1.000
    C225     C        0.73629    0.62220    0.97503    1.000
    N78      N        0.73850    0.67723    0.06330    1.000
    C226     C        0.74292    0.73670    0.15184    1.000
    C227     C        0.79854    0.58410    0.00537    1.000
    C228     C        0.70468    0.61120    0.91552    1.000
    C229     C        0.71527    0.78820    0.17860    1.000
    C230     C        0.80145    0.69450    0.18546    1.000
    H149     H        0.82080    0.58790    0.04530    1.000
    C231     C        0.82601    0.54080    0.97437    1.000
    C232     C        0.73576    0.56680    0.88850    1.000
    H150     H        0.66260    0.63390    0.89410    1.000
    H151     H        0.67730    0.81890    0.15690    1.000
    C233     C        0.74494    0.79320    0.23787    1.000
    C234     C        0.82680    0.70290    0.24475    1.000
    H152     H        0.82280    0.66180    0.16880    1.000
    H153     H        0.86790    0.51690    0.99470    1.000
    H154     H        0.71410    0.56120    0.84860    1.000
    H155     H        0.72630    0.82860    0.25540    1.000
    N79      N        0.79922    0.74970    0.27162    1.000
    H156     H        0.86560    0.67410    0.26740    1.000
    Ag14     Ag       0.82292    0.74984    0.36749    1.000
    N80      N        0.91278    0.84030    0.40782    1.000
    N81      N        0.27981    0.18542    0.42177    1.000
    C235     C        0.94293    0.84230    0.46580    1.000
    C236     C        0.94299    0.88100    0.37972    1.000
    C237     C        0.00229    0.88280    0.49677    1.000
    H157     H        0.92260    0.81500    0.48590    1.000
    C238     C        0.00189    0.92490    0.40760    1.000
    H158     H        0.92330    0.87960    0.33960    1.000
    H159     H        0.02190    0.88200    0.53690    1.000
    C239     C        0.03250    0.92480    0.46725    1.000
    H160     H        0.02040    0.95380    0.38670    1.000
    C240     C        0.09719    0.96920    0.50141    1.000
    N82      N        0.12602    0.00960    0.47325    1.000
    N83      N        0.12166    0.96224    0.55930    1.000
    C241     C        0.18197    0.05070    0.50724    1.000
    C242     C        0.17946    0.00210    0.58865    1.000
    C243     C        0.21506    0.10000    0.47804    1.000
    N84      N        0.21071    0.04910    0.56479    1.000
    C244     C        0.21098    0.99270    0.65224    1.000
    C245     C        0.27766    0.13740    0.50950    1.000
    C246     C        0.18613    0.10810    0.41859    1.000
    C247     C        0.17763    0.95710    0.68162    1.000
    C248     C        0.27721    0.01820    0.68392    1.000
    H161     H        0.29850    0.13470    0.54950    1.000
    C249     C        0.30755    0.17830    0.47951    1.000
    C250     C        0.21942    0.15040    0.39267    1.000
    H162     H        0.14440    0.08510    0.39640    1.000
    H163     H        0.13360    0.93940    0.66170    1.000
    C251     C        0.21051    0.94840    0.74065    1.000
    C252     C        0.30583    0.00680    0.74288    1.000
    H164     H        0.30130    0.04210    0.66580    1.000
    H165     H        0.34920    0.20230    0.50050    1.000
    H166     H        0.19910    0.15500    0.35270    1.000
    H167     H        0.18760    0.92450    0.75980    1.000
    H168     H        0.35000    0.02390    0.76380    1.000
    Ag15     Ag       0.84370    0.45764    0.86783    1.000
    N85      N        0.93914    0.38500    0.91198    1.000
    N86      N        0.29628    0.03092    0.91715    1.000
    N87      N        0.77458    0.47300    0.77197    1.000
    C253     C        0.96659    0.37630    0.96983    1.000
    C254     C        0.97336    0.35450    0.88451    1.000
    C255     C        0.02626    0.33600    0.00017    1.000
    H169     H        0.94420    0.39840    0.99010    1.000
    C256     C        0.03309    0.31160    0.91143    1.000
    H170     H        0.95620    0.36240    0.84490    1.000
    C257     C        0.05995    0.30220    0.97058    1.000
    H171     H        0.04380    0.33150    0.04010    1.000
    H172     H        0.05450    0.28980    0.89030    1.000
    C258     C        0.12415    0.25700    0.00266    1.000
    N88      N        0.14795    0.21090    0.97297    1.000
    N89      N        0.15326    0.26860    0.05986    1.000
    C259     C        0.20614    0.17260    0.00561    1.000
    C260     C        0.20980    0.22650    0.08774    1.000
    C261     C        0.23629    0.12220    0.97503    1.000
    N90      N        0.23850    0.17723    0.06330    1.000
    C262     C        0.24292    0.23670    0.15184    1.000
    C263     C        0.29854    0.08410    0.00537    1.000
    C264     C        0.20468    0.11120    0.91552    1.000
    C265     C        0.21527    0.28820    0.17860    1.000
    C266     C        0.30145    0.19450    0.18546    1.000
    H173     H        0.32080    0.08790    0.04530    1.000
    C267     C        0.32601    0.04080    0.97437    1.000
    C268     C        0.23576    0.06680    0.88850    1.000
    H174     H        0.16260    0.13390    0.89410    1.000
    H175     H        0.17730    0.31890    0.15690    1.000
    C269     C        0.24494    0.29320    0.23787    1.000
    C270     C        0.32680    0.20290    0.24475    1.000
    H176     H        0.32280    0.16180    0.16880    1.000
    H177     H        0.36790    0.01690    0.99470    1.000
    H178     H        0.21410    0.06120    0.84860    1.000
    H179     H        0.22630    0.32860    0.25540    1.000
    N91      N        0.29922    0.24970    0.27162    1.000
    H180     H        0.36560    0.17410    0.26740    1.000
    Ag16     Ag       0.32292    0.24984    0.36749    1.000
    N92      N        0.41278    0.34030    0.40782    1.000
    N93      N        0.77981    0.68542    0.42177    1.000
    C271     C        0.44293    0.34230    0.46580    1.000
    C272     C        0.44299    0.38100    0.37972    1.000
    C273     C        0.50229    0.38280    0.49677    1.000
    H181     H        0.42260    0.31500    0.48590    1.000
    C274     C        0.50189    0.42490    0.40760    1.000
    H182     H        0.42330    0.37960    0.33960    1.000
    H183     H        0.52190    0.38200    0.53690    1.000
    C275     C        0.53250    0.42480    0.46725    1.000
    H184     H        0.52040    0.45380    0.38670    1.000
    C276     C        0.59719    0.46920    0.50141    1.000
    N94      N        0.62602    0.50960    0.47325    1.000
    N95      N        0.62166    0.46224    0.55930    1.000
    C277     C        0.68197    0.55070    0.50724    1.000
    C278     C        0.67946    0.50210    0.58865    1.000
    C279     C        0.71506    0.60000    0.47804    1.000
    N96      N        0.71071    0.54910    0.56479    1.000
    C280     C        0.71098    0.49270    0.65224    1.000
    C281     C        0.77766    0.63740    0.50950    1.000
    C282     C        0.68613    0.60810    0.41859    1.000
    C283     C        0.67763    0.45710    0.68162    1.000
    C284     C        0.77721    0.51820    0.68392    1.000
    H185     H        0.79850    0.63470    0.54950    1.000
    C285     C        0.80755    0.67830    0.47951    1.000
    C286     C        0.71942    0.65040    0.39267    1.000
    H186     H        0.64440    0.58510    0.39640    1.000
    H187     H        0.63360    0.43940    0.66170    1.000
    C287     C        0.71051    0.44840    0.74065    1.000
    C288     C        0.80583    0.50680    0.74288    1.000
    H188     H        0.80130    0.54210    0.66580    1.000
    H189     H        0.84920    0.70230    0.50050    1.000
    H190     H        0.69910    0.65500    0.35270    1.000
    H191     H        0.68760    0.42450    0.75980    1.000
    H192     H        0.85000    0.52390    0.76380    1.000
