# CIF file generated by openbabel 3.1.0, see https://openbabel.org
data_I
_chemical_name_common 'image0'
_cell_length_a 32.8077
_cell_length_b 35.0306
_cell_length_c 5.7321
_cell_angle_alpha 90
_cell_angle_beta 90
_cell_angle_gamma 90
_space_group_name_H-M_alt 'P 1'
_space_group_name_Hall 'P 1'
loop_
    _symmetry_equiv_pos_as_xyz
    x,y,z
loop_
    _atom_site_label
    _atom_site_type_symbol
    _atom_site_fract_x
    _atom_site_fract_y
    _atom_site_fract_z
    _atom_site_occupancy
    O1       O        0.80720    0.70340    0.73700    1.000
    O2       O        0.76330    0.70380    0.45800    1.000
    O3       O        0.64770    0.30000    0.79200    1.000
    C1       C        0.77700    0.68880    0.64000    1.000
    C2       C        0.75870    0.65350    0.74000    1.000
    C3       C        0.72640    0.63600    0.62800    1.000
    C4       C        0.77240    0.63970    0.94350    1.000
    C5       C        0.70850    0.60420    0.72800    1.000
    H1       H        0.71690    0.64560    0.48670    1.000
    C6       C        0.75450    0.60620    0.03920    1.000
    H2       H        0.79350    0.65190    0.02170    1.000
    C7       C        0.72240    0.58870    0.92400    1.000
    H3       H        0.68590    0.59330    0.65500    1.000
    H4       H        0.76420    0.59610    0.17850    1.000
    C8       C        0.70450    0.55310    0.03100    1.000
    C9       C        0.66340    0.54000    0.93500    1.000
    H5       H        0.70160    0.55740    0.19730    1.000
    H6       H        0.72390    0.53250    0.01050    1.000
    C10      C        0.66200    0.51490    0.75000    1.000
    C11      C        0.62800    0.55350    0.04200    1.000
    C12      C        0.70150    0.50110    0.64200    1.000
    C13      C        0.62400    0.50090    0.66900    1.000
    C14      C        0.59040    0.53810    0.96900    1.000
    C15      C        0.62950    0.58270    0.23500    1.000
    H7       H        0.72120    0.52140    0.64480    1.000
    H8       H        0.69670    0.49340    0.48400    1.000
    H9       H        0.71170    0.47980    0.73000    1.000
    C16      C        0.58820    0.51300    0.78400    1.000
    C17      C        0.62090    0.47470    0.46300    1.000
    C18      C        0.55310    0.55020    0.11100    1.000
    H10      H        0.65730    0.59010    0.26230    1.000
    H11      H        0.61840    0.57190    0.37500    1.000
    H12      H        0.61390    0.60470    0.19110    1.000
    C19      C        0.54690    0.49680    0.71600    1.000
    C20      C        0.61920    0.43210    0.52800    1.000
    H13      H        0.64410    0.47900    0.36200    1.000
    H14      H        0.59650    0.48120    0.37540    1.000
    H15      H        0.53310    0.52980    0.10350    1.000
    H16      H        0.56130    0.55290    0.27270    1.000
    C21      C        0.53300    0.58680    0.03470    1.000
    H17      H        0.54150    0.47420    0.80510    1.000
    H18      H        0.54700    0.49060    0.55260    1.000
    H19      H        0.52610    0.51550    0.74590    1.000
    C22      C        0.63630    0.41760    0.72500    1.000
    C23      C        0.60070    0.40670    0.37000    1.000
    C24      C        0.54350    0.60560    0.82980    1.000
    C25      C        0.50390    0.60240    0.18300    1.000
    H20      H        0.64790    0.43420    0.83220    1.000
    C26      C        0.63670    0.37880    0.77000    1.000
    C27      C        0.60140    0.36790    0.41700    1.000
    H21      H        0.58820    0.41590    0.23570    1.000
    H22      H        0.56290    0.59510    0.73060    1.000
    C28      C        0.52490    0.64000    0.77300    1.000
    C29      C        0.48530    0.63690    0.12600    1.000
    H23      H        0.49680    0.58990    0.31990    1.000
    C30      C        0.61960    0.35370    0.61600    1.000
    H24      H        0.64880    0.36970    0.90540    1.000
    H25      H        0.58940    0.35110    0.31200    1.000
    H26      H        0.53200    0.65260    0.63600    1.000
    C31      C        0.49590    0.65570    0.92100    1.000
    H27      H        0.46590    0.64730    0.22530    1.000
    C32      C        0.61930    0.31140    0.65960    1.000
    C33      C        0.47610    0.69280    0.87280    1.000
    O4       O        0.59440    0.29100    0.56700    1.000
    O5       O        0.48260    0.70790    0.65080    1.000
    O6       O        0.45300    0.70830    0.01230    1.000
    H28      H        0.90010    0.74410    0.72100    1.000
    H29      H        0.87490    0.77380    0.62860    1.000
    O7       O        0.69280    0.29660    0.23700    1.000
    O8       O        0.73670    0.29620    0.95800    1.000
    O9       O        0.85230    0.70000    0.29200    1.000
    C34      C        0.72300    0.31120    0.14000    1.000
    C35      C        0.74130    0.34650    0.24000    1.000
    C36      C        0.77360    0.36400    0.12800    1.000
    C37      C        0.72760    0.36030    0.44350    1.000
    C38      C        0.79150    0.39580    0.22800    1.000
    H30      H        0.78310    0.35440    0.98670    1.000
    C39      C        0.74550    0.39380    0.53920    1.000
    H31      H        0.70650    0.34810    0.52170    1.000
    C40      C        0.77760    0.41130    0.42400    1.000
    H32      H        0.81410    0.40670    0.15500    1.000
    H33      H        0.73580    0.40390    0.67850    1.000
    C41      C        0.79550    0.44690    0.53100    1.000
    C42      C        0.83660    0.46000    0.43500    1.000
    H34      H        0.79840    0.44260    0.69730    1.000
    H35      H        0.77610    0.46750    0.51050    1.000
    C43      C        0.83800    0.48510    0.25000    1.000
    C44      C        0.87200    0.44650    0.54200    1.000
    C45      C        0.79850    0.49890    0.14200    1.000
    C46      C        0.87600    0.49910    0.16900    1.000
    C47      C        0.90960    0.46190    0.46900    1.000
    C48      C        0.87050    0.41730    0.73500    1.000
    H36      H        0.77880    0.47860    0.14480    1.000
    H37      H        0.80330    0.50660    0.98400    1.000
    H38      H        0.78830    0.52020    0.23000    1.000
    C49      C        0.91180    0.48700    0.28400    1.000
    C50      C        0.87910    0.52530    0.96300    1.000
    C51      C        0.94690    0.44980    0.61100    1.000
    H39      H        0.84270    0.40990    0.76230    1.000
    H40      H        0.88160    0.42810    0.87500    1.000
    H41      H        0.88610    0.39530    0.69110    1.000
    C52      C        0.95310    0.50320    0.21600    1.000
    C53      C        0.88080    0.56790    0.02800    1.000
    H42      H        0.85590    0.52100    0.86200    1.000
    H43      H        0.90350    0.51880    0.87540    1.000
    H44      H        0.96690    0.47020    0.60350    1.000
    H45      H        0.93870    0.44710    0.77270    1.000
    C54      C        0.96700    0.41320    0.53470    1.000
    H46      H        0.95850    0.52580    0.30510    1.000
    H47      H        0.95300    0.50940    0.05260    1.000
    H48      H        0.97390    0.48450    0.24590    1.000
    C55      C        0.86370    0.58240    0.22500    1.000
    C56      C        0.89930    0.59330    0.87000    1.000
    C57      C        0.95650    0.39440    0.32980    1.000
    C58      C        0.99610    0.39760    0.68300    1.000
    H49      H        0.85210    0.56580    0.33220    1.000
    C59      C        0.86330    0.62120    0.27000    1.000
    C60      C        0.89860    0.63210    0.91700    1.000
    H50      H        0.91180    0.58410    0.73570    1.000
    H51      H        0.93710    0.40490    0.23060    1.000
    C61      C        0.97510    0.36000    0.27300    1.000
    C62      C        0.01470    0.36310    0.62600    1.000
    H52      H        0.00320    0.41010    0.81990    1.000
    C63      C        0.88040    0.64630    0.11600    1.000
    H53      H        0.85120    0.63030    0.40540    1.000
    H54      H        0.91060    0.64890    0.81200    1.000
    H55      H        0.96800    0.34740    0.13600    1.000
    C64      C        0.00410    0.34430    0.42100    1.000
    H56      H        0.03410    0.35270    0.72530    1.000
    C65      C        0.88070    0.68860    0.15960    1.000
    C66      C        0.02390    0.30720    0.37280    1.000
    O10      O        0.90560    0.70900    0.06700    1.000
    O11      O        0.01740    0.29210    0.15080    1.000
    O12      O        0.04700    0.29170    0.51230    1.000
    H57      H        0.59990    0.25590    0.22100    1.000
    H58      H        0.62510    0.22620    0.12860    1.000
    O13      O        0.19280    0.20340    0.26300    1.000
    O14      O        0.23670    0.20380    0.54200    1.000
    O15      O        0.35230    0.80000    0.20800    1.000
    C67      C        0.22300    0.18880    0.36000    1.000
    C68      C        0.24130    0.15350    0.26000    1.000
    C69      C        0.27360    0.13600    0.37200    1.000
    C70      C        0.22760    0.13970    0.05650    1.000
    C71      C        0.29150    0.10420    0.27200    1.000
    H59      H        0.28310    0.14560    0.51330    1.000
    C72      C        0.24550    0.10620    0.96080    1.000
    H60      H        0.20650    0.15190    0.97830    1.000
    C73      C        0.27760    0.08870    0.07600    1.000
    H61      H        0.31410    0.09330    0.34500    1.000
    H62      H        0.23580    0.09610    0.82150    1.000
    C74      C        0.29550    0.05310    0.96900    1.000
    C75      C        0.33660    0.04000    0.06500    1.000
    H63      H        0.29840    0.05740    0.80270    1.000
    H64      H        0.27610    0.03250    0.98950    1.000
    C76      C        0.33800    0.01490    0.25000    1.000
    C77      C        0.37200    0.05350    0.95800    1.000
    C78      C        0.29850    0.00110    0.35800    1.000
    C79      C        0.37600    0.00090    0.33100    1.000
    C80      C        0.40960    0.03810    0.03100    1.000
    C81      C        0.37050    0.08270    0.76500    1.000
    H65      H        0.27880    0.02140    0.35520    1.000
    H66      H        0.30330    0.99340    0.51600    1.000
    H67      H        0.28830    0.97980    0.27000    1.000
    C82      C        0.41180    0.01300    0.21600    1.000
    C83      C        0.37910    0.97470    0.53700    1.000
    C84      C        0.44690    0.05020    0.88900    1.000
    H68      H        0.34270    0.09010    0.73770    1.000
    H69      H        0.38160    0.07190    0.62500    1.000
    H70      H        0.38610    0.10470    0.80890    1.000
    C85      C        0.45310    0.99680    0.28400    1.000
    C86      C        0.38080    0.93210    0.47200    1.000
    H71      H        0.35590    0.97900    0.63800    1.000
    H72      H        0.40350    0.98120    0.62460    1.000
    H73      H        0.46690    0.02980    0.89650    1.000
    H74      H        0.43870    0.05290    0.72730    1.000
    C87      C        0.46700    0.08680    0.96530    1.000
    H75      H        0.45850    0.97420    0.19490    1.000
    H76      H        0.45300    0.99060    0.44740    1.000
    H77      H        0.47390    0.01550    0.25410    1.000
    C88      C        0.36370    0.91760    0.27500    1.000
    C89      C        0.39930    0.90670    0.63000    1.000
    C90      C        0.45650    0.10560    0.17020    1.000
    C91      C        0.49610    0.10240    0.81700    1.000
    H78      H        0.35210    0.93420    0.16780    1.000
    C92      C        0.36330    0.87880    0.23000    1.000
    C93      C        0.39860    0.86790    0.58300    1.000
    H79      H        0.41180    0.91590    0.76430    1.000
    H80      H        0.43710    0.09510    0.26940    1.000
    C94      C        0.47510    0.14000    0.22700    1.000
    C95      C        0.51470    0.13690    0.87400    1.000
    H81      H        0.50320    0.08990    0.68010    1.000
    C96      C        0.38040    0.85370    0.38400    1.000
    H82      H        0.35120    0.86970    0.09460    1.000
    H83      H        0.41060    0.85110    0.68800    1.000
    H84      H        0.46800    0.15260    0.36400    1.000
    C97      C        0.50410    0.15570    0.07900    1.000
    H85      H        0.53410    0.14730    0.77470    1.000
    C98      C        0.38070    0.81140    0.34040    1.000
    C99      C        0.52390    0.19280    0.12720    1.000
    O16      O        0.40560    0.79100    0.43300    1.000
    O17      O        0.51740    0.20790    0.34920    1.000
    O18      O        0.54700    0.20830    0.98770    1.000
    H86      H        0.09990    0.24410    0.27900    1.000
    H87      H        0.12510    0.27380    0.37140    1.000
    O19      O        0.30720    0.79660    0.76300    1.000
    O20      O        0.26330    0.79620    0.04200    1.000
    O21      O        0.14770    0.20000    0.70800    1.000
    C100     C        0.27700    0.81120    0.86000    1.000
    C101     C        0.25870    0.84650    0.76000    1.000
    C102     C        0.22640    0.86400    0.87200    1.000
    C103     C        0.27240    0.86030    0.55650    1.000
    C104     C        0.20850    0.89580    0.77200    1.000
    H88      H        0.21690    0.85440    0.01330    1.000
    C105     C        0.25450    0.89380    0.46080    1.000
    H89      H        0.29350    0.84810    0.47830    1.000
    C106     C        0.22240    0.91130    0.57600    1.000
    H90      H        0.18590    0.90670    0.84500    1.000
    H91      H        0.26420    0.90390    0.32150    1.000
    C107     C        0.20450    0.94690    0.46900    1.000
    C108     C        0.16340    0.96000    0.56500    1.000
    H92      H        0.20160    0.94260    0.30270    1.000
    H93      H        0.22390    0.96750    0.48950    1.000
    C109     C        0.16200    0.98510    0.75000    1.000
    C110     C        0.12800    0.94650    0.45800    1.000
    C111     C        0.20150    0.99890    0.85800    1.000
    C112     C        0.12400    0.99910    0.83100    1.000
    C113     C        0.09040    0.96190    0.53100    1.000
    C114     C        0.12950    0.91730    0.26500    1.000
    H94      H        0.22120    0.97860    0.85520    1.000
    H95      H        0.19670    0.00660    0.01600    1.000
    H96      H        0.21170    0.02020    0.77000    1.000
    C115     C        0.08820    0.98700    0.71600    1.000
    C116     C        0.12090    0.02530    0.03700    1.000
    C117     C        0.05310    0.94980    0.38900    1.000
    H97      H        0.15730    0.90990    0.23770    1.000
    H98      H        0.11840    0.92810    0.12500    1.000
    H99      H        0.11390    0.89530    0.30890    1.000
    C118     C        0.04690    0.00320    0.78400    1.000
    C119     C        0.11920    0.06790    0.97200    1.000
    H100     H        0.14410    0.02100    0.13800    1.000
    H101     H        0.09650    0.01880    0.12460    1.000
    H102     H        0.03310    0.97020    0.39650    1.000
    H103     H        0.06130    0.94710    0.22730    1.000
    C120     C        0.03300    0.91320    0.46530    1.000
    H104     H        0.04150    0.02580    0.69490    1.000
    H105     H        0.04700    0.00940    0.94740    1.000
    H106     H        0.02610    0.98450    0.75410    1.000
    C121     C        0.13630    0.08240    0.77500    1.000
    C122     C        0.10070    0.09330    0.13000    1.000
    C123     C        0.04350    0.89440    0.67020    1.000
    C124     C        0.00390    0.89760    0.31700    1.000
    H107     H        0.14790    0.06580    0.66780    1.000
    C125     C        0.13670    0.12120    0.73000    1.000
    C126     C        0.10140    0.13210    0.08300    1.000
    H108     H        0.08820    0.08410    0.26430    1.000
    H109     H        0.06290    0.90490    0.76940    1.000
    C127     C        0.02490    0.86000    0.72700    1.000
    C128     C        0.98530    0.86310    0.37400    1.000
    H110     H        0.99680    0.91010    0.18010    1.000
    C129     C        0.11960    0.14630    0.88400    1.000
    H111     H        0.14880    0.13030    0.59460    1.000
    H112     H        0.08940    0.14890    0.18800    1.000
    H113     H        0.03200    0.84740    0.86400    1.000
    C130     C        0.99590    0.84430    0.57900    1.000
    H114     H        0.96590    0.85270    0.27470    1.000
    C131     C        0.11930    0.18860    0.84040    1.000
    C132     C        0.97610    0.80720    0.62720    1.000
    O22      O        0.09440    0.20900    0.93300    1.000
    O23      O        0.98260    0.79210    0.84920    1.000
    O24      O        0.95300    0.79170    0.48770    1.000
    H115     H        0.40010    0.75590    0.77900    1.000
    H116     H        0.37490    0.72620    0.87140    1.000
    O25      O        0.19280    0.29660    0.26300    1.000
    O26      O        0.23670    0.29620    0.54200    1.000
    O27      O        0.35230    0.70000    0.20800    1.000
    C133     C        0.22300    0.31120    0.36000    1.000
    C134     C        0.24130    0.34650    0.26000    1.000
    C135     C        0.27360    0.36400    0.37200    1.000
    C136     C        0.22760    0.36030    0.05650    1.000
    C137     C        0.29150    0.39580    0.27200    1.000
    H117     H        0.28310    0.35440    0.51330    1.000
    C138     C        0.24550    0.39380    0.96080    1.000
    H118     H        0.20650    0.34810    0.97830    1.000
    C139     C        0.27760    0.41130    0.07600    1.000
    H119     H        0.31410    0.40670    0.34500    1.000
    H120     H        0.23580    0.40390    0.82150    1.000
    C140     C        0.29550    0.44690    0.96900    1.000
    C141     C        0.33660    0.46000    0.06500    1.000
    H121     H        0.29840    0.44260    0.80270    1.000
    H122     H        0.27610    0.46750    0.98950    1.000
    C142     C        0.33800    0.48510    0.25000    1.000
    C143     C        0.37200    0.44650    0.95800    1.000
    C144     C        0.29850    0.49890    0.35800    1.000
    C145     C        0.37600    0.49910    0.33100    1.000
    C146     C        0.40960    0.46190    0.03100    1.000
    C147     C        0.37050    0.41730    0.76500    1.000
    H123     H        0.27880    0.47860    0.35520    1.000
    H124     H        0.30330    0.50660    0.51600    1.000
    H125     H        0.28830    0.52020    0.27000    1.000
    C148     C        0.41180    0.48700    0.21600    1.000
    C149     C        0.37910    0.52530    0.53700    1.000
    C150     C        0.44690    0.44980    0.88900    1.000
    H126     H        0.34270    0.40990    0.73770    1.000
    H127     H        0.38160    0.42810    0.62500    1.000
    H128     H        0.38610    0.39530    0.80890    1.000
    C151     C        0.45310    0.50320    0.28400    1.000
    C152     C        0.38080    0.56790    0.47200    1.000
    H129     H        0.35590    0.52100    0.63800    1.000
    H130     H        0.40350    0.51880    0.62460    1.000
    H131     H        0.46690    0.47020    0.89650    1.000
    H132     H        0.43870    0.44710    0.72730    1.000
    C153     C        0.46700    0.41320    0.96530    1.000
    H133     H        0.45850    0.52580    0.19490    1.000
    H134     H        0.45300    0.50940    0.44740    1.000
    H135     H        0.47390    0.48450    0.25410    1.000
    C154     C        0.36370    0.58240    0.27500    1.000
    C155     C        0.39930    0.59330    0.63000    1.000
    C156     C        0.45650    0.39440    0.17020    1.000
    C157     C        0.49610    0.39760    0.81700    1.000
    H136     H        0.35210    0.56580    0.16780    1.000
    C158     C        0.36330    0.62120    0.23000    1.000
    C159     C        0.39860    0.63210    0.58300    1.000
    H137     H        0.41180    0.58410    0.76430    1.000
    H138     H        0.43710    0.40490    0.26940    1.000
    C160     C        0.47510    0.36000    0.22700    1.000
    C161     C        0.51470    0.36310    0.87400    1.000
    H139     H        0.50320    0.41010    0.68010    1.000
    C162     C        0.38040    0.64630    0.38400    1.000
    H140     H        0.35120    0.63030    0.09460    1.000
    H141     H        0.41060    0.64890    0.68800    1.000
    H142     H        0.46800    0.34740    0.36400    1.000
    C163     C        0.50410    0.34430    0.07900    1.000
    H143     H        0.53410    0.35270    0.77470    1.000
    C164     C        0.38070    0.68860    0.34040    1.000
    C165     C        0.52390    0.30720    0.12720    1.000
    O28      O        0.40560    0.70900    0.43300    1.000
    O29      O        0.51740    0.29210    0.34920    1.000
    O30      O        0.54700    0.29170    0.98770    1.000
    H144     H        0.09990    0.25590    0.27900    1.000
    H145     H        0.12510    0.22620    0.37140    1.000
    O31      O        0.30720    0.70340    0.76300    1.000
    O32      O        0.26330    0.70380    0.04200    1.000
    O33      O        0.14770    0.30000    0.70800    1.000
    C166     C        0.27700    0.68880    0.86000    1.000
    C167     C        0.25870    0.65350    0.76000    1.000
    C168     C        0.22640    0.63600    0.87200    1.000
    C169     C        0.27240    0.63970    0.55650    1.000
    C170     C        0.20850    0.60420    0.77200    1.000
    H146     H        0.21690    0.64560    0.01330    1.000
    C171     C        0.25450    0.60620    0.46080    1.000
    H147     H        0.29350    0.65190    0.47830    1.000
    C172     C        0.22240    0.58870    0.57600    1.000
    H148     H        0.18590    0.59330    0.84500    1.000
    H149     H        0.26420    0.59610    0.32150    1.000
    C173     C        0.20450    0.55310    0.46900    1.000
    C174     C        0.16340    0.54000    0.56500    1.000
    H150     H        0.20160    0.55740    0.30270    1.000
    H151     H        0.22390    0.53250    0.48950    1.000
    C175     C        0.16200    0.51490    0.75000    1.000
    C176     C        0.12800    0.55350    0.45800    1.000
    C177     C        0.20150    0.50110    0.85800    1.000
    C178     C        0.12400    0.50090    0.83100    1.000
    C179     C        0.09040    0.53810    0.53100    1.000
    C180     C        0.12950    0.58270    0.26500    1.000
    H152     H        0.22120    0.52140    0.85520    1.000
    H153     H        0.19670    0.49340    0.01600    1.000
    H154     H        0.21170    0.47980    0.77000    1.000
    C181     C        0.08820    0.51300    0.71600    1.000
    C182     C        0.12090    0.47470    0.03700    1.000
    C183     C        0.05310    0.55020    0.38900    1.000
    H155     H        0.15730    0.59010    0.23770    1.000
    H156     H        0.11840    0.57190    0.12500    1.000
    H157     H        0.11390    0.60470    0.30890    1.000
    C184     C        0.04690    0.49680    0.78400    1.000
    C185     C        0.11920    0.43210    0.97200    1.000
    H158     H        0.14410    0.47900    0.13800    1.000
    H159     H        0.09650    0.48120    0.12460    1.000
    H160     H        0.03310    0.52980    0.39650    1.000
    H161     H        0.06130    0.55290    0.22730    1.000
    C186     C        0.03300    0.58680    0.46530    1.000
    H162     H        0.04150    0.47420    0.69490    1.000
    H163     H        0.04700    0.49060    0.94740    1.000
    H164     H        0.02610    0.51550    0.75410    1.000
    C187     C        0.13630    0.41760    0.77500    1.000
    C188     C        0.10070    0.40670    0.13000    1.000
    C189     C        0.04350    0.60560    0.67020    1.000
    C190     C        0.00390    0.60240    0.31700    1.000
    H165     H        0.14790    0.43420    0.66780    1.000
    C191     C        0.13670    0.37880    0.73000    1.000
    C192     C        0.10140    0.36790    0.08300    1.000
    H166     H        0.08820    0.41590    0.26430    1.000
    H167     H        0.06290    0.59510    0.76940    1.000
    C193     C        0.02490    0.64000    0.72700    1.000
    C194     C        0.98530    0.63690    0.37400    1.000
    H168     H        0.99680    0.58990    0.18010    1.000
    C195     C        0.11960    0.35370    0.88400    1.000
    H169     H        0.14880    0.36970    0.59460    1.000
    H170     H        0.08940    0.35110    0.18800    1.000
    H171     H        0.03200    0.65260    0.86400    1.000
    C196     C        0.99590    0.65570    0.57900    1.000
    H172     H        0.96590    0.64730    0.27470    1.000
    C197     C        0.11930    0.31140    0.84040    1.000
    C198     C        0.97610    0.69280    0.62720    1.000
    O34      O        0.09440    0.29100    0.93300    1.000
    O35      O        0.98260    0.70790    0.84920    1.000
    O36      O        0.95300    0.70830    0.48770    1.000
    H173     H        0.40010    0.74410    0.77900    1.000
    H174     H        0.37490    0.77380    0.87140    1.000
    O37      O        0.80720    0.79660    0.73700    1.000
    O38      O        0.76330    0.79620    0.45800    1.000
    O39      O        0.64770    0.20000    0.79200    1.000
    C199     C        0.77700    0.81120    0.64000    1.000
    C200     C        0.75870    0.84650    0.74000    1.000
    C201     C        0.72640    0.86400    0.62800    1.000
    C202     C        0.77240    0.86030    0.94350    1.000
    C203     C        0.70850    0.89580    0.72800    1.000
    H175     H        0.71690    0.85440    0.48670    1.000
    C204     C        0.75450    0.89380    0.03920    1.000
    H176     H        0.79350    0.84810    0.02170    1.000
    C205     C        0.72240    0.91130    0.92400    1.000
    H177     H        0.68590    0.90670    0.65500    1.000
    H178     H        0.76420    0.90390    0.17850    1.000
    C206     C        0.70450    0.94690    0.03100    1.000
    C207     C        0.66340    0.96000    0.93500    1.000
    H179     H        0.70160    0.94260    0.19730    1.000
    H180     H        0.72390    0.96750    0.01050    1.000
    C208     C        0.66200    0.98510    0.75000    1.000
    C209     C        0.62800    0.94650    0.04200    1.000
    C210     C        0.70150    0.99890    0.64200    1.000
    C211     C        0.62400    0.99910    0.66900    1.000
    C212     C        0.59040    0.96190    0.96900    1.000
    C213     C        0.62950    0.91730    0.23500    1.000
    H181     H        0.72120    0.97860    0.64480    1.000
    H182     H        0.69670    0.00660    0.48400    1.000
    H183     H        0.71170    0.02020    0.73000    1.000
    C214     C        0.58820    0.98700    0.78400    1.000
    C215     C        0.62090    0.02530    0.46300    1.000
    C216     C        0.55310    0.94980    0.11100    1.000
    H184     H        0.65730    0.90990    0.26230    1.000
    H185     H        0.61840    0.92810    0.37500    1.000
    H186     H        0.61390    0.89530    0.19110    1.000
    C217     C        0.54690    0.00320    0.71600    1.000
    C218     C        0.61920    0.06790    0.52800    1.000
    H187     H        0.64410    0.02100    0.36200    1.000
    H188     H        0.59650    0.01880    0.37540    1.000
    H189     H        0.53310    0.97020    0.10350    1.000
    H190     H        0.56130    0.94710    0.27270    1.000
    C219     C        0.53300    0.91320    0.03470    1.000
    H191     H        0.54150    0.02580    0.80510    1.000
    H192     H        0.54700    0.00940    0.55260    1.000
    H193     H        0.52610    0.98450    0.74590    1.000
    C220     C        0.63630    0.08240    0.72500    1.000
    C221     C        0.60070    0.09330    0.37000    1.000
    C222     C        0.54350    0.89440    0.82980    1.000
    C223     C        0.50390    0.89760    0.18300    1.000
    H194     H        0.64790    0.06580    0.83220    1.000
    C224     C        0.63670    0.12120    0.77000    1.000
    C225     C        0.60140    0.13210    0.41700    1.000
    H195     H        0.58820    0.08410    0.23570    1.000
    H196     H        0.56290    0.90490    0.73060    1.000
    C226     C        0.52490    0.86000    0.77300    1.000
    C227     C        0.48530    0.86310    0.12600    1.000
    H197     H        0.49680    0.91010    0.31990    1.000
    C228     C        0.61960    0.14630    0.61600    1.000
    H198     H        0.64880    0.13030    0.90540    1.000
    H199     H        0.58940    0.14890    0.31200    1.000
    H200     H        0.53200    0.84740    0.63600    1.000
    C229     C        0.49590    0.84430    0.92100    1.000
    H201     H        0.46590    0.85270    0.22530    1.000
    C230     C        0.61930    0.18860    0.65960    1.000
    C231     C        0.47610    0.80720    0.87280    1.000
    O40      O        0.59440    0.20900    0.56700    1.000
    O41      O        0.48260    0.79210    0.65080    1.000
    O42      O        0.45300    0.79170    0.01230    1.000
    H202     H        0.90010    0.75590    0.72100    1.000
    H203     H        0.87490    0.72620    0.62860    1.000
    O43      O        0.69280    0.20340    0.23700    1.000
    O44      O        0.73670    0.20380    0.95800    1.000
    O45      O        0.85230    0.80000    0.29200    1.000
    C232     C        0.72300    0.18880    0.14000    1.000
    C233     C        0.74130    0.15350    0.24000    1.000
    C234     C        0.77360    0.13600    0.12800    1.000
    C235     C        0.72760    0.13970    0.44350    1.000
    C236     C        0.79150    0.10420    0.22800    1.000
    H204     H        0.78310    0.14560    0.98670    1.000
    C237     C        0.74550    0.10620    0.53920    1.000
    H205     H        0.70650    0.15190    0.52170    1.000
    C238     C        0.77760    0.08870    0.42400    1.000
    H206     H        0.81410    0.09330    0.15500    1.000
    H207     H        0.73580    0.09610    0.67850    1.000
    C239     C        0.79550    0.05310    0.53100    1.000
    C240     C        0.83660    0.04000    0.43500    1.000
    H208     H        0.79840    0.05740    0.69730    1.000
    H209     H        0.77610    0.03250    0.51050    1.000
    C241     C        0.83800    0.01490    0.25000    1.000
    C242     C        0.87200    0.05350    0.54200    1.000
    C243     C        0.79850    0.00110    0.14200    1.000
    C244     C        0.87600    0.00090    0.16900    1.000
    C245     C        0.90960    0.03810    0.46900    1.000
    C246     C        0.87050    0.08270    0.73500    1.000
    H210     H        0.77880    0.02140    0.14480    1.000
    H211     H        0.80330    0.99340    0.98400    1.000
    H212     H        0.78830    0.97980    0.23000    1.000
    C247     C        0.91180    0.01300    0.28400    1.000
    C248     C        0.87910    0.97470    0.96300    1.000
    C249     C        0.94690    0.05020    0.61100    1.000
    H213     H        0.84270    0.09010    0.76230    1.000
    H214     H        0.88160    0.07190    0.87500    1.000
    H215     H        0.88610    0.10470    0.69110    1.000
    C250     C        0.95310    0.99680    0.21600    1.000
    C251     C        0.88080    0.93210    0.02800    1.000
    H216     H        0.85590    0.97900    0.86200    1.000
    H217     H        0.90350    0.98120    0.87540    1.000
    H218     H        0.96690    0.02980    0.60350    1.000
    H219     H        0.93870    0.05290    0.77270    1.000
    C252     C        0.96700    0.08680    0.53470    1.000
    H220     H        0.95850    0.97420    0.30510    1.000
    H221     H        0.95300    0.99060    0.05260    1.000
    H222     H        0.97390    0.01550    0.24590    1.000
    C253     C        0.86370    0.91760    0.22500    1.000
    C254     C        0.89930    0.90670    0.87000    1.000
    C255     C        0.95650    0.10560    0.32980    1.000
    C256     C        0.99610    0.10240    0.68300    1.000
    H223     H        0.85210    0.93420    0.33220    1.000
    C257     C        0.86330    0.87880    0.27000    1.000
    C258     C        0.89860    0.86790    0.91700    1.000
    H224     H        0.91180    0.91590    0.73570    1.000
    H225     H        0.93710    0.09510    0.23060    1.000
    C259     C        0.97510    0.14000    0.27300    1.000
    C260     C        0.01470    0.13690    0.62600    1.000
    H226     H        0.00320    0.08990    0.81990    1.000
    C261     C        0.88040    0.85370    0.11600    1.000
    H227     H        0.85120    0.86970    0.40540    1.000
    H228     H        0.91060    0.85110    0.81200    1.000
    H229     H        0.96800    0.15260    0.13600    1.000
    C262     C        0.00410    0.15570    0.42100    1.000
    H230     H        0.03410    0.14730    0.72530    1.000
    C263     C        0.88070    0.81140    0.15960    1.000
    C264     C        0.02390    0.19280    0.37280    1.000
    O46      O        0.90560    0.79100    0.06700    1.000
    O47      O        0.01740    0.20790    0.15080    1.000
    O48      O        0.04700    0.20830    0.51230    1.000
    H231     H        0.59990    0.24410    0.22100    1.000
    H232     H        0.62510    0.27380    0.12860    1.000
    Eu1      Eu       0.81795    0.75000    0.44830    1.000
    O49      O        0.87840    0.75000    0.64900    1.000
    Eu2      Eu       0.68205    0.25000    0.94830    1.000
    O50      O        0.62160    0.25000    0.14900    1.000
    Eu3      Eu       0.18205    0.25000    0.55170    1.000
    O51      O        0.12160    0.25000    0.35100    1.000
    Eu4      Eu       0.31795    0.75000    0.05170    1.000
    O52      O        0.37840    0.75000    0.85100    1.000
    Eu5      Eu       0.54366    0.25000    0.62740    1.000
    Eu6      Eu       0.95634    0.75000    0.12740    1.000
    Eu7      Eu       0.45634    0.75000    0.37260    1.000
    Eu8      Eu       0.04366    0.25000    0.87260    1.000
