# CIF file generated by openbabel 3.1.0, see https://openbabel.org
data_I
_chemical_name_common 'image0'
_cell_length_a 12.219
_cell_length_b 12.815
_cell_length_c 20.585
_cell_angle_alpha 95.187
_cell_angle_beta 92.184
_cell_angle_gamma 105.724
_space_group_name_H-M_alt 'P 1'
_space_group_name_Hall 'P 1'
loop_
    _symmetry_equiv_pos_as_xyz
    x,y,z
loop_
    _atom_site_label
    _atom_site_type_symbol
    _atom_site_fract_x
    _atom_site_fract_y
    _atom_site_fract_z
    _atom_site_occupancy
    Cd1      Cd       0.29108    0.68231    0.23629    1.000
    Cd2      Cd       0.77683    0.54427    0.28985    1.000
    S1       S        0.54351    0.17446    0.50112    1.000
    S2       S        0.37210    0.11449    0.48035    1.000
    S3       S        0.93323    0.11714    0.07024    1.000
    S4       S        0.06972    0.20991    0.02796    1.000
    O1       O        0.46140    0.79250    0.19160    1.000
    O2       O        0.29530    0.77060    0.13998    1.000
    O3       O        0.25900    0.57360    0.33290    1.000
    O4       O        0.43220    0.63160    0.29950    1.000
    O5       O        0.76190    0.42350    0.18712    1.000
    O6       O        0.86880    0.59690    0.19830    1.000
    O7       O        0.79470    0.72940    0.32480    1.000
    O8       O        0.88550    0.65370    0.38750    1.000
    N1       N        0.68900    0.41840    0.35680    1.000
    N2       N        0.32330    0.82920    0.31780    1.000
    N3       N        0.22520    0.51890    0.17040    1.000
    N4       N        0.04740    0.85160    0.16860    1.000
    C1       C        0.70990    0.32660    0.45150    1.000
    H1       H        0.75570    0.31420    0.48540    1.000
    C2       C        0.59420    0.26880    0.44320    1.000
    C3       C        0.52330    0.28860    0.39330    1.000
    H2       H        0.44530    0.25520    0.38770    1.000
    C4       C        0.58410    0.36620    0.35130    1.000
    H3       H        0.54140    0.37950    0.31620    1.000
    C5       C        0.75320    0.39850    0.41110    1.000
    H4       H        0.82930    0.43820    0.41830    1.000
    C6       C        0.39470    0.81140    0.14540    1.000
    C7       C        0.45140    0.89210    0.09620    1.000
    C8       C        0.56140    0.96480    0.11150    1.000
    H5       H        0.60230    0.96310    0.15020    1.000
    C9       C        0.60510    0.03570    0.06940    1.000
    H6       H        0.67370    0.08730    0.08260    1.000
    C10      C        0.55840    0.03940    0.00880    1.000
    C11      C        0.39470    0.88880    0.03730    1.000
    H7       H        0.32410    0.83840    0.02740    1.000
    C12      C        0.26600    0.50060    0.11030    1.000
    H8       H        0.32460    0.55610    0.09720    1.000
    C13      C        0.22650    0.40490    0.06720    1.000
    H9       H        0.26100    0.39380    0.02860    1.000
    C14      C        0.13220    0.32790    0.08610    1.000
    C15      C        0.08740    0.34510    0.14750    1.000
    H10      H        0.02720    0.29190    0.16130    1.000
    C16      C        0.13310    0.43910    0.18570    1.000
    H11      H        0.10000    0.45050    0.22470    1.000
    C17      C        0.11850    0.91680    0.13040    1.000
    H12      H        0.18890    0.90490    0.12280    1.000
    C18      C        0.08790    0.00280    0.10180    1.000
    H13      H        0.14000    0.04960    0.07840    1.000
    C19      C        0.98170    0.01630    0.10880    1.000
    C20      C        0.91290    0.95210    0.14470    1.000
    H14      H        0.83980    0.95910    0.14970    1.000
    C21      C        0.36550    0.58620    0.33570    1.000
    C22      C        0.45180    0.99280    0.37890    1.000
    H15      H        0.52410    0.04140    0.38580    1.000
    C23      C        0.42600    0.90370    0.33020    1.000
    H16      H        0.48440    0.89520    0.30440    1.000
    C24      C        0.35950    0.00350    0.41680    1.000
    C25      C        0.25810    0.93090    0.40950    1.000
    H17      H        0.19980    0.93610    0.43630    1.000
    C26      C        0.87660    0.48550    0.09860    1.000
    C27      C        0.97800    0.56620    0.07970    1.000
    H18      H        0.01060    0.62920    0.10760    1.000
    C28      C        0.02770    0.54870    0.01840    1.000
    C29      C        0.12240    0.63120    0.99920    1.000
    C30      C        0.83550    0.38530    0.05910    1.000
    C31      C        0.83240    0.50180    0.16490    1.000
    C32      C        0.40240    0.54340    0.40190    1.000
    C33      C        0.86410    0.73430    0.37380    1.000
    C34      C        0.90230    0.84210    0.41630    1.000
    C35      C        0.87360    0.93520    0.39550    1.000
    H19      H        0.82990    0.92860    0.35660    1.000
    C36      C        0.95950    0.84830    0.47210    1.000
    H20      H        0.96610    0.78440    0.48800    1.000
    C37      C        0.94850    0.87310    0.17550    1.000
    H21      H        0.89890    0.83270    0.20300    1.000
    C38      C        0.24260    0.84220    0.35720    1.000
    H22      H        0.17160    0.79130    0.35090    1.000
    C39      C        0.54010    0.53620    0.48960    1.000
    C40      C        0.64790    0.58490    0.51220    1.000
    H23      H        0.69910    0.64080    0.49420    1.000
    C41      C        0.90980    0.03430    0.43230    1.000
    C42      C        0.01370    0.95340    0.51050    1.000
    C43      C        0.33020    0.46440    0.43150    1.000
    H24      H        0.25640    0.43920    0.41230    1.000
    C44      C        0.53090    0.59390    0.42310    1.000
    H25      H        0.58680    0.64330    0.40330    1.000
    Cd3      Cd       0.70892    0.31769    0.76371    1.000
    Cd4      Cd       0.22317    0.45573    0.71015    1.000
    S5       S        0.45649    0.82554    0.49888    1.000
    S6       S        0.62790    0.88551    0.51965    1.000
    S7       S        0.06677    0.88286    0.92976    1.000
    S8       S        0.93028    0.79009    0.97204    1.000
    O9       O        0.53860    0.20750    0.80840    1.000
    O10      O        0.70470    0.22940    0.86002    1.000
    O11      O        0.74100    0.42640    0.66710    1.000
    O12      O        0.56780    0.36840    0.70050    1.000
    O13      O        0.23810    0.57650    0.81288    1.000
    O14      O        0.13120    0.40310    0.80170    1.000
    O15      O        0.20530    0.27060    0.67520    1.000
    O16      O        0.11450    0.34630    0.61250    1.000
    N5       N        0.31100    0.58160    0.64320    1.000
    N6       N        0.67670    0.17080    0.68220    1.000
    N7       N        0.77480    0.48110    0.82960    1.000
    N8       N        0.95260    0.14840    0.83140    1.000
    C45      C        0.29010    0.67340    0.54850    1.000
    H26      H        0.24430    0.68580    0.51460    1.000
    C46      C        0.40580    0.73120    0.55680    1.000
    C47      C        0.47670    0.71140    0.60670    1.000
    H27      H        0.55470    0.74480    0.61230    1.000
    C48      C        0.41590    0.63380    0.64870    1.000
    H28      H        0.45860    0.62050    0.68380    1.000
    C49      C        0.24680    0.60150    0.58890    1.000
    H29      H        0.17070    0.56180    0.58170    1.000
    C50      C        0.60530    0.18860    0.85460    1.000
    C51      C        0.54860    0.10790    0.90380    1.000
    C52      C        0.43860    0.03520    0.88850    1.000
    H30      H        0.39770    0.03690    0.84980    1.000
    C53      C        0.39490    0.96430    0.93060    1.000
    H31      H        0.32630    0.91270    0.91740    1.000
    C54      C        0.44160    0.96060    0.99120    1.000
    C55      C        0.60530    0.11120    0.96270    1.000
    H32      H        0.67590    0.16160    0.97260    1.000
    C56      C        0.73400    0.49940    0.88970    1.000
    H33      H        0.67540    0.44390    0.90280    1.000
    C57      C        0.77350    0.59510    0.93280    1.000
    H34      H        0.73900    0.60620    0.97140    1.000
    C58      C        0.86780    0.67210    0.91390    1.000
    C59      C        0.91260    0.65490    0.85250    1.000
    H35      H        0.97280    0.70810    0.83870    1.000
    C60      C        0.86690    0.56090    0.81430    1.000
    H36      H        0.90000    0.54950    0.77530    1.000
    C61      C        0.88150    0.08320    0.86960    1.000
    H37      H        0.81110    0.09510    0.87720    1.000
    C62      C        0.91210    0.99720    0.89820    1.000
    H38      H        0.86000    0.95040    0.92160    1.000
    C63      C        0.01830    0.98370    0.89120    1.000
    C64      C        0.08710    0.04790    0.85530    1.000
    H39      H        0.16020    0.04090    0.85030    1.000
    C65      C        0.63450    0.41380    0.66430    1.000
    C66      C        0.54820    0.00720    0.62110    1.000
    H40      H        0.47590    0.95860    0.61420    1.000
    C67      C        0.57400    0.09630    0.66980    1.000
    H41      H        0.51560    0.10480    0.69560    1.000
    C68      C        0.64050    0.99650    0.58320    1.000
    C69      C        0.74190    0.06910    0.59050    1.000
    H42      H        0.80020    0.06390    0.56370    1.000
    C70      C        0.12340    0.51450    0.90140    1.000
    C71      C        0.02200    0.43380    0.92030    1.000
    H43      H        0.98940    0.37080    0.89240    1.000
    C72      C        0.97230    0.45130    0.98160    1.000
    C73      C        0.87760    0.36880    0.00080    1.000
    C74      C        0.16450    0.61470    0.94090    1.000
    C75      C        0.16760    0.49820    0.83510    1.000
    C76      C        0.59760    0.45660    0.59810    1.000
    C77      C        0.13590    0.26570    0.62620    1.000
    C78      C        0.09770    0.15790    0.58370    1.000
    C79      C        0.12640    0.06480    0.60450    1.000
    H44      H        0.17010    0.07140    0.64340    1.000
    C80      C        0.04050    0.15170    0.52790    1.000
    H45      H        0.03390    0.21560    0.51200    1.000
    C81      C        0.05150    0.12690    0.82450    1.000
    H46      H        0.10110    0.16730    0.79700    1.000
    C82      C        0.75740    0.15780    0.64280    1.000
    H47      H        0.82840    0.20870    0.64910    1.000
    C83      C        0.45990    0.46380    0.51040    1.000
    C84      C        0.35210    0.41510    0.48780    1.000
    H48      H        0.30090    0.35920    0.50580    1.000
    C85      C        0.09020    0.96570    0.56770    1.000
    C86      C        0.98630    0.04660    0.48950    1.000
    C87      C        0.66980    0.53560    0.56850    1.000
    H49      H        0.74360    0.56080    0.58770    1.000
    C88      C        0.46910    0.40610    0.57690    1.000
    H50      H        0.41320    0.35670    0.59670    1.000
