# CIF file generated by openbabel 3.1.0, see https://openbabel.org
data_I
_chemical_name_common 'image0'
_cell_length_a 14.152
_cell_length_b 14.152
_cell_length_c 14.152
_cell_angle_alpha 90
_cell_angle_beta 90
_cell_angle_gamma 90
_space_group_name_H-M_alt 'P 1'
_space_group_name_Hall 'P 1'
loop_
    _symmetry_equiv_pos_as_xyz
    x,y,z
loop_
    _atom_site_label
    _atom_site_type_symbol
    _atom_site_fract_x
    _atom_site_fract_y
    _atom_site_fract_z
    _atom_site_occupancy
    O1       O        0.56520    0.41200    0.77590    1.000
    O2       O        0.69320    0.37390    0.68780    1.000
    O3       O        0.80800    0.15400    0.77600    1.000
    C1       C        0.62390    0.42420    0.70890    1.000
    C2       C        0.59970    0.50410    0.64110    1.000
    C3       C        0.65640    0.52260    0.56570    1.000
    H1       H        0.70840    0.48200    0.55390    1.000
    O4       O        0.93480    0.58800    0.27590    1.000
    O5       O        0.80680    0.62610    0.18780    1.000
    O6       O        0.69200    0.84600    0.27600    1.000
    C4       C        0.87610    0.57580    0.20890    1.000
    C5       C        0.90030    0.49590    0.14110    1.000
    C6       C        0.84360    0.47740    0.06570    1.000
    H2       H        0.79160    0.51800    0.05390    1.000
    O7       O        0.43480    0.91200    0.72410    1.000
    O8       O        0.30680    0.87390    0.81220    1.000
    O9       O        0.19200    0.65400    0.72400    1.000
    C7       C        0.37610    0.92420    0.79110    1.000
    C8       C        0.40030    0.00410    0.85890    1.000
    C9       C        0.34360    0.02260    0.93430    1.000
    H3       H        0.29160    0.98200    0.94610    1.000
    O10      O        0.06520    0.08800    0.22410    1.000
    O11      O        0.19320    0.12610    0.31220    1.000
    O12      O        0.30800    0.34600    0.22400    1.000
    C10      C        0.12390    0.07580    0.29110    1.000
    C11      C        0.09970    0.99590    0.35890    1.000
    C12      C        0.15640    0.97740    0.43430    1.000
    H4       H        0.20840    0.01800    0.44610    1.000
    O13      O        0.77590    0.56520    0.41200    1.000
    O14      O        0.68780    0.69320    0.37390    1.000
    O15      O        0.77600    0.80800    0.15400    1.000
    C13      C        0.70890    0.62390    0.42420    1.000
    C14      C        0.64110    0.59970    0.50410    1.000
    C15      C        0.56570    0.65640    0.52260    1.000
    H5       H        0.55390    0.70840    0.48200    1.000
    O16      O        0.27590    0.93480    0.58800    1.000
    O17      O        0.18780    0.80680    0.62610    1.000
    O18      O        0.27600    0.69200    0.84600    1.000
    C16      C        0.20890    0.87610    0.57580    1.000
    C17      C        0.14110    0.90030    0.49590    1.000
    C18      C        0.06570    0.84360    0.47740    1.000
    H6       H        0.05390    0.79160    0.51800    1.000
    O19      O        0.72410    0.43480    0.91200    1.000
    O20      O        0.81220    0.30680    0.87390    1.000
    O21      O        0.72400    0.19200    0.65400    1.000
    C19      C        0.79110    0.37610    0.92420    1.000
    C20      C        0.85890    0.40030    0.00410    1.000
    C21      C        0.93430    0.34360    0.02260    1.000
    H7       H        0.94610    0.29160    0.98200    1.000
    O22      O        0.22410    0.06520    0.08800    1.000
    O23      O        0.31220    0.19320    0.12610    1.000
    O24      O        0.22400    0.30800    0.34600    1.000
    C22      C        0.29110    0.12390    0.07580    1.000
    C23      C        0.35890    0.09970    0.99590    1.000
    C24      C        0.43430    0.15640    0.97740    1.000
    H8       H        0.44610    0.20840    0.01800    1.000
    O25      O        0.41200    0.77590    0.56520    1.000
    O26      O        0.37390    0.68780    0.69320    1.000
    O27      O        0.15400    0.77600    0.80800    1.000
    C25      C        0.42420    0.70890    0.62390    1.000
    C26      C        0.50410    0.64110    0.59970    1.000
    C27      C        0.52260    0.56570    0.65640    1.000
    H9       H        0.48200    0.55390    0.70840    1.000
    O28      O        0.58800    0.27590    0.93480    1.000
    O29      O        0.62610    0.18780    0.80680    1.000
    O30      O        0.84600    0.27600    0.69200    1.000
    C28      C        0.57580    0.20890    0.87610    1.000
    C29      C        0.49590    0.14110    0.90030    1.000
    C30      C        0.47740    0.06570    0.84360    1.000
    H10      H        0.51800    0.05390    0.79160    1.000
    O31      O        0.91200    0.72410    0.43480    1.000
    O32      O        0.87390    0.81220    0.30680    1.000
    O33      O        0.65400    0.72400    0.19200    1.000
    C31      C        0.92420    0.79110    0.37610    1.000
    C32      C        0.00410    0.85890    0.40030    1.000
    C33      C        0.02260    0.93430    0.34360    1.000
    H11      H        0.98200    0.94610    0.29160    1.000
    O34      O        0.08800    0.22410    0.06520    1.000
    O35      O        0.12610    0.31220    0.19320    1.000
    O36      O        0.34600    0.22400    0.30800    1.000
    C34      C        0.07580    0.29110    0.12390    1.000
    C35      C        0.99590    0.35890    0.09970    1.000
    C36      C        0.97740    0.43430    0.15640    1.000
    H12      H        0.01800    0.44610    0.20840    1.000
    Zn1      Zn       0.72827    0.27173    0.77173    1.000
    Co1      Co       0.57970    0.42030    0.92030    1.000
    O37      O        0.86810    0.13190    0.63190    1.000
    N1       N        0.80950    0.19050    0.69050    1.000
    Zn2      Zn       0.77173    0.72827    0.27173    1.000
    Co2      Co       0.92030    0.57970    0.42030    1.000
    O38      O        0.63190    0.86810    0.13190    1.000
    N2       N        0.69050    0.80950    0.19050    1.000
    Zn3      Zn       0.27173    0.77173    0.72827    1.000
    Co3      Co       0.42030    0.92030    0.57970    1.000
    O39      O        0.13190    0.63190    0.86810    1.000
    N3       N        0.19050    0.69050    0.80950    1.000
    Zn4      Zn       0.22827    0.22827    0.22827    1.000
    Co4      Co       0.07970    0.07970    0.07970    1.000
    O40      O        0.36810    0.36810    0.36810    1.000
    N4       N        0.30950    0.30950    0.30950    1.000
