# CIF file generated by openbabel 3.1.0, see https://openbabel.org
data_I
_chemical_name_common 'image0'
_cell_length_a 12.8199
_cell_length_b 12.8199
_cell_length_c 32.617
_cell_angle_alpha 90
_cell_angle_beta 90
_cell_angle_gamma 90
_space_group_name_H-M_alt 'P 1'
_space_group_name_Hall 'P 1'
loop_
    _symmetry_equiv_pos_as_xyz
    x,y,z
loop_
    _atom_site_label
    _atom_site_type_symbol
    _atom_site_fract_x
    _atom_site_fract_y
    _atom_site_fract_z
    _atom_site_occupancy
    N1       N        0.42140    0.92130    0.29410    1.000
    C1       C        0.46970    0.87120    0.32300    1.000
    C2       C        0.31760    0.92100    0.29490    1.000
    C3       C        0.41970    0.81720    0.35420    1.000
    H1       H        0.54230    0.87160    0.32290    1.000
    H2       H        0.28130    0.95760    0.27480    1.000
    C4       C        0.26240    0.86810    0.32450    1.000
    C5       C        0.31280    0.81500    0.35540    1.000
    H3       H        0.45840    0.78260    0.37410    1.000
    H4       H        0.18990    0.86830    0.32370    1.000
    C6       C        0.25250    0.75650    0.38680    1.000
    C7       C        0.30020    0.69450    0.41480    1.000
    C8       C        0.14650    0.76250    0.38900    1.000
    C9       C        0.24240    0.63730    0.44330    1.000
    H5       H        0.37260    0.69000    0.41500    1.000
    C10      C        0.08980    0.70700    0.41790    1.000
    H6       H        0.11110    0.80510    0.37050    1.000
    C11      C        0.13380    0.63940    0.44420    1.000
    H7       H        0.27770    0.59640    0.46230    1.000
    H8       H        0.01800    0.71720    0.41920    1.000
    C12      C        0.06890    0.57020    0.47260    1.000
    H9       H        0.18090    0.45690    0.48290    1.000
    H10      H        0.04370    0.45710    0.42900    1.000
    H11      H        0.04360    0.68330    0.51690    1.000
    N2       N        0.57860    0.07870    0.29410    1.000
    C13      C        0.53030    0.12880    0.32300    1.000
    C14      C        0.68240    0.07900    0.29490    1.000
    C15      C        0.58030    0.18280    0.35420    1.000
    H12      H        0.45770    0.12840    0.32290    1.000
    H13      H        0.71870    0.04240    0.27480    1.000
    C16      C        0.73760    0.13190    0.32450    1.000
    C17      C        0.68720    0.18500    0.35540    1.000
    H14      H        0.54160    0.21740    0.37410    1.000
    H15      H        0.81010    0.13170    0.32370    1.000
    C18      C        0.74750    0.24350    0.38680    1.000
    C19      C        0.69980    0.30550    0.41480    1.000
    C20      C        0.85350    0.23750    0.38900    1.000
    C21      C        0.75760    0.36270    0.44330    1.000
    H16      H        0.62740    0.31000    0.41500    1.000
    C22      C        0.91020    0.29300    0.41790    1.000
    H17      H        0.88890    0.19490    0.37050    1.000
    C23      C        0.86620    0.36060    0.44420    1.000
    H18      H        0.72230    0.40360    0.46230    1.000
    H19      H        0.98200    0.28280    0.41920    1.000
    C24      C        0.93110    0.42980    0.47260    1.000
    H20      H        0.81910    0.54310    0.48290    1.000
    H21      H        0.95630    0.54290    0.42900    1.000
    H22      H        0.95640    0.31670    0.51690    1.000
    N3       N        0.57870    0.92140    0.79410    1.000
    C25      C        0.62880    0.96970    0.82300    1.000
    C26      C        0.57900    0.81760    0.79490    1.000
    C27      C        0.68280    0.91970    0.85420    1.000
    H23      H        0.62840    0.04230    0.82290    1.000
    H24      H        0.54240    0.78130    0.77480    1.000
    C28      C        0.63190    0.76240    0.82450    1.000
    C29      C        0.68500    0.81280    0.85540    1.000
    H25      H        0.71740    0.95840    0.87410    1.000
    H26      H        0.63170    0.68990    0.82370    1.000
    C30      C        0.74350    0.75250    0.88680    1.000
    C31      C        0.80550    0.80020    0.91480    1.000
    C32      C        0.73750    0.64650    0.88900    1.000
    C33      C        0.86270    0.74240    0.94330    1.000
    H27      H        0.81000    0.87260    0.91500    1.000
    C34      C        0.79300    0.58980    0.91790    1.000
    H28      H        0.69490    0.61110    0.87050    1.000
    C35      C        0.86060    0.63380    0.94420    1.000
    H29      H        0.90360    0.77770    0.96230    1.000
    H30      H        0.78280    0.51800    0.91920    1.000
    C36      C        0.92980    0.56890    0.97260    1.000
    H31      H        0.04310    0.68090    0.98290    1.000
    H32      H        0.04290    0.54370    0.92900    1.000
    H33      H        0.81670    0.54360    0.01690    1.000
    N4       N        0.42130    0.07860    0.79410    1.000
    C37      C        0.37120    0.03030    0.82300    1.000
    C38      C        0.42100    0.18240    0.79490    1.000
    C39      C        0.31720    0.08030    0.85420    1.000
    H34      H        0.37160    0.95770    0.82290    1.000
    H35      H        0.45760    0.21870    0.77480    1.000
    C40      C        0.36810    0.23760    0.82450    1.000
    C41      C        0.31500    0.18720    0.85540    1.000
    H36      H        0.28260    0.04160    0.87410    1.000
    H37      H        0.36830    0.31010    0.82370    1.000
    C42      C        0.25650    0.24750    0.88680    1.000
    C43      C        0.19450    0.19980    0.91480    1.000
    C44      C        0.26250    0.35350    0.88900    1.000
    C45      C        0.13730    0.25760    0.94330    1.000
    H38      H        0.19000    0.12740    0.91500    1.000
    C46      C        0.20700    0.41020    0.91790    1.000
    H39      H        0.30510    0.38890    0.87050    1.000
    C47      C        0.13940    0.36620    0.94420    1.000
    H40      H        0.09640    0.22230    0.96230    1.000
    H41      H        0.21720    0.48200    0.91920    1.000
    C48      C        0.07020    0.43110    0.97260    1.000
    H42      H        0.95690    0.31910    0.98290    1.000
    H43      H        0.95710    0.45630    0.92900    1.000
    H44      H        0.18330    0.45640    0.01690    1.000
    N5       N        0.57860    0.92130    0.70590    1.000
    C49      C        0.53030    0.87120    0.67700    1.000
    C50      C        0.68240    0.92100    0.70510    1.000
    C51      C        0.58030    0.81720    0.64580    1.000
    H45      H        0.45770    0.87160    0.67710    1.000
    H46      H        0.71870    0.95760    0.72520    1.000
    C52      C        0.73760    0.86810    0.67550    1.000
    C53      C        0.68720    0.81500    0.64460    1.000
    H47      H        0.54160    0.78260    0.62590    1.000
    H48      H        0.81010    0.86830    0.67630    1.000
    C54      C        0.74750    0.75650    0.61320    1.000
    C55      C        0.69980    0.69450    0.58520    1.000
    C56      C        0.85350    0.76250    0.61100    1.000
    C57      C        0.75760    0.63730    0.55670    1.000
    H49      H        0.62740    0.69000    0.58500    1.000
    C58      C        0.91020    0.70700    0.58210    1.000
    H50      H        0.88890    0.80510    0.62950    1.000
    C59      C        0.86620    0.63940    0.55580    1.000
    H51      H        0.72230    0.59640    0.53770    1.000
    H52      H        0.98200    0.71720    0.58080    1.000
    C60      C        0.93110    0.57020    0.52740    1.000
    H53      H        0.81910    0.45690    0.51710    1.000
    H54      H        0.95630    0.45710    0.57100    1.000
    H55      H        0.95640    0.68330    0.48310    1.000
    N6       N        0.42140    0.07870    0.70590    1.000
    C61      C        0.46970    0.12880    0.67700    1.000
    C62      C        0.31760    0.07900    0.70510    1.000
    C63      C        0.41970    0.18280    0.64580    1.000
    H56      H        0.54230    0.12840    0.67710    1.000
    H57      H        0.28130    0.04240    0.72520    1.000
    C64      C        0.26240    0.13190    0.67550    1.000
    C65      C        0.31280    0.18500    0.64460    1.000
    H58      H        0.45840    0.21740    0.62590    1.000
    H59      H        0.18990    0.13170    0.67630    1.000
    C66      C        0.25250    0.24350    0.61320    1.000
    C67      C        0.30020    0.30550    0.58520    1.000
    C68      C        0.14650    0.23750    0.61100    1.000
    C69      C        0.24240    0.36270    0.55670    1.000
    H60      H        0.37260    0.31000    0.58500    1.000
    C70      C        0.08980    0.29300    0.58210    1.000
    H61      H        0.11110    0.19490    0.62950    1.000
    C71      C        0.13380    0.36060    0.55580    1.000
    H62      H        0.27770    0.40360    0.53770    1.000
    H63      H        0.01800    0.28280    0.58080    1.000
    C72      C        0.06890    0.42980    0.52740    1.000
    H64      H        0.18090    0.54310    0.51710    1.000
    H65      H        0.04370    0.54290    0.57100    1.000
    H66      H        0.04360    0.31670    0.48310    1.000
    N7       N        0.42130    0.92140    0.20590    1.000
    C73      C        0.37120    0.96970    0.17700    1.000
    C74      C        0.42100    0.81760    0.20510    1.000
    C75      C        0.31720    0.91970    0.14580    1.000
    H67      H        0.37160    0.04230    0.17710    1.000
    H68      H        0.45760    0.78130    0.22520    1.000
    C76      C        0.36810    0.76240    0.17550    1.000
    C77      C        0.31500    0.81280    0.14460    1.000
    H69      H        0.28260    0.95840    0.12590    1.000
    H70      H        0.36830    0.68990    0.17630    1.000
    C78      C        0.25650    0.75250    0.11320    1.000
    C79      C        0.19450    0.80020    0.08520    1.000
    C80      C        0.26250    0.64650    0.11100    1.000
    C81      C        0.13730    0.74240    0.05670    1.000
    H71      H        0.19000    0.87260    0.08500    1.000
    C82      C        0.20700    0.58980    0.08210    1.000
    H72      H        0.30510    0.61110    0.12950    1.000
    C83      C        0.13940    0.63380    0.05580    1.000
    H73      H        0.09640    0.77770    0.03770    1.000
    H74      H        0.21720    0.51800    0.08080    1.000
    C84      C        0.07020    0.56890    0.02740    1.000
    H75      H        0.95690    0.68090    0.01710    1.000
    H76      H        0.95710    0.54370    0.07100    1.000
    H77      H        0.18330    0.54360    0.98310    1.000
    N8       N        0.57870    0.07860    0.20590    1.000
    C85      C        0.62880    0.03030    0.17700    1.000
    C86      C        0.57900    0.18240    0.20510    1.000
    C87      C        0.68280    0.08030    0.14580    1.000
    H78      H        0.62840    0.95770    0.17710    1.000
    H79      H        0.54240    0.21870    0.22520    1.000
    C88      C        0.63190    0.23760    0.17550    1.000
    C89      C        0.68500    0.18720    0.14460    1.000
    H80      H        0.71740    0.04160    0.12590    1.000
    H81      H        0.63170    0.31010    0.17630    1.000
    C90      C        0.74350    0.24750    0.11320    1.000
    C91      C        0.80550    0.19980    0.08520    1.000
    C92      C        0.73750    0.35350    0.11100    1.000
    C93      C        0.86270    0.25760    0.05670    1.000
    H82      H        0.81000    0.12740    0.08500    1.000
    C94      C        0.79300    0.41020    0.08210    1.000
    H83      H        0.69490    0.38890    0.12950    1.000
    C95      C        0.86060    0.36620    0.05580    1.000
    H84      H        0.90360    0.22230    0.03770    1.000
    H85      H        0.78280    0.48200    0.08080    1.000
    C96      C        0.92980    0.43110    0.02740    1.000
    H86      H        0.04310    0.31910    0.01710    1.000
    H87      H        0.04290    0.45630    0.07100    1.000
    H88      H        0.81670    0.45640    0.98310    1.000
    Cu1      Cu       0.50000    0.00000    0.25000    1.000
    Cu2      Cu       0.50000    0.00000    0.75000    1.000
    C97      C        0.13640    0.50000    0.50000    1.000
    C98      C        0.86360    0.50000    0.50000    1.000
    C99      C        0.00000    0.63640    0.00000    1.000
    C100     C        0.00000    0.36360    0.00000    1.000
    C101     C        0.00000    0.50000    0.44650    1.000
    C102     C        0.00000    0.50000    0.94650    1.000
    C103     C        0.00000    0.50000    0.55350    1.000
    C104     C        0.00000    0.50000    0.05350    1.000
    C105     C        0.00000    0.63890    0.50000    1.000
    C106     C        0.00000    0.36110    0.50000    1.000
    C107     C        0.86110    0.50000    0.00000    1.000
    C108     C        0.13890    0.50000    0.00000    1.000
    N9       N        0.92140    0.42130    0.79410    1.000
    C109     C        0.96970    0.37120    0.82300    1.000
    C110     C        0.81760    0.42100    0.79490    1.000
    C111     C        0.91970    0.31720    0.85420    1.000
    H89      H        0.04230    0.37160    0.82290    1.000
    H90      H        0.78130    0.45760    0.77480    1.000
    C112     C        0.76240    0.36810    0.82450    1.000
    C113     C        0.81280    0.31500    0.85540    1.000
    H91      H        0.95840    0.28260    0.87410    1.000
    H92      H        0.68990    0.36830    0.82370    1.000
    C114     C        0.75250    0.25650    0.88680    1.000
    C115     C        0.80020    0.19450    0.91480    1.000
    C116     C        0.64650    0.26250    0.88900    1.000
    C117     C        0.74240    0.13730    0.94330    1.000
    H93      H        0.87260    0.19000    0.91500    1.000
    C118     C        0.58980    0.20700    0.91790    1.000
    H94      H        0.61110    0.30510    0.87050    1.000
    C119     C        0.63380    0.13940    0.94420    1.000
    H95      H        0.77770    0.09640    0.96230    1.000
    H96      H        0.51800    0.21720    0.91920    1.000
    C120     C        0.56890    0.07020    0.97260    1.000
    H97      H        0.68090    0.95690    0.98290    1.000
    H98      H        0.54370    0.95710    0.92900    1.000
    H99      H        0.54360    0.18330    0.01690    1.000
    N10      N        0.07860    0.57870    0.79410    1.000
    C121     C        0.03030    0.62880    0.82300    1.000
    C122     C        0.18240    0.57900    0.79490    1.000
    C123     C        0.08030    0.68280    0.85420    1.000
    H100     H        0.95770    0.62840    0.82290    1.000
    H101     H        0.21870    0.54240    0.77480    1.000
    C124     C        0.23760    0.63190    0.82450    1.000
    C125     C        0.18720    0.68500    0.85540    1.000
    H102     H        0.04160    0.71740    0.87410    1.000
    H103     H        0.31010    0.63170    0.82370    1.000
    C126     C        0.24750    0.74350    0.88680    1.000
    C127     C        0.19980    0.80550    0.91480    1.000
    C128     C        0.35350    0.73750    0.88900    1.000
    C129     C        0.25760    0.86270    0.94330    1.000
    H104     H        0.12740    0.81000    0.91500    1.000
    C130     C        0.41020    0.79300    0.91790    1.000
    H105     H        0.38890    0.69490    0.87050    1.000
    C131     C        0.36620    0.86060    0.94420    1.000
    H106     H        0.22230    0.90360    0.96230    1.000
    H107     H        0.48200    0.78280    0.91920    1.000
    C132     C        0.43110    0.92980    0.97260    1.000
    H108     H        0.31910    0.04310    0.98290    1.000
    H109     H        0.45630    0.04290    0.92900    1.000
    H110     H        0.45640    0.81670    0.01690    1.000
    N11      N        0.07870    0.42140    0.29410    1.000
    C133     C        0.12880    0.46970    0.32300    1.000
    C134     C        0.07900    0.31760    0.29490    1.000
    C135     C        0.18280    0.41970    0.35420    1.000
    H111     H        0.12840    0.54230    0.32290    1.000
    H112     H        0.04240    0.28130    0.27480    1.000
    C136     C        0.13190    0.26240    0.32450    1.000
    C137     C        0.18500    0.31280    0.35540    1.000
    H113     H        0.21740    0.45840    0.37410    1.000
    H114     H        0.13170    0.18990    0.32370    1.000
    C138     C        0.24350    0.25250    0.38680    1.000
    C139     C        0.30550    0.30020    0.41480    1.000
    C140     C        0.23750    0.14650    0.38900    1.000
    C141     C        0.36270    0.24240    0.44330    1.000
    H115     H        0.31000    0.37260    0.41500    1.000
    C142     C        0.29300    0.08980    0.41790    1.000
    H116     H        0.19490    0.11110    0.37050    1.000
    C143     C        0.36060    0.13380    0.44420    1.000
    H117     H        0.40360    0.27770    0.46230    1.000
    H118     H        0.28280    0.01800    0.41920    1.000
    C144     C        0.42980    0.06890    0.47260    1.000
    H119     H        0.54310    0.18090    0.48290    1.000
    H120     H        0.54290    0.04370    0.42900    1.000
    H121     H        0.31670    0.04360    0.51690    1.000
    N12      N        0.92130    0.57860    0.29410    1.000
    C145     C        0.87120    0.53030    0.32300    1.000
    C146     C        0.92100    0.68240    0.29490    1.000
    C147     C        0.81720    0.58030    0.35420    1.000
    H122     H        0.87160    0.45770    0.32290    1.000
    H123     H        0.95760    0.71870    0.27480    1.000
    C148     C        0.86810    0.73760    0.32450    1.000
    C149     C        0.81500    0.68720    0.35540    1.000
    H124     H        0.78260    0.54160    0.37410    1.000
    H125     H        0.86830    0.81010    0.32370    1.000
    C150     C        0.75650    0.74750    0.38680    1.000
    C151     C        0.69450    0.69980    0.41480    1.000
    C152     C        0.76250    0.85350    0.38900    1.000
    C153     C        0.63730    0.75760    0.44330    1.000
    H126     H        0.69000    0.62740    0.41500    1.000
    C154     C        0.70700    0.91020    0.41790    1.000
    H127     H        0.80510    0.88890    0.37050    1.000
    C155     C        0.63940    0.86620    0.44420    1.000
    H128     H        0.59640    0.72230    0.46230    1.000
    H129     H        0.71720    0.98200    0.41920    1.000
    C156     C        0.57020    0.93110    0.47260    1.000
    H130     H        0.45690    0.81910    0.48290    1.000
    H131     H        0.45710    0.95630    0.42900    1.000
    H132     H        0.68330    0.95640    0.51690    1.000
    N13      N        0.07860    0.42130    0.20590    1.000
    C157     C        0.03030    0.37120    0.17700    1.000
    C158     C        0.18240    0.42100    0.20510    1.000
    C159     C        0.08030    0.31720    0.14580    1.000
    H133     H        0.95770    0.37160    0.17710    1.000
    H134     H        0.21870    0.45760    0.22520    1.000
    C160     C        0.23760    0.36810    0.17550    1.000
    C161     C        0.18720    0.31500    0.14460    1.000
    H135     H        0.04160    0.28260    0.12590    1.000
    H136     H        0.31010    0.36830    0.17630    1.000
    C162     C        0.24750    0.25650    0.11320    1.000
    C163     C        0.19980    0.19450    0.08520    1.000
    C164     C        0.35350    0.26250    0.11100    1.000
    C165     C        0.25760    0.13730    0.05670    1.000
    H137     H        0.12740    0.19000    0.08500    1.000
    C166     C        0.41020    0.20700    0.08210    1.000
    H138     H        0.38890    0.30510    0.12950    1.000
    C167     C        0.36620    0.13940    0.05580    1.000
    H139     H        0.22230    0.09640    0.03770    1.000
    H140     H        0.48200    0.21720    0.08080    1.000
    C168     C        0.43110    0.07020    0.02740    1.000
    H141     H        0.31910    0.95690    0.01710    1.000
    H142     H        0.45630    0.95710    0.07100    1.000
    H143     H        0.45640    0.18330    0.98310    1.000
    N14      N        0.92140    0.57870    0.20590    1.000
    C169     C        0.96970    0.62880    0.17700    1.000
    C170     C        0.81760    0.57900    0.20510    1.000
    C171     C        0.91970    0.68280    0.14580    1.000
    H144     H        0.04230    0.62840    0.17710    1.000
    H145     H        0.78130    0.54240    0.22520    1.000
    C172     C        0.76240    0.63190    0.17550    1.000
    C173     C        0.81280    0.68500    0.14460    1.000
    H146     H        0.95840    0.71740    0.12590    1.000
    H147     H        0.68990    0.63170    0.17630    1.000
    C174     C        0.75250    0.74350    0.11320    1.000
    C175     C        0.80020    0.80550    0.08520    1.000
    C176     C        0.64650    0.73750    0.11100    1.000
    C177     C        0.74240    0.86270    0.05670    1.000
    H148     H        0.87260    0.81000    0.08500    1.000
    C178     C        0.58980    0.79300    0.08210    1.000
    H149     H        0.61110    0.69490    0.12950    1.000
    C179     C        0.63380    0.86060    0.05580    1.000
    H150     H        0.77770    0.90360    0.03770    1.000
    H151     H        0.51800    0.78280    0.08080    1.000
    C180     C        0.56890    0.92980    0.02740    1.000
    H152     H        0.68090    0.04310    0.01710    1.000
    H153     H        0.54370    0.04290    0.07100    1.000
    H154     H        0.54360    0.81670    0.98310    1.000
    N15      N        0.92130    0.42140    0.70590    1.000
    C181     C        0.87120    0.46970    0.67700    1.000
    C182     C        0.92100    0.31760    0.70510    1.000
    C183     C        0.81720    0.41970    0.64580    1.000
    H155     H        0.87160    0.54230    0.67710    1.000
    H156     H        0.95760    0.28130    0.72520    1.000
    C184     C        0.86810    0.26240    0.67550    1.000
    C185     C        0.81500    0.31280    0.64460    1.000
    H157     H        0.78260    0.45840    0.62590    1.000
    H158     H        0.86830    0.18990    0.67630    1.000
    C186     C        0.75650    0.25250    0.61320    1.000
    C187     C        0.69450    0.30020    0.58520    1.000
    C188     C        0.76250    0.14650    0.61100    1.000
    C189     C        0.63730    0.24240    0.55670    1.000
    H159     H        0.69000    0.37260    0.58500    1.000
    C190     C        0.70700    0.08980    0.58210    1.000
    H160     H        0.80510    0.11110    0.62950    1.000
    C191     C        0.63940    0.13380    0.55580    1.000
    H161     H        0.59640    0.27770    0.53770    1.000
    H162     H        0.71720    0.01800    0.58080    1.000
    C192     C        0.57020    0.06890    0.52740    1.000
    H163     H        0.45690    0.18090    0.51710    1.000
    H164     H        0.45710    0.04370    0.57100    1.000
    H165     H        0.68330    0.04360    0.48310    1.000
    N16      N        0.07870    0.57860    0.70590    1.000
    C193     C        0.12880    0.53030    0.67700    1.000
    C194     C        0.07900    0.68240    0.70510    1.000
    C195     C        0.18280    0.58030    0.64580    1.000
    H166     H        0.12840    0.45770    0.67710    1.000
    H167     H        0.04240    0.71870    0.72520    1.000
    C196     C        0.13190    0.73760    0.67550    1.000
    C197     C        0.18500    0.68720    0.64460    1.000
    H168     H        0.21740    0.54160    0.62590    1.000
    H169     H        0.13170    0.81010    0.67630    1.000
    C198     C        0.24350    0.74750    0.61320    1.000
    C199     C        0.30550    0.69980    0.58520    1.000
    C200     C        0.23750    0.85350    0.61100    1.000
    C201     C        0.36270    0.75760    0.55670    1.000
    H170     H        0.31000    0.62740    0.58500    1.000
    C202     C        0.29300    0.91020    0.58210    1.000
    H171     H        0.19490    0.88890    0.62950    1.000
    C203     C        0.36060    0.86620    0.55580    1.000
    H172     H        0.40360    0.72230    0.53770    1.000
    H173     H        0.28280    0.98200    0.58080    1.000
    C204     C        0.42980    0.93110    0.52740    1.000
    H174     H        0.54310    0.81910    0.51710    1.000
    H175     H        0.54290    0.95630    0.57100    1.000
    H176     H        0.31670    0.95640    0.48310    1.000
    Cu3      Cu       0.00000    0.50000    0.25000    1.000
    Cu4      Cu       0.00000    0.50000    0.75000    1.000
    C205     C        0.63640    0.00000    0.00000    1.000
    C206     C        0.36360    0.00000    0.00000    1.000
    C207     C        0.50000    0.13640    0.50000    1.000
    C208     C        0.50000    0.86360    0.50000    1.000
    C209     C        0.50000    0.00000    0.94650    1.000
    C210     C        0.50000    0.00000    0.44650    1.000
    C211     C        0.50000    0.00000    0.05350    1.000
    C212     C        0.50000    0.00000    0.55350    1.000
    C213     C        0.50000    0.13890    0.00000    1.000
    C214     C        0.50000    0.86110    0.00000    1.000
    C215     C        0.36110    0.00000    0.50000    1.000
    C216     C        0.63890    0.00000    0.50000    1.000
