data_functionalizedCrystal
_audit_creation_method	'EQeq! by Chris Wilmer'
_symmetry_space_group_name_H-M	'P1'
_symmetry_Int_Tables_number	1
_symmetry_cell_setting	triclinic
loop_
_symmetry_equiv_pos_as_xyz
  x,y,z
_cell_length_a	10.9221
_cell_length_b	19.266
_cell_length_c	19.4537
_cell_angle_alpha	90
_cell_angle_beta	98.385
_cell_angle_gamma	90
loop_
_atom_site_label
_atom_site_type_symbol
_atom_site_fract_x
_atom_site_fract_y
_atom_site_fract_z
_atom_site_charge
Mof_Nd	Nd	0.58499	0.37486	0.85784	1.845
Mof_N 	N 	0.7571	0.46377	0.91766	-0.182
Mof_C 	C 	0.7443	0.5092	0.9683	-0.096
Mof_H 	H 	0.6756	0.5049	0.992	0.039
Mof_C 	C 	0.8286	0.5624	0.9872	0.218
Mof_N 	N 	0.9299	0.5684	0.956	-0.166
Mof_C 	C 	0.9458	0.5225	0.9063	0.073
Mof_H 	H 	0.0165	0.5256	0.8841	0.009
Mof_C 	C 	0.8595	0.4704	0.8869	-0.115
Mof_C 	C 	0.8074	0.6147	0.0411	-0.614
Mof_H 	H 	0.8711	0.61	0.0811	0.207
Mof_H 	H 	0.7269	0.6069	0.0551	0.195
Mof_H 	H 	0.8104	0.661	0.0219	0.198
Mof_C 	C 	0.8723	0.4201	0.8294	0.394
Mof_O 	O 	0.9733	0.41804	0.80584	-0.481
Mof_O 	O 	0.7794	0.38367	0.80802	-0.547
Mof_N 	N 	0.468	0.25919	0.88886	-0.182
Mof_C 	C 	0.5155	0.2078	0.9291	-0.076
Mof_H 	H 	0.5976	0.2115	0.9513	0.014
Mof_C 	C 	0.4477	0.148	0.9398	0.196
Mof_N 	N 	0.3331	0.1399	0.9067	-0.176
Mof_C 	C 	0.2846	0.192	0.8659	0.068
Mof_H 	H 	0.2035	0.1877	0.8423	-0.006
Mof_C 	C 	0.351	0.2521	0.8575	-0.109
Mof_C 	C 	0.5012	0.0924	0.9883	-0.544
Mof_H 	H 	0.4476	0.0846	0.0232	0.157
Mof_H 	H 	0.5825	0.1065	0.0109	0.158
Mof_H 	H 	0.5085	0.0498	0.9626	0.159
Mof_C 	C 	0.2968	0.3122	0.815	0.404
Mof_O 	O 	0.1881	0.30659	0.78336	-0.497
Mof_O 	O 	0.3637	0.36547	0.81437	-0.532
Mof_N 	N 	0.4887	0.49207	0.87334	-0.248
Mof_N 	N 	0.5448	0.37689	0.982	-0.257
Mof_N 	N 	0.5766	0.2865	0.7631	-0.259
Mof_Nd	Nd	0.04936	0.37088	0.70113	1.314
Mof_W 	W 	0.46159	0.66178	0.85331	0.52
Mof_C 	C 	0.4806	0.5516	0.868	-0.031
Mof_C 	C 	0.5367	0.3641	0.0393	-0.03
Mof_C 	C 	0.5589	0.2428	0.7225	-0.034
Mof_C 	C 	0.6452	0.6429	0.828	-0.062
Mof_N 	N 	0.7423	0.6344	0.8124	-0.115
Mof_C 	C 	0.2724	0.6273	0.8365	-0.074
Mof_N 	N 	0.171	0.6078	0.8267	-0.121
Mof_C 	C 	0.4312	0.6138	0.7504	-0.058
Mof_N 	N 	0.4148	0.586	0.6976	-0.133
Mof_C 	C 	0.3506	0.742	0.894	-0.063
Mof_N 	N 	0.29	0.7828	0.9149	-0.159
Mof_C 	C 	0.5915	0.7372	0.9057	-0.061
Mof_N 	N 	0.6613	0.7779	0.931	-0.139
Mof_Nd	Nd	0.41501	0.87486	0.64216	1.844
Mof_N 	N 	0.2429	0.96377	0.58234	-0.183
Mof_C 	C 	0.2557	0.0092	0.5317	-0.098
Mof_H 	H 	0.3244	0.0049	0.508	0.039
Mof_C 	C 	0.1714	0.0624	0.5128	0.219
Mof_N 	N 	0.0701	0.0684	0.544	-0.165
Mof_C 	C 	0.0542	0.0225	0.5937	0.064
Mof_H 	H 	0.9835	0.0256	0.6159	0.014
Mof_C 	C 	0.1405	0.9704	0.6131	-0.11
Mof_C 	C 	0.1926	0.1147	0.4589	-0.615
Mof_H 	H 	0.1289	0.11	0.4189	0.206
Mof_H 	H 	0.2731	0.1069	0.4449	0.195
Mof_H 	H 	0.1896	0.161	0.4781	0.198
Mof_C 	C 	0.1277	0.9201	0.6706	0.392
Mof_O 	O 	0.0267	0.91804	0.69416	-0.479
Mof_O 	O 	0.2206	0.88367	0.69198	-0.546
Mof_N 	N 	0.532	0.75919	0.61114	-0.181
Mof_C 	C 	0.4845	0.7078	0.5709	-0.079
Mof_H 	H 	0.4024	0.7115	0.5487	0.015
Mof_C 	C 	0.5523	0.648	0.5602	0.201
Mof_N 	N 	0.6669	0.6399	0.5933	-0.177
Mof_C 	C 	0.7154	0.692	0.6341	0.068
Mof_H 	H 	0.7965	0.6877	0.6577	-0.006
Mof_C 	C 	0.649	0.7521	0.6425	-0.109
Mof_C 	C 	0.4988	0.5924	0.5117	-0.562
Mof_H 	H 	0.5524	0.5846	0.4768	0.164
Mof_H 	H 	0.4175	0.6065	0.4891	0.165
Mof_H 	H 	0.4915	0.5498	0.5374	0.163
Mof_C 	C 	0.7032	0.8122	0.685	0.404
Mof_O 	O 	0.8119	0.80659	0.71664	-0.497
Mof_O 	O 	0.6363	0.86547	0.68563	-0.532
Mof_N 	N 	0.5113	0.99207	0.62666	-0.248
Mof_N 	N 	0.4552	0.87689	0.518	-0.258
Mof_N 	N 	0.4234	0.7865	0.7369	-0.258
Mof_Nd	Nd	0.95064	0.87088	0.79887	1.308
Mof_W 	W 	0.53841	0.16178	0.64669	0.519
Mof_C 	C 	0.5194	0.0516	0.632	-0.03
Mof_C 	C 	0.4633	0.8641	0.4607	-0.029
Mof_C 	C 	0.4411	0.7428	0.7775	-0.034
Mof_C 	C 	0.3548	0.1429	0.672	-0.062
Mof_N 	N 	0.2577	0.1344	0.6876	-0.115
Mof_C 	C 	0.7276	0.1273	0.6635	-0.074
Mof_N 	N 	0.829	0.1078	0.6733	-0.121
Mof_C 	C 	0.5688	0.1138	0.7496	-0.058
Mof_N 	N 	0.5852	0.086	0.8024	-0.132
Mof_C 	C 	0.6494	0.242	0.606	-0.062
Mof_N 	N 	0.71	0.2828	0.5851	-0.159
Mof_C 	C 	0.4085	0.2372	0.5943	-0.061
Mof_N 	N 	0.3387	0.2779	0.569	-0.138
Mof_Nd	Nd	0.41501	0.62514	0.14216	1.844
Mof_N 	N 	0.2429	0.53623	0.08234	-0.183
Mof_C 	C 	0.2557	0.4908	0.0317	-0.096
Mof_H 	H 	0.3244	0.4951	0.008	0.039
Mof_C 	C 	0.1714	0.4376	0.0128	0.218
Mof_N 	N 	0.0701	0.4316	0.044	-0.166
Mof_C 	C 	0.0542	0.4775	0.0937	0.073
Mof_H 	H 	0.9835	0.4744	0.1159	0.009
Mof_C 	C 	0.1405	0.5296	0.1131	-0.115
Mof_C 	C 	0.1926	0.3853	0.9589	-0.614
Mof_H 	H 	0.1289	0.39	0.9189	0.207
Mof_H 	H 	0.2731	0.3931	0.9449	0.195
Mof_H 	H 	0.1896	0.339	0.9781	0.198
Mof_C 	C 	0.1277	0.5799	0.1706	0.394
Mof_O 	O 	0.0267	0.58196	0.19416	-0.481
Mof_O 	O 	0.2206	0.61633	0.19198	-0.547
Mof_N 	N 	0.532	0.74081	0.11114	-0.182
Mof_C 	C 	0.4845	0.7922	0.0709	-0.076
Mof_H 	H 	0.4024	0.7885	0.0487	0.014
Mof_C 	C 	0.5523	0.852	0.0602	0.196
Mof_N 	N 	0.6669	0.8601	0.0933	-0.176
Mof_C 	C 	0.7154	0.808	0.1341	0.068
Mof_H 	H 	0.7965	0.8123	0.1577	-0.006
Mof_C 	C 	0.649	0.7479	0.1425	-0.109
Mof_C 	C 	0.4988	0.9076	0.0117	-0.544
Mof_H 	H 	0.5524	0.9154	0.9768	0.157
Mof_H 	H 	0.4175	0.8935	0.9891	0.158
Mof_H 	H 	0.4915	0.9502	0.0374	0.159
Mof_C 	C 	0.7032	0.6878	0.185	0.404
Mof_O 	O 	0.8119	0.69341	0.21664	-0.497
Mof_O 	O 	0.6363	0.63453	0.18563	-0.532
Mof_N 	N 	0.5113	0.50793	0.12666	-0.248
Mof_N 	N 	0.4552	0.62311	0.018	-0.257
Mof_N 	N 	0.4234	0.7135	0.2369	-0.259
Mof_Nd	Nd	0.95064	0.62912	0.29887	1.314
Mof_W 	W 	0.53841	0.33822	0.14669	0.52
Mof_C 	C 	0.5194	0.4484	0.132	-0.031
Mof_C 	C 	0.4633	0.6359	0.9607	-0.03
Mof_C 	C 	0.4411	0.7572	0.2775	-0.034
Mof_C 	C 	0.3548	0.3571	0.172	-0.062
Mof_N 	N 	0.2577	0.3656	0.1876	-0.115
Mof_C 	C 	0.7276	0.3727	0.1635	-0.074
Mof_N 	N 	0.829	0.3922	0.1733	-0.121
Mof_C 	C 	0.5688	0.3862	0.2496	-0.058
Mof_N 	N 	0.5852	0.414	0.3024	-0.133
Mof_C 	C 	0.6494	0.258	0.106	-0.063
Mof_N 	N 	0.71	0.2172	0.0851	-0.159
Mof_C 	C 	0.4085	0.2628	0.0943	-0.061
Mof_N 	N 	0.3387	0.2221	0.069	-0.139
Mof_Nd	Nd	0.58499	0.12514	0.35784	1.844
Mof_N 	N 	0.7571	0.03623	0.41766	-0.183
Mof_C 	C 	0.7443	0.9908	0.4683	-0.098
Mof_H 	H 	0.6756	0.9951	0.492	0.039
Mof_C 	C 	0.8286	0.9376	0.4872	0.219
Mof_N 	N 	0.9299	0.9316	0.456	-0.165
Mof_C 	C 	0.9458	0.9775	0.4063	0.064
Mof_H 	H 	0.0165	0.9744	0.3841	0.014
Mof_C 	C 	0.8595	0.0296	0.3869	-0.11
Mof_C 	C 	0.8074	0.8853	0.5411	-0.615
Mof_H 	H 	0.8711	0.89	0.5811	0.206
Mof_H 	H 	0.7269	0.8931	0.5551	0.195
Mof_H 	H 	0.8104	0.839	0.5219	0.198
Mof_C 	C 	0.8723	0.0799	0.3294	0.392
Mof_O 	O 	0.9733	0.08196	0.30584	-0.479
Mof_O 	O 	0.7794	0.11633	0.30802	-0.546
Mof_N 	N 	0.468	0.24081	0.38886	-0.181
Mof_C 	C 	0.5155	0.2922	0.4291	-0.079
Mof_H 	H 	0.5976	0.2885	0.4513	0.015
Mof_C 	C 	0.4477	0.352	0.4398	0.201
Mof_N 	N 	0.3331	0.3601	0.4067	-0.177
Mof_C 	C 	0.2846	0.308	0.3659	0.068
Mof_H 	H 	0.2035	0.3123	0.3423	-0.006
Mof_C 	C 	0.351	0.2479	0.3575	-0.109
Mof_C 	C 	0.5012	0.4076	0.4883	-0.562
Mof_H 	H 	0.4476	0.4154	0.5232	0.164
Mof_H 	H 	0.5825	0.3935	0.5109	0.165
Mof_H 	H 	0.5085	0.4502	0.4626	0.163
Mof_C 	C 	0.2968	0.1878	0.315	0.404
Mof_O 	O 	0.1881	0.19341	0.28336	-0.497
Mof_O 	O 	0.3637	0.13453	0.31437	-0.532
Mof_N 	N 	0.4887	0.00793	0.37334	-0.248
Mof_N 	N 	0.5448	0.12311	0.482	-0.258
Mof_N 	N 	0.5766	0.2135	0.2631	-0.258
Mof_Nd	Nd	0.04936	0.12912	0.20113	1.308
Mof_W 	W 	0.46159	0.83822	0.35331	0.519
Mof_C 	C 	0.4806	0.9484	0.368	-0.03
Mof_C 	C 	0.5367	0.1359	0.5393	-0.029
Mof_C 	C 	0.5589	0.2572	0.2225	-0.034
Mof_C 	C 	0.6452	0.8571	0.328	-0.062
Mof_N 	N 	0.7423	0.8656	0.3124	-0.115
Mof_C 	C 	0.2724	0.8727	0.3365	-0.074
Mof_N 	N 	0.171	0.8922	0.3267	-0.121
Mof_C 	C 	0.4312	0.8862	0.2504	-0.058
Mof_N 	N 	0.4148	0.914	0.1976	-0.132
Mof_C 	C 	0.3506	0.758	0.394	-0.062
Mof_N 	N 	0.29	0.7172	0.4149	-0.159
Mof_C 	C 	0.5915	0.7628	0.4057	-0.061
Mof_N 	N 	0.6613	0.7221	0.431	-0.138
_end
