# CIF file generated by openbabel 3.1.0, see https://openbabel.org
data_I
_chemical_name_common 'OCAQOY_clean'
_cell_length_a 11.2402
_cell_length_b 11.5366
_cell_length_c 16.1963
_cell_angle_alpha 104.945
_cell_angle_beta 110.304
_cell_angle_gamma 90
_space_group_name_H-M_alt 'P 1'
_space_group_name_Hall 'P 1'
loop_
    _symmetry_equiv_pos_as_xyz
    x,y,z
loop_
    _atom_site_label
    _atom_site_type_symbol
    _atom_site_fract_x
    _atom_site_fract_y
    _atom_site_fract_z
    _atom_site_occupancy
    V1       V        0.19527    0.17863    0.21366    1.000
    V2       V        0.05129    0.43583    0.28966    1.000
    V3       V        0.98161    0.32137    0.78634    1.000
    V4       V        0.76163    0.06417    0.71034    1.000
    V5       V        0.80473    0.82137    0.78634    1.000
    V6       V        0.94871    0.56417    0.71034    1.000
    V7       V        0.01839    0.67863    0.21366    1.000
    V8       V        0.23837    0.93583    0.28966    1.000
    Ni1      Ni       0.00000    0.50000    0.50000    1.000
    Ni2      Ni       0.50000    0.00000    0.50000    1.000
    Ni3      Ni       0.00000    0.50000    0.00000    1.000
    Ni4      Ni       0.00000    0.00000    0.00000    1.000
    H1       H        0.14000    0.35900    0.64000    1.000
    H2       H        0.32600    0.36300    0.73600    1.000
    H3       H        0.47300    0.63600    0.68200    1.000
    H4       H        0.26400    0.64000    0.57800    1.000
    H5       H        0.56700    0.31000    0.76400    1.000
    H6       H        0.78100    0.32200    0.87000    1.000
    H7       H        0.80600    0.66900    0.94200    1.000
    H8       H        0.61700    0.67100    0.84400    1.000
    H9       H        0.87700    0.31300    0.56000    1.000
    H10      H        0.87700    0.12300    0.57400    1.000
    H11      H        0.10130    0.06550    0.40700    1.000
    H12      H        0.08200    0.25600    0.40000    1.000
    H13      H        0.50000    0.14100    0.36000    1.000
    H14      H        0.59000    0.13700    0.26400    1.000
    H15      H        0.79100    0.86400    0.31800    1.000
    H16      H        0.68600    0.86000    0.42200    1.000
    H17      H        0.80300    0.19000    0.23600    1.000
    H18      H        0.91100    0.17800    0.13000    1.000
    H19      H        0.86400    0.83100    0.05800    1.000
    H20      H        0.77300    0.82900    0.15600    1.000
    H21      H        0.31700    0.18700    0.44000    1.000
    H22      H        0.30300    0.37700    0.42600    1.000
    H23      H        0.69430    0.43450    0.59300    1.000
    H24      H        0.68200    0.24400    0.60000    1.000
    H25      H        0.86000    0.64100    0.36000    1.000
    H26      H        0.67400    0.63700    0.26400    1.000
    H27      H        0.52700    0.36400    0.31800    1.000
    H28      H        0.73600    0.36000    0.42200    1.000
    H29      H        0.43300    0.69000    0.23600    1.000
    H30      H        0.21900    0.67800    0.13000    1.000
    H31      H        0.19400    0.33100    0.05800    1.000
    H32      H        0.38300    0.32900    0.15600    1.000
    H33      H        0.12300    0.68700    0.44000    1.000
    H34      H        0.12300    0.87700    0.42600    1.000
    H35      H        0.89870    0.93450    0.59300    1.000
    H36      H        0.91800    0.74400    0.60000    1.000
    H37      H        0.50000    0.85900    0.64000    1.000
    H38      H        0.41000    0.86300    0.73600    1.000
    H39      H        0.20900    0.13600    0.68200    1.000
    H40      H        0.31400    0.14000    0.57800    1.000
    H41      H        0.19700    0.81000    0.76400    1.000
    H42      H        0.08900    0.82200    0.87000    1.000
    H43      H        0.13600    0.16900    0.94200    1.000
    H44      H        0.22700    0.17100    0.84400    1.000
    H45      H        0.68300    0.81300    0.56000    1.000
    H46      H        0.69700    0.62300    0.57400    1.000
    H47      H        0.30570    0.56550    0.40700    1.000
    H48      H        0.31800    0.75600    0.40000    1.000
    C1       C        0.21110    0.41890    0.64760    1.000
    C2       C        0.32950    0.41420    0.71120    1.000
    C3       C        0.42990    0.49710    0.72880    1.000
    C4       C        0.40450    0.58330    0.67920    1.000
    C5       C        0.28420    0.58050    0.61640    1.000
    C6       C        0.55910    0.49470    0.79540    1.000
    C7       C        0.61020    0.38810    0.80700    1.000
    C8       C        0.73330    0.39240    0.86740    1.000
    C9       C        0.75810    0.59700    0.90560    1.000
    C10      C        0.63550    0.60110    0.84760    1.000
    C11      C        0.91675    0.25720    0.52770    1.000
    C12      C        0.92340    0.14090    0.53620    1.000
    C13      C        0.99202    0.06200    0.49404    1.000
    C14      C        0.04520    0.10600    0.44200    1.000
    C15      C        0.03290    0.22360    0.43480    1.000
    C16      C        0.56350    0.08110    0.35240    1.000
    C17      C        0.61830    0.08580    0.28880    1.000
    C18      C        0.70110    0.00290    0.27120    1.000
    C19      C        0.72530    0.91670    0.32080    1.000
    C20      C        0.66780    0.91950    0.38360    1.000
    C21      C        0.76370    0.00530    0.20460    1.000
    C22      C        0.80320    0.11190    0.19300    1.000
    C23      C        0.86590    0.10760    0.13260    1.000
    C24      C        0.85250    0.90300    0.09440    1.000
    C25      C        0.78790    0.89890    0.15240    1.000
    C26      C        0.38905    0.24280    0.47230    1.000
    C27      C        0.38720    0.35910    0.46380    1.000
    C28      C        0.49798    0.43800    0.50596    1.000
    C29      C        0.60320    0.39400    0.55800    1.000
    C30      C        0.59810    0.27640    0.56520    1.000
    C31      C        0.78890    0.58110    0.35240    1.000
    C32      C        0.67050    0.58580    0.28880    1.000
    C33      C        0.57010    0.50290    0.27120    1.000
    C34      C        0.59550    0.41670    0.32080    1.000
    C35      C        0.71580    0.41950    0.38360    1.000
    C36      C        0.44090    0.50530    0.20460    1.000
    C37      C        0.38980    0.61190    0.19300    1.000
    C38      C        0.26670    0.60760    0.13260    1.000
    C39      C        0.24190    0.40300    0.09440    1.000
    C40      C        0.36450    0.39890    0.15240    1.000
    C41      C        0.08325    0.74280    0.47230    1.000
    C42      C        0.07660    0.85910    0.46380    1.000
    C43      C        0.00798    0.93800    0.50596    1.000
    C44      C        0.95480    0.89400    0.55800    1.000
    C45      C        0.96710    0.77640    0.56520    1.000
    C46      C        0.43650    0.91890    0.64760    1.000
    C47      C        0.38170    0.91420    0.71120    1.000
    C48      C        0.29890    0.99710    0.72880    1.000
    C49      C        0.27470    0.08330    0.67920    1.000
    C50      C        0.33220    0.08050    0.61640    1.000
    C51      C        0.23630    0.99470    0.79540    1.000
    C52      C        0.19680    0.88810    0.80700    1.000
    C53      C        0.13410    0.89240    0.86740    1.000
    C54      C        0.14750    0.09700    0.90560    1.000
    C55      C        0.21210    0.10110    0.84760    1.000
    C56      C        0.61095    0.75720    0.52770    1.000
    C57      C        0.61280    0.64090    0.53620    1.000
    C58      C        0.50202    0.56200    0.49404    1.000
    C59      C        0.39680    0.60600    0.44200    1.000
    C60      C        0.40190    0.72360    0.43480    1.000
    N1       N        0.18718    0.49880    0.59916    1.000
    N2       N        0.97184    0.30170    0.47948    1.000
    N3       N        0.80819    0.49510    0.91698    1.000
    N4       N        0.58802    0.00120    0.40084    1.000
    N5       N        0.49236    0.19830    0.52052    1.000
    N6       N        0.89121    0.00490    0.08302    1.000
    N7       N        0.81282    0.50120    0.40084    1.000
    N8       N        0.02816    0.69830    0.52052    1.000
    N9       N        0.19181    0.50490    0.08302    1.000
    N10      N        0.41198    0.99880    0.59916    1.000
    N11      N        0.50764    0.80170    0.47948    1.000
    N12      N        0.10879    0.99510    0.91698    1.000
    O1       O        0.07469    0.47190    0.40058    1.000
    O2       O        0.12186    0.13660    0.10052    1.000
    O3       O        0.09965    0.56560    0.26310    1.000
    O4       O        0.14641    0.31790    0.26482    1.000
    O5       O        0.67411    0.02810    0.59942    1.000
    O6       O        0.02134    0.36340    0.89948    1.000
    O7       O        0.83655    0.93440    0.73690    1.000
    O8       O        0.88159    0.18210    0.73518    1.000
    O9       O        0.92531    0.52810    0.59942    1.000
    O10      O        0.87814    0.86340    0.89948    1.000
    O11      O        0.90035    0.43440    0.73690    1.000
    O12      O        0.85359    0.68210    0.73518    1.000
    O13      O        0.32589    0.97190    0.40058    1.000
    O14      O        0.97866    0.63660    0.10052    1.000
    O15      O        0.16345    0.06560    0.26310    1.000
    O16      O        0.11841    0.81790    0.26482    1.000
