# CIF file generated by openbabel 3.1.0, see https://openbabel.org
data_I
_chemical_name_common 'WENSIS_clean'
_cell_length_a 8.92
_cell_length_b 9.1767
_cell_length_c 9.1767
_cell_angle_alpha 76.3371
_cell_angle_beta 60.9211
_cell_angle_gamma 60.9212
_space_group_name_H-M_alt 'P 1'
_space_group_name_Hall 'P 1'
loop_
    _symmetry_equiv_pos_as_xyz
    x,y,z
loop_
    _atom_site_label
    _atom_site_type_symbol
    _atom_site_fract_x
    _atom_site_fract_y
    _atom_site_fract_z
    _atom_site_occupancy
    K1       K        0.50000    0.00000    0.00000    1.000
    K2       K        0.25000    0.50000    0.50000    1.000
    Ca1      Ca       0.75000    0.50000    0.50000    1.000
    Zr1      Zr       0.00000    0.00000    0.00000    1.000
    C1       C        0.80240    0.21820    0.77800    1.000
    C2       C        0.95760    0.27140    0.73820    1.000
    C3       C        0.79860    0.78180    0.22200    1.000
    C4       C        0.96720    0.72860    0.26180    1.000
    C5       C        0.41960    0.77800    0.78180    1.000
    C6       C        0.30420    0.73820    0.72860    1.000
    C7       C        0.97940    0.22200    0.21820    1.000
    C8       C        0.77100    0.26180    0.27140    1.000
    O1       O        0.79640    0.10440    0.88600    1.000
    O2       O        0.05810    0.18920    0.81820    1.000
    O3       O        0.70050    0.28830    0.70370    1.000
    O4       O        0.97120    0.38450    0.63730    1.000
    O5       O        0.78680    0.89560    0.11400    1.000
    O6       O        0.06550    0.81080    0.18180    1.000
    O7       O        0.69250    0.71170    0.29630    1.000
    O8       O        0.99300    0.61550    0.36270    1.000
    O9       O        0.31760    0.88600    0.89560    1.000
    O10      O        0.12370    0.81820    0.81080    1.000
    O11      O        0.59580    0.70370    0.71170    1.000
    O12      O        0.39150    0.63730    0.61550    1.000
    O13      O        0.09920    0.11400    0.10440    1.000
    O14      O        0.75270    0.18180    0.18920    1.000
    O15      O        0.01120    0.29630    0.28830    1.000
    O16      O        0.64430    0.36270    0.38450    1.000
