data_functionalizedCrystal
_audit_creation_method	'EQeq! by Chris Wilmer'
_symmetry_space_group_name_H-M	'P1'
_symmetry_Int_Tables_number	1
_symmetry_cell_setting	triclinic
loop_
_symmetry_equiv_pos_as_xyz
  x,y,z
_cell_length_a	16.176
_cell_length_b	16.473
_cell_length_c	16.473
_cell_angle_alpha	76.0505
_cell_angle_beta	60.5946
_cell_angle_gamma	60.5946
loop_
_atom_site_label
_atom_site_type_symbol
_atom_site_fract_x
_atom_site_fract_y
_atom_site_fract_z
_atom_site_charge
Mof_Eu	Eu	0.23742	0.87893	0.46873	1.968
Mof_Eu	Eu	0.03567	0.61374	0.47688	2.13
Mof_Eu	Eu	0.08508	0.62107	0.03127	1.933
Mof_Eu	Eu	0.62629	0.88626	0.02312	2.116
Mof_Eu	Eu	0.70615	0.53127	0.37893	1.972
Mof_Eu	Eu	0.51255	0.52312	0.11374	2.137
Mof_Eu	Eu	0.11635	0.96873	0.12107	1.906
Mof_Eu	Eu	0.64941	0.97688	0.38626	2.135
Mof_Eu	Eu	0.76258	0.12107	0.53127	1.967
Mof_Eu	Eu	0.96433	0.38626	0.52312	2.129
Mof_Eu	Eu	0.91492	0.37893	0.96873	1.932
Mof_Eu	Eu	0.37371	0.11374	0.97688	2.115
Mof_Eu	Eu	0.29385	0.46873	0.62107	1.972
Mof_Eu	Eu	0.48745	0.47688	0.88626	2.137
Mof_Eu	Eu	0.88365	0.03127	0.87893	1.906
Mof_Eu	Eu	0.35059	0.02312	0.61374	2.135
Mof_H 	H 	0.0571	0.753	0.2486	-0.065
Mof_H 	H 	0.3627	0.9029	0.2189	-0.078
Mof_H 	H 	0.5587	0.747	0.2514	-0.064
Mof_H 	H 	0.9845	0.5971	0.2811	-0.07
Mof_H 	H 	0.3057	0.7514	0.253	-0.064
Mof_H 	H 	0.5816	0.7811	0.4029	-0.077
Mof_H 	H 	0.8101	0.7486	0.247	-0.063
Mof_H 	H 	0.2656	0.7189	0.0971	-0.077
Mof_H 	H 	0.9429	0.247	0.7514	-0.065
Mof_H 	H 	0.6373	0.0971	0.7811	-0.078
Mof_H 	H 	0.4413	0.253	0.7486	-0.064
Mof_H 	H 	0.0155	0.4029	0.7189	-0.07
Mof_H 	H 	0.6943	0.2486	0.747	-0.064
Mof_H 	H 	0.4184	0.2189	0.5971	-0.077
Mof_H 	H 	0.1899	0.2514	0.753	-0.063
Mof_H 	H 	0.7344	0.2811	0.9029	-0.077
Mof_C 	C 	0.0686	0.7788	0.2842	0.157
Mof_C 	C 	0.0963	0.8693	0.3299	-0.099
Mof_C 	C 	0.09	0.7976	0.3952	-0.084
Mof_C 	C 	0.0935	0.7771	0.4863	0.42
Mof_C 	C 	0.1161	0.9497	0.3209	0.397
Mof_C 	C 	0.3981	0.9152	0.2414	0.16
Mof_C 	C 	0.4353	0.9445	0.3363	-0.056
Mof_C 	C 	0.5047	0.9504	0.2486	-0.095
Mof_C 	C 	0.5969	0.97	0.2074	0.417
Mof_C 	C 	0.4192	0.9517	0.4321	0.38
Mof_C 	C 	0.6316	0.7212	0.2158	0.159
Mof_C 	C 	0.7955	0.6307	0.1701	-0.105
Mof_C 	C 	0.7828	0.7024	0.1048	-0.077
Mof_C 	C 	0.8569	0.7229	0.0137	0.407
Mof_C 	C 	0.8867	0.5503	0.1791	0.42
Mof_C 	C 	0.0547	0.5848	0.2586	0.152
Mof_C 	C 	0.2161	0.5555	0.1637	-0.052
Mof_C 	C 	0.2037	0.5496	0.2514	-0.095
Mof_C 	C 	0.2743	0.53	0.2926	0.418
Mof_C 	C 	0.303	0.5483	0.0679	0.373
Mof_C 	C 	0.3528	0.7158	0.2788	0.159
Mof_C 	C 	0.4262	0.6701	0.3693	-0.106
Mof_C 	C 	0.4852	0.6048	0.2976	-0.081
Mof_C 	C 	0.5798	0.5137	0.2771	0.419
Mof_C 	C 	0.437	0.6791	0.4497	0.422
Mof_C 	C 	0.6395	0.7586	0.4152	0.162
Mof_C 	C 	0.7716	0.6637	0.4445	-0.055
Mof_C 	C 	0.7533	0.7514	0.4504	-0.094
Mof_C 	C 	0.8043	0.7926	0.47	0.418
Mof_C 	C 	0.8513	0.5679	0.4517	0.38
Mof_C 	C 	0.8474	0.7842	0.2212	0.159
Mof_C 	C 	0.9656	0.8299	0.1307	-0.085
Mof_C 	C 	0.8876	0.8952	0.2024	-0.082
Mof_C 	C 	0.8706	0.9863	0.2229	0.413
Mof_C 	C 	0.0658	0.8209	0.0503	0.385
Mof_C 	C 	0.3133	0.7414	0.0848	0.16
Mof_C 	C 	0.3798	0.8363	0.0555	-0.048
Mof_C 	C 	0.4551	0.7486	0.0496	-0.098
Mof_C 	C 	0.5669	0.7074	0.03	0.418
Mof_C 	C 	0.3709	0.9321	0.0483	0.352
Mof_C 	C 	0.9314	0.2212	0.7158	0.157
Mof_C 	C 	0.9037	0.1307	0.6701	-0.099
Mof_C 	C 	0.91	0.2024	0.6048	-0.084
Mof_C 	C 	0.9065	0.2229	0.5137	0.42
Mof_C 	C 	0.8839	0.0503	0.6791	0.397
Mof_C 	C 	0.6019	0.0848	0.7586	0.16
Mof_C 	C 	0.5647	0.0555	0.6637	-0.056
Mof_C 	C 	0.4953	0.0496	0.7514	-0.095
Mof_C 	C 	0.4031	0.03	0.7926	0.417
Mof_C 	C 	0.5808	0.0483	0.5679	0.38
Mof_C 	C 	0.3684	0.2788	0.7842	0.159
Mof_C 	C 	0.2045	0.3693	0.8299	-0.105
Mof_C 	C 	0.2172	0.2976	0.8952	-0.077
Mof_C 	C 	0.1431	0.2771	0.9863	0.407
Mof_C 	C 	0.1133	0.4497	0.8209	0.42
Mof_C 	C 	0.9453	0.4152	0.7414	0.152
Mof_C 	C 	0.7839	0.4445	0.8363	-0.052
Mof_C 	C 	0.7963	0.4504	0.7486	-0.095
Mof_C 	C 	0.7257	0.47	0.7074	0.418
Mof_C 	C 	0.697	0.4517	0.9321	0.373
Mof_C 	C 	0.6472	0.2842	0.7212	0.159
Mof_C 	C 	0.5738	0.3299	0.6307	-0.106
Mof_C 	C 	0.5148	0.3952	0.7024	-0.081
Mof_C 	C 	0.4202	0.4863	0.7229	0.419
Mof_C 	C 	0.563	0.3209	0.5503	0.422
Mof_C 	C 	0.3605	0.2414	0.5848	0.162
Mof_C 	C 	0.2284	0.3363	0.5555	-0.055
Mof_C 	C 	0.2467	0.2486	0.5496	-0.094
Mof_C 	C 	0.1957	0.2074	0.53	0.418
Mof_C 	C 	0.1487	0.4321	0.5483	0.38
Mof_C 	C 	0.1526	0.2158	0.7788	0.159
Mof_C 	C 	0.0344	0.1701	0.8693	-0.085
Mof_C 	C 	0.1124	0.1048	0.7976	-0.082
Mof_C 	C 	0.1294	0.0137	0.7771	0.413
Mof_C 	C 	0.9342	0.1791	0.9497	0.385
Mof_C 	C 	0.6867	0.2586	0.9152	0.16
Mof_C 	C 	0.6202	0.1637	0.9445	-0.048
Mof_C 	C 	0.5449	0.2514	0.9504	-0.098
Mof_C 	C 	0.4331	0.2926	0.97	0.418
Mof_C 	C 	0.6291	0.0679	0.9517	0.352
Mof_N 	N 	0.0734	0.74	0.3646	-0.253
Mof_N 	N 	0.0813	0.8568	0.2588	-0.249
Mof_N 	N 	0.3683	0.9178	0.3322	-0.286
Mof_N 	N 	0.4823	0.9313	0.1851	-0.279
Mof_N 	N 	0.678	0.76	0.1354	-0.253
Mof_N 	N 	0.6969	0.6432	0.2412	-0.249
Mof_N 	N 	0.1183	0.5822	0.1678	-0.284
Mof_N 	N 	0.0987	0.5687	0.3149	-0.278
Mof_N 	N 	0.438	0.6354	0.24	-0.253
Mof_N 	N 	0.3401	0.7412	0.3568	-0.249
Mof_N 	N 	0.7005	0.6678	0.4178	-0.286
Mof_N 	N 	0.6674	0.8149	0.4313	-0.28
Mof_N 	N 	0.8134	0.8646	0.26	-0.253
Mof_N 	N 	0.9381	0.7588	0.1432	-0.248
Mof_N 	N 	0.2861	0.8322	0.0822	-0.285
Mof_N 	N 	0.4136	0.6851	0.0687	-0.279
Mof_N 	N 	0.9266	0.26	0.6354	-0.253
Mof_N 	N 	0.9187	0.1432	0.7412	-0.249
Mof_N 	N 	0.6317	0.0822	0.6678	-0.286
Mof_N 	N 	0.5177	0.0687	0.8149	-0.279
Mof_N 	N 	0.322	0.24	0.8646	-0.253
Mof_N 	N 	0.3031	0.3568	0.7588	-0.249
Mof_N 	N 	0.8817	0.4178	0.8322	-0.284
Mof_N 	N 	0.9013	0.4313	0.6851	-0.278
Mof_N 	N 	0.562	0.3646	0.76	-0.253
Mof_N 	N 	0.6599	0.2588	0.6432	-0.249
Mof_N 	N 	0.2995	0.3322	0.5822	-0.286
Mof_N 	N 	0.3326	0.1851	0.5687	-0.28
Mof_N 	N 	0.1866	0.1354	0.74	-0.253
Mof_N 	N 	0.0619	0.2412	0.8568	-0.248
Mof_N 	N 	0.7139	0.1678	0.9178	-0.285
Mof_N 	N 	0.5864	0.3149	0.9313	-0.279
Mof_O 	O 	0.073	0.709	0.5306	-0.544
Mof_O 	O 	0.114	0.8213	0.5197	-0.566
Mof_O 	O 	0.1517	0.9543	0.3715	-0.55
Mof_O 	O 	0.0977	0.0096	0.2602	-0.514
Mof_O 	O 	0.6534	0.9579	0.1179	-0.504
Mof_O 	O 	0.618	0.9961	0.2567	-0.568
Mof_O 	O 	0.4687	0.9842	0.444	-0.659
Mof_O 	O 	0.3494	0.9301	0.5001	-0.578
Mof_O 	O 	0.8126	0.791	0.9694	-0.53
Mof_O 	O 	0.955	0.6787	0.9803	-0.555
Mof_O 	O 	0.9775	0.5457	0.1285	-0.545
Mof_O 	O 	0.8675	0.4904	0.2398	-0.542
Mof_O 	O 	0.2292	0.5421	0.3821	-0.504
Mof_O 	O 	0.3708	0.5039	0.2433	-0.567
Mof_O 	O 	0.3969	0.5158	0.056	-0.657
Mof_O 	O 	0.2796	0.5699	0.9999	-0.567
Mof_O 	O 	0.6036	0.4694	0.209	-0.543
Mof_O 	O 	0.6337	0.4803	0.3213	-0.566
Mof_O 	O 	0.5232	0.6285	0.4543	-0.554
Mof_O 	O 	0.3579	0.7398	0.5096	-0.543
Mof_O 	O 	0.7713	0.8821	0.4579	-0.502
Mof_O 	O 	0.8747	0.7433	0.4961	-0.563
Mof_O 	O 	0.9127	0.556	0.4842	-0.657
Mof_O 	O 	0.8495	0.4999	0.4301	-0.577
Mof_O 	O 	0.782	0.0306	0.291	-0.539
Mof_O 	O 	0.9353	0.0197	0.1787	-0.549
Mof_O 	O 	0.106	0.8715	0.0457	-0.544
Mof_O 	O 	0.1073	0.7602	0.9904	-0.516
Mof_O 	O 	0.6113	0.6179	0.0421	-0.504
Mof_O 	O 	0.6141	0.7567	0.0039	-0.565
Mof_O 	O 	0.4529	0.944	0.0158	-0.653
Mof_O 	O 	0.2795	0.0001	0.0699	-0.543
Mof_O 	O 	0.927	0.291	0.4694	-0.544
Mof_O 	O 	0.886	0.1787	0.4803	-0.566
Mof_O 	O 	0.8483	0.0457	0.6285	-0.55
Mof_O 	O 	0.9023	0.9904	0.7398	-0.514
Mof_O 	O 	0.3466	0.0421	0.8821	-0.504
Mof_O 	O 	0.382	0.0039	0.7433	-0.568
Mof_O 	O 	0.5313	0.0158	0.556	-0.659
Mof_O 	O 	0.6506	0.0699	0.4999	-0.578
Mof_O 	O 	0.1874	0.209	0.0306	-0.53
Mof_O 	O 	0.045	0.3213	0.0197	-0.555
Mof_O 	O 	0.0225	0.4543	0.8715	-0.545
Mof_O 	O 	0.1325	0.5096	0.7602	-0.542
Mof_O 	O 	0.7708	0.4579	0.6179	-0.504
Mof_O 	O 	0.6292	0.4961	0.7567	-0.567
Mof_O 	O 	0.6031	0.4842	0.944	-0.657
Mof_O 	O 	0.7204	0.4301	0.0001	-0.567
Mof_O 	O 	0.3964	0.5306	0.791	-0.543
Mof_O 	O 	0.3663	0.5197	0.6787	-0.566
Mof_O 	O 	0.4768	0.3715	0.5457	-0.554
Mof_O 	O 	0.6421	0.2602	0.4904	-0.543
Mof_O 	O 	0.2287	0.1179	0.5421	-0.502
Mof_O 	O 	0.1253	0.2567	0.5039	-0.563
Mof_O 	O 	0.0873	0.444	0.5158	-0.657
Mof_O 	O 	0.1505	0.5001	0.5699	-0.577
Mof_O 	O 	0.218	0.9694	0.709	-0.539
Mof_O 	O 	0.0647	0.9803	0.8213	-0.549
Mof_O 	O 	0.894	0.1285	0.9543	-0.544
Mof_O 	O 	0.8927	0.2398	0.0096	-0.516
Mof_O 	O 	0.3887	0.3821	0.9579	-0.504
Mof_O 	O 	0.3859	0.2433	0.9961	-0.565
Mof_O 	O 	0.5471	0.056	0.9842	-0.653
Mof_O 	O 	0.7205	0.9999	0.9301	-0.543
_end
