# CIF file generated by openbabel 3.1.0, see https://openbabel.org
data_I
_chemical_name_common 'image0'
_cell_length_a 27.005
_cell_length_b 18.564
_cell_length_c 36.389
_cell_angle_alpha 90
_cell_angle_beta 98.848
_cell_angle_gamma 90
_space_group_name_H-M_alt 'P 1'
_space_group_name_Hall 'P 1'
loop_
    _symmetry_equiv_pos_as_xyz
    x,y,z
loop_
    _atom_site_label
    _atom_site_type_symbol
    _atom_site_fract_x
    _atom_site_fract_y
    _atom_site_fract_z
    _atom_site_occupancy
    Fe1      Fe       0.23886    0.09177    0.20150    1.000
    Fe2      Fe       0.29651    0.14902    0.13329    1.000
    Fe3      Fe       0.19052    0.22390    0.14685    1.000
    O1       O        0.31175    0.10645    0.22492    1.000
    O2       O        0.34884    0.15148    0.17945    1.000
    O3       O        0.69497    0.75712    0.37106    1.000
    O4       O        0.76343    0.80742    0.35516    1.000
    O5       O        0.69661    0.53890    0.36717    1.000
    O6       O        0.74107    0.50245    0.32468    1.000
    O7       O        0.16591    0.06360    0.18470    1.000
    O8       O        0.13409    0.15207    0.14703    1.000
    O9       O        0.81642    0.75488    0.30075    1.000
    O10      O        0.78198    0.66665    0.26399    1.000
    O11      O        0.81395    0.79366    0.90824    1.000
    O12      O        0.74736    0.85702    0.91760    1.000
    O13      O        0.24164    0.15525    0.16039    1.000
    N1       N        0.53913    0.27700    0.30815    1.000
    H1       H        0.55390    0.31860    0.31420    1.000
    H2       H        0.50800    0.27610    0.29660    1.000
    N2       N        0.94854    0.94970    0.05866    1.000
    H3       H        0.97660    0.97430    0.06380    1.000
    H4       H        0.93470    0.94340    0.03540    1.000
    C1       C        0.34819    0.12996    0.21219    1.000
    C2       C        0.39689    0.13548    0.23797    1.000
    C3       C        0.40347    0.10541    0.27215    1.000
    H5       H        0.37630    0.08120    0.28060    1.000
    C4       C        0.45000    0.10950    0.29538    1.000
    H6       H        0.45380    0.08770    0.31930    1.000
    C5       C        0.48978    0.14385    0.28454    1.000
    C6       C        0.48259    0.17670    0.25029    1.000
    H7       H        0.50930    0.20320    0.24260    1.000
    C7       C        0.43665    0.17190    0.22655    1.000
    H8       H        0.43280    0.19350    0.20260    1.000
    C8       C        0.54131    0.14574    0.30764    1.000
    C9       C        0.56601    0.08175    0.31746    1.000
    H9       H        0.54960    0.03710    0.31140    1.000
    C10      C        0.61551    0.08256    0.33650    1.000
    C11      C        0.63845    0.14953    0.34475    1.000
    H10      H        0.67190    0.15080    0.35750    1.000
    C12      C        0.61455    0.21278    0.33509    1.000
    C13      C        0.56558    0.21156    0.31696    1.000
    C14      C        0.64163    0.01380    0.34538    1.000
    C15      C        0.61776    0.95240    0.35510    1.000
    H11      H        0.58320    0.95480    0.35740    1.000
    C16      C        0.64278    0.88769    0.36152    1.000
    H12      H        0.62530    0.84720    0.36910    1.000
    C17      C        0.69184    0.88030    0.35728    1.000
    C18      C        0.71690    0.94180    0.34812    1.000
    H13      H        0.75140    0.93910    0.34570    1.000
    C19      C        0.69162    0.00730    0.34245    1.000
    H14      H        0.70940    0.04870    0.33640    1.000
    C20      C        0.71947    0.80960    0.36154    1.000
    C21      C        0.64112    0.28367    0.34192    1.000
    C22      C        0.68088    0.29786    0.32459    1.000
    H15      H        0.69330    0.26100    0.31030    1.000
    C23      C        0.70435    0.36557    0.32710    1.000
    H16      H        0.73160    0.37370    0.31400    1.000
    C24      C        0.68938    0.41892    0.34743    1.000
    C25      C        0.65168    0.40227    0.36650    1.000
    H17      H        0.64120    0.43730    0.38270    1.000
    C26      C        0.62783    0.33640    0.36331    1.000
    H18      H        0.60090    0.32830    0.37680    1.000
    C27      C        0.71057    0.49194    0.34626    1.000
    C28      C        0.13143    0.09230    0.16265    1.000
    C29      C        0.08397    0.05110    0.15306    1.000
    C30      C        0.04479    0.07980    0.12974    1.000
    H19      H        0.04720    0.12700    0.12010    1.000
    C31      C        0.00118    0.04000    0.11994    1.000
    H20      H        0.97460    0.05980    0.10280    1.000
    C32      C        0.99564    0.97220    0.13453    1.000
    C33      C        0.03575    0.94400    0.15867    1.000
    H21      H        0.03330    0.89730    0.16890    1.000
    C34      C        0.07965    0.98400    0.16789    1.000
    H22      H        0.10680    0.96450    0.18460    1.000
    C35      C        0.94769    0.93034    0.12512    1.000
    C36      C        0.92589    0.89898    0.15298    1.000
    H23      H        0.94200    0.90500    0.17790    1.000
    C37      C        0.88191    0.85910    0.14703    1.000
    C38      C        0.86004    0.85004    0.10959    1.000
    H24      H        0.82980    0.82330    0.10420    1.000
    C39      C        0.88129    0.87898    0.08020    1.000
    C40      C        0.92493    0.91950    0.08871    1.000
    C41      C        0.86073    0.82520    0.17742    1.000
    C42      C        0.83834    0.76060    0.17445    1.000
    H25      H        0.83540    0.73610    0.15130    1.000
    C43      C        0.81921    0.72790    0.20362    1.000
    H26      H        0.80330    0.68220    0.20010    1.000
    C44      C        0.82332    0.76190    0.23767    1.000
    C45      C        0.84533    0.82700    0.24121    1.000
    H27      H        0.84890    0.85110    0.26450    1.000
    C46      C        0.86289    0.85970    0.21141    1.000
    H28      H        0.87670    0.90680    0.21440    1.000
    C47      C        0.80587    0.72370    0.26958    1.000
    C48      C        0.85747    0.86655    0.04100    1.000
    C49      C        0.88135    0.83100    0.01636    1.000
    H29      H        0.91430    0.81370    0.02460    1.000
    C50      C        0.86054    0.81865    0.98005    1.000
    H30      H        0.87900    0.79380    0.96380    1.000
    C51      C        0.81281    0.84247    0.96751    1.000
    C52      C        0.78811    0.87952    0.99138    1.000
    H31      H        0.75540    0.89760    0.98290    1.000
    C53      C        0.81019    0.89132    0.02806    1.000
    H32      H        0.79220    0.91690    0.04440    1.000
    C54      C        0.79007    0.82976    0.92876    1.000
    Fe4      Fe       0.76114    0.59177    0.29850    1.000
    Fe5      Fe       0.70349    0.64902    0.36671    1.000
    Fe6      Fe       0.80948    0.72390    0.35315    1.000
    O14      O        0.68825    0.60645    0.27508    1.000
    O15      O        0.65116    0.65148    0.32055    1.000
    O16      O        0.30503    0.25712    0.12894    1.000
    O17      O        0.23657    0.30742    0.14484    1.000
    O18      O        0.30339    0.03890    0.13283    1.000
    O19      O        0.25893    0.00245    0.17532    1.000
    O20      O        0.83409    0.56360    0.31530    1.000
    O21      O        0.86591    0.65207    0.35297    1.000
    O22      O        0.18358    0.25488    0.19925    1.000
    O23      O        0.21802    0.16665    0.23601    1.000
    O24      O        0.18605    0.29366    0.59176    1.000
    O25      O        0.25264    0.35702    0.58240    1.000
    O26      O        0.75836    0.65525    0.33961    1.000
    N3       N        0.46087    0.77700    0.19185    1.000
    H33      H        0.44610    0.81860    0.18580    1.000
    H34      H        0.49200    0.77610    0.20340    1.000
    N4       N        0.05146    0.44970    0.44134    1.000
    H35      H        0.02340    0.47430    0.43620    1.000
    H36      H        0.06530    0.44340    0.46460    1.000
    C55      C        0.65181    0.62996    0.28781    1.000
    C56      C        0.60311    0.63548    0.26203    1.000
    C57      C        0.59653    0.60541    0.22785    1.000
    H37      H        0.62370    0.58120    0.21940    1.000
    C58      C        0.55000    0.60950    0.20462    1.000
    H38      H        0.54620    0.58770    0.18070    1.000
    C59      C        0.51022    0.64385    0.21546    1.000
    C60      C        0.51741    0.67670    0.24971    1.000
    H39      H        0.49070    0.70320    0.25740    1.000
    C61      C        0.56335    0.67190    0.27345    1.000
    H40      H        0.56720    0.69350    0.29740    1.000
    C62      C        0.45869    0.64574    0.19236    1.000
    C63      C        0.43399    0.58175    0.18254    1.000
    H41      H        0.45040    0.53710    0.18860    1.000
    C64      C        0.38449    0.58256    0.16350    1.000
    C65      C        0.36155    0.64953    0.15525    1.000
    H42      H        0.32810    0.65080    0.14250    1.000
    C66      C        0.38545    0.71278    0.16491    1.000
    C67      C        0.43442    0.71156    0.18304    1.000
    C68      C        0.35837    0.51380    0.15462    1.000
    C69      C        0.38224    0.45240    0.14490    1.000
    H43      H        0.41680    0.45480    0.14260    1.000
    C70      C        0.35722    0.38769    0.13848    1.000
    H44      H        0.37470    0.34720    0.13090    1.000
    C71      C        0.30816    0.38030    0.14272    1.000
    C72      C        0.28310    0.44180    0.15188    1.000
    H45      H        0.24860    0.43910    0.15430    1.000
    C73      C        0.30838    0.50730    0.15755    1.000
    H46      H        0.29060    0.54870    0.16360    1.000
    C74      C        0.28053    0.30960    0.13846    1.000
    C75      C        0.35888    0.78367    0.15808    1.000
    C76      C        0.31912    0.79786    0.17541    1.000
    H47      H        0.30670    0.76100    0.18970    1.000
    C77      C        0.29565    0.86557    0.17290    1.000
    H48      H        0.26840    0.87370    0.18600    1.000
    C78      C        0.31062    0.91892    0.15257    1.000
    C79      C        0.34832    0.90227    0.13350    1.000
    H49      H        0.35880    0.93730    0.11730    1.000
    C80      C        0.37217    0.83640    0.13669    1.000
    H50      H        0.39910    0.82830    0.12320    1.000
    C81      C        0.28943    0.99194    0.15374    1.000
    C82      C        0.86857    0.59230    0.33735    1.000
    C83      C        0.91603    0.55110    0.34694    1.000
    C84      C        0.95521    0.57980    0.37026    1.000
    H51      H        0.95280    0.62700    0.37990    1.000
    C85      C        0.99882    0.54000    0.38006    1.000
    H52      H        0.02540    0.55980    0.39720    1.000
    C86      C        0.00436    0.47220    0.36547    1.000
    C87      C        0.96425    0.44400    0.34133    1.000
    H53      H        0.96670    0.39730    0.33110    1.000
    C88      C        0.92035    0.48400    0.33211    1.000
    H54      H        0.89320    0.46450    0.31540    1.000
    C89      C        0.05231    0.43034    0.37488    1.000
    C90      C        0.07411    0.39898    0.34702    1.000
    H55      H        0.05800    0.40500    0.32210    1.000
    C91      C        0.11809    0.35910    0.35297    1.000
    C92      C        0.13996    0.35004    0.39041    1.000
    H56      H        0.17020    0.32330    0.39580    1.000
    C93      C        0.11871    0.37898    0.41980    1.000
    C94      C        0.07507    0.41950    0.41129    1.000
    C95      C        0.13927    0.32520    0.32258    1.000
    C96      C        0.16166    0.26060    0.32555    1.000
    H57      H        0.16460    0.23610    0.34870    1.000
    C97      C        0.18079    0.22790    0.29638    1.000
    H58      H        0.19670    0.18220    0.29990    1.000
    C98      C        0.17668    0.26190    0.26233    1.000
    C99      C        0.15467    0.32700    0.25879    1.000
    H59      H        0.15110    0.35110    0.23550    1.000
    C100     C        0.13711    0.35970    0.28859    1.000
    H60      H        0.12330    0.40680    0.28560    1.000
    C101     C        0.19413    0.22370    0.23042    1.000
    C102     C        0.14253    0.36655    0.45900    1.000
    C103     C        0.11865    0.33100    0.48364    1.000
    H61      H        0.08570    0.31370    0.47540    1.000
    C104     C        0.13946    0.31865    0.51995    1.000
    H62      H        0.12100    0.29380    0.53620    1.000
    C105     C        0.18719    0.34247    0.53249    1.000
    C106     C        0.21189    0.37952    0.50862    1.000
    H63      H        0.24460    0.39760    0.51710    1.000
    C107     C        0.18981    0.39132    0.47194    1.000
    H64      H        0.20780    0.41690    0.45560    1.000
    C108     C        0.20993    0.32976    0.57124    1.000
    Fe7      Fe       0.76114    0.90823    0.79850    1.000
    Fe8      Fe       0.70349    0.85098    0.86671    1.000
    Fe9      Fe       0.80948    0.77610    0.85315    1.000
    O27      O        0.68825    0.89355    0.77508    1.000
    O28      O        0.65116    0.84852    0.82055    1.000
    O29      O        0.30503    0.24288    0.62894    1.000
    O30      O        0.23657    0.19258    0.64484    1.000
    O31      O        0.30339    0.46110    0.63283    1.000
    O32      O        0.25893    0.49755    0.67532    1.000
    O33      O        0.83409    0.93640    0.81530    1.000
    O34      O        0.86591    0.84793    0.85297    1.000
    O35      O        0.18358    0.24512    0.69925    1.000
    O36      O        0.21802    0.33335    0.73601    1.000
    O37      O        0.18605    0.20634    0.09176    1.000
    O38      O        0.25264    0.14298    0.08240    1.000
    O39      O        0.75836    0.84475    0.83961    1.000
    N5       N        0.46087    0.72300    0.69185    1.000
    H65      H        0.44610    0.68140    0.68580    1.000
    H66      H        0.49200    0.72390    0.70340    1.000
    N6       N        0.05146    0.05030    0.94134    1.000
    H67      H        0.02340    0.02570    0.93620    1.000
    H68      H        0.06530    0.05660    0.96460    1.000
    C109     C        0.65181    0.87004    0.78781    1.000
    C110     C        0.60311    0.86452    0.76203    1.000
    C111     C        0.59653    0.89459    0.72785    1.000
    H69      H        0.62370    0.91880    0.71940    1.000
    C112     C        0.55000    0.89050    0.70462    1.000
    H70      H        0.54620    0.91230    0.68070    1.000
    C113     C        0.51022    0.85615    0.71546    1.000
    C114     C        0.51741    0.82330    0.74971    1.000
    H71      H        0.49070    0.79680    0.75740    1.000
    C115     C        0.56335    0.82810    0.77345    1.000
    H72      H        0.56720    0.80650    0.79740    1.000
    C116     C        0.45869    0.85426    0.69236    1.000
    C117     C        0.43399    0.91825    0.68254    1.000
    H73      H        0.45040    0.96290    0.68860    1.000
    C118     C        0.38449    0.91744    0.66350    1.000
    C119     C        0.36155    0.85047    0.65525    1.000
    H74      H        0.32810    0.84920    0.64250    1.000
    C120     C        0.38545    0.78722    0.66491    1.000
    C121     C        0.43442    0.78844    0.68304    1.000
    C122     C        0.35837    0.98620    0.65462    1.000
    C123     C        0.38224    0.04760    0.64490    1.000
    H75      H        0.41680    0.04520    0.64260    1.000
    C124     C        0.35722    0.11231    0.63848    1.000
    H76      H        0.37470    0.15280    0.63090    1.000
    C125     C        0.30816    0.11970    0.64272    1.000
    C126     C        0.28310    0.05820    0.65188    1.000
    H77      H        0.24860    0.06090    0.65430    1.000
    C127     C        0.30838    0.99270    0.65755    1.000
    H78      H        0.29060    0.95130    0.66360    1.000
    C128     C        0.28053    0.19040    0.63846    1.000
    C129     C        0.35888    0.71633    0.65808    1.000
    C130     C        0.31912    0.70214    0.67541    1.000
    H79      H        0.30670    0.73900    0.68970    1.000
    C131     C        0.29565    0.63443    0.67290    1.000
    H80      H        0.26840    0.62630    0.68600    1.000
    C132     C        0.31062    0.58108    0.65257    1.000
    C133     C        0.34832    0.59773    0.63350    1.000
    H81      H        0.35880    0.56270    0.61730    1.000
    C134     C        0.37217    0.66360    0.63669    1.000
    H82      H        0.39910    0.67170    0.62320    1.000
    C135     C        0.28943    0.50806    0.65374    1.000
    C136     C        0.86857    0.90770    0.83735    1.000
    C137     C        0.91603    0.94890    0.84694    1.000
    C138     C        0.95521    0.92020    0.87026    1.000
    H83      H        0.95280    0.87300    0.87990    1.000
    C139     C        0.99882    0.96000    0.88006    1.000
    H84      H        0.02540    0.94020    0.89720    1.000
    C140     C        0.00436    0.02780    0.86547    1.000
    C141     C        0.96425    0.05600    0.84133    1.000
    H85      H        0.96670    0.10270    0.83110    1.000
    C142     C        0.92035    0.01600    0.83211    1.000
    H86      H        0.89320    0.03550    0.81540    1.000
    C143     C        0.05231    0.06966    0.87488    1.000
    C144     C        0.07411    0.10102    0.84702    1.000
    H87      H        0.05800    0.09500    0.82210    1.000
    C145     C        0.11809    0.14090    0.85297    1.000
    C146     C        0.13996    0.14996    0.89041    1.000
    H88      H        0.17020    0.17670    0.89580    1.000
    C147     C        0.11871    0.12102    0.91980    1.000
    C148     C        0.07507    0.08050    0.91129    1.000
    C149     C        0.13927    0.17480    0.82258    1.000
    C150     C        0.16166    0.23940    0.82555    1.000
    H89      H        0.16460    0.26390    0.84870    1.000
    C151     C        0.18079    0.27210    0.79638    1.000
    H90      H        0.19670    0.31780    0.79990    1.000
    C152     C        0.17668    0.23810    0.76233    1.000
    C153     C        0.15467    0.17300    0.75879    1.000
    H91      H        0.15110    0.14890    0.73550    1.000
    C154     C        0.13711    0.14030    0.78859    1.000
    H92      H        0.12330    0.09320    0.78560    1.000
    C155     C        0.19413    0.27630    0.73042    1.000
    C156     C        0.14253    0.13345    0.95900    1.000
    C157     C        0.11865    0.16900    0.98364    1.000
    H93      H        0.08570    0.18630    0.97540    1.000
    C158     C        0.13946    0.18135    0.01995    1.000
    H94      H        0.12100    0.20620    0.03620    1.000
    C159     C        0.18719    0.15753    0.03249    1.000
    C160     C        0.21189    0.12048    0.00862    1.000
    H95      H        0.24460    0.10240    0.01710    1.000
    C161     C        0.18981    0.10868    0.97194    1.000
    H96      H        0.20780    0.08310    0.95560    1.000
    C162     C        0.20993    0.17024    0.07124    1.000
    Fe10     Fe       0.23886    0.40823    0.70150    1.000
    Fe11     Fe       0.29651    0.35098    0.63329    1.000
    Fe12     Fe       0.19052    0.27610    0.64685    1.000
    O40      O        0.31175    0.39355    0.72492    1.000
    O41      O        0.34884    0.34852    0.67945    1.000
    O42      O        0.69497    0.74288    0.87106    1.000
    O43      O        0.76343    0.69258    0.85516    1.000
    O44      O        0.69661    0.96110    0.86717    1.000
    O45      O        0.74107    0.99755    0.82468    1.000
    O46      O        0.16591    0.43640    0.68470    1.000
    O47      O        0.13409    0.34793    0.64703    1.000
    O48      O        0.81642    0.74512    0.80075    1.000
    O49      O        0.78198    0.83335    0.76399    1.000
    O50      O        0.81395    0.70634    0.40824    1.000
    O51      O        0.74736    0.64298    0.41760    1.000
    O52      O        0.24164    0.34475    0.66039    1.000
    N7       N        0.53913    0.22300    0.80815    1.000
    H97      H        0.55390    0.18140    0.81420    1.000
    H98      H        0.50800    0.22390    0.79660    1.000
    N8       N        0.94854    0.55030    0.55866    1.000
    H99      H        0.97660    0.52570    0.56380    1.000
    H100     H        0.93470    0.55660    0.53540    1.000
    C163     C        0.34819    0.37004    0.71219    1.000
    C164     C        0.39689    0.36452    0.73797    1.000
    C165     C        0.40347    0.39459    0.77215    1.000
    H101     H        0.37630    0.41880    0.78060    1.000
    C166     C        0.45000    0.39050    0.79538    1.000
    H102     H        0.45380    0.41230    0.81930    1.000
    C167     C        0.48978    0.35615    0.78454    1.000
    C168     C        0.48259    0.32330    0.75029    1.000
    H103     H        0.50930    0.29680    0.74260    1.000
    C169     C        0.43665    0.32810    0.72655    1.000
    H104     H        0.43280    0.30650    0.70260    1.000
    C170     C        0.54131    0.35426    0.80764    1.000
    C171     C        0.56601    0.41825    0.81746    1.000
    H105     H        0.54960    0.46290    0.81140    1.000
    C172     C        0.61551    0.41744    0.83650    1.000
    C173     C        0.63845    0.35047    0.84475    1.000
    H106     H        0.67190    0.34920    0.85750    1.000
    C174     C        0.61455    0.28722    0.83509    1.000
    C175     C        0.56558    0.28844    0.81696    1.000
    C176     C        0.64163    0.48620    0.84538    1.000
    C177     C        0.61776    0.54760    0.85510    1.000
    H107     H        0.58320    0.54520    0.85740    1.000
    C178     C        0.64278    0.61231    0.86152    1.000
    H108     H        0.62530    0.65280    0.86910    1.000
    C179     C        0.69184    0.61970    0.85728    1.000
    C180     C        0.71690    0.55820    0.84812    1.000
    H109     H        0.75140    0.56090    0.84570    1.000
    C181     C        0.69162    0.49270    0.84245    1.000
    H110     H        0.70940    0.45130    0.83640    1.000
    C182     C        0.71947    0.69040    0.86154    1.000
    C183     C        0.64112    0.21633    0.84192    1.000
    C184     C        0.68088    0.20214    0.82459    1.000
    H111     H        0.69330    0.23900    0.81030    1.000
    C185     C        0.70435    0.13443    0.82710    1.000
    H112     H        0.73160    0.12630    0.81400    1.000
    C186     C        0.68938    0.08108    0.84743    1.000
    C187     C        0.65168    0.09773    0.86650    1.000
    H113     H        0.64120    0.06270    0.88270    1.000
    C188     C        0.62783    0.16360    0.86331    1.000
    H114     H        0.60090    0.17170    0.87680    1.000
    C189     C        0.71057    0.00806    0.84626    1.000
    C190     C        0.13143    0.40770    0.66265    1.000
    C191     C        0.08397    0.44890    0.65306    1.000
    C192     C        0.04479    0.42020    0.62974    1.000
    H115     H        0.04720    0.37300    0.62010    1.000
    C193     C        0.00118    0.46000    0.61994    1.000
    H116     H        0.97460    0.44020    0.60280    1.000
    C194     C        0.99564    0.52780    0.63453    1.000
    C195     C        0.03575    0.55600    0.65867    1.000
    H117     H        0.03330    0.60270    0.66890    1.000
    C196     C        0.07965    0.51600    0.66789    1.000
    H118     H        0.10680    0.53550    0.68460    1.000
    C197     C        0.94769    0.56966    0.62512    1.000
    C198     C        0.92589    0.60102    0.65298    1.000
    H119     H        0.94200    0.59500    0.67790    1.000
    C199     C        0.88191    0.64090    0.64703    1.000
    C200     C        0.86004    0.64996    0.60959    1.000
    H120     H        0.82980    0.67670    0.60420    1.000
    C201     C        0.88129    0.62102    0.58020    1.000
    C202     C        0.92493    0.58050    0.58871    1.000
    C203     C        0.86073    0.67480    0.67742    1.000
    C204     C        0.83834    0.73940    0.67445    1.000
    H121     H        0.83540    0.76390    0.65130    1.000
    C205     C        0.81921    0.77210    0.70362    1.000
    H122     H        0.80330    0.81780    0.70010    1.000
    C206     C        0.82332    0.73810    0.73767    1.000
    C207     C        0.84533    0.67300    0.74121    1.000
    H123     H        0.84890    0.64890    0.76450    1.000
    C208     C        0.86289    0.64030    0.71141    1.000
    H124     H        0.87670    0.59320    0.71440    1.000
    C209     C        0.80587    0.77630    0.76958    1.000
    C210     C        0.85747    0.63345    0.54100    1.000
    C211     C        0.88135    0.66900    0.51636    1.000
    H125     H        0.91430    0.68630    0.52460    1.000
    C212     C        0.86054    0.68135    0.48005    1.000
    H126     H        0.87900    0.70620    0.46380    1.000
    C213     C        0.81281    0.65753    0.46751    1.000
    C214     C        0.78811    0.62048    0.49138    1.000
    H127     H        0.75540    0.60240    0.48290    1.000
    C215     C        0.81019    0.60868    0.52806    1.000
    H128     H        0.79220    0.58310    0.54440    1.000
    C216     C        0.79007    0.67024    0.42876    1.000
