data_functionalizedCrystal
_audit_creation_method	'EQeq! by Chris Wilmer'
_symmetry_space_group_name_H-M	'P1'
_symmetry_Int_Tables_number	1
_symmetry_cell_setting	triclinic
loop_
_symmetry_equiv_pos_as_xyz
  x,y,z
_cell_length_a	14.3391
_cell_length_b	14.3391
_cell_length_c	14.3391
_cell_angle_alpha	60
_cell_angle_beta	60
_cell_angle_gamma	60
loop_
_atom_site_label
_atom_site_type_symbol
_atom_site_fract_x
_atom_site_fract_y
_atom_site_fract_z
_atom_site_charge
Mof_Ti	Ti	0.11693	0.88307	0.11693	1.956
Mof_Ti	Ti	0.88307	0.11693	0.88307	1.912
Mof_Ti	Ti	0.11693	0.11693	0.88307	1.956
Mof_Ti	Ti	0.88307	0.88307	0.11693	1.912
Mof_Ti	Ti	0.88307	0.11693	0.11693	1.956
Mof_Ti	Ti	0.11693	0.88307	0.88307	1.912
Mof_H 	H 	0.59485	0.84315	0.41917	0.045
Mof_H 	H 	0.09304	0.72088	0.09304	0.278
Mof_H 	H 	0.84315	0.41917	0.59485	0.045
Mof_H 	H 	0.09304	0.09304	0.72088	0.278
Mof_H 	H 	0.59485	0.14283	0.41917	0.043
Mof_H 	H 	0.84315	0.14283	0.59485	0.042
Mof_H 	H 	0.84315	0.41917	0.14283	0.042
Mof_H 	H 	0.41917	0.14283	0.59485	0.043
Mof_H 	H 	0.14283	0.41917	0.84315	0.042
Mof_H 	H 	0.41917	0.84315	0.59485	0.045
Mof_H 	H 	0.84315	0.59485	0.41917	0.045
Mof_H 	H 	0.14283	0.84315	0.41917	0.042
Mof_H 	H 	0.41917	0.84315	0.14283	0.042
Mof_H 	H 	0.59485	0.41917	0.14283	0.043
Mof_H 	H 	0.59485	0.14283	0.84315	0.042
Mof_H 	H 	0.59485	0.41917	0.84315	0.045
Mof_H 	H 	0.14283	0.59485	0.84315	0.042
Mof_H 	H 	0.14283	0.84315	0.59485	0.042
Mof_H 	H 	0.41917	0.14283	0.84315	0.042
Mof_H 	H 	0.72088	0.09304	0.09304	0.278
Mof_H 	H 	0.59485	0.84315	0.14283	0.042
Mof_H 	H 	0.14283	0.41917	0.59485	0.043
Mof_H 	H 	0.14283	0.59485	0.41917	0.043
Mof_H 	H 	0.84315	0.14283	0.41917	0.042
Mof_H 	H 	0.84315	0.59485	0.14283	0.042
Mof_H 	H 	0.41917	0.59485	0.14283	0.043
Mof_H 	H 	0.09304	0.09304	0.09304	0.287
Mof_H 	H 	0.41917	0.59485	0.84315	0.045
Mof_C 	C 	0.55561	0.45873	0.07765	0.039
Mof_C 	C 	0.70546	0.99588	0.30278	0.399
Mof_C 	C 	0.07765	0.55561	0.45873	0.039
Mof_C 	C 	0.45873	0.55561	0.90801	0.004
Mof_C 	C 	0.07765	0.45873	0.90801	0.036
Mof_C 	C 	0.45873	0.07765	0.90801	0.036
Mof_C 	C 	0.99332	0.6039	0.99332	-0.165
Mof_C 	C 	0.99332	0.99332	0.6039	-0.165
Mof_C 	C 	0.6039	0.99332	0.40946	-0.139
Mof_C 	C 	0.99588	0.30278	0.70546	0.399
Mof_C 	C 	0.45873	0.90801	0.55561	0.004
Mof_C 	C 	0.90801	0.07765	0.55561	0.032
Mof_C 	C 	0.07765	0.90801	0.45873	0.036
Mof_C 	C 	0.99332	0.6039	0.40946	-0.139
Mof_C 	C 	0.55561	0.07765	0.45873	0.039
Mof_C 	C 	0.30278	0.99588	0.70546	0.399
Mof_C 	C 	0.70546	0.30278	0.99588	0.399
Mof_C 	C 	0.07765	0.55561	0.90801	0.032
Mof_C 	C 	0.40946	0.99332	0.6039	-0.139
Mof_C 	C 	0.45873	0.90801	0.07765	0.036
Mof_C 	C 	0.07765	0.45873	0.55561	0.039
Mof_C 	C 	0.90801	0.55561	0.45873	0.004
Mof_C 	C 	0.45873	0.07765	0.55561	0.039
Mof_C 	C 	0.99332	0.40946	0.6039	-0.139
Mof_C 	C 	0.30278	0.99588	0.99588	0.365
Mof_C 	C 	0.40946	0.99332	0.99332	-0.167
Mof_C 	C 	0.55561	0.45873	0.90801	0.004
Mof_C 	C 	0.55561	0.07765	0.90801	0.032
Mof_C 	C 	0.30278	0.70546	0.99588	0.399
Mof_C 	C 	0.99588	0.70546	0.99588	0.371
Mof_C 	C 	0.90801	0.55561	0.07765	0.032
Mof_C 	C 	0.07765	0.90801	0.55561	0.032
Mof_C 	C 	0.99332	0.40946	0.99332	-0.167
Mof_C 	C 	0.6039	0.40946	0.99332	-0.139
Mof_C 	C 	0.55561	0.90801	0.07765	0.032
Mof_C 	C 	0.99588	0.99588	0.30278	0.365
Mof_C 	C 	0.90801	0.07765	0.45873	0.036
Mof_C 	C 	0.45873	0.55561	0.07765	0.039
Mof_C 	C 	0.99588	0.30278	0.99588	0.365
Mof_C 	C 	0.55561	0.90801	0.45873	0.004
Mof_C 	C 	0.90801	0.45873	0.55561	0.004
Mof_C 	C 	0.99588	0.70546	0.30278	0.399
Mof_C 	C 	0.90801	0.45873	0.07765	0.036
Mof_C 	C 	0.40946	0.6039	0.99332	-0.139
Mof_C 	C 	0.70546	0.99588	0.99588	0.371
Mof_C 	C 	0.99588	0.99588	0.70546	0.371
Mof_C 	C 	0.99332	0.99332	0.40946	-0.167
Mof_C 	C 	0.6039	0.99332	0.99332	-0.165
Mof_O 	O 	0.0772	0.26112	0.7437	-0.439
Mof_O 	O 	0.91798	0.0772	0.26112	-0.441
Mof_O 	O 	0.7437	0.91798	0.26112	-0.468
Mof_O 	O 	0.0772	0.7437	0.26112	-0.439
Mof_O 	O 	0.0772	0.91798	0.7437	-0.44
Mof_O 	O 	0.91798	0.26112	0.0772	-0.441
Mof_O 	O 	0.95107	0.14679	0.95107	-0.885
Mof_O 	O 	0.91798	0.7437	0.26112	-0.468
Mof_O 	O 	0.26112	0.91798	0.7437	-0.468
Mof_O 	O 	0.14679	0.95107	0.95107	-0.885
Mof_O 	O 	0.91798	0.7437	0.0772	-0.44
Mof_O 	O 	0.26112	0.7437	0.91798	-0.468
Mof_O 	O 	0.7437	0.0772	0.26112	-0.439
Mof_O 	O 	0.80407	0.06531	0.06531	-0.735
Mof_O 	O 	0.26112	0.7437	0.0772	-0.439
Mof_O 	O 	0.0772	0.7437	0.91798	-0.44
Mof_O 	O 	0.91798	0.26112	0.7437	-0.468
Mof_O 	O 	0.26112	0.0772	0.7437	-0.439
Mof_O 	O 	0.26112	0.0772	0.91798	-0.441
Mof_O 	O 	0.26112	0.91798	0.0772	-0.441
Mof_O 	O 	0.91798	0.0772	0.7437	-0.44
Mof_O 	O 	0.7437	0.0772	0.91798	-0.44
Mof_O 	O 	0.0772	0.26112	0.91798	-0.441
Mof_O 	O 	0.06531	0.80407	0.06531	-0.735
Mof_O 	O 	0.95107	0.95107	0.14679	-0.885
Mof_O 	O 	0.06531	0.06531	0.80407	-0.735
Mof_O 	O 	0.06531	0.06531	0.06531	-0.718
Mof_O 	O 	0.0772	0.91798	0.26112	-0.441
Mof_O 	O 	0.7437	0.26112	0.0772	-0.439
Mof_O 	O 	0.7437	0.91798	0.0772	-0.44
Mof_O 	O 	0.95107	0.95107	0.95107	-0.889
Mof_O 	O 	0.7437	0.26112	0.91798	-0.468
_end
