# CIF file generated by openbabel 3.1.0, see https://openbabel.org
data_I
_chemical_name_common 'OKIVIO01_charged'
_cell_length_a 15.844
_cell_length_b 15.844
_cell_length_c 21.837
_cell_angle_alpha 90
_cell_angle_beta 90
_cell_angle_gamma 90
_space_group_name_H-M_alt 'P 1'
_space_group_name_Hall 'P 1'
loop_
    _symmetry_equiv_pos_as_xyz
    x,y,z
loop_
    _atom_site_label
    _atom_site_type_symbol
    _atom_site_fract_x
    _atom_site_fract_y
    _atom_site_fract_z
    _atom_site_occupancy
    Cd1      Cd       0.94228    0.05772    0.75000    1.000
    Cd2      Cd       0.05772    0.94228    0.25000    1.000
    Cd3      Cd       0.44228    0.44228    0.50000    1.000
    Cd4      Cd       0.55772    0.55772    0.00000    1.000
    H1       H        0.46390    0.38860    0.65030    1.000
    H2       H        0.41600    0.28650    0.71440    1.000
    H3       H        0.21530    0.25970    0.60440    1.000
    H4       H        0.27250    0.35920    0.54140    1.000
    H5       H        0.34750    0.20330    0.77940    1.000
    H6       H        0.29520    0.09260    0.83480    1.000
    H7       H        0.19930    0.99950    0.79250    1.000
    H8       H        0.20410    0.13550    0.63710    1.000
    H9       H        0.95690    0.88090    0.54030    1.000
    H10      H        0.93850    0.77120    0.47040    1.000
    H11      H        0.03840    0.66650    0.46210    1.000
    H12      H        0.17420    0.77590    0.59460    1.000
    H13      H        0.15520    0.60420    0.43650    1.000
    H14      H        0.26600    0.51220    0.42670    1.000
    H15      H        0.33730    0.55550    0.59370    1.000
    H16      H        0.23300    0.65170    0.60720    1.000
    H17      H        0.25680    0.97480    0.60880    1.000
    H18      H        0.25990    0.89850    0.64560    1.000
    H19      H        0.53610    0.61140    0.15030    1.000
    H20      H        0.58400    0.71350    0.21440    1.000
    H21      H        0.78470    0.74030    0.10440    1.000
    H22      H        0.72750    0.64080    0.04140    1.000
    H23      H        0.65250    0.79670    0.27940    1.000
    H24      H        0.70480    0.90740    0.33480    1.000
    H25      H        0.80070    0.00050    0.29250    1.000
    H26      H        0.79590    0.86450    0.13710    1.000
    H27      H        0.04310    0.11910    0.04030    1.000
    H28      H        0.06150    0.22880    0.97040    1.000
    H29      H        0.96160    0.33350    0.96210    1.000
    H30      H        0.82580    0.22410    0.09460    1.000
    H31      H        0.84480    0.39580    0.93650    1.000
    H32      H        0.73400    0.48780    0.92670    1.000
    H33      H        0.66270    0.44450    0.09370    1.000
    H34      H        0.76700    0.34830    0.10720    1.000
    H35      H        0.74320    0.02520    0.10880    1.000
    H36      H        0.74010    0.10150    0.14560    1.000
    H37      H        0.11140    0.96390    0.40030    1.000
    H38      H        0.21350    0.91600    0.46440    1.000
    H39      H        0.24030    0.71530    0.35440    1.000
    H40      H        0.14080    0.77250    0.29140    1.000
    H41      H        0.29670    0.84750    0.52940    1.000
    H42      H        0.40740    0.79520    0.58480    1.000
    H43      H        0.50050    0.69930    0.54250    1.000
    H44      H        0.36450    0.70410    0.38710    1.000
    H45      H        0.61910    0.45690    0.29030    1.000
    H46      H        0.72880    0.43850    0.22040    1.000
    H47      H        0.83350    0.53840    0.21210    1.000
    H48      H        0.72410    0.67420    0.34460    1.000
    H49      H        0.89580    0.65520    0.18650    1.000
    H50      H        0.98780    0.76600    0.17670    1.000
    H51      H        0.94450    0.83730    0.34370    1.000
    H52      H        0.84830    0.73300    0.35720    1.000
    H53      H        0.52520    0.75680    0.35880    1.000
    H54      H        0.60150    0.75990    0.39560    1.000
    H55      H        0.88860    0.03610    0.90030    1.000
    H56      H        0.78650    0.08400    0.96440    1.000
    H57      H        0.75970    0.28470    0.85440    1.000
    H58      H        0.85920    0.22750    0.79140    1.000
    H59      H        0.70330    0.15250    0.02940    1.000
    H60      H        0.59260    0.20480    0.08480    1.000
    H61      H        0.49950    0.30070    0.04250    1.000
    H62      H        0.63550    0.29590    0.88710    1.000
    H63      H        0.38090    0.54310    0.79030    1.000
    H64      H        0.27120    0.56150    0.72040    1.000
    H65      H        0.16650    0.46160    0.71210    1.000
    H66      H        0.27590    0.32580    0.84460    1.000
    H67      H        0.10420    0.34480    0.68650    1.000
    H68      H        0.01220    0.23400    0.67670    1.000
    H69      H        0.05550    0.16270    0.84370    1.000
    H70      H        0.15170    0.26700    0.85720    1.000
    H71      H        0.47480    0.24320    0.85880    1.000
    H72      H        0.39850    0.24010    0.89560    1.000
    H73      H        0.03610    0.88860    0.09970    1.000
    H74      H        0.08400    0.78650    0.03560    1.000
    H75      H        0.28470    0.75970    0.14560    1.000
    H76      H        0.22750    0.85920    0.20860    1.000
    H77      H        0.15250    0.70330    0.97060    1.000
    H78      H        0.20480    0.59260    0.91520    1.000
    H79      H        0.30070    0.49950    0.95750    1.000
    H80      H        0.29590    0.63550    0.11290    1.000
    H81      H        0.54310    0.38090    0.20970    1.000
    H82      H        0.56150    0.27120    0.27960    1.000
    H83      H        0.46160    0.16650    0.28790    1.000
    H84      H        0.32580    0.27590    0.15540    1.000
    H85      H        0.34480    0.10420    0.31350    1.000
    H86      H        0.23400    0.01220    0.32330    1.000
    H87      H        0.16270    0.05550    0.15630    1.000
    H88      H        0.26700    0.15170    0.14280    1.000
    H89      H        0.24320    0.47480    0.14120    1.000
    H90      H        0.24010    0.39850    0.10440    1.000
    H91      H        0.96390    0.11140    0.59970    1.000
    H92      H        0.91600    0.21350    0.53560    1.000
    H93      H        0.71530    0.24030    0.64560    1.000
    H94      H        0.77250    0.14080    0.70860    1.000
    H95      H        0.84750    0.29670    0.47060    1.000
    H96      H        0.79520    0.40740    0.41520    1.000
    H97      H        0.69930    0.50050    0.45750    1.000
    H98      H        0.70410    0.36450    0.61290    1.000
    H99      H        0.45690    0.61910    0.70970    1.000
    H100     H        0.43850    0.72880    0.77960    1.000
    H101     H        0.53840    0.83350    0.78790    1.000
    H102     H        0.67420    0.72410    0.65540    1.000
    H103     H        0.65520    0.89580    0.81350    1.000
    H104     H        0.76600    0.98780    0.82330    1.000
    H105     H        0.83730    0.94450    0.65630    1.000
    H106     H        0.73300    0.84830    0.64280    1.000
    H107     H        0.75680    0.52520    0.64120    1.000
    H108     H        0.75990    0.60150    0.60440    1.000
    H109     H        0.38860    0.46390    0.34970    1.000
    H110     H        0.28650    0.41600    0.28560    1.000
    H111     H        0.25970    0.21530    0.39560    1.000
    H112     H        0.35920    0.27250    0.45860    1.000
    H113     H        0.20330    0.34750    0.22060    1.000
    H114     H        0.09260    0.29520    0.16520    1.000
    H115     H        0.99950    0.19930    0.20750    1.000
    H116     H        0.13550    0.20410    0.36290    1.000
    H117     H        0.88090    0.95690    0.45970    1.000
    H118     H        0.77120    0.93850    0.52960    1.000
    H119     H        0.66650    0.03840    0.53790    1.000
    H120     H        0.77590    0.17420    0.40540    1.000
    H121     H        0.60420    0.15520    0.56350    1.000
    H122     H        0.51220    0.26600    0.57330    1.000
    H123     H        0.55550    0.33730    0.40630    1.000
    H124     H        0.65170    0.23300    0.39280    1.000
    H125     H        0.97480    0.25680    0.39120    1.000
    H126     H        0.89850    0.25990    0.35440    1.000
    H127     H        0.61140    0.53610    0.84970    1.000
    H128     H        0.71350    0.58400    0.78560    1.000
    H129     H        0.74030    0.78470    0.89560    1.000
    H130     H        0.64080    0.72750    0.95860    1.000
    H131     H        0.79670    0.65250    0.72060    1.000
    H132     H        0.90740    0.70480    0.66520    1.000
    H133     H        0.00050    0.80070    0.70750    1.000
    H134     H        0.86450    0.79590    0.86290    1.000
    H135     H        0.11910    0.04310    0.95970    1.000
    H136     H        0.22880    0.06150    0.02960    1.000
    H137     H        0.33350    0.96160    0.03790    1.000
    H138     H        0.22410    0.82580    0.90540    1.000
    H139     H        0.39580    0.84480    0.06350    1.000
    H140     H        0.48780    0.73400    0.07330    1.000
    H141     H        0.44450    0.66270    0.90630    1.000
    H142     H        0.34830    0.76700    0.89280    1.000
    H143     H        0.02520    0.74320    0.89120    1.000
    H144     H        0.10150    0.74010    0.85440    1.000
    C1       C        0.41510    0.35950    0.63960    1.000
    C2       C        0.38630    0.29850    0.67870    1.000
    C3       C        0.31160    0.25370    0.66510    1.000
    C4       C        0.26810    0.28210    0.61360    1.000
    C5       C        0.30240    0.34280    0.57610    1.000
    C6       C        0.28080    0.18130    0.70270    1.000
    C7       C        0.30790    0.16730    0.76180    1.000
    C8       C        0.27690    0.10070    0.79480    1.000
    C9       C        0.21890    0.04520    0.76990    1.000
    C10      C        0.19000    0.05940    0.70990    1.000
    C11      C        0.22210    0.12670    0.67710    1.000
    C12      C        0.12750    0.00380    0.68030    1.000
    C13      C        0.07630    0.90840    0.61780    1.000
    C14      C        0.06850    0.83930    0.57400    1.000
    C15      C        0.99700    0.83830    0.53720    1.000
    C16      C        0.98610    0.77230    0.49530    1.000
    C17      C        0.04540    0.70940    0.49070    1.000
    C18      C        0.11560    0.70950    0.52870    1.000
    C19      C        0.12670    0.77510    0.56960    1.000
    C20      C        0.18230    0.64200    0.52230    1.000
    C21      C        0.19270    0.59680    0.46890    1.000
    C22      C        0.25910    0.54050    0.46370    1.000
    C23      C        0.30110    0.56650    0.56120    1.000
    C24      C        0.23830    0.62420    0.56970    1.000
    C25      C        0.58490    0.64050    0.13960    1.000
    C26      C        0.61370    0.70150    0.17870    1.000
    C27      C        0.68840    0.74630    0.16510    1.000
    C28      C        0.73190    0.71790    0.11360    1.000
    C29      C        0.69760    0.65720    0.07610    1.000
    C30      C        0.71920    0.81870    0.20270    1.000
    C31      C        0.69210    0.83270    0.26180    1.000
    C32      C        0.72310    0.89930    0.29480    1.000
    C33      C        0.78110    0.95480    0.26990    1.000
    C34      C        0.81000    0.94060    0.20990    1.000
    C35      C        0.77790    0.87330    0.17710    1.000
    C36      C        0.87250    0.99620    0.18030    1.000
    C37      C        0.92370    0.09160    0.11780    1.000
    C38      C        0.93150    0.16070    0.07400    1.000
    C39      C        0.00300    0.16170    0.03720    1.000
    C40      C        0.01390    0.22770    0.99530    1.000
    C41      C        0.95460    0.29060    0.99070    1.000
    C42      C        0.88440    0.29050    0.02870    1.000
    C43      C        0.87330    0.22490    0.06960    1.000
    C44      C        0.81770    0.35800    0.02230    1.000
    C45      C        0.80730    0.40320    0.96890    1.000
    C46      C        0.74090    0.45950    0.96370    1.000
    C47      C        0.69890    0.43350    0.06120    1.000
    C48      C        0.76170    0.37580    0.06970    1.000
    C49      C        0.14050    0.91510    0.38960    1.000
    C50      C        0.20150    0.88630    0.42870    1.000
    C51      C        0.24630    0.81160    0.41510    1.000
    C52      C        0.21790    0.76810    0.36360    1.000
    C53      C        0.15720    0.80240    0.32610    1.000
    C54      C        0.31870    0.78080    0.45270    1.000
    C55      C        0.33270    0.80790    0.51180    1.000
    C56      C        0.39930    0.77690    0.54480    1.000
    C57      C        0.45480    0.71890    0.51990    1.000
    C58      C        0.44060    0.69000    0.45990    1.000
    C59      C        0.37330    0.72210    0.42710    1.000
    C60      C        0.49620    0.62750    0.43030    1.000
    C61      C        0.59160    0.57630    0.36780    1.000
    C62      C        0.66070    0.56850    0.32400    1.000
    C63      C        0.66170    0.49700    0.28720    1.000
    C64      C        0.72770    0.48610    0.24530    1.000
    C65      C        0.79060    0.54540    0.24070    1.000
    C66      C        0.79050    0.61560    0.27870    1.000
    C67      C        0.72490    0.62670    0.31960    1.000
    C68      C        0.85800    0.68230    0.27230    1.000
    C69      C        0.90320    0.69270    0.21890    1.000
    C70      C        0.95950    0.75910    0.21370    1.000
    C71      C        0.93350    0.80110    0.31120    1.000
    C72      C        0.87580    0.73830    0.31970    1.000
    C73      C        0.85950    0.08490    0.88960    1.000
    C74      C        0.79850    0.11370    0.92870    1.000
    C75      C        0.75370    0.18840    0.91510    1.000
    C76      C        0.78210    0.23190    0.86360    1.000
    C77      C        0.84280    0.19760    0.82610    1.000
    C78      C        0.68130    0.21920    0.95270    1.000
    C79      C        0.66730    0.19210    0.01180    1.000
    C80      C        0.60070    0.22310    0.04480    1.000
    C81      C        0.54520    0.28110    0.01990    1.000
    C82      C        0.55940    0.31000    0.95990    1.000
    C83      C        0.62670    0.27790    0.92710    1.000
    C84      C        0.50380    0.37250    0.93030    1.000
    C85      C        0.40840    0.42370    0.86780    1.000
    C86      C        0.33930    0.43150    0.82400    1.000
    C87      C        0.33830    0.50300    0.78720    1.000
    C88      C        0.27230    0.51390    0.74530    1.000
    C89      C        0.20940    0.45460    0.74070    1.000
    C90      C        0.20950    0.38440    0.77870    1.000
    C91      C        0.27510    0.37330    0.81960    1.000
    C92      C        0.14200    0.31770    0.77230    1.000
    C93      C        0.09680    0.30730    0.71890    1.000
    C94      C        0.04050    0.24090    0.71370    1.000
    C95      C        0.06650    0.19890    0.81120    1.000
    C96      C        0.12420    0.26170    0.81970    1.000
    C97      C        0.08490    0.85950    0.11040    1.000
    C98      C        0.11370    0.79850    0.07130    1.000
    C99      C        0.18840    0.75370    0.08490    1.000
    C100     C        0.23190    0.78210    0.13640    1.000
    C101     C        0.19760    0.84280    0.17390    1.000
    C102     C        0.21920    0.68130    0.04730    1.000
    C103     C        0.19210    0.66730    0.98820    1.000
    C104     C        0.22310    0.60070    0.95520    1.000
    C105     C        0.28110    0.54520    0.98010    1.000
    C106     C        0.31000    0.55940    0.04010    1.000
    C107     C        0.27790    0.62670    0.07290    1.000
    C108     C        0.37250    0.50380    0.06970    1.000
    C109     C        0.42370    0.40840    0.13220    1.000
    C110     C        0.43150    0.33930    0.17600    1.000
    C111     C        0.50300    0.33830    0.21280    1.000
    C112     C        0.51390    0.27230    0.25470    1.000
    C113     C        0.45460    0.20940    0.25930    1.000
    C114     C        0.38440    0.20950    0.22130    1.000
    C115     C        0.37330    0.27510    0.18040    1.000
    C116     C        0.31770    0.14200    0.22770    1.000
    C117     C        0.30730    0.09680    0.28110    1.000
    C118     C        0.24090    0.04050    0.28630    1.000
    C119     C        0.19890    0.06650    0.18880    1.000
    C120     C        0.26170    0.12420    0.18030    1.000
    C121     C        0.91510    0.14050    0.61040    1.000
    C122     C        0.88630    0.20150    0.57130    1.000
    C123     C        0.81160    0.24630    0.58490    1.000
    C124     C        0.76810    0.21790    0.63640    1.000
    C125     C        0.80240    0.15720    0.67390    1.000
    C126     C        0.78080    0.31870    0.54730    1.000
    C127     C        0.80790    0.33270    0.48820    1.000
    C128     C        0.77690    0.39930    0.45520    1.000
    C129     C        0.71890    0.45480    0.48010    1.000
    C130     C        0.69000    0.44060    0.54010    1.000
    C131     C        0.72210    0.37330    0.57290    1.000
    C132     C        0.62750    0.49620    0.56970    1.000
    C133     C        0.57630    0.59160    0.63220    1.000
    C134     C        0.56850    0.66070    0.67600    1.000
    C135     C        0.49700    0.66170    0.71280    1.000
    C136     C        0.48610    0.72770    0.75470    1.000
    C137     C        0.54540    0.79060    0.75930    1.000
    C138     C        0.61560    0.79050    0.72130    1.000
    C139     C        0.62670    0.72490    0.68040    1.000
    C140     C        0.68230    0.85800    0.72770    1.000
    C141     C        0.69270    0.90320    0.78110    1.000
    C142     C        0.75910    0.95950    0.78630    1.000
    C143     C        0.80110    0.93350    0.68880    1.000
    C144     C        0.73830    0.87580    0.68030    1.000
    C145     C        0.35950    0.41510    0.36040    1.000
    C146     C        0.29850    0.38630    0.32130    1.000
    C147     C        0.25370    0.31160    0.33490    1.000
    C148     C        0.28210    0.26810    0.38640    1.000
    C149     C        0.34280    0.30240    0.42390    1.000
    C150     C        0.18130    0.28080    0.29730    1.000
    C151     C        0.16730    0.30790    0.23820    1.000
    C152     C        0.10070    0.27690    0.20520    1.000
    C153     C        0.04520    0.21890    0.23010    1.000
    C154     C        0.05940    0.19000    0.29010    1.000
    C155     C        0.12670    0.22210    0.32290    1.000
    C156     C        0.00380    0.12750    0.31970    1.000
    C157     C        0.90840    0.07630    0.38220    1.000
    C158     C        0.83930    0.06850    0.42600    1.000
    C159     C        0.83830    0.99700    0.46280    1.000
    C160     C        0.77230    0.98610    0.50470    1.000
    C161     C        0.70940    0.04540    0.50930    1.000
    C162     C        0.70950    0.11560    0.47130    1.000
    C163     C        0.77510    0.12670    0.43040    1.000
    C164     C        0.64200    0.18230    0.47770    1.000
    C165     C        0.59680    0.19270    0.53110    1.000
    C166     C        0.54050    0.25910    0.53630    1.000
    C167     C        0.56650    0.30110    0.43880    1.000
    C168     C        0.62420    0.23830    0.43030    1.000
    C169     C        0.64050    0.58490    0.86040    1.000
    C170     C        0.70150    0.61370    0.82130    1.000
    C171     C        0.74630    0.68840    0.83490    1.000
    C172     C        0.71790    0.73190    0.88640    1.000
    C173     C        0.65720    0.69760    0.92390    1.000
    C174     C        0.81870    0.71920    0.79730    1.000
    C175     C        0.83270    0.69210    0.73820    1.000
    C176     C        0.89930    0.72310    0.70520    1.000
    C177     C        0.95480    0.78110    0.73010    1.000
    C178     C        0.94060    0.81000    0.79010    1.000
    C179     C        0.87330    0.77790    0.82290    1.000
    C180     C        0.99620    0.87250    0.81970    1.000
    C181     C        0.09160    0.92370    0.88220    1.000
    C182     C        0.16070    0.93150    0.92600    1.000
    C183     C        0.16170    0.00300    0.96280    1.000
    C184     C        0.22770    0.01390    0.00470    1.000
    C185     C        0.29060    0.95460    0.00930    1.000
    C186     C        0.29050    0.88440    0.97130    1.000
    C187     C        0.22490    0.87330    0.93040    1.000
    C188     C        0.35800    0.81770    0.97770    1.000
    C189     C        0.40320    0.80730    0.03110    1.000
    C190     C        0.45950    0.74090    0.03630    1.000
    C191     C        0.43350    0.69890    0.93880    1.000
    C192     C        0.37580    0.76170    0.93030    1.000
    N1       N        0.37750    0.37960    0.58740    1.000
    N2       N        0.04570    0.00600    0.68420    1.000
    N3       N        0.01280    0.94480    0.64500    1.000
    N4       N        0.14980    0.94380    0.63890    1.000
    N5       N        0.23100    0.92620    0.61710    1.000
    N6       N        0.31370    0.52450    0.50870    1.000
    N7       N        0.62250    0.62040    0.08740    1.000
    N8       N        0.95430    0.99400    0.18420    1.000
    N9       N        0.98720    0.05520    0.14500    1.000
    N10      N        0.85020    0.05620    0.13890    1.000
    N11      N        0.76900    0.07380    0.11710    1.000
    N12      N        0.68630    0.47550    0.00870    1.000
    N13      N        0.12040    0.87750    0.33740    1.000
    N14      N        0.49400    0.54570    0.43420    1.000
    N15      N        0.55520    0.51280    0.39500    1.000
    N16      N        0.55620    0.64980    0.38890    1.000
    N17      N        0.57380    0.73100    0.36710    1.000
    N18      N        0.97550    0.81370    0.25870    1.000
    N19      N        0.87960    0.12250    0.83740    1.000
    N20      N        0.50600    0.45430    0.93420    1.000
    N21      N        0.44480    0.48720    0.89500    1.000
    N22      N        0.44380    0.35020    0.88890    1.000
    N23      N        0.42620    0.26900    0.86710    1.000
    N24      N        0.02450    0.18630    0.75870    1.000
    N25      N        0.12250    0.87960    0.16260    1.000
    N26      N        0.45430    0.50600    0.06580    1.000
    N27      N        0.48720    0.44480    0.10500    1.000
    N28      N        0.35020    0.44380    0.11110    1.000
    N29      N        0.26900    0.42620    0.13290    1.000
    N30      N        0.18630    0.02450    0.24130    1.000
    N31      N        0.87750    0.12040    0.66260    1.000
    N32      N        0.54570    0.49400    0.56580    1.000
    N33      N        0.51280    0.55520    0.60500    1.000
    N34      N        0.64980    0.55620    0.61110    1.000
    N35      N        0.73100    0.57380    0.63290    1.000
    N36      N        0.81370    0.97550    0.74130    1.000
    N37      N        0.37960    0.37750    0.41260    1.000
    N38      N        0.00600    0.04570    0.31580    1.000
    N39      N        0.94480    0.01280    0.35500    1.000
    N40      N        0.94380    0.14980    0.36110    1.000
    N41      N        0.92620    0.23100    0.38290    1.000
    N42      N        0.52450    0.31370    0.49130    1.000
    N43      N        0.62040    0.62250    0.91260    1.000
    N44      N        0.99400    0.95430    0.81580    1.000
    N45      N        0.05520    0.98720    0.85500    1.000
    N46      N        0.05620    0.85020    0.86110    1.000
    N47      N        0.07380    0.76900    0.88290    1.000
    N48      N        0.47550    0.68630    0.99130    1.000
    Cl1      Cl       0.87922    0.87922    0.00000    1.000
    O1       O        0.82360    0.88610    0.95660    1.000
    O2       O        0.94250    0.86290    0.96750    1.000
    O3       O        0.88610    0.82360    0.04340    1.000
    O4       O        0.86290    0.94250    0.03250    1.000
    Cl2      Cl       0.26878    0.26878    0.00000    1.000
    O5       O        0.23690    0.23410    0.94890    1.000
    O6       O        0.21190    0.33470    0.99200    1.000
    O7       O        0.23410    0.23690    0.05110    1.000
    O8       O        0.33470    0.21190    0.00800    1.000
    Cl3      Cl       0.12078    0.12078    0.50000    1.000
    O9       O        0.17640    0.11390    0.45660    1.000
    O10      O        0.05750    0.13710    0.46750    1.000
    O11      O        0.11390    0.17640    0.54340    1.000
    O12      O        0.13710    0.05750    0.53250    1.000
    Cl4      Cl       0.73122    0.73122    0.50000    1.000
    O13      O        0.76310    0.76590    0.44890    1.000
    O14      O        0.78810    0.66530    0.49200    1.000
    O15      O        0.76590    0.76310    0.55110    1.000
    O16      O        0.66530    0.78810    0.50800    1.000
    Cl5      Cl       0.62078    0.37922    0.75000    1.000
    O17      O        0.61390    0.32360    0.70660    1.000
    O18      O        0.63710    0.44250    0.71750    1.000
    O19      O        0.67640    0.38610    0.79340    1.000
    O20      O        0.55750    0.36290    0.78250    1.000
    Cl6      Cl       0.23122    0.76878    0.75000    1.000
    O21      O        0.26590    0.73690    0.69890    1.000
    O22      O        0.16530    0.71190    0.74200    1.000
    O23      O        0.26310    0.73410    0.80110    1.000
    O24      O        0.28810    0.83470    0.75800    1.000
    Cl7      Cl       0.37922    0.62078    0.25000    1.000
    O25      O        0.38610    0.67640    0.20660    1.000
    O26      O        0.36290    0.55750    0.21750    1.000
    O27      O        0.32360    0.61390    0.29340    1.000
    O28      O        0.44250    0.63710    0.28250    1.000
    Cl8      Cl       0.76878    0.23122    0.25000    1.000
    O29      O        0.73410    0.26310    0.19890    1.000
    O30      O        0.83470    0.28810    0.24200    1.000
    O31      O        0.73690    0.26590    0.30110    1.000
    O32      O        0.71190    0.16530    0.25800    1.000
