data_functionalizedCrystal
_audit_creation_method	'EQeq! by Chris Wilmer'
_symmetry_space_group_name_H-M	'P1'
_symmetry_Int_Tables_number	1
_symmetry_cell_setting	triclinic
loop_
_symmetry_equiv_pos_as_xyz
  x,y,z
_cell_length_a	12.03
_cell_length_b	12.8542
_cell_length_c	12.8542
_cell_angle_alpha	108.011
_cell_angle_beta	106.135
_cell_angle_gamma	106.135
loop_
_atom_site_label
_atom_site_type_symbol
_atom_site_fract_x
_atom_site_fract_y
_atom_site_fract_z
_atom_site_charge
Mof_Zn	Zn	0.99048	0.25481	0.48877	1.217
Mof_Zn	Zn	0.50952	0.51123	0.74519	1.219
Mof_Zn	Zn	0.75	0.78027	0.21973	1.239
Mof_H 	H 	0.684	0.3354	0.1826	0.056
Mof_H 	H 	0.801	0.4499	0.9141	0.085
Mof_H 	H 	0.975	0.2404	0.2416	-0.011
Mof_H 	H 	0.919	0.4851	0.6129	0.027
Mof_H 	H 	0.962	0.2397	0.7063	-0.01
Mof_H 	H 	0.77	0.4178	0.0742	0.092
Mof_H 	H 	0.749	0.319	0.381	0.026
Mof_H 	H 	0.868	0.5044	0.7936	0.045
Mof_H 	H 	0.93	0.188	0.036	0.075
Mof_H 	H 	0.974	0.226	0.88	0.068
Mof_H 	H 	0.816	0.8174	0.6646	0.056
Mof_H 	H 	0.699	0.0859	0.5501	0.087
Mof_H 	H 	0.525	0.7584	0.7596	-0.009
Mof_H 	H 	0.581	0.3871	0.5149	0.027
Mof_H 	H 	0.538	0.2937	0.7603	-0.009
Mof_H 	H 	0.73	0.9258	0.5822	0.089
Mof_H 	H 	0.751	0.619	0.681	0.026
Mof_H 	H 	0.632	0.2064	0.4956	0.044
Mof_H 	H 	0.57	0.964	0.812	0.074
Mof_H 	H 	0.526	0.12	0.774	0.072
Mof_C 	C 	0.9189	0.44108	0.65892	0.021
Mof_C 	C 	0.9449	0.30295	0.70885	0.115
Mof_C 	C 	0.7516	0.3137	0.2215	-0
Mof_C 	C 	0.8281	0.00849	0.38591	0.234
Mof_C 	C 	0.8468	0.29985	0.06975	0.108
Mof_C 	C 	0.9278	0.01217	0.33063	0.191
Mof_C 	C 	0.9097	0.26069	0.24951	0.111
Mof_C 	C 	0.8888	0.34261	0.88439	0.09
Mof_C 	C 	0.8073	0.37762	0.03478	-0.087
Mof_C 	C 	0.9292	0.26305	0.91935	-0.054
Mof_C 	C 	0.9061	0.24081	0.01179	-0.097
Mof_C 	C 	0.8276	0.39852	0.94108	-0.065
Mof_C 	C 	0.8939	0.45487	0.75633	-0.008
Mof_C 	C 	0.7836	0.3038	0.325	0.015
Mof_C 	C 	0.5811	0.34108	0.55892	0.021
Mof_C 	C 	0.5551	0.29115	0.69705	0.115
Mof_C 	C 	0.7484	0.7785	0.6863	0
Mof_C 	C 	0.6719	0.61409	0.99151	0.234
Mof_C 	C 	0.6532	0.93025	0.70015	0.104
Mof_C 	C 	0.5722	0.66937	0.98783	0.21
Mof_C 	C 	0.5903	0.75049	0.73931	0.111
Mof_C 	C 	0.6112	0.11561	0.65739	0.095
Mof_C 	C 	0.6927	0.96522	0.62238	-0.078
Mof_C 	C 	0.5708	0.08065	0.73695	-0.059
Mof_C 	C 	0.5939	0.98821	0.75919	-0.091
Mof_C 	C 	0.6724	0.05892	0.60148	-0.074
Mof_C 	C 	0.6061	0.24367	0.54513	-0.008
Mof_C 	C 	0.7164	0.675	0.6962	0.015
Mof_C 	C 	0.25	0.3434	0.6566	0.205
Mof_C 	C 	0.25	0.4177	0.5823	0.245
Mof_N 	N 	0.9517	0.34544	0.62936	-0.246
Mof_N 	N 	0.8833	0.27029	0.34331	-0.25
Mof_N 	N 	0.8337	0.28635	0.17265	-0.14
Mof_N 	N 	0.9097	0.36559	0.78801	-0.132
Mof_N 	N 	0.5483	0.37064	0.65456	-0.245
Mof_N 	N 	0.6167	0.65669	0.72971	-0.25
Mof_N 	N 	0.6663	0.82735	0.71365	-0.139
Mof_N 	N 	0.5903	0.21199	0.63441	-0.133
Mof_O 	O 	0.9098	0.91628	0.25004	-0.362
Mof_O 	O 	0.7357	0.91176	0.3438	-0.381
Mof_O 	O 	0.8487	0.10217	0.46737	-0.389
Mof_O 	O 	0.0163	0.10992	0.36962	-0.344
Mof_O 	O 	0.5902	0.74996	0.08372	-0.373
Mof_O 	O 	0.7643	0.6562	0.08824	-0.384
Mof_O 	O 	0.6513	0.53263	0.89783	-0.387
Mof_O 	O 	0.4837	0.63038	0.89008	-0.356
Mof_O 	O 	0.1475	0.38958	0.50104	-0.39
Mof_O 	O 	0.149	0.26085	0.63131	-0.454
Mof_O 	O 	0.3525	0.49896	0.61042	-0.391
Mof_O 	O 	0.351	0.36869	0.73915	-0.456
Mof_Zn	Zn	0.00952	0.74519	0.51123	1.216
Mof_Zn	Zn	0.49048	0.48877	0.25481	1.218
Mof_Zn	Zn	0.25	0.21973	0.78027	1.238
Mof_H 	H 	0.316	0.6646	0.8174	0.055
Mof_H 	H 	0.199	0.5501	0.0859	0.085
Mof_H 	H 	0.025	0.7596	0.7584	-0.011
Mof_H 	H 	0.081	0.5149	0.3871	0.027
Mof_H 	H 	0.038	0.7603	0.2937	-0.01
Mof_H 	H 	0.23	0.5822	0.9258	0.092
Mof_H 	H 	0.251	0.681	0.619	0.026
Mof_H 	H 	0.132	0.4956	0.2064	0.045
Mof_H 	H 	0.07	0.812	0.964	0.075
Mof_H 	H 	0.026	0.774	0.12	0.068
Mof_H 	H 	0.184	0.1826	0.3354	0.056
Mof_H 	H 	0.301	0.9141	0.4499	0.087
Mof_H 	H 	0.475	0.2416	0.2404	-0.009
Mof_H 	H 	0.419	0.6129	0.4851	0.027
Mof_H 	H 	0.462	0.7063	0.2397	-0.009
Mof_H 	H 	0.27	0.0742	0.4178	0.089
Mof_H 	H 	0.249	0.381	0.319	0.026
Mof_H 	H 	0.368	0.7936	0.5044	0.044
Mof_H 	H 	0.43	0.036	0.188	0.074
Mof_H 	H 	0.474	0.88	0.226	0.072
Mof_C 	C 	0.0811	0.55892	0.34108	0.021
Mof_C 	C 	0.0551	0.69705	0.29115	0.115
Mof_C 	C 	0.2484	0.6863	0.7785	-0
Mof_C 	C 	0.1719	0.99151	0.61409	0.234
Mof_C 	C 	0.1532	0.70015	0.93025	0.108
Mof_C 	C 	0.0722	0.98783	0.66937	0.191
Mof_C 	C 	0.0903	0.73931	0.75049	0.111
Mof_C 	C 	0.1112	0.65739	0.11561	0.09
Mof_C 	C 	0.1927	0.62238	0.96522	-0.087
Mof_C 	C 	0.0708	0.73695	0.08065	-0.054
Mof_C 	C 	0.0939	0.75919	0.98821	-0.097
Mof_C 	C 	0.1724	0.60148	0.05892	-0.065
Mof_C 	C 	0.1061	0.54513	0.24367	-0.008
Mof_C 	C 	0.2164	0.6962	0.675	0.015
Mof_C 	C 	0.4189	0.65892	0.44108	0.021
Mof_C 	C 	0.4449	0.70885	0.30295	0.115
Mof_C 	C 	0.2516	0.2215	0.3137	0
Mof_C 	C 	0.3281	0.38591	0.00849	0.234
Mof_C 	C 	0.3468	0.06975	0.29985	0.104
Mof_C 	C 	0.4278	0.33063	0.01217	0.21
Mof_C 	C 	0.4097	0.24951	0.26069	0.111
Mof_C 	C 	0.3888	0.88439	0.34261	0.095
Mof_C 	C 	0.3073	0.03478	0.37762	-0.078
Mof_C 	C 	0.4292	0.91935	0.26305	-0.059
Mof_C 	C 	0.4061	0.01179	0.24081	-0.091
Mof_C 	C 	0.3276	0.94108	0.39852	-0.074
Mof_C 	C 	0.3939	0.75633	0.45487	-0.008
Mof_C 	C 	0.2836	0.325	0.3038	0.015
Mof_C 	C 	0.75	0.6566	0.3434	0.205
Mof_C 	C 	0.75	0.5823	0.4177	0.245
Mof_N 	N 	0.0483	0.65456	0.37064	-0.246
Mof_N 	N 	0.1167	0.72971	0.65669	-0.25
Mof_N 	N 	0.1663	0.71365	0.82735	-0.14
Mof_N 	N 	0.0903	0.63441	0.21199	-0.132
Mof_N 	N 	0.4517	0.62936	0.34544	-0.245
Mof_N 	N 	0.3833	0.34331	0.27029	-0.25
Mof_N 	N 	0.3337	0.17265	0.28635	-0.139
Mof_N 	N 	0.4097	0.78801	0.36559	-0.133
Mof_O 	O 	0.8525	0.61042	0.49896	-0.39
Mof_O 	O 	0.851	0.73915	0.36869	-0.454
Mof_O 	O 	0.6475	0.50104	0.38958	-0.391
Mof_O 	O 	0.649	0.63131	0.26085	-0.456
Mof_O 	O 	0.0902	0.08372	0.74996	-0.362
Mof_O 	O 	0.2643	0.08824	0.6562	-0.381
Mof_O 	O 	0.1513	0.89783	0.53263	-0.389
Mof_O 	O 	0.9837	0.89008	0.63038	-0.344
Mof_O 	O 	0.4098	0.25004	0.91628	-0.373
Mof_O 	O 	0.2357	0.3438	0.91176	-0.384
Mof_O 	O 	0.3487	0.46737	0.10217	-0.387
Mof_O 	O 	0.5163	0.36962	0.10992	-0.356
_end
