# CIF file generated by openbabel 3.1.0, see https://openbabel.org
data_I
_chemical_name_common 'FURRUG01_ion_b'
_cell_length_a 34.565
_cell_length_b 34.565
_cell_length_c 8.3337
_cell_angle_alpha 90
_cell_angle_beta 90
_cell_angle_gamma 120
_space_group_name_H-M_alt 'P 1'
_space_group_name_Hall 'P 1'
loop_
    _symmetry_equiv_pos_as_xyz
    x,y,z
loop_
    _atom_site_label
    _atom_site_type_symbol
    _atom_site_fract_x
    _atom_site_fract_y
    _atom_site_fract_z
    _atom_site_occupancy
    Ag1      Ag       0.32285    0.14043    0.49754    1.000
    O2       O        0.01134    0.66880    0.64573    1.000
    N3       N        0.34402    0.20066    0.35100    1.000
    N4       N        0.20911    0.28324    0.39330    1.000
    C5       C        0.32400    0.22570    0.36170    1.000
    H6       H        0.29890    0.21590    0.42650    1.000
    C7       C        0.33994    0.26555    0.27800    1.000
    C8       C        0.04327    0.61273    0.51073    1.000
    H9       H        0.05497    0.63963    0.45523    1.000
    C10      C        0.06217    0.58603    0.49463    1.000
    H11      H        0.75253    0.92727    0.75767    1.000
    C12      C        0.37870    0.21390    0.25100    1.000
    H13      H        0.39200    0.19640    0.24140    1.000
    C14      C        0.32010    0.29515    0.30150    1.000
    C15      C        0.25300    0.29770    0.38890    1.000
    H16      H        0.27240    0.32410    0.44190    1.000
    C17      C        0.27090    0.27490    0.30840    1.000
    C18      C        0.90867    0.56883    0.56043    1.000
    H19      H        0.91957    0.55293    0.50473    1.000
    C20      C        0.19690    0.22080    0.23170    1.000
    H21      H        0.84357    0.52813    0.51133    1.000
    C22      C        0.18160    0.24490    0.31660    1.000
    H23      H        0.15100    0.23410    0.32070    1.000
    C24      C        0.41620    0.15740    0.54970    1.000
    O25      O        0.39800    0.13960    0.42220    1.000
    O26      O        0.73193    0.83207    0.32987    1.000
    C27      C        0.79693    0.84217    0.20757    1.000
    F28      F        0.48020    0.15560    0.45390    1.000
    F29      F        0.83123    0.89077    0.19967    1.000
    C30      C        0.81413    0.83867    0.37097    1.000
    F31      F        0.78683    0.79407    0.39797    1.000
    F32      F        0.80803    0.86627    0.48167    1.000
    F33      F        0.85863    0.85527    0.36567    1.000
    Ag34     Ag       0.98952    0.47376    0.83087    1.000
    O35      O        0.67800    0.00214    0.97907    1.000
    N36      N        0.01069    0.53399    0.68433    1.000
    N37      N        0.87578    0.61657    0.72663    1.000
    C38      C        0.99067    0.55903    0.69503    1.000
    H39      H        0.96557    0.54923    0.75983    1.000
    C40      C        0.00661    0.59888    0.61133    1.000
    C41      C        0.70993    0.94607    0.84407    1.000
    H42      H        0.72163    0.97297    0.78857    1.000
    C43      C        0.72883    0.91937    0.82797    1.000
    H44      H        0.41920    0.26060    0.09100    1.000
    C45      C        0.04537    0.54723    0.58433    1.000
    H46      H        0.05867    0.52973    0.57473    1.000
    C47      C        0.98677    0.62848    0.63483    1.000
    C48      C        0.91967    0.63103    0.72223    1.000
    H49      H        0.93907    0.65743    0.77523    1.000
    C50      C        0.93757    0.60823    0.64173    1.000
    C51      C        0.57533    0.90217    0.89377    1.000
    H52      H        0.58623    0.88627    0.83807    1.000
    C53      C        0.86357    0.55413    0.56503    1.000
    H54      H        0.51023    0.86147    0.84467    1.000
    C55      C        0.84827    0.57823    0.64993    1.000
    H56      H        0.81767    0.56743    0.65403    1.000
    C57      C        0.08287    0.49073    0.88303    1.000
    O58      O        0.06467    0.47293    0.75553    1.000
    O59      O        0.39860    0.16540    0.66320    1.000
    C60      C        0.46360    0.17550    0.54090    1.000
    F61      F        0.14687    0.48893    0.78723    1.000
    F62      F        0.49790    0.22410    0.53300    1.000
    C63      C        0.48080    0.17200    0.70430    1.000
    F64      F        0.45350    0.12740    0.73130    1.000
    F65      F        0.47470    0.19960    0.81500    1.000
    F66      F        0.52530    0.18860    0.69900    1.000
    Ag67     Ag       0.65618    0.80710    0.16421    1.000
    O68      O        0.34467    0.33547    0.31240    1.000
    N69      N        0.67735    0.86733    0.01767    1.000
    N70      N        0.54244    0.94991    0.05997    1.000
    C71      C        0.65733    0.89237    0.02837    1.000
    H72      H        0.63223    0.88257    0.09317    1.000
    C73      C        0.67327    0.93222    0.94467    1.000
    C74      C        0.37660    0.27940    0.17740    1.000
    H75      H        0.38830    0.30630    0.12190    1.000
    C76      C        0.39550    0.25270    0.16130    1.000
    H77      H        0.08587    0.59393    0.42433    1.000
    C78      C        0.71203    0.88057    0.91767    1.000
    H79      H        0.72533    0.86307    0.90807    1.000
    C80      C        0.65343    0.96182    0.96817    1.000
    C81      C        0.58633    0.96437    0.05557    1.000
    H82      H        0.60573    0.99077    0.10857    1.000
    C83      C        0.60423    0.94157    0.97507    1.000
    C84      C        0.24200    0.23550    0.22710    1.000
    H85      H        0.25290    0.21960    0.17140    1.000
    C86      C        0.53023    0.88747    0.89837    1.000
    H87      H        0.17690    0.19480    0.17800    1.000
    C88      C        0.51493    0.91157    0.98327    1.000
    H89      H        0.48433    0.90077    0.98737    1.000
    C90      C        0.74953    0.82407    0.21637    1.000
    O91      O        0.73133    0.80627    0.08887    1.000
    O92      O        0.06527    0.49873    0.99653    1.000
    C93      C        0.13027    0.50883    0.87423    1.000
    F94      F        0.81353    0.82227    0.12057    1.000
    F95      F        0.16457    0.55743    0.86633    1.000
    C96      C        0.14747    0.50533    0.03763    1.000
    F97      F        0.12017    0.46073    0.06463    1.000
    F98      F        0.14137    0.53293    0.14833    1.000
    F99      F        0.19197    0.52193    0.03233    1.000
    Ag100    Ag       0.85957    0.18242    0.49754    1.000
    O101     O        0.33120    0.34253    0.64573    1.000
    N102     N        0.79934    0.14336    0.35100    1.000
    N103     N        0.71676    0.92587    0.39330    1.000
    C104     C        0.77430    0.09830    0.36170    1.000
    H105     H        0.78410    0.08300    0.42650    1.000
    C106     C        0.73445    0.07439    0.27800    1.000
    C107     C        0.38727    0.43053    0.51073    1.000
    H108     H        0.36037    0.41533    0.45523    1.000
    C109     C        0.41397    0.47613    0.49463    1.000
    H110     H        0.07273    0.82527    0.75767    1.000
    C111     C        0.78610    0.16480    0.25100    1.000
    H112     H        0.80360    0.19560    0.24140    1.000
    C113     C        0.70485    0.02495    0.30150    1.000
    C114     C        0.70230    0.95530    0.38890    1.000
    H115     H        0.67590    0.94830    0.44190    1.000
    C116     C        0.72510    0.99600    0.30840    1.000
    C117     C        0.43117    0.33983    0.56043    1.000
    H118     H        0.44707    0.36663    0.50473    1.000
    C119     C        0.77920    0.97610    0.23170    1.000
    H120     H        0.47187    0.31543    0.51133    1.000
    C121     C        0.75510    0.93670    0.31660    1.000
    H122     H        0.76590    0.91690    0.32070    1.000
    C123     C        0.84260    0.25880    0.54970    1.000
    O124     O        0.86040    0.25840    0.42220    1.000
    O125     O        0.16793    0.89987    0.32987    1.000
    C126     C        0.15783    0.95477    0.20757    1.000
    F127     F        0.84440    0.32460    0.45390    1.000
    F128     F        0.10923    0.94047    0.19967    1.000
    C129     C        0.16133    0.97547    0.37097    1.000
    F130     F        0.20593    0.99277    0.39797    1.000
    F131     F        0.13373    0.94177    0.48167    1.000
    F132     F        0.14473    0.00337    0.36567    1.000
    Ag133    Ag       0.52624    0.51575    0.83087    1.000
    O134     O        0.99786    0.67587    0.97907    1.000
    N135     N        0.46601    0.47669    0.68433    1.000
    N136     N        0.38343    0.25920    0.72663    1.000
    C137     C        0.44097    0.43163    0.69503    1.000
    H138     H        0.45077    0.41633    0.75983    1.000
    C139     C        0.40112    0.40772    0.61133    1.000
    C140     C        0.05393    0.76387    0.84407    1.000
    H141     H        0.02703    0.74867    0.78857    1.000
    C142     C        0.08063    0.80947    0.82797    1.000
    H143     H        0.73940    0.15860    0.09100    1.000
    C144     C        0.45277    0.49813    0.58433    1.000
    H145     H        0.47027    0.52893    0.57473    1.000
    C146     C        0.37152    0.35828    0.63483    1.000
    C147     C        0.36897    0.28863    0.72223    1.000
    H148     H        0.34257    0.28163    0.77523    1.000
    C149     C        0.39177    0.32933    0.64173    1.000
    C150     C        0.09783    0.67317    0.89377    1.000
    H151     H        0.11373    0.69997    0.83807    1.000
    C152     C        0.44587    0.30943    0.56503    1.000
    H153     H        0.13853    0.64877    0.84467    1.000
    C154     C        0.42177    0.27003    0.64993    1.000
    H155     H        0.43257    0.25023    0.65403    1.000
    C156     C        0.50927    0.59213    0.88303    1.000
    O157     O        0.52707    0.59173    0.75553    1.000
    O158     O        0.83460    0.23320    0.66320    1.000
    C159     C        0.82450    0.28810    0.54090    1.000
    F160     F        0.51107    0.65793    0.78723    1.000
    F161     F        0.77590    0.27380    0.53300    1.000
    C162     C        0.82800    0.30880    0.70430    1.000
    F163     F        0.87260    0.32610    0.73130    1.000
    F164     F        0.80040    0.27510    0.81500    1.000
    F165     F        0.81140    0.33670    0.69900    1.000
    Ag166    Ag       0.19290    0.84909    0.16421    1.000
    O167     O        0.66453    0.00920    0.31240    1.000
    N168     N        0.13267    0.81003    0.01767    1.000
    N169     N        0.05009    0.59254    0.05997    1.000
    C170     C        0.10763    0.76497    0.02837    1.000
    H171     H        0.11743    0.74967    0.09317    1.000
    C172     C        0.06778    0.74106    0.94467    1.000
    C173     C        0.72060    0.09720    0.17740    1.000
    H174     H        0.69370    0.08200    0.12190    1.000
    C175     C        0.74730    0.14280    0.16130    1.000
    H176     H        0.40607    0.49193    0.42433    1.000
    C177     C        0.11943    0.83147    0.91767    1.000
    H178     H        0.13693    0.86227    0.90807    1.000
    C179     C        0.03818    0.69162    0.96817    1.000
    C180     C        0.03563    0.62197    0.05557    1.000
    H181     H        0.00923    0.61497    0.10857    1.000
    C182     C        0.05843    0.66267    0.97507    1.000
    C183     C        0.76450    0.00650    0.22710    1.000
    H184     H        0.78040    0.03330    0.17140    1.000
    C185     C        0.11253    0.64277    0.89837    1.000
    H186     H        0.80520    0.98210    0.17800    1.000
    C187     C        0.08843    0.60337    0.98327    1.000
    H188     H        0.09923    0.58357    0.98737    1.000
    C189     C        0.17593    0.92547    0.21637    1.000
    O190     O        0.19373    0.92507    0.08887    1.000
    O191     O        0.50127    0.56653    0.99653    1.000
    C192     C        0.49117    0.62143    0.87423    1.000
    F193     F        0.17773    0.99127    0.12057    1.000
    F194     F        0.44257    0.60713    0.86633    1.000
    C195     C        0.49467    0.64213    0.03763    1.000
    F196     F        0.53927    0.65943    0.06463    1.000
    F197     F        0.46707    0.60843    0.14833    1.000
    F198     F        0.47807    0.67003    0.03233    1.000
    Ag199    Ag       0.81758    0.67715    0.49754    1.000
    O200     O        0.65747    0.98866    0.64573    1.000
    N201     N        0.85664    0.65598    0.35100    1.000
    N202     N        0.07413    0.79089    0.39330    1.000
    C203     C        0.90170    0.67600    0.36170    1.000
    H204     H        0.91700    0.70110    0.42650    1.000
    C205     C        0.92561    0.66006    0.27800    1.000
    C206     C        0.56947    0.95673    0.51073    1.000
    H207     H        0.58467    0.94503    0.45523    1.000
    C208     C        0.52387    0.93783    0.49463    1.000
    H209     H        0.17473    0.24747    0.75767    1.000
    C210     C        0.83520    0.62130    0.25100    1.000
    H211     H        0.80440    0.60800    0.24140    1.000
    C212     C        0.97505    0.67990    0.30150    1.000
    C213     C        0.04470    0.74700    0.38890    1.000
    H214     H        0.05170    0.72760    0.44190    1.000
    C215     C        0.00400    0.72910    0.30840    1.000
    C216     C        0.66017    0.09133    0.56043    1.000
    H217     H        0.63337    0.08043    0.50473    1.000
    C218     C        0.02390    0.80310    0.23170    1.000
    H219     H        0.68457    0.15643    0.51133    1.000
    C220     C        0.06330    0.81840    0.31660    1.000
    H221     H        0.08310    0.84900    0.32070    1.000
    C222     C        0.74120    0.58380    0.54970    1.000
    O223     O        0.74160    0.60200    0.42220    1.000
    O224     O        0.10013    0.26807    0.32987    1.000
    C225     C        0.04523    0.20307    0.20757    1.000
    F226     F        0.67540    0.51980    0.45390    1.000
    F227     F        0.05953    0.16877    0.19967    1.000
    C228     C        0.02453    0.18587    0.37097    1.000
    F229     F        0.00723    0.21317    0.39797    1.000
    F230     F        0.05823    0.19197    0.48167    1.000
    F231     F        0.99663    0.14137    0.36567    1.000
    Ag232    Ag       0.48425    0.01048    0.83087    1.000
    O233     O        0.32413    0.32200    0.97907    1.000
    N234     N        0.52331    0.98931    0.68433    1.000
    N235     N        0.74080    0.12422    0.72663    1.000
    C236     C        0.56837    0.00933    0.69503    1.000
    H237     H        0.58367    0.03443    0.75983    1.000
    C238     C        0.59228    0.99339    0.61133    1.000
    C239     C        0.23613    0.29007    0.84407    1.000
    H240     H        0.25133    0.27837    0.78857    1.000
    C241     C        0.19053    0.27117    0.82797    1.000
    H242     H        0.84140    0.58080    0.09100    1.000
    C243     C        0.50187    0.95463    0.58433    1.000
    H244     H        0.47107    0.94133    0.57473    1.000
    C245     C        0.64172    0.01323    0.63483    1.000
    C246     C        0.71137    0.08033    0.72223    1.000
    H247     H        0.71837    0.06093    0.77523    1.000
    C248     C        0.67067    0.06243    0.64173    1.000
    C249     C        0.32683    0.42467    0.89377    1.000
    H250     H        0.30003    0.41377    0.83807    1.000
    C251     C        0.69057    0.13643    0.56503    1.000
    H252     H        0.35123    0.48977    0.84467    1.000
    C253     C        0.72997    0.15173    0.64993    1.000
    H254     H        0.74977    0.18233    0.65403    1.000
    C255     C        0.40787    0.91713    0.88303    1.000
    O256     O        0.40827    0.93533    0.75553    1.000
    O257     O        0.76680    0.60140    0.66320    1.000
    C258     C        0.71190    0.53640    0.54090    1.000
    F259     F        0.34207    0.85313    0.78723    1.000
    F260     F        0.72620    0.50210    0.53300    1.000
    C261     C        0.69120    0.51920    0.70430    1.000
    F262     F        0.67390    0.54650    0.73130    1.000
    F263     F        0.72490    0.52530    0.81500    1.000
    F264     F        0.66330    0.47470    0.69900    1.000
    Ag265    Ag       0.15091    0.34382    0.16421    1.000
    O266     O        0.99080    0.65533    0.31240    1.000
    N267     N        0.18997    0.32265    0.01767    1.000
    N268     N        0.40746    0.45756    0.05997    1.000
    C269     C        0.23503    0.34267    0.02837    1.000
    H270     H        0.25033    0.36777    0.09317    1.000
    C271     C        0.25894    0.32673    0.94467    1.000
    C272     C        0.90280    0.62340    0.17740    1.000
    H273     H        0.91800    0.61170    0.12190    1.000
    C274     C        0.85720    0.60450    0.16130    1.000
    H275     H        0.50807    0.91413    0.42433    1.000
    C276     C        0.16853    0.28797    0.91767    1.000
    H277     H        0.13773    0.27467    0.90807    1.000
    C278     C        0.30838    0.34657    0.96817    1.000
    C279     C        0.37803    0.41367    0.05557    1.000
    H280     H        0.38503    0.39427    0.10857    1.000
    C281     C        0.33733    0.39577    0.97507    1.000
    C282     C        0.99350    0.75800    0.22710    1.000
    H283     H        0.96670    0.74710    0.17140    1.000
    C284     C        0.35723    0.46977    0.89837    1.000
    H285     H        0.01790    0.82310    0.17800    1.000
    C286     C        0.39663    0.48507    0.98327    1.000
    H287     H        0.41643    0.51567    0.98737    1.000
    C288     C        0.07453    0.25047    0.21637    1.000
    O289     O        0.07493    0.26867    0.08887    1.000
    O290     O        0.43347    0.93473    0.99653    1.000
    C291     C        0.37857    0.86973    0.87423    1.000
    F292     F        0.00873    0.18647    0.12057    1.000
    F293     F        0.39287    0.83543    0.86633    1.000
    C294     C        0.35787    0.85253    0.03763    1.000
    F295     F        0.34057    0.87983    0.06463    1.000
    F296     F        0.39157    0.85863    0.14833    1.000
    F297     F        0.32997    0.80803    0.03233    1.000
    Ag298    Ag       0.67715    0.85957    0.50246    1.000
    O299     O        0.98866    0.33120    0.35427    1.000
    N300     N        0.65598    0.79934    0.64900    1.000
    N301     N        0.79089    0.71676    0.60670    1.000
    C302     C        0.67600    0.77430    0.63830    1.000
    H303     H        0.70110    0.78410    0.57350    1.000
    C304     C        0.66006    0.73445    0.72200    1.000
    C305     C        0.95673    0.38727    0.48927    1.000
    H306     H        0.94503    0.36037    0.54477    1.000
    C307     C        0.93783    0.41397    0.50537    1.000
    H308     H        0.24747    0.07273    0.24233    1.000
    C309     C        0.62130    0.78610    0.74900    1.000
    H310     H        0.60800    0.80360    0.75860    1.000
    C311     C        0.67990    0.70485    0.69850    1.000
    C312     C        0.74700    0.70230    0.61110    1.000
    H313     H        0.72760    0.67590    0.55810    1.000
    C314     C        0.72910    0.72510    0.69160    1.000
    C315     C        0.09133    0.43117    0.43957    1.000
    H316     H        0.08043    0.44707    0.49527    1.000
    C317     C        0.80310    0.77920    0.76830    1.000
    H318     H        0.15643    0.47187    0.48867    1.000
    C319     C        0.81840    0.75510    0.68340    1.000
    H320     H        0.84900    0.76590    0.67930    1.000
    C321     C        0.58380    0.84260    0.45030    1.000
    O322     O        0.60200    0.86040    0.57780    1.000
    O323     O        0.26807    0.16793    0.67013    1.000
    C324     C        0.20307    0.15783    0.79243    1.000
    F325     F        0.51980    0.84440    0.54610    1.000
    F326     F        0.16877    0.10923    0.80033    1.000
    C327     C        0.18587    0.16133    0.62903    1.000
    F328     F        0.21317    0.20593    0.60203    1.000
    F329     F        0.19197    0.13373    0.51833    1.000
    F330     F        0.14137    0.14473    0.63433    1.000
    Ag331    Ag       0.34382    0.19290    0.83579    1.000
    O332     O        0.65533    0.66453    0.68760    1.000
    N333     N        0.32265    0.13267    0.98233    1.000
    N334     N        0.45756    0.05009    0.94003    1.000
    C335     C        0.34267    0.10763    0.97163    1.000
    H336     H        0.36777    0.11743    0.90683    1.000
    C337     C        0.32673    0.06778    0.05533    1.000
    C338     C        0.62340    0.72060    0.82260    1.000
    H339     H        0.61170    0.69370    0.87810    1.000
    C340     C        0.60450    0.74730    0.83870    1.000
    H341     H        0.91413    0.40607    0.57567    1.000
    C342     C        0.28797    0.11943    0.08233    1.000
    H343     H        0.27467    0.13693    0.09193    1.000
    C344     C        0.34657    0.03818    0.03183    1.000
    C345     C        0.41367    0.03563    0.94443    1.000
    H346     H        0.39427    0.00923    0.89143    1.000
    C347     C        0.39577    0.05843    0.02493    1.000
    C348     C        0.75800    0.76450    0.77290    1.000
    H349     H        0.74710    0.78040    0.82860    1.000
    C350     C        0.46977    0.11253    0.10163    1.000
    H351     H        0.82310    0.80520    0.82200    1.000
    C352     C        0.48507    0.08843    0.01673    1.000
    H353     H        0.51567    0.09923    0.01263    1.000
    C354     C        0.25047    0.17593    0.78363    1.000
    O355     O        0.26867    0.19373    0.91113    1.000
    O356     O        0.93473    0.50127    0.00347    1.000
    C357     C        0.86973    0.49117    0.12577    1.000
    F358     F        0.18647    0.17773    0.87943    1.000
    F359     F        0.83543    0.44257    0.13367    1.000
    C360     C        0.85253    0.49467    0.96237    1.000
    F361     F        0.87983    0.53927    0.93537    1.000
    F362     F        0.85863    0.46707    0.85167    1.000
    F363     F        0.80803    0.47807    0.96767    1.000
    Ag364    Ag       0.01048    0.52624    0.16913    1.000
    O365     O        0.32200    0.99786    0.02093    1.000
    N366     N        0.98931    0.46601    0.31567    1.000
    N367     N        0.12422    0.38343    0.27337    1.000
    C368     C        0.00933    0.44097    0.30497    1.000
    H369     H        0.03443    0.45077    0.24017    1.000
    C370     C        0.99339    0.40112    0.38867    1.000
    C371     C        0.29007    0.05393    0.15593    1.000
    H372     H        0.27837    0.02703    0.21143    1.000
    C373     C        0.27117    0.08063    0.17203    1.000
    H374     H        0.58080    0.73940    0.90900    1.000
    C375     C        0.95463    0.45277    0.41567    1.000
    H376     H        0.94133    0.47027    0.42527    1.000
    C377     C        0.01323    0.37152    0.36517    1.000
    C378     C        0.08033    0.36897    0.27777    1.000
    H379     H        0.06093    0.34257    0.22477    1.000
    C380     C        0.06243    0.39177    0.35827    1.000
    C381     C        0.42467    0.09783    0.10623    1.000
    H382     H        0.41377    0.11373    0.16193    1.000
    C383     C        0.13643    0.44587    0.43497    1.000
    H384     H        0.48977    0.13853    0.15533    1.000
    C385     C        0.15173    0.42177    0.35007    1.000
    H386     H        0.18233    0.43257    0.34597    1.000
    C387     C        0.91713    0.50927    0.11697    1.000
    O388     O        0.93533    0.52707    0.24447    1.000
    O389     O        0.60140    0.83460    0.33680    1.000
    C390     C        0.53640    0.82450    0.45910    1.000
    F391     F        0.85313    0.51107    0.21277    1.000
    F392     F        0.50210    0.77590    0.46700    1.000
    C393     C        0.51920    0.82800    0.29570    1.000
    F394     F        0.54650    0.87260    0.26870    1.000
    F395     F        0.52530    0.80040    0.18500    1.000
    F396     F        0.47470    0.81140    0.30100    1.000
    Ag397    Ag       0.14043    0.81758    0.50246    1.000
    O398     O        0.66880    0.65747    0.35427    1.000
    N399     N        0.20066    0.85664    0.64900    1.000
    N400     N        0.28324    0.07413    0.60670    1.000
    C401     C        0.22570    0.90170    0.63830    1.000
    H402     H        0.21590    0.91700    0.57350    1.000
    C403     C        0.26555    0.92561    0.72200    1.000
    C404     C        0.61273    0.56947    0.48927    1.000
    H405     H        0.63963    0.58467    0.54477    1.000
    C406     C        0.58603    0.52387    0.50537    1.000
    H407     H        0.92727    0.17473    0.24233    1.000
    C408     C        0.21390    0.83520    0.74900    1.000
    H409     H        0.19640    0.80440    0.75860    1.000
    C410     C        0.29515    0.97505    0.69850    1.000
    C411     C        0.29770    0.04470    0.61110    1.000
    H412     H        0.32410    0.05170    0.55810    1.000
    C413     C        0.27490    0.00400    0.69160    1.000
    C414     C        0.56883    0.66017    0.43957    1.000
    H415     H        0.55293    0.63337    0.49527    1.000
    C416     C        0.22080    0.02390    0.76830    1.000
    H417     H        0.52813    0.68457    0.48867    1.000
    C418     C        0.24490    0.06330    0.68340    1.000
    H419     H        0.23410    0.08310    0.67930    1.000
    C420     C        0.15740    0.74120    0.45030    1.000
    O421     O        0.13960    0.74160    0.57780    1.000
    O422     O        0.83207    0.10013    0.67013    1.000
    C423     C        0.84217    0.04523    0.79243    1.000
    F424     F        0.15560    0.67540    0.54610    1.000
    F425     F        0.89077    0.05953    0.80033    1.000
    C426     C        0.83867    0.02453    0.62903    1.000
    F427     F        0.79407    0.00723    0.60203    1.000
    F428     F        0.86627    0.05823    0.51833    1.000
    F429     F        0.85527    0.99663    0.63433    1.000
    Ag430    Ag       0.80710    0.15091    0.83579    1.000
    O431     O        0.33547    0.99080    0.68760    1.000
    N432     N        0.86733    0.18997    0.98233    1.000
    N433     N        0.94991    0.40746    0.94003    1.000
    C434     C        0.89237    0.23503    0.97163    1.000
    H435     H        0.88257    0.25033    0.90683    1.000
    C436     C        0.93222    0.25894    0.05533    1.000
    C437     C        0.27940    0.90280    0.82260    1.000
    H438     H        0.30630    0.91800    0.87810    1.000
    C439     C        0.25270    0.85720    0.83870    1.000
    H440     H        0.59393    0.50807    0.57567    1.000
    C441     C        0.88057    0.16853    0.08233    1.000
    H442     H        0.86307    0.13773    0.09193    1.000
    C443     C        0.96182    0.30838    0.03183    1.000
    C444     C        0.96437    0.37803    0.94443    1.000
    H445     H        0.99077    0.38503    0.89143    1.000
    C446     C        0.94157    0.33733    0.02493    1.000
    C447     C        0.23550    0.99350    0.77290    1.000
    H448     H        0.21960    0.96670    0.82860    1.000
    C449     C        0.88747    0.35723    0.10163    1.000
    H450     H        0.19480    0.01790    0.82200    1.000
    C451     C        0.91157    0.39663    0.01673    1.000
    H452     H        0.90077    0.41643    0.01263    1.000
    C453     C        0.82407    0.07453    0.78363    1.000
    O454     O        0.80627    0.07493    0.91113    1.000
    O455     O        0.49873    0.43347    0.00347    1.000
    C456     C        0.50883    0.37857    0.12577    1.000
    F457     F        0.82227    0.00873    0.87943    1.000
    F458     F        0.55743    0.39287    0.13367    1.000
    C459     C        0.50533    0.35787    0.96237    1.000
    F460     F        0.46073    0.34057    0.93537    1.000
    F461     F        0.53293    0.39157    0.85167    1.000
    F462     F        0.52193    0.32997    0.96767    1.000
    Ag463    Ag       0.47376    0.48425    0.16913    1.000
    O464     O        0.00214    0.32413    0.02093    1.000
    N465     N        0.53399    0.52331    0.31567    1.000
    N466     N        0.61657    0.74080    0.27337    1.000
    C467     C        0.55903    0.56837    0.30497    1.000
    H468     H        0.54923    0.58367    0.24017    1.000
    C469     C        0.59888    0.59228    0.38867    1.000
    C470     C        0.94607    0.23613    0.15593    1.000
    H471     H        0.97297    0.25133    0.21143    1.000
    C472     C        0.91937    0.19053    0.17203    1.000
    H473     H        0.26060    0.84140    0.90900    1.000
    C474     C        0.54723    0.50187    0.41567    1.000
    H475     H        0.52973    0.47107    0.42527    1.000
    C476     C        0.62848    0.64172    0.36517    1.000
    C477     C        0.63103    0.71137    0.27777    1.000
    H478     H        0.65743    0.71837    0.22477    1.000
    C479     C        0.60823    0.67067    0.35827    1.000
    C480     C        0.90217    0.32683    0.10623    1.000
    H481     H        0.88627    0.30003    0.16193    1.000
    C482     C        0.55413    0.69057    0.43497    1.000
    H483     H        0.86147    0.35123    0.15533    1.000
    C484     C        0.57823    0.72997    0.35007    1.000
    H485     H        0.56743    0.74977    0.34597    1.000
    C486     C        0.49073    0.40787    0.11697    1.000
    O487     O        0.47293    0.40827    0.24447    1.000
    O488     O        0.16540    0.76680    0.33680    1.000
    C489     C        0.17550    0.71190    0.45910    1.000
    F490     F        0.48893    0.34207    0.21277    1.000
    F491     F        0.22410    0.72620    0.46700    1.000
    C492     C        0.17200    0.69120    0.29570    1.000
    F493     F        0.12740    0.67390    0.26870    1.000
    F494     F        0.19960    0.72490    0.18500    1.000
    F495     F        0.18860    0.66330    0.30100    1.000
    Ag496    Ag       0.18242    0.32285    0.50246    1.000
    O497     O        0.34253    0.01134    0.35427    1.000
    N498     N        0.14336    0.34402    0.64900    1.000
    N499     N        0.92587    0.20911    0.60670    1.000
    C500     C        0.09830    0.32400    0.63830    1.000
    H501     H        0.08300    0.29890    0.57350    1.000
    C502     C        0.07439    0.33994    0.72200    1.000
    C503     C        0.43053    0.04327    0.48927    1.000
    H504     H        0.41533    0.05497    0.54477    1.000
    C505     C        0.47613    0.06217    0.50537    1.000
    H506     H        0.82527    0.75253    0.24233    1.000
    C507     C        0.16480    0.37870    0.74900    1.000
    H508     H        0.19560    0.39200    0.75860    1.000
    C509     C        0.02495    0.32010    0.69850    1.000
    C510     C        0.95530    0.25300    0.61110    1.000
    H511     H        0.94830    0.27240    0.55810    1.000
    C512     C        0.99600    0.27090    0.69160    1.000
    C513     C        0.33983    0.90867    0.43957    1.000
    H514     H        0.36663    0.91957    0.49527    1.000
    C515     C        0.97610    0.19690    0.76830    1.000
    H516     H        0.31543    0.84357    0.48867    1.000
    C517     C        0.93670    0.18160    0.68340    1.000
    H518     H        0.91690    0.15100    0.67930    1.000
    C519     C        0.25880    0.41620    0.45030    1.000
    O520     O        0.25840    0.39800    0.57780    1.000
    O521     O        0.89987    0.73193    0.67013    1.000
    C522     C        0.95477    0.79693    0.79243    1.000
    F523     F        0.32460    0.48020    0.54610    1.000
    F524     F        0.94047    0.83123    0.80033    1.000
    C525     C        0.97547    0.81413    0.62903    1.000
    F526     F        0.99277    0.78683    0.60203    1.000
    F527     F        0.94177    0.80803    0.51833    1.000
    F528     F        0.00337    0.85863    0.63433    1.000
    Ag529    Ag       0.84909    0.65618    0.83579    1.000
    O530     O        0.00920    0.34467    0.68760    1.000
    N531     N        0.81003    0.67735    0.98233    1.000
    N532     N        0.59254    0.54244    0.94003    1.000
    C533     C        0.76497    0.65733    0.97163    1.000
    H534     H        0.74967    0.63223    0.90683    1.000
    C535     C        0.74106    0.67327    0.05533    1.000
    C536     C        0.09720    0.37660    0.82260    1.000
    H537     H        0.08200    0.38830    0.87810    1.000
    C538     C        0.14280    0.39550    0.83870    1.000
    H539     H        0.49193    0.08587    0.57567    1.000
    C540     C        0.83147    0.71203    0.08233    1.000
    H541     H        0.86227    0.72533    0.09193    1.000
    C542     C        0.69162    0.65343    0.03183    1.000
    C543     C        0.62197    0.58633    0.94443    1.000
    H544     H        0.61497    0.60573    0.89143    1.000
    C545     C        0.66267    0.60423    0.02493    1.000
    C546     C        0.00650    0.24200    0.77290    1.000
    H547     H        0.03330    0.25290    0.82860    1.000
    C548     C        0.64277    0.53023    0.10163    1.000
    H549     H        0.98210    0.17690    0.82200    1.000
    C550     C        0.60337    0.51493    0.01673    1.000
    H551     H        0.58357    0.48433    0.01263    1.000
    C552     C        0.92547    0.74953    0.78363    1.000
    O553     O        0.92507    0.73133    0.91113    1.000
    O554     O        0.56653    0.06527    0.00347    1.000
    C555     C        0.62143    0.13027    0.12577    1.000
    F556     F        0.99127    0.81353    0.87943    1.000
    F557     F        0.60713    0.16457    0.13367    1.000
    C558     C        0.64213    0.14747    0.96237    1.000
    F559     F        0.65943    0.12017    0.93537    1.000
    F560     F        0.60843    0.14137    0.85167    1.000
    F561     F        0.67003    0.19197    0.96767    1.000
    Ag562    Ag       0.51575    0.98952    0.16913    1.000
    O563     O        0.67587    0.67800    0.02093    1.000
    N564     N        0.47669    0.01069    0.31567    1.000
    N565     N        0.25920    0.87578    0.27337    1.000
    C566     C        0.43163    0.99067    0.30497    1.000
    H567     H        0.41633    0.96557    0.24017    1.000
    C568     C        0.40772    0.00661    0.38867    1.000
    C569     C        0.76387    0.70993    0.15593    1.000
    H570     H        0.74867    0.72163    0.21143    1.000
    C571     C        0.80947    0.72883    0.17203    1.000
    H572     H        0.15860    0.41920    0.90900    1.000
    C573     C        0.49813    0.04537    0.41567    1.000
    H574     H        0.52893    0.05867    0.42527    1.000
    C575     C        0.35828    0.98677    0.36517    1.000
    C576     C        0.28863    0.91967    0.27777    1.000
    H577     H        0.28163    0.93907    0.22477    1.000
    C578     C        0.32933    0.93757    0.35827    1.000
    C579     C        0.67317    0.57533    0.10623    1.000
    H580     H        0.69997    0.58623    0.16193    1.000
    C581     C        0.30943    0.86357    0.43497    1.000
    H582     H        0.64877    0.51023    0.15533    1.000
    C583     C        0.27003    0.84827    0.35007    1.000
    H584     H        0.25023    0.81767    0.34597    1.000
    C585     C        0.59213    0.08287    0.11697    1.000
    O586     O        0.59173    0.06467    0.24447    1.000
    O587     O        0.23320    0.39860    0.33680    1.000
    C588     C        0.28810    0.46360    0.45910    1.000
    F589     F        0.65793    0.14687    0.21277    1.000
    F590     F        0.27380    0.49790    0.46700    1.000
    C591     C        0.30880    0.48080    0.29570    1.000
    F592     F        0.32610    0.45350    0.26870    1.000
    F593     F        0.27510    0.47470    0.18500    1.000
    F594     F        0.33670    0.52530    0.30100    1.000
