data_functionalizedCrystal
_audit_creation_method	'EQeq! by Chris Wilmer'
_symmetry_space_group_name_H-M	'P1'
_symmetry_Int_Tables_number	1
_symmetry_cell_setting	triclinic
loop_
_symmetry_equiv_pos_as_xyz
  x,y,z
_cell_length_a	6.8654
_cell_length_b	11.42
_cell_length_c	17.4396
_cell_angle_alpha	90
_cell_angle_beta	98.662
_cell_angle_gamma	90
loop_
_atom_site_label
_atom_site_type_symbol
_atom_site_fract_x
_atom_site_fract_y
_atom_site_fract_z
_atom_site_charge
Mof_Cd	Cd	0.83205	0.35845	0.52672	0.483
Mof_C 	C 	0.5412	0.2741	0.303	0.019
Mof_C 	C 	0.5128	0.3651	0.2499	-0.071
Mof_H 	H 	0.5317	0.442	0.2669	0.091
Mof_C 	C 	0.4563	0.3422	0.1716	0.02
Mof_C 	C 	0.4274	0.227	0.147	-0.158
Mof_H 	H 	0.3923	0.2103	0.0945	0.12
Mof_C 	C 	0.4512	0.1374	0.2008	0.192
Mof_C 	C 	0.5094	0.159	0.2784	-0.154
Mof_H 	H 	0.5272	0.0976	0.3138	0.105
Mof_C 	C 	0.6118	0.2977	0.3878	0.271
Mof_C 	C 	0.4261	0.4382	0.1132	0.272
Mof_C 	C 	0.4925	0.9838	0.1127	-0.205
Mof_H 	H 	0.6341	0.9951	0.1215	0.113
Mof_H 	H 	0.4378	0.0309	0.0683	0.118
Mof_C 	C 	0.4466	0.8574	0.096	0.363
Mof_O 	O 	0.6626	0.4024	0.4065	-0.251
Mof_O 	O 	0.6316	0.2175	0.4345	-0.253
Mof_O 	O 	0.3817	0.4169	0.0429	-0.252
Mof_O 	O 	0.4402	0.5429	0.1379	-0.249
Mof_O 	O 	0.4124	0.0207	0.179	-0.195
Mof_O 	O 	0.3377	0.8028	0.1343	-0.3
Mof_O 	O 	0.5166	0.8111	0.041	-0.285
Mof_Cd	Cd	0.66795	0.35845	0.97328	0.482
Mof_C 	C 	0.9588	0.2741	0.197	0.018
Mof_C 	C 	0.9872	0.3651	0.2501	-0.07
Mof_H 	H 	0.9683	0.442	0.2331	0.091
Mof_C 	C 	0.0437	0.3422	0.3284	0.019
Mof_C 	C 	0.0726	0.227	0.353	-0.157
Mof_H 	H 	0.1077	0.2103	0.4055	0.12
Mof_C 	C 	0.0488	0.1374	0.2992	0.191
Mof_C 	C 	0.9906	0.159	0.2216	-0.153
Mof_H 	H 	0.9728	0.0976	0.1862	0.105
Mof_C 	C 	0.8882	0.2977	0.1122	0.271
Mof_C 	C 	0.0739	0.4382	0.3868	0.272
Mof_C 	C 	0.0075	0.9838	0.3873	-0.205
Mof_H 	H 	0.8659	0.9951	0.3785	0.113
Mof_H 	H 	0.0622	0.0309	0.4317	0.118
Mof_C 	C 	0.0534	0.8574	0.404	0.362
Mof_O 	O 	0.8374	0.4024	0.0935	-0.251
Mof_O 	O 	0.8684	0.2175	0.0655	-0.252
Mof_O 	O 	0.1183	0.4169	0.4571	-0.252
Mof_O 	O 	0.0598	0.5429	0.3621	-0.249
Mof_O 	O 	0.0876	0.0207	0.321	-0.195
Mof_O 	O 	0.1623	0.8028	0.3657	-0.3
Mof_O 	O 	0.9834	0.8111	0.459	-0.284
Mof_Cd	Cd	0.16795	0.64155	0.47328	0.483
Mof_C 	C 	0.4588	0.7259	0.697	0.019
Mof_C 	C 	0.4872	0.6349	0.7501	-0.071
Mof_H 	H 	0.4683	0.558	0.7331	0.091
Mof_C 	C 	0.5437	0.6578	0.8284	0.02
Mof_C 	C 	0.5726	0.773	0.853	-0.158
Mof_H 	H 	0.6077	0.7897	0.9055	0.12
Mof_C 	C 	0.5488	0.8626	0.7992	0.192
Mof_C 	C 	0.4906	0.841	0.7216	-0.154
Mof_H 	H 	0.4728	0.9024	0.6862	0.105
Mof_C 	C 	0.3882	0.7023	0.6122	0.271
Mof_C 	C 	0.5739	0.5618	0.8868	0.272
Mof_C 	C 	0.5075	0.0162	0.8873	-0.205
Mof_H 	H 	0.3659	0.0049	0.8785	0.113
Mof_H 	H 	0.5622	0.9691	0.9317	0.118
Mof_C 	C 	0.5534	0.1426	0.904	0.363
Mof_O 	O 	0.3374	0.5976	0.5935	-0.251
Mof_O 	O 	0.3684	0.7825	0.5655	-0.253
Mof_O 	O 	0.6183	0.5831	0.9571	-0.252
Mof_O 	O 	0.5598	0.4571	0.8621	-0.249
Mof_O 	O 	0.5876	0.9793	0.821	-0.195
Mof_O 	O 	0.6623	0.1972	0.8657	-0.3
Mof_O 	O 	0.4834	0.1889	0.959	-0.285
Mof_Cd	Cd	0.33205	0.64155	0.02672	0.482
Mof_C 	C 	0.0412	0.7259	0.803	0.018
Mof_C 	C 	0.0128	0.6349	0.7499	-0.07
Mof_H 	H 	0.0317	0.558	0.7669	0.091
Mof_C 	C 	0.9563	0.6578	0.6716	0.019
Mof_C 	C 	0.9274	0.773	0.647	-0.157
Mof_H 	H 	0.8923	0.7897	0.5945	0.12
Mof_C 	C 	0.9512	0.8626	0.7008	0.191
Mof_C 	C 	0.0094	0.841	0.7784	-0.153
Mof_H 	H 	0.0272	0.9024	0.8138	0.105
Mof_C 	C 	0.1118	0.7023	0.8878	0.271
Mof_C 	C 	0.9261	0.5618	0.6132	0.272
Mof_C 	C 	0.9925	0.0162	0.6127	-0.205
Mof_H 	H 	0.1341	0.0049	0.6215	0.113
Mof_H 	H 	0.9378	0.9691	0.5683	0.118
Mof_C 	C 	0.9466	0.1426	0.596	0.362
Mof_O 	O 	0.1626	0.5976	0.9065	-0.251
Mof_O 	O 	0.1316	0.7825	0.9345	-0.252
Mof_O 	O 	0.8817	0.5831	0.5429	-0.252
Mof_O 	O 	0.9402	0.4571	0.6379	-0.249
Mof_O 	O 	0.9124	0.9793	0.679	-0.195
Mof_O 	O 	0.8377	0.1972	0.6343	-0.3
Mof_O 	O 	0.0166	0.1889	0.541	-0.284
Mof_Cd	Cd	0.25	0.85402	0.25	0.412
Mof_Cd	Cd	0.75	0.14598	0.75	0.412
_end
