data_functionalizedCrystal
_audit_creation_method	'EQeq! by Chris Wilmer'
_symmetry_space_group_name_H-M	'P1'
_symmetry_Int_Tables_number	1
_symmetry_cell_setting	triclinic
loop_
_symmetry_equiv_pos_as_xyz
  x,y,z
_cell_length_a	10.297
_cell_length_b	30.5635
_cell_length_c	30.9262
_cell_angle_alpha	90
_cell_angle_beta	90
_cell_angle_gamma	91.468
loop_
_atom_site_label
_atom_site_type_symbol
_atom_site_fract_x
_atom_site_fract_y
_atom_site_fract_z
_atom_site_charge
Mof_Zn	Zn	0.16829	0.32186	0.32687	1.222
Mof_Zn	Zn	0.47659	0.16317	0.91754	1.216
Mof_Zn	Zn	0.4732	0.08992	0.84202	1.218
Mof_Zn	Zn	0.97659	0.66317	0.58246	1.216
Mof_Zn	Zn	0.12534	0.68168	0.66954	1.222
Mof_Zn	Zn	0.37466	0.81832	0.16954	1.222
Mof_Zn	Zn	0.5268	0.91008	0.15798	1.219
Mof_Zn	Zn	0.0268	0.41008	0.34202	1.219
Mof_Zn	Zn	0.62534	0.18168	0.83046	1.222
Mof_Zn	Zn	0.33171	0.17814	0.82687	1.223
Mof_Zn	Zn	0.52341	0.83683	0.08246	1.217
Mof_Zn	Zn	0.83171	0.67814	0.67313	1.223
Mof_Zn	Zn	0.87466	0.31832	0.33046	1.222
Mof_Zn	Zn	0.66829	0.82186	0.17313	1.223
Mof_Zn	Zn	0.9732	0.58992	0.65798	1.219
Mof_Zn	Zn	0.02341	0.33683	0.41754	1.217
Mof_H 	H 	0.997	0.4275	0.5202	0.056
Mof_H 	H 	0.0269	0.8827	0.184	0.067
Mof_H 	H 	0.7123	0.2762	0.4989	0.107
Mof_H 	H 	0.723	0.686	0.225	0.041
Mof_H 	H 	0.223	0.186	0.275	0.04
Mof_H 	H 	0.3886	0.2259	0.6174	0.044
Mof_H 	H 	0.497	0.9275	0.9798	0.056
Mof_H 	H 	0.3387	0.4902	0.2811	0.107
Mof_H 	H 	0.6767	0.6141	0.2494	0.051
Mof_H 	H 	0.2877	0.7238	0.5011	0.107
Mof_H 	H 	0.8387	0.9902	0.2189	0.107
Mof_H 	H 	0.1775	0.2203	0.0006	0.081
Mof_H 	H 	0.6437	0.8019	0.3124	0.051
Mof_H 	H 	0.889	0.9444	0.7697	0.132
Mof_H 	H 	0.7309	0.4927	0.2843	0.084
Mof_H 	H 	0.1316	0.8099	0.6707	0.044
Mof_H 	H 	0.6775	0.7203	0.4994	0.081
Mof_H 	H 	0.3225	0.2797	0.5006	0.081
Mof_H 	H 	0.6613	0.5098	0.7189	0.107
Mof_H 	H 	0.5269	0.3827	0.316	0.067
Mof_H 	H 	0.518	0.3066	0.39	0.065
Mof_H 	H 	0.8684	0.1901	0.3293	0.044
Mof_H 	H 	0.503	0.0725	0.0202	0.056
Mof_H 	H 	0.3563	0.1981	0.6876	0.051
Mof_H 	H 	0.1613	0.0098	0.7811	0.107
Mof_H 	H 	0.1437	0.3019	0.1876	0.051
Mof_H 	H 	0.6316	0.3099	0.8293	0.045
Mof_H 	H 	0.8233	0.8859	0.7494	0.052
Mof_H 	H 	0.4731	0.6173	0.684	0.067
Mof_H 	H 	0.7738	0.2659	0.2158	0.058
Mof_H 	H 	0.4333	0.2578	0.5609	0.133
Mof_H 	H 	0.5211	0.0182	0.0722	0.052
Mof_H 	H 	0.8225	0.7797	0.9994	0.081
Mof_H 	H 	0.2262	0.7341	0.7842	0.058
Mof_H 	H 	0.5667	0.7422	0.4391	0.133
Mof_H 	H 	0.482	0.6934	0.61	0.065
Mof_H 	H 	0.3243	0.6183	0.1941	0.073
Mof_H 	H 	0.4789	0.9818	0.9278	0.052
Mof_H 	H 	0.2691	0.5073	0.7157	0.084
Mof_H 	H 	0.611	0.5556	0.2697	0.132
Mof_H 	H 	0.2123	0.7762	0.0011	0.107
Mof_H 	H 	0.003	0.5725	0.4798	0.056
Mof_H 	H 	0.1757	0.8817	0.6941	0.074
Mof_H 	H 	0.8563	0.6981	0.8124	0.051
Mof_H 	H 	0.7877	0.2238	0.9989	0.107
Mof_H 	H 	0.018	0.8066	0.11	0.065
Mof_H 	H 	0.3684	0.6901	0.1707	0.045
Mof_H 	H 	0.6114	0.7741	0.3826	0.044
Mof_H 	H 	0.9333	0.7578	0.9391	0.132
Mof_H 	H 	0.2545	0.761	0.8532	0.066
Mof_H 	H 	0.2309	0.9927	0.2157	0.084
Mof_H 	H 	0.9731	0.1173	0.816	0.067
Mof_H 	H 	0.0211	0.5182	0.4278	0.052
Mof_H 	H 	0.982	0.1934	0.89	0.065
Mof_H 	H 	0.7691	0.0073	0.7843	0.084
Mof_H 	H 	0.7455	0.239	0.1468	0.066
Mof_H 	H 	0.7262	0.2341	0.7158	0.058
Mof_H 	H 	0.277	0.314	0.775	0.041
Mof_H 	H 	0.6757	0.3817	0.8059	0.073
Mof_H 	H 	0.7545	0.261	0.6468	0.066
Mof_H 	H 	0.1114	0.2741	0.1174	0.045
Mof_H 	H 	0.8886	0.7259	0.8826	0.045
Mof_H 	H 	0.389	0.4444	0.7303	0.132
Mof_H 	H 	0.111	0.0556	0.2303	0.132
Mof_H 	H 	0.777	0.814	0.725	0.04
Mof_H 	H 	0.1767	0.1141	0.2506	0.052
Mof_H 	H 	0.3233	0.3859	0.7506	0.051
Mof_H 	H 	0.2738	0.7659	0.2842	0.058
Mof_H 	H 	0.0667	0.2422	0.0609	0.132
Mof_H 	H 	0.8243	0.1183	0.3059	0.074
Mof_H 	H 	0.2455	0.739	0.3532	0.066
Mof_H 	H 	0.9789	0.4818	0.5722	0.052
Mof_C 	C 	0.0699	0.82491	0.68633	0.032
Mof_C 	C 	0.9522	0.80533	0.69596	-0.124
Mof_C 	C 	0.7217	0.69441	0.58113	0.384
Mof_C 	C 	0.3643	0.70701	0.55937	-0.049
Mof_C 	C 	0.2217	0.19441	0.91887	0.384
Mof_C 	C 	0.643	0.67252	0.21916	0.026
Mof_C 	C 	0.4159	0.43337	0.29943	-0.039
Mof_C 	C 	0.4522	0.30533	0.80404	-0.121
Mof_C 	C 	0.044	0.27278	0.1374	-0.043
Mof_C 	C 	0.9358	0.7106	0.82051	-0.011
Mof_C 	C 	0.9656	0.00186	0.77776	0.142
Mof_C 	C 	0.0834	0.02389	0.78544	-0.1
Mof_C 	C 	0.9812	0.2256	0.00595	0.135
Mof_C 	C 	0.8531	0.06622	0.80095	-0.046
Mof_C 	C 	0.4345	0.25991	0.81885	0.433
Mof_C 	C 	0.3247	0.75172	0.345	-0.047
Mof_C 	C 	0.0293	0.91171	0.19304	-0.016
Mof_C 	C 	0.5279	0.18653	0.7495	0.382
Mof_C 	C 	0.2388	0.69988	0.58363	0.382
Mof_C 	C 	0.1582	0.73243	0.80399	0.001
Mof_C 	C 	0.5037	0.39097	0.77592	-0.017
Mof_C 	C 	0.8643	0.20701	0.94063	-0.049
Mof_C 	C 	0.3849	0.37092	0.7664	-0.063
Mof_C 	C 	0.5735	0.2452	0.6257	-0.031
Mof_C 	C 	0.0186	0.79959	0.08075	-0.008
Mof_C 	C 	0.1753	0.74828	0.845	-0.047
Mof_C 	C 	0.0735	0.7452	0.8743	-0.029
Mof_C 	C 	0.5109	0.96765	0.0318	-0.089
Mof_C 	C 	0.1357	0.79299	0.05937	-0.049
Mof_C 	C 	0.9809	0.56813	0.56454	0.405
Mof_C 	C 	0.0994	0.21733	0.98564	-0.095
Mof_C 	C 	0.857	0.82748	0.71916	0.028
Mof_C 	C 	0.5186	0.29959	0.41925	-0.008
Mof_C 	C 	0.9621	0.2864	0.20821	-0.07
Mof_C 	C 	0.5379	0.2136	0.70821	-0.071
Mof_C 	C 	0.4707	0.58829	0.69304	-0.016
Mof_C 	C 	0.5699	0.32491	0.81367	0.028
Mof_C 	C 	0.1469	0.93378	0.19905	-0.046
Mof_C 	C 	0.5126	0.01046	0.04323	-0.008
Mof_C 	C 	0.8418	0.26757	0.19601	0.001
Mof_C 	C 	0.9874	0.48954	0.54323	-0.008
Mof_C 	C 	0.0191	0.43187	0.43546	0.405
Mof_C 	C 	0.9963	0.10903	0.27592	-0.013
Mof_C 	C 	0.4301	0.67509	0.18633	0.028
Mof_C 	C 	0.5961	0.36819	0.7995	-0.064
Mof_C 	C 	0.3531	0.56622	0.69905	-0.045
Mof_C 	C 	0.9031	0.79551	0.05786	-0.052
Mof_C 	C 	0.6151	0.62908	0.2336	-0.063
Mof_C 	C 	0.9159	0.93337	0.20057	-0.039
Mof_C 	C 	0.2612	0.80012	0.08363	0.382
Mof_C 	C 	0.9721	0.31347	0.2495	0.384
Mof_C 	C 	0.3418	0.76757	0.30399	0.001
Mof_C 	C 	0.7783	0.80559	0.08113	0.384
Mof_C 	C 	0.4619	0.56296	0.23773	0.215
Mof_C 	C 	0.956	0.72722	0.8626	-0.043
Mof_C 	C 	0.8993	0.2379	0.08049	0.223
Mof_C 	C 	0.5969	0.70449	0.55786	-0.052
Mof_C 	C 	0.2783	0.30559	0.41887	0.384
Mof_C 	C 	0.5188	0.2744	0.50595	0.134
Mof_C 	C 	0.6344	0.28041	0.48445	-0.096
Mof_C 	C 	0.711	0.59119	0.69182	0.367
Mof_C 	C 	0.5191	0.93187	0.06454	0.405
Mof_C 	C 	0.0841	0.06663	0.79943	-0.039
Mof_C 	C 	0.4031	0.29551	0.44214	-0.052
Mof_C 	C 	0.9345	0.75991	0.68115	0.432
Mof_C 	C 	0.1517	0.97757	0.21283	-0.101
Mof_C 	C 	0.0642	0.2894	0.17949	-0.011
Mof_C 	C 	0.0344	0.99814	0.22224	0.142
Mof_C 	C 	0.3656	0.71959	0.51555	-0.096
Mof_C 	C 	0.5293	0.41171	0.30696	-0.016
Mof_C 	C 	0.7388	0.19988	0.91637	0.382
Mof_C 	C 	0.0188	0.7744	0.99405	0.135
Mof_C 	C 	0.7711	0.41092	0.31328	0.385
Mof_C 	C 	0.5841	0.56663	0.70057	-0.039
Mof_C 	C 	0.8656	0.21959	0.98445	-0.096
Mof_C 	C 	0.7612	0.30012	0.41637	0.382
Mof_C 	C 	0.9006	0.78267	0.01436	-0.095
Mof_C 	C 	0.4621	0.7864	0.29179	-0.071
Mof_C 	C 	0.211	0.09119	0.80818	0.367
Mof_C 	C 	0.4809	0.06813	0.93546	0.405
Mof_C 	C 	0.8849	0.87092	0.7336	-0.067
Mof_C 	C 	0.0037	0.89097	0.72408	-0.013
Mof_C 	C 	0.9982	0.45679	0.51189	-0.015
Mof_C 	C 	0.4006	0.28267	0.48564	-0.094
Mof_C 	C 	0.9039	0.13181	0.2995	-0.067
Mof_C 	C 	0.4963	0.60903	0.22408	-0.017
Mof_C 	C 	0.0478	0.19467	0.30404	-0.124
Mof_C 	C 	0.9619	0.06296	0.26227	0.215
Mof_C 	C 	0.9301	0.17509	0.31367	0.032
Mof_C 	C 	0.2711	0.91092	0.18672	0.385
Mof_C 	C 	0.4814	0.70041	0.58075	-0.008
Mof_C 	C 	0.6357	0.29299	0.44063	-0.049
Mof_C 	C 	0.6517	0.47757	0.28717	-0.101
Mof_C 	C 	0.4358	0.2106	0.67949	-0.01
Mof_C 	C 	0.0655	0.24009	0.31885	0.432
Mof_C 	C 	0.6007	0.2621	0.58049	0.224
Mof_C 	C 	0.5478	0.69467	0.19596	-0.121
Mof_C 	C 	0.0961	0.86819	0.7005	-0.067
Mof_C 	C 	0.0279	0.68653	0.7505	0.384
Mof_C 	C 	0.9707	0.08829	0.80696	-0.016
Mof_C 	C 	0.4874	0.98954	0.95677	-0.008
Mof_C 	C 	0.2289	0.58908	0.68672	0.385
Mof_C 	C 	0.6753	0.24828	0.655	-0.047
Mof_C 	C 	0.1151	0.12908	0.2664	-0.067
Mof_C 	C 	0.5344	0.49814	0.27776	0.144
Mof_C 	C 	0.289	0.40881	0.30818	0.367
Mof_C 	C 	0.4656	0.50186	0.72224	0.144
Mof_C 	C 	0.544	0.77278	0.3626	-0.041
Mof_C 	C 	0.0381	0.93704	0.73773	0.215
Mof_C 	C 	0.1344	0.78041	0.01555	-0.096
Mof_C 	C 	0.357	0.32748	0.78084	0.026
Mof_C 	C 	0.5381	0.43704	0.76227	0.215
Mof_C 	C 	0.5642	0.7894	0.32051	-0.01
Mof_C 	C 	0.7289	0.08908	0.81328	0.385
Mof_C 	C 	0.0018	0.54321	0.48811	-0.015
Mof_C 	C 	0.456	0.22722	0.6374	-0.041
Mof_C 	C 	0.1007	0.7621	0.91951	0.223
Mof_C 	C 	0.4166	0.47611	0.28544	-0.101
Mof_C 	C 	0.4891	0.03235	0.9682	-0.089
Mof_C 	C 	0.8483	0.02243	0.78717	-0.101
Mof_C 	C 	0.6469	0.43378	0.30095	-0.045
Mof_C 	C 	0.3993	0.7379	0.41951	0.224
Mof_C 	C 	0.143	0.17252	0.28084	0.028
Mof_C 	C 	0.5834	0.52389	0.71456	-0.101
Mof_C 	C 	0.4812	0.7256	0.49405	0.134
Mof_C 	C 	0.789	0.90881	0.19182	0.367
Mof_C 	C 	0.4721	0.81347	0.2505	0.382
Mof_C 	C 	0.5994	0.71733	0.51436	-0.094
Mof_C 	C 	0.0126	0.51046	0.45677	-0.008
Mof_C 	C 	0.5018	0.04321	0.01189	-0.016
Mof_C 	C 	0.0379	0.7136	0.79179	-0.07
Mof_C 	C 	0.9891	0.53235	0.5318	-0.09
Mof_C 	C 	0.9265	0.2548	0.1257	-0.029
Mof_C 	C 	0.9166	0.97611	0.21456	-0.1
Mof_C 	C 	0.3483	0.52243	0.71283	-0.101
Mof_C 	C 	0.4982	0.95679	0.98811	-0.016
Mof_C 	C 	0.8247	0.25172	0.155	-0.047
Mof_C 	C 	0.6582	0.23243	0.69601	0.001
Mof_C 	C 	0.0109	0.46765	0.4682	-0.09
Mof_C 	C 	0.9814	0.20041	0.91925	-0.008
Mof_C 	C 	0.4039	0.63181	0.2005	-0.064
Mof_C 	C 	0.0969	0.20449	0.94214	-0.052
Mof_C 	C 	0.4265	0.7548	0.3743	-0.031
Mof_C 	C 	0.5655	0.74009	0.18115	0.433
Mof_N 	N 	0.9579	0.95895	0.76208	-0.243
Mof_N 	N 	0.5104	0.26383	0.55165	-0.242
Mof_N 	N 	0.9896	0.23617	0.05165	-0.241
Mof_N 	N 	0.4579	0.45895	0.73792	-0.242
Mof_N 	N 	0.0104	0.76383	0.94835	-0.241
Mof_N 	N 	0.0421	0.04105	0.23792	-0.243
Mof_N 	N 	0.4896	0.73617	0.44835	-0.242
Mof_N 	N 	0.5421	0.54105	0.26208	-0.242
Mof_O 	O 	0.6245	0.06729	0.81279	-0.482
Mof_O 	O 	0.5229	0.24584	0.83857	-0.483
Mof_O 	O 	0.854	0.04512	0.26877	-0.217
Mof_O 	O 	0.7133	0.69032	0.62041	-0.472
Mof_O 	O 	0.742	0.12818	0.82147	-0.474
Mof_O 	O 	0.4768	0.15091	0.85663	-0.934
Mof_O 	O 	0.2075	0.77763	0.93122	-0.222
Mof_O 	O 	0.2133	0.19032	0.87959	-0.472
Mof_O 	O 	0.87	0.30225	0.26955	-0.465
Mof_O 	O 	0.9771	0.25416	0.33857	-0.481
Mof_O 	O 	0.8755	0.43271	0.31279	-0.481
Mof_O 	O 	0.0232	0.34909	0.35663	-0.935
Mof_O 	O 	0.7925	0.22237	0.06878	-0.222
Mof_O 	O 	0.7075	0.27763	0.56878	-0.222
Mof_O 	O 	0.3755	0.93271	0.18721	-0.482
Mof_O 	O 	0.258	0.87182	0.17853	-0.474
Mof_O 	O 	0.8224	0.69082	0.55853	-0.478
Mof_O 	O 	0.758	0.37182	0.32147	-0.473
Mof_O 	O 	0.1388	0.69247	0.56228	-0.48
Mof_O 	O 	0.8612	0.30753	0.43772	-0.48
Mof_O 	O 	0.9341	0.66698	0.73649	-0.462
Mof_O 	O 	0.242	0.62818	0.67853	-0.473
Mof_O 	O 	0.749	0.20139	0.87594	-0.468
Mof_O 	O 	0.1666	0.26156	0.30895	-0.481
Mof_O 	O 	0.146	0.95488	0.73123	-0.217
Mof_O 	O 	0.37	0.80225	0.23045	-0.465
Mof_O 	O 	0.6388	0.19247	0.93772	-0.481
Mof_O 	O 	0.1245	0.56729	0.68721	-0.481
Mof_O 	O 	0.0268	0.44313	0.39703	-0.495
Mof_O 	O 	0.2867	0.30968	0.37959	-0.472
Mof_O 	O 	0.2939	0.36797	0.30786	-0.466
Mof_O 	O 	0.354	0.54512	0.23123	-0.217
Mof_O 	O 	0.0176	0.39315	0.44887	-0.489
Mof_O 	O 	0.7939	0.86797	0.19214	-0.466
Mof_O 	O 	0.63	0.19775	0.76955	-0.465
Mof_O 	O 	0.13	0.69775	0.73045	-0.465
Mof_O 	O 	0.249	0.70139	0.62406	-0.468
Mof_O 	O 	0.4771	0.75416	0.16143	-0.483
Mof_O 	O 	0.3224	0.19082	0.94147	-0.478
Mof_O 	O 	0.1776	0.30918	0.44147	-0.478
Mof_O 	O 	0.251	0.79861	0.12406	-0.468
Mof_O 	O 	0.6666	0.76156	0.19105	-0.481
Mof_O 	O 	0.751	0.29861	0.37594	-0.468
Mof_O 	O 	0.3118	0.06924	0.8143	-0.473
Mof_O 	O 	0.4341	0.16698	0.76351	-0.461
Mof_O 	O 	0.8118	0.56924	0.6857	-0.473
Mof_O 	O 	0.8334	0.73844	0.69105	-0.481
Mof_O 	O 	0.9824	0.60685	0.55113	-0.489
Mof_O 	O 	0.1882	0.43076	0.3143	-0.473
Mof_O 	O 	0.0659	0.33302	0.26351	-0.462
Mof_O 	O 	0.5268	0.94313	0.10297	-0.494
Mof_O 	O 	0.7867	0.80968	0.12041	-0.472
Mof_O 	O 	0.646	0.45488	0.76877	-0.217
Mof_O 	O 	0.3334	0.23844	0.80895	-0.481
Mof_O 	O 	0.0229	0.74584	0.66143	-0.481
Mof_O 	O 	0.6776	0.80918	0.05853	-0.478
Mof_O 	O 	0.5176	0.89315	0.05113	-0.489
Mof_O 	O 	0.9732	0.55687	0.60297	-0.495
Mof_O 	O 	0.4824	0.10685	0.94887	-0.489
Mof_O 	O 	0.2925	0.72237	0.43122	-0.222
Mof_O 	O 	0.2061	0.13203	0.80786	-0.466
Mof_O 	O 	0.5232	0.84909	0.14337	-0.934
Mof_O 	O 	0.4732	0.05687	0.89703	-0.494
Mof_O 	O 	0.9768	0.65091	0.64337	-0.935
Mof_O 	O 	0.6882	0.93076	0.1857	-0.473
Mof_O 	O 	0.3612	0.80753	0.06228	-0.481
Mof_O 	O 	0.5659	0.83302	0.23649	-0.461
Mof_O 	O 	0.7061	0.63203	0.69214	-0.466
_end
