data_functionalizedCrystal
_audit_creation_method	'EQeq! by Chris Wilmer'
_symmetry_space_group_name_H-M	'P1'
_symmetry_Int_Tables_number	1
_symmetry_cell_setting	triclinic
loop_
_symmetry_equiv_pos_as_xyz
  x,y,z
_cell_length_a	12.0682
_cell_length_b	12.0682
_cell_length_c	14.614
_cell_angle_alpha	86.1739
_cell_angle_beta	86.1739
_cell_angle_gamma	64.284
loop_
_atom_site_label
_atom_site_type_symbol
_atom_site_fract_x
_atom_site_fract_y
_atom_site_fract_z
_atom_site_charge
Mof_K 	K 	0.06128	0.06128	0.591	2.585
Mof_K 	K 	0.21228	0.21228	0.435	3.661
Mof_K 	K 	0.93872	0.93872	0.409	2.584
Mof_K 	K 	0.78772	0.78772	0.565	3.66
Mof_U 	U 	0.05418	0.5564	0.78904	0.032
Mof_U 	U 	0.4436	0.94582	0.21096	0.032
Mof_U 	U 	0.94582	0.4436	0.21096	0.032
Mof_U 	U 	0.5564	0.05418	0.78904	0.032
Mof_C 	C 	0.0523	0.5157	0.0139	0.229
Mof_C 	C 	0.0476	0.3856	0.6284	0.296
Mof_C 	C 	0.1407	0.4351	0.5906	0.16
Mof_C 	C 	0.7735	0.0545	0.6471	0.359
Mof_C 	C 	0.7774	0.133	0.7239	0.183
Mof_C 	C 	0.4843	0.9477	0.9861	0.229
Mof_C 	C 	0.6144	0.9524	0.3716	0.296
Mof_C 	C 	0.5649	0.8593	0.4094	0.16
Mof_C 	C 	0.9455	0.2265	0.3529	0.359
Mof_C 	C 	0.867	0.2226	0.2761	0.183
Mof_C 	C 	0.9477	0.4843	0.9861	0.229
Mof_C 	C 	0.9524	0.6144	0.3716	0.296
Mof_C 	C 	0.8593	0.5649	0.4094	0.16
Mof_C 	C 	0.2265	0.9455	0.3529	0.359
Mof_C 	C 	0.2226	0.867	0.2761	0.183
Mof_C 	C 	0.5157	0.0523	0.0139	0.229
Mof_C 	C 	0.3856	0.0476	0.6284	0.296
Mof_C 	C 	0.4351	0.1407	0.5906	0.16
Mof_C 	C 	0.0545	0.7735	0.6471	0.359
Mof_C 	C 	0.133	0.7774	0.7239	0.183
Mof_C 	C 	0.346	0.346	0.8138	0.211
Mof_C 	C 	0.2708	0.2708	0.8262	0.223
Mof_C 	C 	0.654	0.654	0.1862	0.211
Mof_C 	C 	0.7292	0.7292	0.1738	0.223
Mof_C 	C 	0.8119	0.8119	0.8513	0.236
Mof_C 	C 	0.7581	0.7581	0.7841	0.115
Mof_C 	C 	0.1881	0.1881	0.1487	0.236
Mof_C 	C 	0.2419	0.2419	0.2159	0.115
Mof_O 	O 	0.8532	0.1766	0.7173	-0.413
Mof_O 	O 	0.8248	0.0574	0.5717	-0.801
Mof_O 	O 	0.1754	0.427	0.5089	-0.59
Mof_O 	O 	0.0369	0.3033	0.5891	-0.784
Mof_O 	O 	0.286	0.461	0.8098	-0.132
Mof_O 	O 	0.1113	0.5435	0.9502	-0.13
Mof_O 	O 	0.0697	0.5101	0.0979	-0.133
Mof_O 	O 	0.8256	0.652	0.7588	-0.313
Mof_O 	O 	0.1566	0.3302	0.8305	-0.177
Mof_O 	O 	0.9878	0.4376	0.7001	-0.237
Mof_O 	O 	0.6988	0.1466	0.7896	-0.126
Mof_O 	O 	0.1742	0.483	0.6521	-0.182
Mof_O 	O 	0.9192	0.745	0.8753	-0.166
Mof_O 	O 	0.7139	0.9913	0.6699	-0.59
Mof_O 	O 	0.8234	0.1468	0.2827	-0.413
Mof_O 	O 	0.9426	0.1752	0.4283	-0.801
Mof_O 	O 	0.573	0.8246	0.4911	-0.59
Mof_O 	O 	0.6967	0.9631	0.4109	-0.784
Mof_O 	O 	0.539	0.714	0.1902	-0.132
Mof_O 	O 	0.4565	0.8887	0.0498	-0.13
Mof_O 	O 	0.4899	0.9303	0.9021	-0.133
Mof_O 	O 	0.348	0.1744	0.2412	-0.313
Mof_O 	O 	0.6698	0.8434	0.1695	-0.177
Mof_O 	O 	0.5624	0.0122	0.2999	-0.237
Mof_O 	O 	0.8534	0.3012	0.2104	-0.126
Mof_O 	O 	0.517	0.8258	0.3479	-0.182
Mof_O 	O 	0.255	0.0808	0.1247	-0.166
Mof_O 	O 	0.0087	0.2861	0.3301	-0.59
Mof_O 	O 	0.1468	0.8234	0.2827	-0.413
Mof_O 	O 	0.1752	0.9426	0.4283	-0.801
Mof_O 	O 	0.8246	0.573	0.4911	-0.59
Mof_O 	O 	0.9631	0.6967	0.4109	-0.784
Mof_O 	O 	0.714	0.539	0.1902	-0.132
Mof_O 	O 	0.8887	0.4565	0.0498	-0.13
Mof_O 	O 	0.9303	0.4899	0.9021	-0.133
Mof_O 	O 	0.1744	0.348	0.2412	-0.313
Mof_O 	O 	0.8434	0.6698	0.1695	-0.177
Mof_O 	O 	0.0122	0.5624	0.2999	-0.237
Mof_O 	O 	0.3012	0.8534	0.2104	-0.126
Mof_O 	O 	0.8258	0.517	0.3479	-0.182
Mof_O 	O 	0.0808	0.255	0.1247	-0.166
Mof_O 	O 	0.2861	0.0087	0.3301	-0.59
Mof_O 	O 	0.1766	0.8532	0.7173	-0.413
Mof_O 	O 	0.0574	0.8248	0.5717	-0.801
Mof_O 	O 	0.427	0.1754	0.5089	-0.59
Mof_O 	O 	0.3033	0.0369	0.5891	-0.784
Mof_O 	O 	0.461	0.286	0.8098	-0.132
Mof_O 	O 	0.5435	0.1113	0.9502	-0.13
Mof_O 	O 	0.5101	0.0697	0.0979	-0.133
Mof_O 	O 	0.652	0.8256	0.7588	-0.313
Mof_O 	O 	0.3302	0.1566	0.8305	-0.177
Mof_O 	O 	0.4376	0.9878	0.7001	-0.237
Mof_O 	O 	0.1466	0.6988	0.7896	-0.126
Mof_O 	O 	0.483	0.1742	0.6521	-0.182
Mof_O 	O 	0.745	0.9192	0.8753	-0.166
Mof_O 	O 	0.9913	0.7139	0.6699	-0.59
_end
