# CIF file generated by openbabel 3.1.0, see https://openbabel.org
data_I
_chemical_name_common 'image0'
_cell_length_a 26.2621
_cell_length_b 26.2621
_cell_length_c 5.1856
_cell_angle_alpha 90
_cell_angle_beta 90
_cell_angle_gamma 90
_space_group_name_H-M_alt 'P 1'
_space_group_name_Hall 'P 1'
loop_
    _symmetry_equiv_pos_as_xyz
    x,y,z
loop_
    _atom_site_label
    _atom_site_type_symbol
    _atom_site_fract_x
    _atom_site_fract_y
    _atom_site_fract_z
    _atom_site_occupancy
    Zn1      Zn       0.27158    0.21492    0.89490    1.000
    O1       O        0.22300    0.25980    0.05230    1.000
    H1       H        0.20220    0.27080    0.93990    1.000
    N1       N        0.24610    0.14250    0.90100    1.000
    C1       C        0.26170    0.10620    0.05350    1.000
    H2       H        0.28680    0.11100    0.17720    1.000
    N2       N        0.23800    0.06080    0.01650    1.000
    C2       C        0.20970    0.12200    0.75110    1.000
    O2       O        0.27320    0.83420    0.40000    1.000
    C3       C        0.18080    0.14400    0.55760    1.000
    H3       H        0.18520    0.17790    0.51250    1.000
    O3       O        0.31110    0.87750    0.72400    1.000
    C4       C        0.14500    0.11350    0.43220    1.000
    C5       C        0.11550    0.13370    0.23670    1.000
    H4       H        0.11970    0.16770    0.19210    1.000
    C6       C        0.07970    0.10480    0.10470    1.000
    H5       H        0.06020    0.11890    0.97320    1.000
    C7       C        0.07380    0.05400    0.17480    1.000
    H6       H        0.05000    0.03390    0.08970    1.000
    C8       C        0.10320    0.03280    0.37050    1.000
    H7       H        0.09880    0.99880    0.41530    1.000
    C9       C        0.13940    0.06250    0.50100    1.000
    C10      C        0.16830    0.04050    0.69580    1.000
    H8       H        0.16400    0.00650    0.74180    1.000
    C11      C        0.20370    0.07120    0.81900    1.000
    C12      C        0.25190    0.01290    0.13050    1.000
    C13      C        0.28010    0.92330    0.36300    1.000
    C14      C        0.27170    0.01290    0.37700    1.000
    H9       H        0.27550    0.04360    0.46420    1.000
    C15      C        0.28590    0.96840    0.49830    1.000
    H10      H        0.29900    0.96860    0.66500    1.000
    C16      C        0.26000    0.92150    0.11700    1.000
    H11      H        0.25580    0.89070    0.03150    1.000
    C17      C        0.24640    0.96690    0.00320    1.000
    H12      H        0.23330    0.96660    0.83670    1.000
    C18      C        0.29260    0.87470    0.49400    1.000
    O4       O        0.34420    0.86640    0.55600    1.000
    C19      C        0.30160    0.00620    0.20500    1.000
    H13      H        0.32510    0.03210    0.17650    1.000
    C20      C        0.31730    0.96100    0.32400    1.000
    H14      H        0.35090    0.95610    0.37500    1.000
    C21      C        0.22880    0.92710    0.29100    1.000
    H15      H        0.20500    0.90130    0.31720    1.000
    C22      C        0.21720    0.97390    0.17500    1.000
    H16      H        0.18360    0.97920    0.12450    1.000
    Zn2      Zn       0.77158    0.71492    0.39490    1.000
    O5       O        0.72300    0.75980    0.55230    1.000
    H17      H        0.70220    0.77080    0.43990    1.000
    N3       N        0.74610    0.64250    0.40100    1.000
    C23      C        0.76170    0.60620    0.55350    1.000
    H18      H        0.78680    0.61100    0.67720    1.000
    N4       N        0.73800    0.56080    0.51650    1.000
    C24      C        0.70970    0.62200    0.25110    1.000
    O6       O        0.77320    0.33420    0.90000    1.000
    C25      C        0.68080    0.64400    0.05760    1.000
    H19      H        0.68520    0.67790    0.01250    1.000
    O7       O        0.81110    0.37750    0.22400    1.000
    C26      C        0.64500    0.61350    0.93220    1.000
    C27      C        0.61550    0.63370    0.73670    1.000
    H20      H        0.61970    0.66770    0.69210    1.000
    C28      C        0.57970    0.60480    0.60470    1.000
    H21      H        0.56020    0.61890    0.47320    1.000
    C29      C        0.57380    0.55400    0.67480    1.000
    H22      H        0.55000    0.53390    0.58970    1.000
    C30      C        0.60320    0.53280    0.87050    1.000
    H23      H        0.59880    0.49880    0.91530    1.000
    C31      C        0.63940    0.56250    0.00100    1.000
    C32      C        0.66830    0.54050    0.19580    1.000
    H24      H        0.66400    0.50650    0.24180    1.000
    C33      C        0.70370    0.57120    0.31900    1.000
    C34      C        0.75190    0.51290    0.63050    1.000
    C35      C        0.78010    0.42330    0.86300    1.000
    C36      C        0.77170    0.51290    0.87700    1.000
    H25      H        0.77550    0.54360    0.96420    1.000
    C37      C        0.78590    0.46840    0.99830    1.000
    H26      H        0.79900    0.46860    0.16500    1.000
    C38      C        0.76000    0.42150    0.61700    1.000
    H27      H        0.75580    0.39070    0.53150    1.000
    C39      C        0.74640    0.46690    0.50320    1.000
    H28      H        0.73330    0.46660    0.33670    1.000
    C40      C        0.79260    0.37470    0.99400    1.000
    O8       O        0.84420    0.36640    0.05600    1.000
    C41      C        0.80160    0.50620    0.70500    1.000
    H29      H        0.82510    0.53210    0.67650    1.000
    C42      C        0.81730    0.46100    0.82400    1.000
    H30      H        0.85090    0.45610    0.87500    1.000
    C43      C        0.72880    0.42710    0.79100    1.000
    H31      H        0.70500    0.40130    0.81720    1.000
    C44      C        0.71720    0.47390    0.67500    1.000
    H32      H        0.68360    0.47920    0.62450    1.000
    Zn3      Zn       0.72842    0.78508    0.89490    1.000
    O9       O        0.77700    0.74020    0.05230    1.000
    H33      H        0.79780    0.72920    0.93990    1.000
    N5       N        0.75390    0.85750    0.90100    1.000
    C45      C        0.73830    0.89380    0.05350    1.000
    H34      H        0.71320    0.88900    0.17720    1.000
    N6       N        0.76200    0.93920    0.01650    1.000
    C46      C        0.79030    0.87800    0.75110    1.000
    O10      O        0.72680    0.16580    0.40000    1.000
    C47      C        0.81920    0.85600    0.55760    1.000
    H35      H        0.81480    0.82210    0.51250    1.000
    O11      O        0.68890    0.12250    0.72400    1.000
    C48      C        0.85500    0.88650    0.43220    1.000
    C49      C        0.88450    0.86630    0.23670    1.000
    H36      H        0.88030    0.83230    0.19210    1.000
    C50      C        0.92030    0.89520    0.10470    1.000
    H37      H        0.93980    0.88110    0.97320    1.000
    C51      C        0.92620    0.94600    0.17480    1.000
    H38      H        0.95000    0.96610    0.08970    1.000
    C52      C        0.89680    0.96720    0.37050    1.000
    H39      H        0.90120    0.00120    0.41530    1.000
    C53      C        0.86060    0.93750    0.50100    1.000
    C54      C        0.83170    0.95950    0.69580    1.000
    H40      H        0.83600    0.99350    0.74180    1.000
    C55      C        0.79630    0.92880    0.81900    1.000
    C56      C        0.74810    0.98710    0.13050    1.000
    C57      C        0.71990    0.07670    0.36300    1.000
    C58      C        0.72830    0.98710    0.37700    1.000
    H41      H        0.72450    0.95640    0.46420    1.000
    C59      C        0.71410    0.03160    0.49830    1.000
    H42      H        0.70100    0.03140    0.66500    1.000
    C60      C        0.74000    0.07850    0.11700    1.000
    H43      H        0.74420    0.10930    0.03150    1.000
    C61      C        0.75360    0.03310    0.00320    1.000
    H44      H        0.76670    0.03340    0.83670    1.000
    C62      C        0.70740    0.12530    0.49400    1.000
    O12      O        0.65580    0.13360    0.55600    1.000
    C63      C        0.69840    0.99380    0.20500    1.000
    H45      H        0.67490    0.96790    0.17650    1.000
    C64      C        0.68270    0.03900    0.32400    1.000
    H46      H        0.64910    0.04390    0.37500    1.000
    C65      C        0.77120    0.07290    0.29100    1.000
    H47      H        0.79500    0.09870    0.31720    1.000
    C66      C        0.78280    0.02610    0.17500    1.000
    H48      H        0.81640    0.02080    0.12450    1.000
    Zn4      Zn       0.22842    0.28508    0.39490    1.000
    O13      O        0.27700    0.24020    0.55230    1.000
    H49      H        0.29780    0.22920    0.43990    1.000
    N7       N        0.25390    0.35750    0.40100    1.000
    C67      C        0.23830    0.39380    0.55350    1.000
    H50      H        0.21320    0.38900    0.67720    1.000
    N8       N        0.26200    0.43920    0.51650    1.000
    C68      C        0.29030    0.37800    0.25110    1.000
    O14      O        0.22680    0.66580    0.90000    1.000
    C69      C        0.31920    0.35600    0.05760    1.000
    H51      H        0.31480    0.32210    0.01250    1.000
    O15      O        0.18890    0.62250    0.22400    1.000
    C70      C        0.35500    0.38650    0.93220    1.000
    C71      C        0.38450    0.36630    0.73670    1.000
    H52      H        0.38030    0.33230    0.69210    1.000
    C72      C        0.42030    0.39520    0.60470    1.000
    H53      H        0.43980    0.38110    0.47320    1.000
    C73      C        0.42620    0.44600    0.67480    1.000
    H54      H        0.45000    0.46610    0.58970    1.000
    C74      C        0.39680    0.46720    0.87050    1.000
    H55      H        0.40120    0.50120    0.91530    1.000
    C75      C        0.36060    0.43750    0.00100    1.000
    C76      C        0.33170    0.45950    0.19580    1.000
    H56      H        0.33600    0.49350    0.24180    1.000
    C77      C        0.29630    0.42880    0.31900    1.000
    C78      C        0.24810    0.48710    0.63050    1.000
    C79      C        0.21990    0.57670    0.86300    1.000
    C80      C        0.22830    0.48710    0.87700    1.000
    H57      H        0.22450    0.45640    0.96420    1.000
    C81      C        0.21410    0.53160    0.99830    1.000
    H58      H        0.20100    0.53140    0.16500    1.000
    C82      C        0.24000    0.57850    0.61700    1.000
    H59      H        0.24420    0.60930    0.53150    1.000
    C83      C        0.25360    0.53310    0.50320    1.000
    H60      H        0.26670    0.53340    0.33670    1.000
    C84      C        0.20740    0.62530    0.99400    1.000
    O16      O        0.15580    0.63360    0.05600    1.000
    C85      C        0.19840    0.49380    0.70500    1.000
    H61      H        0.17490    0.46790    0.67650    1.000
    C86      C        0.18270    0.53900    0.82400    1.000
    H62      H        0.14910    0.54390    0.87500    1.000
    C87      C        0.27120    0.57290    0.79100    1.000
    H63      H        0.29500    0.59870    0.81720    1.000
    C88      C        0.28280    0.52610    0.67500    1.000
    H64      H        0.31640    0.52080    0.62450    1.000
    Zn5      Zn       0.21492    0.72842    0.10510    1.000
    O17      O        0.25980    0.77700    0.94770    1.000
    H65      H        0.27080    0.79780    0.06010    1.000
    N9       N        0.14250    0.75390    0.09900    1.000
    C89      C        0.10620    0.73830    0.94650    1.000
    H66      H        0.11100    0.71320    0.82280    1.000
    N10      N        0.06080    0.76200    0.98350    1.000
    C90      C        0.12200    0.79030    0.24890    1.000
    O18      O        0.83420    0.72680    0.60000    1.000
    C91      C        0.14400    0.81920    0.44240    1.000
    H67      H        0.17790    0.81480    0.48750    1.000
    O19      O        0.87750    0.68890    0.27600    1.000
    C92      C        0.11350    0.85500    0.56780    1.000
    C93      C        0.13370    0.88450    0.76330    1.000
    H68      H        0.16770    0.88030    0.80790    1.000
    C94      C        0.10480    0.92030    0.89530    1.000
    H69      H        0.11890    0.93980    0.02680    1.000
    C95      C        0.05400    0.92620    0.82520    1.000
    H70      H        0.03390    0.95000    0.91030    1.000
    C96      C        0.03280    0.89680    0.62950    1.000
    H71      H        0.99880    0.90120    0.58470    1.000
    C97      C        0.06250    0.86060    0.49900    1.000
    C98      C        0.04050    0.83170    0.30420    1.000
    H72      H        0.00650    0.83600    0.25820    1.000
    C99      C        0.07120    0.79630    0.18100    1.000
    C100     C        0.01290    0.74810    0.86950    1.000
    C101     C        0.92330    0.71990    0.63700    1.000
    C102     C        0.01290    0.72830    0.62300    1.000
    H73      H        0.04360    0.72450    0.53580    1.000
    C103     C        0.96840    0.71410    0.50170    1.000
    H74      H        0.96860    0.70100    0.33500    1.000
    C104     C        0.92150    0.74000    0.88300    1.000
    H75      H        0.89070    0.74420    0.96850    1.000
    C105     C        0.96690    0.75360    0.99680    1.000
    H76      H        0.96660    0.76670    0.16330    1.000
    C106     C        0.87470    0.70740    0.50600    1.000
    O20      O        0.86640    0.65580    0.44400    1.000
    C107     C        0.00620    0.69840    0.79500    1.000
    H77      H        0.03210    0.67490    0.82350    1.000
    C108     C        0.96100    0.68270    0.67600    1.000
    H78      H        0.95610    0.64910    0.62500    1.000
    C109     C        0.92710    0.77120    0.70900    1.000
    H79      H        0.90130    0.79500    0.68280    1.000
    C110     C        0.97390    0.78280    0.82500    1.000
    H80      H        0.97920    0.81640    0.87550    1.000
    Zn6      Zn       0.71492    0.22842    0.60510    1.000
    O21      O        0.75980    0.27700    0.44770    1.000
    H81      H        0.77080    0.29780    0.56010    1.000
    N11      N        0.64250    0.25390    0.59900    1.000
    C111     C        0.60620    0.23830    0.44650    1.000
    H82      H        0.61100    0.21320    0.32280    1.000
    N12      N        0.56080    0.26200    0.48350    1.000
    C112     C        0.62200    0.29030    0.74890    1.000
    O22      O        0.33420    0.22680    0.10000    1.000
    C113     C        0.64400    0.31920    0.94240    1.000
    H83      H        0.67790    0.31480    0.98750    1.000
    O23      O        0.37750    0.18890    0.77600    1.000
    C114     C        0.61350    0.35500    0.06780    1.000
    C115     C        0.63370    0.38450    0.26330    1.000
    H84      H        0.66770    0.38030    0.30790    1.000
    C116     C        0.60480    0.42030    0.39530    1.000
    H85      H        0.61890    0.43980    0.52680    1.000
    C117     C        0.55400    0.42620    0.32520    1.000
    H86      H        0.53390    0.45000    0.41030    1.000
    C118     C        0.53280    0.39680    0.12950    1.000
    H87      H        0.49880    0.40120    0.08470    1.000
    C119     C        0.56250    0.36060    0.99900    1.000
    C120     C        0.54050    0.33170    0.80420    1.000
    H88      H        0.50650    0.33600    0.75820    1.000
    C121     C        0.57120    0.29630    0.68100    1.000
    C122     C        0.51290    0.24810    0.36950    1.000
    C123     C        0.42330    0.21990    0.13700    1.000
    C124     C        0.51290    0.22830    0.12300    1.000
    H89      H        0.54360    0.22450    0.03580    1.000
    C125     C        0.46840    0.21410    0.00170    1.000
    H90      H        0.46860    0.20100    0.83500    1.000
    C126     C        0.42150    0.24000    0.38300    1.000
    H91      H        0.39070    0.24420    0.46850    1.000
    C127     C        0.46690    0.25360    0.49680    1.000
    H92      H        0.46660    0.26670    0.66330    1.000
    C128     C        0.37470    0.20740    0.00600    1.000
    O24      O        0.36640    0.15580    0.94400    1.000
    C129     C        0.50620    0.19840    0.29500    1.000
    H93      H        0.53210    0.17490    0.32350    1.000
    C130     C        0.46100    0.18270    0.17600    1.000
    H94      H        0.45610    0.14910    0.12500    1.000
    C131     C        0.42710    0.27120    0.20900    1.000
    H95      H        0.40130    0.29500    0.18280    1.000
    C132     C        0.47390    0.28280    0.32500    1.000
    H96      H        0.47920    0.31640    0.37550    1.000
    Zn7      Zn       0.78508    0.27158    0.10510    1.000
    O25      O        0.74020    0.22300    0.94770    1.000
    H97      H        0.72920    0.20220    0.06010    1.000
    N13      N        0.85750    0.24610    0.09900    1.000
    C133     C        0.89380    0.26170    0.94650    1.000
    H98      H        0.88900    0.28680    0.82280    1.000
    N14      N        0.93920    0.23800    0.98350    1.000
    C134     C        0.87800    0.20970    0.24890    1.000
    O26      O        0.16580    0.27320    0.60000    1.000
    C135     C        0.85600    0.18080    0.44240    1.000
    H99      H        0.82210    0.18520    0.48750    1.000
    O27      O        0.12250    0.31110    0.27600    1.000
    C136     C        0.88650    0.14500    0.56780    1.000
    C137     C        0.86630    0.11550    0.76330    1.000
    H100     H        0.83230    0.11970    0.80790    1.000
    C138     C        0.89520    0.07970    0.89530    1.000
    H101     H        0.88110    0.06020    0.02680    1.000
    C139     C        0.94600    0.07380    0.82520    1.000
    H102     H        0.96610    0.05000    0.91030    1.000
    C140     C        0.96720    0.10320    0.62950    1.000
    H103     H        0.00120    0.09880    0.58470    1.000
    C141     C        0.93750    0.13940    0.49900    1.000
    C142     C        0.95950    0.16830    0.30420    1.000
    H104     H        0.99350    0.16400    0.25820    1.000
    C143     C        0.92880    0.20370    0.18100    1.000
    C144     C        0.98710    0.25190    0.86950    1.000
    C145     C        0.07670    0.28010    0.63700    1.000
    C146     C        0.98710    0.27170    0.62300    1.000
    H105     H        0.95640    0.27550    0.53580    1.000
    C147     C        0.03160    0.28590    0.50170    1.000
    H106     H        0.03140    0.29900    0.33500    1.000
    C148     C        0.07850    0.26000    0.88300    1.000
    H107     H        0.10930    0.25580    0.96850    1.000
    C149     C        0.03310    0.24640    0.99680    1.000
    H108     H        0.03340    0.23330    0.16330    1.000
    C150     C        0.12530    0.29260    0.50600    1.000
    O28      O        0.13360    0.34420    0.44400    1.000
    C151     C        0.99380    0.30160    0.79500    1.000
    H109     H        0.96790    0.32510    0.82350    1.000
    C152     C        0.03900    0.31730    0.67600    1.000
    H110     H        0.04390    0.35090    0.62500    1.000
    C153     C        0.07290    0.22880    0.70900    1.000
    H111     H        0.09870    0.20500    0.68280    1.000
    C154     C        0.02610    0.21720    0.82500    1.000
    H112     H        0.02080    0.18360    0.87550    1.000
    Zn8      Zn       0.28508    0.77158    0.60510    1.000
    O29      O        0.24020    0.72300    0.44770    1.000
    H113     H        0.22920    0.70220    0.56010    1.000
    N15      N        0.35750    0.74610    0.59900    1.000
    C155     C        0.39380    0.76170    0.44650    1.000
    H114     H        0.38900    0.78680    0.32280    1.000
    N16      N        0.43920    0.73800    0.48350    1.000
    C156     C        0.37800    0.70970    0.74890    1.000
    O30      O        0.66580    0.77320    0.10000    1.000
    C157     C        0.35600    0.68080    0.94240    1.000
    H115     H        0.32210    0.68520    0.98750    1.000
    O31      O        0.62250    0.81110    0.77600    1.000
    C158     C        0.38650    0.64500    0.06780    1.000
    C159     C        0.36630    0.61550    0.26330    1.000
    H116     H        0.33230    0.61970    0.30790    1.000
    C160     C        0.39520    0.57970    0.39530    1.000
    H117     H        0.38110    0.56020    0.52680    1.000
    C161     C        0.44600    0.57380    0.32520    1.000
    H118     H        0.46610    0.55000    0.41030    1.000
    C162     C        0.46720    0.60320    0.12950    1.000
    H119     H        0.50120    0.59880    0.08470    1.000
    C163     C        0.43750    0.63940    0.99900    1.000
    C164     C        0.45950    0.66830    0.80420    1.000
    H120     H        0.49350    0.66400    0.75820    1.000
    C165     C        0.42880    0.70370    0.68100    1.000
    C166     C        0.48710    0.75190    0.36950    1.000
    C167     C        0.57670    0.78010    0.13700    1.000
    C168     C        0.48710    0.77170    0.12300    1.000
    H121     H        0.45640    0.77550    0.03580    1.000
    C169     C        0.53160    0.78590    0.00170    1.000
    H122     H        0.53140    0.79900    0.83500    1.000
    C170     C        0.57850    0.76000    0.38300    1.000
    H123     H        0.60930    0.75580    0.46850    1.000
    C171     C        0.53310    0.74640    0.49680    1.000
    H124     H        0.53340    0.73330    0.66330    1.000
    C172     C        0.62530    0.79260    0.00600    1.000
    O32      O        0.63360    0.84420    0.94400    1.000
    C173     C        0.49380    0.80160    0.29500    1.000
    H125     H        0.46790    0.82510    0.32350    1.000
    C174     C        0.53900    0.81730    0.17600    1.000
    H126     H        0.54390    0.85090    0.12500    1.000
    C175     C        0.57290    0.72880    0.20900    1.000
    H127     H        0.59870    0.70500    0.18280    1.000
    C176     C        0.52610    0.71720    0.32500    1.000
    H128     H        0.52080    0.68360    0.37550    1.000
