data_functionalizedCrystal
_audit_creation_method	'EQeq! by Chris Wilmer'
_symmetry_space_group_name_H-M	'P1'
_symmetry_Int_Tables_number	1
_symmetry_cell_setting	triclinic
loop_
_symmetry_equiv_pos_as_xyz
  x,y,z
_cell_length_a	35.0858
_cell_length_b	35.0858
_cell_length_c	35.0858
_cell_angle_alpha	60
_cell_angle_beta	60
_cell_angle_gamma	60
loop_
_atom_site_label
_atom_site_type_symbol
_atom_site_fract_x
_atom_site_fract_y
_atom_site_fract_z
_atom_site_charge
Mof_Cu	Cu	0.50993	0.03637	0.49007	0.917
Mof_Cu	Cu	0.03637	0.50993	0.96363	0.917
Mof_Cu	Cu	0.49007	0.96363	0.50993	0.917
Mof_Cu	Cu	0.96363	0.49007	0.03637	0.917
Mof_Cu	Cu	0.50993	0.49007	0.96363	0.917
Mof_Cu	Cu	0.03637	0.96363	0.49007	0.917
Mof_Cu	Cu	0.49007	0.50993	0.03637	0.917
Mof_Cu	Cu	0.96363	0.03637	0.50993	0.917
Mof_Cu	Cu	0.50993	0.96363	0.03637	0.917
Mof_Cu	Cu	0.03637	0.49007	0.50993	0.917
Mof_Cu	Cu	0.49007	0.03637	0.96363	0.917
Mof_Cu	Cu	0.96363	0.50993	0.49007	0.917
Mof_H 	H 	0.5103	0.0623	0.2273	0.132
Mof_H 	H 	0.5267	0.1173	0.2707	0.136
Mof_H 	H 	0.5315	0.0909	0.3419	-0.001
Mof_H 	H 	0.4956	0.986	0.3784	-0.005
Mof_H 	H 	0.4918	0.0096	0.3064	0.119
Mof_H 	H 	0.0623	0.5103	0.2001	0.132
Mof_H 	H 	0.1173	0.5267	0.0853	0.136
Mof_H 	H 	0.0909	0.5315	0.0357	-0.001
Mof_H 	H 	0.986	0.4956	0.14	-0.005
Mof_H 	H 	0.0096	0.4918	0.1922	0.119
Mof_H 	H 	0.2273	0.2001	0.5103	0.132
Mof_H 	H 	0.2707	0.0853	0.5267	0.136
Mof_H 	H 	0.3419	0.0357	0.5315	-0.001
Mof_H 	H 	0.3784	0.14	0.4956	-0.005
Mof_H 	H 	0.3064	0.1922	0.4918	0.119
Mof_H 	H 	0.2001	0.2273	0.0623	0.132
Mof_H 	H 	0.0853	0.2707	0.1173	0.136
Mof_H 	H 	0.0357	0.3419	0.0909	-0.001
Mof_H 	H 	0.14	0.3784	0.986	-0.005
Mof_H 	H 	0.1922	0.3064	0.0096	0.119
Mof_H 	H 	0.5103	0.2273	0.2001	0.132
Mof_H 	H 	0.5267	0.2707	0.0853	0.136
Mof_H 	H 	0.5315	0.3419	0.0357	-0.001
Mof_H 	H 	0.4956	0.3784	0.14	-0.005
Mof_H 	H 	0.4918	0.3064	0.1922	0.119
Mof_H 	H 	0.0623	0.2001	0.2273	0.132
Mof_H 	H 	0.1173	0.0853	0.2707	0.136
Mof_H 	H 	0.0909	0.0357	0.3419	-0.001
Mof_H 	H 	0.986	0.14	0.3784	-0.005
Mof_H 	H 	0.0096	0.1922	0.3064	0.119
Mof_H 	H 	0.2273	0.5103	0.0623	0.132
Mof_H 	H 	0.2707	0.5267	0.1173	0.136
Mof_H 	H 	0.3419	0.5315	0.0909	-0.001
Mof_H 	H 	0.3784	0.4956	0.986	-0.005
Mof_H 	H 	0.3064	0.4918	0.0096	0.119
Mof_H 	H 	0.2001	0.0623	0.5103	0.132
Mof_H 	H 	0.0853	0.1173	0.5267	0.136
Mof_H 	H 	0.0357	0.0909	0.5315	-0.001
Mof_H 	H 	0.14	0.986	0.4956	-0.005
Mof_H 	H 	0.1922	0.0096	0.4918	0.119
Mof_H 	H 	0.5103	0.2001	0.0623	0.132
Mof_H 	H 	0.5267	0.0853	0.1173	0.136
Mof_H 	H 	0.5315	0.0357	0.0909	-0.001
Mof_H 	H 	0.4956	0.14	0.986	-0.005
Mof_H 	H 	0.4918	0.1922	0.0096	0.119
Mof_H 	H 	0.0623	0.2273	0.5103	0.132
Mof_H 	H 	0.1173	0.2707	0.5267	0.136
Mof_H 	H 	0.0909	0.3419	0.5315	-0.001
Mof_H 	H 	0.986	0.3784	0.4956	-0.005
Mof_H 	H 	0.0096	0.3064	0.4918	0.119
Mof_H 	H 	0.2273	0.0623	0.2001	0.132
Mof_H 	H 	0.2707	0.1173	0.0853	0.136
Mof_H 	H 	0.3419	0.0909	0.0357	-0.001
Mof_H 	H 	0.3784	0.986	0.14	-0.005
Mof_H 	H 	0.3064	0.0096	0.1922	0.119
Mof_H 	H 	0.2001	0.5103	0.2273	0.132
Mof_H 	H 	0.0853	0.5267	0.2707	0.136
Mof_H 	H 	0.0357	0.5315	0.3419	-0.001
Mof_H 	H 	0.14	0.4956	0.3784	-0.005
Mof_H 	H 	0.1922	0.4918	0.3064	0.119
Mof_H 	H 	0.4897	0.9377	0.7727	0.132
Mof_H 	H 	0.4733	0.8827	0.7293	0.136
Mof_H 	H 	0.4685	0.9091	0.6581	-0.001
Mof_H 	H 	0.5044	0.014	0.6216	-0.005
Mof_H 	H 	0.5082	0.9904	0.6936	0.119
Mof_H 	H 	0.9377	0.4897	0.7999	0.132
Mof_H 	H 	0.8827	0.4733	0.9147	0.136
Mof_H 	H 	0.9091	0.4685	0.9643	-0.001
Mof_H 	H 	0.014	0.5044	0.86	-0.005
Mof_H 	H 	0.9904	0.5082	0.8078	0.119
Mof_H 	H 	0.7727	0.7999	0.4897	0.132
Mof_H 	H 	0.7293	0.9147	0.4733	0.136
Mof_H 	H 	0.6581	0.9643	0.4685	-0.001
Mof_H 	H 	0.6216	0.86	0.5044	-0.005
Mof_H 	H 	0.6936	0.8078	0.5082	0.119
Mof_H 	H 	0.7999	0.7727	0.9377	0.132
Mof_H 	H 	0.9147	0.7293	0.8827	0.136
Mof_H 	H 	0.9643	0.6581	0.9091	-0.001
Mof_H 	H 	0.86	0.6216	0.014	-0.005
Mof_H 	H 	0.8078	0.6936	0.9904	0.119
Mof_H 	H 	0.4897	0.7727	0.7999	0.132
Mof_H 	H 	0.4733	0.7293	0.9147	0.136
Mof_H 	H 	0.4685	0.6581	0.9643	-0.001
Mof_H 	H 	0.5044	0.6216	0.86	-0.005
Mof_H 	H 	0.5082	0.6936	0.8078	0.119
Mof_H 	H 	0.9377	0.7999	0.7727	0.132
Mof_H 	H 	0.8827	0.9147	0.7293	0.136
Mof_H 	H 	0.9091	0.9643	0.6581	-0.001
Mof_H 	H 	0.014	0.86	0.6216	-0.005
Mof_H 	H 	0.9904	0.8078	0.6936	0.119
Mof_H 	H 	0.7727	0.4897	0.9377	0.132
Mof_H 	H 	0.7293	0.4733	0.8827	0.136
Mof_H 	H 	0.6581	0.4685	0.9091	-0.001
Mof_H 	H 	0.6216	0.5044	0.014	-0.005
Mof_H 	H 	0.6936	0.5082	0.9904	0.119
Mof_H 	H 	0.7999	0.9377	0.4897	0.132
Mof_H 	H 	0.9147	0.8827	0.4733	0.136
Mof_H 	H 	0.9643	0.9091	0.4685	-0.001
Mof_H 	H 	0.86	0.014	0.5044	-0.005
Mof_H 	H 	0.8078	0.9904	0.5082	0.119
Mof_H 	H 	0.4897	0.7999	0.9377	0.132
Mof_H 	H 	0.4733	0.9147	0.8827	0.136
Mof_H 	H 	0.4685	0.9643	0.9091	-0.001
Mof_H 	H 	0.5044	0.86	0.014	-0.005
Mof_H 	H 	0.5082	0.8078	0.9904	0.119
Mof_H 	H 	0.9377	0.7727	0.4897	0.132
Mof_H 	H 	0.8827	0.7293	0.4733	0.136
Mof_H 	H 	0.9091	0.6581	0.4685	-0.001
Mof_H 	H 	0.014	0.6216	0.5044	-0.005
Mof_H 	H 	0.9904	0.6936	0.5082	0.119
Mof_H 	H 	0.7727	0.9377	0.7999	0.132
Mof_H 	H 	0.7293	0.8827	0.9147	0.136
Mof_H 	H 	0.6581	0.9091	0.9643	-0.001
Mof_H 	H 	0.6216	0.014	0.86	-0.005
Mof_H 	H 	0.6936	0.9904	0.8078	0.119
Mof_H 	H 	0.7999	0.4897	0.7727	0.132
Mof_H 	H 	0.9147	0.4733	0.7293	0.136
Mof_H 	H 	0.9643	0.4685	0.6581	-0.001
Mof_H 	H 	0.86	0.5044	0.6216	-0.005
Mof_H 	H 	0.8078	0.5082	0.6936	0.119
Mof_C 	C 	0.5068	0.1246	0.1964	0.179
Mof_C 	C 	0.5088	0.0672	0.2798	0.238
Mof_C 	C 	0.52	0.0898	0.2926	-0.256
Mof_C 	C 	0.5221	0.0745	0.3355	0.149
Mof_C 	C 	0.5107	0.0351	0.3711	-0.193
Mof_C 	C 	0.5015	0.0139	0.3565	0.164
Mof_C 	C 	0.4994	0.0274	0.313	-0.259
Mof_C 	C 	0.5119	0.0243	0.4167	0.344
Mof_C 	C 	0.1246	0.5068	0.1722	0.179
Mof_C 	C 	0.0672	0.5088	0.1442	0.238
Mof_C 	C 	0.0898	0.52	0.0976	-0.256
Mof_C 	C 	0.0745	0.5221	0.0679	0.149
Mof_C 	C 	0.0351	0.5107	0.0831	-0.193
Mof_C 	C 	0.0139	0.5015	0.1281	0.165
Mof_C 	C 	0.0274	0.4994	0.1602	-0.259
Mof_C 	C 	0.0243	0.5119	0.0471	0.344
Mof_C 	C 	0.1964	0.1722	0.5068	0.179
Mof_C 	C 	0.2798	0.1442	0.5088	0.238
Mof_C 	C 	0.2926	0.0976	0.52	-0.256
Mof_C 	C 	0.3355	0.0679	0.5221	0.149
Mof_C 	C 	0.3711	0.0831	0.5107	-0.193
Mof_C 	C 	0.3565	0.1281	0.5015	0.164
Mof_C 	C 	0.313	0.1602	0.4994	-0.259
Mof_C 	C 	0.4167	0.0471	0.5119	0.344
Mof_C 	C 	0.1722	0.1964	0.1246	0.179
Mof_C 	C 	0.1442	0.2798	0.0672	0.238
Mof_C 	C 	0.0976	0.2926	0.0898	-0.256
Mof_C 	C 	0.0679	0.3355	0.0745	0.149
Mof_C 	C 	0.0831	0.3711	0.0351	-0.193
Mof_C 	C 	0.1281	0.3565	0.0139	0.165
Mof_C 	C 	0.1602	0.313	0.0274	-0.259
Mof_C 	C 	0.0471	0.4167	0.0243	0.344
Mof_C 	C 	0.5068	0.1964	0.1722	0.179
Mof_C 	C 	0.5088	0.2798	0.1442	0.238
Mof_C 	C 	0.52	0.2926	0.0976	-0.256
Mof_C 	C 	0.5221	0.3355	0.0679	0.149
Mof_C 	C 	0.5107	0.3711	0.0831	-0.193
Mof_C 	C 	0.5015	0.3565	0.1281	0.164
Mof_C 	C 	0.4994	0.313	0.1602	-0.259
Mof_C 	C 	0.5119	0.4167	0.0471	0.344
Mof_C 	C 	0.1246	0.1722	0.1964	0.179
Mof_C 	C 	0.0672	0.1442	0.2798	0.238
Mof_C 	C 	0.0898	0.0976	0.2926	-0.256
Mof_C 	C 	0.0745	0.0679	0.3355	0.149
Mof_C 	C 	0.0351	0.0831	0.3711	-0.193
Mof_C 	C 	0.0139	0.1281	0.3565	0.165
Mof_C 	C 	0.0274	0.1602	0.313	-0.259
Mof_C 	C 	0.0243	0.0471	0.4167	0.344
Mof_C 	C 	0.1964	0.5068	0.1246	0.179
Mof_C 	C 	0.2798	0.5088	0.0672	0.238
Mof_C 	C 	0.2926	0.52	0.0898	-0.256
Mof_C 	C 	0.3355	0.5221	0.0745	0.149
Mof_C 	C 	0.3711	0.5107	0.0351	-0.193
Mof_C 	C 	0.3565	0.5015	0.0139	0.164
Mof_C 	C 	0.313	0.4994	0.0274	-0.259
Mof_C 	C 	0.4167	0.5119	0.0243	0.344
Mof_C 	C 	0.1722	0.1246	0.5068	0.179
Mof_C 	C 	0.1442	0.0672	0.5088	0.238
Mof_C 	C 	0.0976	0.0898	0.52	-0.256
Mof_C 	C 	0.0679	0.0745	0.5221	0.149
Mof_C 	C 	0.0831	0.0351	0.5107	-0.193
Mof_C 	C 	0.1281	0.0139	0.5015	0.165
Mof_C 	C 	0.1602	0.0274	0.4994	-0.259
Mof_C 	C 	0.0471	0.0243	0.5119	0.344
Mof_C 	C 	0.5068	0.1722	0.1246	0.179
Mof_C 	C 	0.5088	0.1442	0.0672	0.238
Mof_C 	C 	0.52	0.0976	0.0898	-0.256
Mof_C 	C 	0.5221	0.0679	0.0745	0.149
Mof_C 	C 	0.5107	0.0831	0.0351	-0.193
Mof_C 	C 	0.5015	0.1281	0.0139	0.165
Mof_C 	C 	0.4994	0.1602	0.0274	-0.259
Mof_C 	C 	0.5119	0.0471	0.0243	0.344
Mof_C 	C 	0.1246	0.1964	0.5068	0.179
Mof_C 	C 	0.0672	0.2798	0.5088	0.238
Mof_C 	C 	0.0898	0.2926	0.52	-0.256
Mof_C 	C 	0.0745	0.3355	0.5221	0.149
Mof_C 	C 	0.0351	0.3711	0.5107	-0.193
Mof_C 	C 	0.0139	0.3565	0.5015	0.164
Mof_C 	C 	0.0274	0.313	0.4994	-0.259
Mof_C 	C 	0.0243	0.4167	0.5119	0.344
Mof_C 	C 	0.1964	0.1246	0.1722	0.179
Mof_C 	C 	0.2798	0.0672	0.1442	0.238
Mof_C 	C 	0.2926	0.0898	0.0976	-0.256
Mof_C 	C 	0.3355	0.0745	0.0679	0.149
Mof_C 	C 	0.3711	0.0351	0.0831	-0.193
Mof_C 	C 	0.3565	0.0139	0.1281	0.165
Mof_C 	C 	0.313	0.0274	0.1602	-0.259
Mof_C 	C 	0.4167	0.0243	0.0471	0.344
Mof_C 	C 	0.1722	0.5068	0.1964	0.179
Mof_C 	C 	0.1442	0.5088	0.2798	0.238
Mof_C 	C 	0.0976	0.52	0.2926	-0.256
Mof_C 	C 	0.0679	0.5221	0.3355	0.149
Mof_C 	C 	0.0831	0.5107	0.3711	-0.193
Mof_C 	C 	0.1281	0.5015	0.3565	0.164
Mof_C 	C 	0.1602	0.4994	0.313	-0.259
Mof_C 	C 	0.0471	0.5119	0.4167	0.344
Mof_C 	C 	0.4932	0.8754	0.8036	0.179
Mof_C 	C 	0.4912	0.9328	0.7202	0.238
Mof_C 	C 	0.48	0.9102	0.7074	-0.256
Mof_C 	C 	0.4779	0.9255	0.6645	0.149
Mof_C 	C 	0.4893	0.9649	0.6289	-0.193
Mof_C 	C 	0.4985	0.9861	0.6435	0.164
Mof_C 	C 	0.5006	0.9726	0.687	-0.259
Mof_C 	C 	0.4881	0.9757	0.5833	0.344
Mof_C 	C 	0.8754	0.4932	0.8278	0.179
Mof_C 	C 	0.9328	0.4912	0.8558	0.238
Mof_C 	C 	0.9102	0.48	0.9024	-0.256
Mof_C 	C 	0.9255	0.4779	0.9321	0.149
Mof_C 	C 	0.9649	0.4893	0.9169	-0.193
Mof_C 	C 	0.9861	0.4985	0.8719	0.165
Mof_C 	C 	0.9726	0.5006	0.8398	-0.259
Mof_C 	C 	0.9757	0.4881	0.9529	0.344
Mof_C 	C 	0.8036	0.8278	0.4932	0.179
Mof_C 	C 	0.7202	0.8558	0.4912	0.238
Mof_C 	C 	0.7074	0.9024	0.48	-0.256
Mof_C 	C 	0.6645	0.9321	0.4779	0.149
Mof_C 	C 	0.6289	0.9169	0.4893	-0.193
Mof_C 	C 	0.6435	0.8719	0.4985	0.164
Mof_C 	C 	0.687	0.8398	0.5006	-0.259
Mof_C 	C 	0.5833	0.9529	0.4881	0.344
Mof_C 	C 	0.8278	0.8036	0.8754	0.179
Mof_C 	C 	0.8558	0.7202	0.9328	0.238
Mof_C 	C 	0.9024	0.7074	0.9102	-0.256
Mof_C 	C 	0.9321	0.6645	0.9255	0.149
Mof_C 	C 	0.9169	0.6289	0.9649	-0.193
Mof_C 	C 	0.8719	0.6435	0.9861	0.165
Mof_C 	C 	0.8398	0.687	0.9726	-0.259
Mof_C 	C 	0.9529	0.5833	0.9757	0.344
Mof_C 	C 	0.4932	0.8036	0.8278	0.179
Mof_C 	C 	0.4912	0.7202	0.8558	0.238
Mof_C 	C 	0.48	0.7074	0.9024	-0.256
Mof_C 	C 	0.4779	0.6645	0.9321	0.149
Mof_C 	C 	0.4893	0.6289	0.9169	-0.193
Mof_C 	C 	0.4985	0.6435	0.8719	0.164
Mof_C 	C 	0.5006	0.687	0.8398	-0.259
Mof_C 	C 	0.4881	0.5833	0.9529	0.344
Mof_C 	C 	0.8754	0.8278	0.8036	0.179
Mof_C 	C 	0.9328	0.8558	0.7202	0.238
Mof_C 	C 	0.9102	0.9024	0.7074	-0.256
Mof_C 	C 	0.9255	0.9321	0.6645	0.149
Mof_C 	C 	0.9649	0.9169	0.6289	-0.193
Mof_C 	C 	0.9861	0.8719	0.6435	0.165
Mof_C 	C 	0.9726	0.8398	0.687	-0.259
Mof_C 	C 	0.9757	0.9529	0.5833	0.344
Mof_C 	C 	0.8036	0.4932	0.8754	0.179
Mof_C 	C 	0.7202	0.4912	0.9328	0.238
Mof_C 	C 	0.7074	0.48	0.9102	-0.256
Mof_C 	C 	0.6645	0.4779	0.9255	0.149
Mof_C 	C 	0.6289	0.4893	0.9649	-0.193
Mof_C 	C 	0.6435	0.4985	0.9861	0.164
Mof_C 	C 	0.687	0.5006	0.9726	-0.259
Mof_C 	C 	0.5833	0.4881	0.9757	0.344
Mof_C 	C 	0.8278	0.8754	0.4932	0.179
Mof_C 	C 	0.8558	0.9328	0.4912	0.238
Mof_C 	C 	0.9024	0.9102	0.48	-0.256
Mof_C 	C 	0.9321	0.9255	0.4779	0.149
Mof_C 	C 	0.9169	0.9649	0.4893	-0.193
Mof_C 	C 	0.8719	0.9861	0.4985	0.165
Mof_C 	C 	0.8398	0.9726	0.5006	-0.259
Mof_C 	C 	0.9529	0.9757	0.4881	0.344
Mof_C 	C 	0.4932	0.8278	0.8754	0.179
Mof_C 	C 	0.4912	0.8558	0.9328	0.238
Mof_C 	C 	0.48	0.9024	0.9102	-0.256
Mof_C 	C 	0.4779	0.9321	0.9255	0.149
Mof_C 	C 	0.4893	0.9169	0.9649	-0.193
Mof_C 	C 	0.4985	0.8719	0.9861	0.165
Mof_C 	C 	0.5006	0.8398	0.9726	-0.259
Mof_C 	C 	0.4881	0.9529	0.9757	0.344
Mof_C 	C 	0.8754	0.8036	0.4932	0.179
Mof_C 	C 	0.9328	0.7202	0.4912	0.238
Mof_C 	C 	0.9102	0.7074	0.48	-0.256
Mof_C 	C 	0.9255	0.6645	0.4779	0.149
Mof_C 	C 	0.9649	0.6289	0.4893	-0.193
Mof_C 	C 	0.9861	0.6435	0.4985	0.164
Mof_C 	C 	0.9726	0.687	0.5006	-0.259
Mof_C 	C 	0.9757	0.5833	0.4881	0.344
Mof_C 	C 	0.8036	0.8754	0.8278	0.179
Mof_C 	C 	0.7202	0.9328	0.8558	0.238
Mof_C 	C 	0.7074	0.9102	0.9024	-0.256
Mof_C 	C 	0.6645	0.9255	0.9321	0.149
Mof_C 	C 	0.6289	0.9649	0.9169	-0.193
Mof_C 	C 	0.6435	0.9861	0.8719	0.165
Mof_C 	C 	0.687	0.9726	0.8398	-0.259
Mof_C 	C 	0.5833	0.9757	0.9529	0.344
Mof_C 	C 	0.8278	0.4932	0.8036	0.179
Mof_C 	C 	0.8558	0.4912	0.7202	0.238
Mof_C 	C 	0.9024	0.48	0.7074	-0.256
Mof_C 	C 	0.9321	0.4779	0.6645	0.149
Mof_C 	C 	0.9169	0.4893	0.6289	-0.193
Mof_C 	C 	0.8719	0.4985	0.6435	0.164
Mof_C 	C 	0.8398	0.5006	0.687	-0.259
Mof_C 	C 	0.9529	0.4881	0.5833	0.344
Mof_N 	N 	0.5082	0.1572	0.2086	-0.165
Mof_N 	N 	0.5088	0.0842	0.2336	-0.244
Mof_N 	N 	0.1572	0.5082	0.126	-0.165
Mof_N 	N 	0.0842	0.5088	0.1734	-0.244
Mof_N 	N 	0.2086	0.126	0.5082	-0.165
Mof_N 	N 	0.2336	0.1734	0.5088	-0.244
Mof_N 	N 	0.126	0.2086	0.1572	-0.165
Mof_N 	N 	0.1734	0.2336	0.0842	-0.244
Mof_N 	N 	0.5082	0.2086	0.126	-0.165
Mof_N 	N 	0.5088	0.2336	0.1734	-0.244
Mof_N 	N 	0.1572	0.126	0.2086	-0.165
Mof_N 	N 	0.0842	0.1734	0.2336	-0.244
Mof_N 	N 	0.2086	0.5082	0.1572	-0.165
Mof_N 	N 	0.2336	0.5088	0.0842	-0.244
Mof_N 	N 	0.126	0.1572	0.5082	-0.165
Mof_N 	N 	0.1734	0.0842	0.5088	-0.244
Mof_N 	N 	0.5082	0.126	0.1572	-0.165
Mof_N 	N 	0.5088	0.1734	0.0842	-0.244
Mof_N 	N 	0.1572	0.2086	0.5082	-0.165
Mof_N 	N 	0.0842	0.2336	0.5088	-0.244
Mof_N 	N 	0.2086	0.1572	0.126	-0.165
Mof_N 	N 	0.2336	0.0842	0.1734	-0.244
Mof_N 	N 	0.126	0.5082	0.2086	-0.165
Mof_N 	N 	0.1734	0.5088	0.2336	-0.244
Mof_N 	N 	0.4918	0.8428	0.7914	-0.165
Mof_N 	N 	0.4912	0.9158	0.7664	-0.244
Mof_N 	N 	0.8428	0.4918	0.874	-0.165
Mof_N 	N 	0.9158	0.4912	0.8266	-0.244
Mof_N 	N 	0.7914	0.874	0.4918	-0.165
Mof_N 	N 	0.7664	0.8266	0.4912	-0.244
Mof_N 	N 	0.874	0.7914	0.8428	-0.165
Mof_N 	N 	0.8266	0.7664	0.9158	-0.244
Mof_N 	N 	0.4918	0.7914	0.874	-0.165
Mof_N 	N 	0.4912	0.7664	0.8266	-0.244
Mof_N 	N 	0.8428	0.874	0.7914	-0.165
Mof_N 	N 	0.9158	0.8266	0.7664	-0.244
Mof_N 	N 	0.7914	0.4918	0.8428	-0.165
Mof_N 	N 	0.7664	0.4912	0.9158	-0.244
Mof_N 	N 	0.874	0.8428	0.4918	-0.165
Mof_N 	N 	0.8266	0.9158	0.4912	-0.244
Mof_N 	N 	0.4918	0.874	0.8428	-0.165
Mof_N 	N 	0.4912	0.8266	0.9158	-0.244
Mof_N 	N 	0.8428	0.7914	0.4918	-0.165
Mof_N 	N 	0.9158	0.7664	0.4912	-0.244
Mof_N 	N 	0.7914	0.8428	0.874	-0.165
Mof_N 	N 	0.7664	0.9158	0.8266	-0.244
Mof_N 	N 	0.874	0.4918	0.7914	-0.165
Mof_N 	N 	0.8266	0.4912	0.7664	-0.244
Mof_O 	O 	0.52355	0.04561	0.42423	-0.404
Mof_O 	O 	0.49583	0.98435	0.44919	-0.393
Mof_O 	O 	0.04561	0.52355	0.00661	-0.404
Mof_O 	O 	0.98435	0.49583	0.07063	-0.393
Mof_O 	O 	0.42423	0.00661	0.52355	-0.404
Mof_O 	O 	0.44919	0.07063	0.49583	-0.393
Mof_O 	O 	0.00661	0.42423	0.04561	-0.404
Mof_O 	O 	0.07063	0.44919	0.98435	-0.393
Mof_O 	O 	0.52355	0.42423	0.00661	-0.404
Mof_O 	O 	0.49583	0.44919	0.07063	-0.393
Mof_O 	O 	0.04561	0.00661	0.42423	-0.404
Mof_O 	O 	0.98435	0.07063	0.44919	-0.393
Mof_O 	O 	0.42423	0.52355	0.04561	-0.404
Mof_O 	O 	0.44919	0.49583	0.98435	-0.393
Mof_O 	O 	0.00661	0.04561	0.52355	-0.404
Mof_O 	O 	0.07063	0.98435	0.49583	-0.393
Mof_O 	O 	0.52355	0.00661	0.04561	-0.404
Mof_O 	O 	0.49583	0.07063	0.98435	-0.393
Mof_O 	O 	0.04561	0.42423	0.52355	-0.404
Mof_O 	O 	0.98435	0.44919	0.49583	-0.393
Mof_O 	O 	0.42423	0.04561	0.00661	-0.404
Mof_O 	O 	0.44919	0.98435	0.07063	-0.393
Mof_O 	O 	0.00661	0.52355	0.42423	-0.404
Mof_O 	O 	0.07063	0.49583	0.44919	-0.393
Mof_O 	O 	0.47645	0.95439	0.57577	-0.404
Mof_O 	O 	0.50417	0.01565	0.55081	-0.393
Mof_O 	O 	0.95439	0.47645	0.99339	-0.404
Mof_O 	O 	0.01565	0.50417	0.92937	-0.393
Mof_O 	O 	0.57577	0.99339	0.47645	-0.404
Mof_O 	O 	0.55081	0.92937	0.50417	-0.393
Mof_O 	O 	0.99339	0.57577	0.95439	-0.404
Mof_O 	O 	0.92937	0.55081	0.01565	-0.393
Mof_O 	O 	0.47645	0.57577	0.99339	-0.404
Mof_O 	O 	0.50417	0.55081	0.92937	-0.393
Mof_O 	O 	0.95439	0.99339	0.57577	-0.404
Mof_O 	O 	0.01565	0.92937	0.55081	-0.393
Mof_O 	O 	0.57577	0.47645	0.95439	-0.404
Mof_O 	O 	0.55081	0.50417	0.01565	-0.393
Mof_O 	O 	0.99339	0.95439	0.47645	-0.404
Mof_O 	O 	0.92937	0.01565	0.50417	-0.393
Mof_O 	O 	0.47645	0.99339	0.95439	-0.404
Mof_O 	O 	0.50417	0.92937	0.01565	-0.393
Mof_O 	O 	0.95439	0.57577	0.47645	-0.404
Mof_O 	O 	0.01565	0.55081	0.50417	-0.393
Mof_O 	O 	0.57577	0.95439	0.99339	-0.404
Mof_O 	O 	0.55081	0.01565	0.92937	-0.393
Mof_O 	O 	0.99339	0.47645	0.57577	-0.404
Mof_O 	O 	0.92937	0.50417	0.55081	-0.393
_end
