# CIF file generated by openbabel 3.1.0, see https://openbabel.org
data_I
_chemical_name_common 'EDAPIK_clean_h'
_cell_length_a 8.995
_cell_length_b 23.485
_cell_length_c 23.485
_cell_angle_alpha 90
_cell_angle_beta 90
_cell_angle_gamma 90
_space_group_name_H-M_alt 'P 1'
_space_group_name_Hall 'P 1'
loop_
    _symmetry_equiv_pos_as_xyz
    x,y,z
loop_
    _atom_site_label
    _atom_site_type_symbol
    _atom_site_fract_x
    _atom_site_fract_y
    _atom_site_fract_z
    _atom_site_occupancy
    Cu1      Cu       0.50000    0.17664    0.17664    1.000
    Cu2      Cu       0.50000    0.82336    0.82336    1.000
    Cu3      Cu       0.00000    0.32336    0.67664    1.000
    Cu4      Cu       0.00000    0.67664    0.32336    1.000
    C1       C        0.23280    0.16410    0.10659    1.000
    C2       C        0.14340    0.15420    0.06011    1.000
    C3       C        0.21380    0.14690    0.00708    1.000
    C4       C        0.37330    0.14745    0.00526    1.000
    C5       C        0.44680    0.15351    0.05599    1.000
    C6       C        0.38420    0.13598    0.90768    1.000
    C7       C        0.10610    0.20920    0.64390    1.000
    C8       C        0.19000    0.16070    0.64920    1.000
    C9       C        0.26890    0.14945    0.69983    1.000
    C10      C        0.26010    0.18609    0.74158    1.000
    C11      C        0.17690    0.23770    0.73397    1.000
    C12      C        0.42700    0.13298    0.80209    1.000
    C13      C        0.23280    0.83590    0.89341    1.000
    C14      C        0.14340    0.84580    0.93989    1.000
    C15      C        0.21380    0.85310    0.99292    1.000
    C16      C        0.37330    0.85255    0.99474    1.000
    C17      C        0.44680    0.84649    0.94401    1.000
    C18      C        0.38420    0.86402    0.09232    1.000
    C19      C        0.10610    0.79080    0.35610    1.000
    C20      C        0.19000    0.83930    0.35080    1.000
    C21      C        0.26890    0.85055    0.30017    1.000
    C22      C        0.26010    0.81391    0.25842    1.000
    C23      C        0.17690    0.76230    0.26603    1.000
    C24      C        0.42700    0.86702    0.19791    1.000
    C25      C        0.73280    0.39341    0.66410    1.000
    C26      C        0.64340    0.43989    0.65420    1.000
    C27      C        0.71380    0.49292    0.64690    1.000
    C28      C        0.87330    0.49474    0.64745    1.000
    C29      C        0.94680    0.44401    0.65351    1.000
    C30      C        0.88420    0.59232    0.63598    1.000
    C31      C        0.60610    0.85610    0.70920    1.000
    C32      C        0.69000    0.85080    0.66070    1.000
    C33      C        0.76890    0.80017    0.64945    1.000
    C34      C        0.76010    0.75842    0.68609    1.000
    C35      C        0.67690    0.76603    0.73770    1.000
    C36      C        0.92700    0.69791    0.63298    1.000
    C37      C        0.73280    0.60659    0.33590    1.000
    C38      C        0.64340    0.56011    0.34580    1.000
    C39      C        0.71380    0.50708    0.35310    1.000
    C40      C        0.87330    0.50526    0.35255    1.000
    C41      C        0.94680    0.55599    0.34649    1.000
    C42      C        0.88420    0.40768    0.36402    1.000
    C43      C        0.60610    0.14390    0.29080    1.000
    C44      C        0.69000    0.14920    0.33930    1.000
    C45      C        0.76890    0.19983    0.35055    1.000
    C46      C        0.76010    0.24158    0.31391    1.000
    C47      C        0.67690    0.23397    0.26230    1.000
    C48      C        0.92700    0.30209    0.36702    1.000
    C49      C        0.26720    0.33590    0.60659    1.000
    C50      C        0.35660    0.34580    0.56011    1.000
    C51      C        0.28620    0.35310    0.50708    1.000
    C52      C        0.12670    0.35255    0.50526    1.000
    C53      C        0.05320    0.34649    0.55599    1.000
    C54      C        0.11580    0.36402    0.40768    1.000
    C55      C        0.39390    0.29080    0.14390    1.000
    C56      C        0.31000    0.33930    0.14920    1.000
    C57      C        0.23110    0.35055    0.19983    1.000
    C58      C        0.23990    0.31391    0.24158    1.000
    C59      C        0.32310    0.26230    0.23397    1.000
    C60      C        0.07300    0.36702    0.30209    1.000
    C61      C        0.26720    0.66410    0.39341    1.000
    C62      C        0.35660    0.65420    0.43989    1.000
    C63      C        0.28620    0.64690    0.49292    1.000
    C64      C        0.12670    0.64745    0.49474    1.000
    C65      C        0.05320    0.65351    0.44401    1.000
    C66      C        0.11580    0.63598    0.59232    1.000
    C67      C        0.39390    0.70920    0.85610    1.000
    C68      C        0.31000    0.66070    0.85080    1.000
    C69      C        0.23110    0.64945    0.80017    1.000
    C70      C        0.23990    0.68609    0.75842    1.000
    C71      C        0.32310    0.73770    0.76603    1.000
    C72      C        0.07300    0.63298    0.69791    1.000
    C73      C        0.76720    0.10659    0.16410    1.000
    C74      C        0.85660    0.06011    0.15420    1.000
    C75      C        0.78620    0.00708    0.14690    1.000
    C76      C        0.62670    0.00526    0.14745    1.000
    C77      C        0.55320    0.05599    0.15351    1.000
    C78      C        0.61580    0.90768    0.13598    1.000
    C79      C        0.89390    0.64390    0.20920    1.000
    C80      C        0.81000    0.64920    0.16070    1.000
    C81      C        0.73110    0.69983    0.14945    1.000
    C82      C        0.73990    0.74158    0.18609    1.000
    C83      C        0.82310    0.73397    0.23770    1.000
    C84      C        0.57300    0.80209    0.13298    1.000
    C85      C        0.76720    0.89341    0.83590    1.000
    C86      C        0.85660    0.93989    0.84580    1.000
    C87      C        0.78620    0.99292    0.85310    1.000
    C88      C        0.62670    0.99474    0.85255    1.000
    C89      C        0.55320    0.94401    0.84649    1.000
    C90      C        0.61580    0.09232    0.86402    1.000
    C91      C        0.89390    0.35610    0.79080    1.000
    C92      C        0.81000    0.35080    0.83930    1.000
    C93      C        0.73110    0.30017    0.85055    1.000
    C94      C        0.73990    0.25842    0.81391    1.000
    C95      C        0.82310    0.26603    0.76230    1.000
    C96      C        0.57300    0.19791    0.86702    1.000
    C97      C        0.50000    0.14119    0.85881    1.000
    C98      C        0.50000    0.85881    0.14119    1.000
    C99      C        0.00000    0.64119    0.64119    1.000
    C100     C        0.00000    0.35881    0.35881    1.000
    N1       N        0.37890    0.16157    0.10624    1.000
    N2       N        0.10610    0.24804    0.68770    1.000
    N3       N        0.37890    0.83843    0.89376    1.000
    N4       N        0.10610    0.75196    0.31230    1.000
    N5       N        0.87890    0.39376    0.66157    1.000
    N6       N        0.60610    0.81230    0.74804    1.000
    N7       N        0.87890    0.60624    0.33843    1.000
    N8       N        0.60610    0.18770    0.25196    1.000
    N9       N        0.12110    0.33843    0.60624    1.000
    N10      N        0.39390    0.25196    0.18770    1.000
    N11      N        0.12110    0.66157    0.39376    1.000
    N12      N        0.39390    0.74804    0.81230    1.000
    N13      N        0.62110    0.10624    0.16157    1.000
    N14      N        0.89390    0.68770    0.24804    1.000
    N15      N        0.62110    0.89376    0.83843    1.000
    N16      N        0.89390    0.31230    0.75196    1.000
    O1       O        0.45600    0.14083    0.95870    1.000
    O2       O        0.32890    0.18273    0.79356    1.000
    O3       O        0.45600    0.85917    0.04130    1.000
    O4       O        0.32890    0.81727    0.20644    1.000
    O5       O        0.95600    0.54130    0.64083    1.000
    O6       O        0.82890    0.70644    0.68273    1.000
    O7       O        0.95600    0.45870    0.35917    1.000
    O8       O        0.82890    0.29356    0.31727    1.000
    O9       O        0.04400    0.35917    0.45870    1.000
    O10      O        0.17110    0.31727    0.29356    1.000
    O11      O        0.04400    0.64083    0.54130    1.000
    O12      O        0.17110    0.68273    0.70644    1.000
    O13      O        0.54400    0.95870    0.14083    1.000
    O14      O        0.67110    0.79356    0.18273    1.000
    O15      O        0.54400    0.04130    0.85917    1.000
    O16      O        0.67110    0.20644    0.81727    1.000
    H1       H        0.18092    0.17546    0.14940    1.000
    H2       H        0.01755    0.15219    0.06546    1.000
    H3       H        0.14429    0.14075    0.96696    1.000
    H4       H        0.57342    0.15183    0.05719    1.000
    H5       H        0.26168    0.12923    0.89725    1.000
    H6       H        0.03795    0.21674    0.60368    1.000
    H7       H        0.19636    0.12907    0.61246    1.000
    H8       H        0.33852    0.10907    0.70372    1.000
    H9       H        0.17264    0.27069    0.76954    1.000
    H10      H        0.45343    0.09365    0.77551    1.000
    H11      H        0.18092    0.82454    0.85060    1.000
    H12      H        0.01755    0.84781    0.93454    1.000
    H13      H        0.14429    0.85925    0.03304    1.000
    H14      H        0.57342    0.84817    0.94281    1.000
    H15      H        0.26168    0.87077    0.10275    1.000
    H16      H        0.03795    0.78326    0.39632    1.000
    H17      H        0.19636    0.87093    0.38754    1.000
    H18      H        0.33852    0.89093    0.29628    1.000
    H19      H        0.17264    0.72931    0.23046    1.000
    H20      H        0.45343    0.90635    0.22449    1.000
    H21      H        0.68092    0.35060    0.67546    1.000
    H22      H        0.51755    0.43454    0.65219    1.000
    H23      H        0.64429    0.53304    0.64075    1.000
    H24      H        0.07342    0.44281    0.65183    1.000
    H25      H        0.76168    0.60275    0.62923    1.000
    H26      H        0.53795    0.89632    0.71674    1.000
    H27      H        0.69636    0.88754    0.62907    1.000
    H28      H        0.83852    0.79628    0.60907    1.000
    H29      H        0.67264    0.73046    0.77069    1.000
    H30      H        0.95343    0.72449    0.59365    1.000
    H31      H        0.68092    0.64940    0.32454    1.000
    H32      H        0.51755    0.56546    0.34781    1.000
    H33      H        0.64429    0.46696    0.35925    1.000
    H34      H        0.07342    0.55719    0.34817    1.000
    H35      H        0.76168    0.39725    0.37077    1.000
    H36      H        0.53795    0.10368    0.28326    1.000
    H37      H        0.69636    0.11246    0.37093    1.000
    H38      H        0.83852    0.20372    0.39093    1.000
    H39      H        0.67264    0.26954    0.22931    1.000
    H40      H        0.95343    0.27551    0.40635    1.000
    H41      H        0.92658    0.34817    0.55719    1.000
    H42      H        0.23832    0.37077    0.39725    1.000
    H43      H        0.46205    0.28326    0.10368    1.000
    H44      H        0.30364    0.37093    0.11246    1.000
    H45      H        0.16148    0.39093    0.20372    1.000
    H46      H        0.32736    0.22931    0.26954    1.000
    H47      H        0.04657    0.40635    0.27551    1.000
    H48      H        0.92658    0.65183    0.44281    1.000
    H49      H        0.23832    0.62923    0.60275    1.000
    H50      H        0.46205    0.71674    0.89632    1.000
    H51      H        0.30364    0.62907    0.88754    1.000
    H52      H        0.16148    0.60907    0.79628    1.000
    H53      H        0.32736    0.77069    0.73046    1.000
    H54      H        0.04657    0.59365    0.72449    1.000
    H55      H        0.81908    0.14940    0.17546    1.000
    H56      H        0.98245    0.06546    0.15219    1.000
    H57      H        0.85571    0.96696    0.14075    1.000
    H58      H        0.42658    0.05719    0.15183    1.000
    H59      H        0.73832    0.89725    0.12923    1.000
    H60      H        0.96205    0.60368    0.21674    1.000
    H61      H        0.80364    0.61246    0.12907    1.000
    H62      H        0.66148    0.70372    0.10907    1.000
    H63      H        0.82736    0.76954    0.27069    1.000
    H64      H        0.54657    0.77551    0.09365    1.000
    H65      H        0.81908    0.85060    0.82454    1.000
    H66      H        0.98245    0.93454    0.84781    1.000
    H67      H        0.85571    0.03304    0.85925    1.000
    H68      H        0.42658    0.94281    0.84817    1.000
    H69      H        0.73832    0.10275    0.87077    1.000
    H70      H        0.96205    0.39632    0.78326    1.000
    H71      H        0.80364    0.38754    0.87093    1.000
    H72      H        0.66148    0.29628    0.89093    1.000
    H73      H        0.82736    0.23046    0.72931    1.000
    H74      H        0.54657    0.22449    0.90635    1.000
