# CIF file generated by openbabel 3.1.0, see https://openbabel.org
data_I
_chemical_name_common 'image0'
_cell_length_a 10.3541
_cell_length_b 11.368
_cell_length_c 12.916
_cell_angle_alpha 72.859
_cell_angle_beta 90.028
_cell_angle_gamma 87.232
_space_group_name_H-M_alt 'P 1'
_space_group_name_Hall 'P 1'
loop_
    _symmetry_equiv_pos_as_xyz
    x,y,z
loop_
    _atom_site_label
    _atom_site_type_symbol
    _atom_site_fract_x
    _atom_site_fract_y
    _atom_site_fract_z
    _atom_site_occupancy
    Gd1      Gd       0.47833    0.04611    0.33838    1.000
    C1       C        0.49460    0.26620    0.16770    1.000
    C2       C        0.51050    0.75370    0.50460    1.000
    C3       C        0.26580    0.00970    0.56410    1.000
    C4       C        0.49830    0.38480    0.08430    1.000
    C5       C        0.50560    0.62120    0.50530    1.000
    C6       C        0.12950    0.00480    0.53130    1.000
    C7       C        0.44860    0.49410    0.10300    1.000
    C8       C        0.39010    0.56190    0.52760    1.000
    C9       C        0.07620    0.09710    0.44180    1.000
    C10      C        0.39770    0.49680    0.20550    1.000
    H1       H        0.39840    0.42390    0.26220    1.000
    C11      C        0.27520    0.62120    0.55280    1.000
    H2       H        0.27750    0.70140    0.55690    1.000
    C12      C        0.14930    0.19820    0.38090    1.000
    H3       H        0.23460    0.20320    0.40130    1.000
    C13      C        0.34950    0.60040    0.22220    1.000
    H4       H        0.31850    0.59890    0.29010    1.000
    C14      C        0.16440    0.56390    0.57070    1.000
    H5       H        0.09030    0.60510    0.58590    1.000
    C15      C        0.09670    0.28650    0.29440    1.000
    H6       H        0.14530    0.35170    0.25660    1.000
    C16      C        0.34500    0.71300    0.13710    1.000
    H7       H        0.30990    0.78430    0.14970    1.000
    C17      C        0.15850    0.44190    0.56690    1.000
    H8       H        0.08020    0.40350    0.57890    1.000
    C18      C        0.96830    0.27920    0.26220    1.000
    H9       H        0.93390    0.33840    0.20120    1.000
    C19      C        0.39090    0.71810    0.03800    1.000
    H10      H        0.38670    0.79260    0.98310    1.000
    C20      C        0.26490    0.37960    0.54600    1.000
    H11      H        0.25990    0.29790    0.54690    1.000
    C21      C        0.89380    0.18780    0.31800    1.000
    H12      H        0.80830    0.18670    0.29630    1.000
    C22      C        0.44620    0.60930    0.01710    1.000
    C23      C        0.38450    0.43790    0.52260    1.000
    C24      C        0.94490    0.09250    0.41050    1.000
    O1       O        0.38650    0.21830    0.19070    1.000
    O2       O        0.49120    0.83220    0.41360    1.000
    O3       O        0.35860    0.99270    0.50620    1.000
    O4       O        0.59660    0.21490    0.21630    1.000
    O5       O        0.53280    0.77530    0.59250    1.000
    O6       O        0.28670    0.02040    0.65610    1.000
    Gd2      Gd       0.52167    0.95389    0.66162    1.000
    C25      C        0.50540    0.73380    0.83230    1.000
    C26      C        0.48950    0.24630    0.49540    1.000
    C27      C        0.73420    0.99030    0.43590    1.000
    C28      C        0.50170    0.61520    0.91570    1.000
    C29      C        0.49440    0.37880    0.49470    1.000
    C30      C        0.87050    0.99520    0.46870    1.000
    C31      C        0.55140    0.50590    0.89700    1.000
    C32      C        0.60990    0.43810    0.47240    1.000
    C33      C        0.92380    0.90290    0.55820    1.000
    C34      C        0.60230    0.50320    0.79450    1.000
    H13      H        0.60160    0.57610    0.73780    1.000
    C35      C        0.72480    0.37880    0.44720    1.000
    H14      H        0.72250    0.29860    0.44310    1.000
    C36      C        0.85070    0.80180    0.61910    1.000
    H15      H        0.76540    0.79680    0.59870    1.000
    C37      C        0.65050    0.39960    0.77780    1.000
    H16      H        0.68150    0.40110    0.70990    1.000
    C38      C        0.83560    0.43610    0.42930    1.000
    H17      H        0.90970    0.39490    0.41410    1.000
    C39      C        0.90330    0.71350    0.70560    1.000
    H18      H        0.85470    0.64830    0.74340    1.000
    C40      C        0.65500    0.28700    0.86290    1.000
    H19      H        0.69010    0.21570    0.85030    1.000
    C41      C        0.84150    0.55810    0.43310    1.000
    H20      H        0.91980    0.59650    0.42110    1.000
    C42      C        0.03170    0.72080    0.73780    1.000
    H21      H        0.06610    0.66160    0.79880    1.000
    C43      C        0.60910    0.28190    0.96200    1.000
    H22      H        0.61330    0.20740    0.01690    1.000
    C44      C        0.73510    0.62040    0.45400    1.000
    H23      H        0.74010    0.70210    0.45310    1.000
    C45      C        0.10620    0.81220    0.68200    1.000
    H24      H        0.19170    0.81330    0.70370    1.000
    C46      C        0.55380    0.39070    0.98290    1.000
    C47      C        0.61550    0.56210    0.47740    1.000
    C48      C        0.05510    0.90750    0.58950    1.000
    O7       O        0.61350    0.78170    0.80930    1.000
    O8       O        0.50880    0.16780    0.58640    1.000
    O9       O        0.64140    0.00730    0.49380    1.000
    O10      O        0.40340    0.78510    0.78370    1.000
    O11      O        0.46720    0.22470    0.40750    1.000
    O12      O        0.71330    0.97960    0.34390    1.000
