data_functionalizedCrystal
_audit_creation_method	'EQeq! by Chris Wilmer'
_symmetry_space_group_name_H-M	'P1'
_symmetry_Int_Tables_number	1
_symmetry_cell_setting	triclinic
loop_
_symmetry_equiv_pos_as_xyz
  x,y,z
_cell_length_a	9.6263
_cell_length_b	9.6263
_cell_length_c	12.5719
_cell_angle_alpha	106.22
_cell_angle_beta	106.22
_cell_angle_gamma	105.689
loop_
_atom_site_label
_atom_site_type_symbol
_atom_site_fract_x
_atom_site_fract_y
_atom_site_fract_z
_atom_site_charge
Mof_Ca	Ca	0.625	0.875	0.75	1.724
Mof_Ca	Ca	0.375	0.125	0.25	1.724
Mof_H 	H 	0.1072	0.0046	0.9408	0.018
Mof_H 	H 	0.0502	0.239	0.9904	-0.001
Mof_H 	H 	0.008	0.1538	0.8524	0.005
Mof_H 	H 	0.9178	0.8002	0.826	0.304
Mof_H 	H 	0.8118	0.2042	0.908	0.312
Mof_H 	H 	0.3336	0.9362	0.9408	0.017
Mof_H 	H 	0.4402	0.7514	0.9904	0.007
Mof_H 	H 	0.3444	0.6986	0.8524	0.012
Mof_H 	H 	0.4082	0.0258	0.826	0.304
Mof_H 	H 	0.5962	0.7038	0.908	0.31
Mof_H 	H 	0.4954	0.3928	0.5592	0.017
Mof_H 	H 	0.261	0.4498	0.5096	0.006
Mof_H 	H 	0.3462	0.492	0.6476	0.012
Mof_H 	H 	0.6998	0.5822	0.674	0.304
Mof_H 	H 	0.2958	0.6882	0.592	0.31
Mof_H 	H 	0.5638	0.1664	0.5592	0.017
Mof_H 	H 	0.7486	0.0598	0.5096	0.007
Mof_H 	H 	0.8014	0.1556	0.6476	0.012
Mof_H 	H 	0.4742	0.0918	0.674	0.304
Mof_H 	H 	0.7962	0.9038	0.592	0.31
Mof_H 	H 	0.8928	0.9954	0.0592	0.019
Mof_H 	H 	0.9498	0.761	0.0096	0
Mof_H 	H 	0.992	0.8462	0.1476	0.005
Mof_H 	H 	0.0822	0.1998	0.174	0.304
Mof_H 	H 	0.1882	0.7958	0.092	0.312
Mof_H 	H 	0.6664	0.0638	0.0592	0.017
Mof_H 	H 	0.5598	0.2486	0.0096	0.007
Mof_H 	H 	0.6556	0.3014	0.1476	0.012
Mof_H 	H 	0.5918	0.9742	0.174	0.304
Mof_H 	H 	0.4038	0.2962	0.092	0.31
Mof_H 	H 	0.5046	0.6072	0.4408	0.017
Mof_H 	H 	0.739	0.5502	0.4904	0.006
Mof_H 	H 	0.6538	0.508	0.3524	0.012
Mof_H 	H 	0.3002	0.4178	0.326	0.304
Mof_H 	H 	0.7042	0.3118	0.408	0.31
Mof_H 	H 	0.4362	0.8336	0.4408	0.017
Mof_H 	H 	0.2514	0.9402	0.4904	0.007
Mof_H 	H 	0.1986	0.8444	0.3524	0.012
Mof_H 	H 	0.5258	0.9082	0.326	0.304
Mof_H 	H 	0.2038	0.0962	0.408	0.31
Mof_C 	C 	0.0056	0.0042	0.9414	0.08
Mof_C 	C 	0.98273	0.14453	0.92026	0.131
Mof_C 	C 	0.4358	0.9372	0.9414	0.087
Mof_C 	C 	0.43753	0.77573	0.92026	0.115
Mof_C 	C 	0.4958	0.4944	0.5586	0.087
Mof_C 	C 	0.35547	0.51727	0.57974	0.115
Mof_C 	C 	0.5628	0.0642	0.5586	0.086
Mof_C 	C 	0.72427	0.06247	0.57974	0.116
Mof_C 	C 	0.9944	0.9958	0.0586	0.08
Mof_C 	C 	0.01727	0.85547	0.07974	0.131
Mof_C 	C 	0.5642	0.0628	0.0586	0.087
Mof_C 	C 	0.56247	0.22427	0.07974	0.115
Mof_C 	C 	0.5042	0.5056	0.4414	0.087
Mof_C 	C 	0.64453	0.48273	0.42026	0.115
Mof_C 	C 	0.4372	0.9358	0.4414	0.086
Mof_C 	C 	0.27573	0.93753	0.42026	0.116
Mof_O 	O 	0.88322	0.86966	0.84268	-0.53
Mof_O 	O 	0.82297	0.12267	0.89664	-0.569
Mof_O 	O 	0.45946	0.97302	0.84268	-0.532
Mof_O 	O 	0.57367	0.77397	0.89664	-0.565
Mof_O 	O 	0.63034	0.61678	0.65732	-0.532
Mof_O 	O 	0.37733	0.67703	0.60336	-0.565
Mof_O 	O 	0.52698	0.04054	0.65732	-0.532
Mof_O 	O 	0.72603	0.92633	0.60336	-0.566
Mof_O 	O 	0.11678	0.13034	0.15732	-0.53
Mof_O 	O 	0.17703	0.87733	0.10336	-0.569
Mof_O 	O 	0.54054	0.02698	0.15732	-0.532
Mof_O 	O 	0.42633	0.22603	0.10336	-0.565
Mof_O 	O 	0.36966	0.38322	0.34268	-0.532
Mof_O 	O 	0.62267	0.32297	0.39664	-0.565
Mof_O 	O 	0.47302	0.95946	0.34268	-0.532
Mof_O 	O 	0.27397	0.07367	0.39664	-0.566
Mof_Cl	Cl	0.93629	0.56371	0.75	-0.369
Mof_Cl	Cl	0.31371	0.18629	0.75	-0.369
Mof_Cl	Cl	0.06371	0.43629	0.25	-0.369
Mof_Cl	Cl	0.68629	0.81371	0.25	-0.369
_end
