# CIF file generated by openbabel 3.1.0, see https://openbabel.org
data_I
_chemical_name_common 'image0'
_cell_length_a 13.4191
_cell_length_b 18.0669
_cell_length_c 20.9746
_cell_angle_alpha 90
_cell_angle_beta 99.659
_cell_angle_gamma 90
_space_group_name_H-M_alt 'P 1'
_space_group_name_Hall 'P 1'
loop_
    _symmetry_equiv_pos_as_xyz
    x,y,z
loop_
    _atom_site_label
    _atom_site_type_symbol
    _atom_site_fract_x
    _atom_site_fract_y
    _atom_site_fract_z
    _atom_site_occupancy
    Mg1      Mg       0.74024    0.25900    0.69118    1.000
    O1       O        0.50251    0.32882    0.67868    1.000
    O2       O        0.65804    0.34820    0.65879    1.000
    O3       O        0.51720    0.16379    0.68339    1.000
    O4       O        0.64260    0.18988    0.63015    1.000
    O5       O        0.80483    0.30259    0.78278    1.000
    O6       O        0.66002    0.24492    0.77670    1.000
    C1       C        0.56380    0.35866    0.64943    1.000
    C2       C        0.52450    0.41103    0.59449    1.000
    C3       C        0.41830    0.41841    0.57328    1.000
    H1       H        0.37380    0.39230    0.59440    1.000
    C4       C        0.58930    0.45059    0.56321    1.000
    H2       H        0.65870    0.44670    0.57710    1.000
    C5       C        0.55250    0.49684    0.51062    1.000
    C6       C        0.38110    0.46300    0.52275    1.000
    H3       H        0.31160    0.46720    0.50990    1.000
    C7       C        0.56900    0.15324    0.64006    1.000
    C8       C        0.53670    0.08814    0.59482    1.000
    C9       C        0.46380    0.03690    0.60972    1.000
    H4       H        0.43980    0.04080    0.64870    1.000
    C10      C        0.57280    0.08150    0.53784    1.000
    H5       H        0.62170    0.11450    0.52860    1.000
    C11      C        0.53680    0.02510    0.49235    1.000
    C12      C        0.42870    0.98230    0.56759    1.000
    H6       H        0.38120    0.94900    0.57820    1.000
    C13      C        0.73590    0.27566    0.80973    1.000
    C14      C        0.74880    0.27704    0.88201    1.000
    C15      C        0.82060    0.32607    0.91682    1.000
    H7       H        0.85630    0.35870    0.89480    1.000
    C16      C        0.83710    0.32507    0.98254    1.000
    H8       H        0.88310    0.35810    0.00520    1.000
    C17      C        0.69650    0.22871    0.91370    1.000
    H9       H        0.64860    0.19760    0.89020    1.000
    C18      C        0.78560    0.27472    0.01723    1.000
    Mg2      Mg       0.24024    0.75900    0.69118    1.000
    O7       O        0.00251    0.82882    0.67868    1.000
    O8       O        0.15804    0.84820    0.65879    1.000
    O9       O        0.01720    0.66379    0.68339    1.000
    O10      O        0.14260    0.68988    0.63015    1.000
    O11      O        0.30483    0.80259    0.78278    1.000
    O12      O        0.16002    0.74492    0.77670    1.000
    C19      C        0.06380    0.85866    0.64943    1.000
    C20      C        0.02450    0.91103    0.59449    1.000
    C21      C        0.91830    0.91841    0.57328    1.000
    H10      H        0.87380    0.89230    0.59440    1.000
    C22      C        0.08930    0.95059    0.56321    1.000
    H11      H        0.15870    0.94670    0.57710    1.000
    C23      C        0.05250    0.99684    0.51062    1.000
    C24      C        0.88110    0.96300    0.52275    1.000
    H12      H        0.81160    0.96720    0.50990    1.000
    C25      C        0.06900    0.65324    0.64006    1.000
    C26      C        0.03670    0.58814    0.59482    1.000
    C27      C        0.96380    0.53690    0.60972    1.000
    H13      H        0.93980    0.54080    0.64870    1.000
    C28      C        0.07280    0.58150    0.53784    1.000
    H14      H        0.12170    0.61450    0.52860    1.000
    C29      C        0.03680    0.52510    0.49235    1.000
    C30      C        0.92870    0.48230    0.56759    1.000
    H15      H        0.88120    0.44900    0.57820    1.000
    C31      C        0.23590    0.77566    0.80973    1.000
    C32      C        0.24880    0.77704    0.88201    1.000
    C33      C        0.32060    0.82607    0.91682    1.000
    H16      H        0.35630    0.85870    0.89480    1.000
    C34      C        0.33710    0.82507    0.98254    1.000
    H17      H        0.38310    0.85810    0.00520    1.000
    C35      C        0.19650    0.72871    0.91370    1.000
    H18      H        0.14860    0.69760    0.89020    1.000
    C36      C        0.28560    0.77472    0.01723    1.000
    Mg3      Mg       0.25976    0.25900    0.80882    1.000
    O13      O        0.49749    0.32882    0.82132    1.000
    O14      O        0.34196    0.34820    0.84121    1.000
    O15      O        0.48280    0.16379    0.81661    1.000
    O16      O        0.35740    0.18988    0.86985    1.000
    O17      O        0.19517    0.30259    0.71722    1.000
    O18      O        0.33998    0.24492    0.72330    1.000
    C37      C        0.43620    0.35866    0.85057    1.000
    C38      C        0.47550    0.41103    0.90551    1.000
    C39      C        0.58170    0.41841    0.92672    1.000
    H19      H        0.62620    0.39230    0.90560    1.000
    C40      C        0.41070    0.45059    0.93679    1.000
    H20      H        0.34130    0.44670    0.92290    1.000
    C41      C        0.44750    0.49684    0.98938    1.000
    C42      C        0.61890    0.46300    0.97725    1.000
    H21      H        0.68840    0.46720    0.99010    1.000
    C43      C        0.43100    0.15324    0.85994    1.000
    C44      C        0.46330    0.08814    0.90518    1.000
    C45      C        0.53620    0.03690    0.89028    1.000
    H22      H        0.56020    0.04080    0.85130    1.000
    C46      C        0.42720    0.08150    0.96216    1.000
    H23      H        0.37830    0.11450    0.97140    1.000
    C47      C        0.46320    0.02510    0.00765    1.000
    C48      C        0.57130    0.98230    0.93241    1.000
    H24      H        0.61880    0.94900    0.92180    1.000
    C49      C        0.26410    0.27566    0.69027    1.000
    C50      C        0.25120    0.27704    0.61799    1.000
    C51      C        0.17940    0.32607    0.58318    1.000
    H25      H        0.14370    0.35870    0.60520    1.000
    C52      C        0.16290    0.32507    0.51746    1.000
    H26      H        0.11690    0.35810    0.49480    1.000
    C53      C        0.30350    0.22871    0.58630    1.000
    H27      H        0.35140    0.19760    0.60980    1.000
    C54      C        0.21440    0.27472    0.48277    1.000
    Mg4      Mg       0.75976    0.75900    0.80882    1.000
    O19      O        0.99749    0.82882    0.82132    1.000
    O20      O        0.84196    0.84820    0.84121    1.000
    O21      O        0.98280    0.66379    0.81661    1.000
    O22      O        0.85740    0.68988    0.86985    1.000
    O23      O        0.69517    0.80259    0.71722    1.000
    O24      O        0.83998    0.74492    0.72330    1.000
    C55      C        0.93620    0.85866    0.85057    1.000
    C56      C        0.97550    0.91103    0.90551    1.000
    C57      C        0.08170    0.91841    0.92672    1.000
    H28      H        0.12620    0.89230    0.90560    1.000
    C58      C        0.91070    0.95059    0.93679    1.000
    H29      H        0.84130    0.94670    0.92290    1.000
    C59      C        0.94750    0.99684    0.98938    1.000
    C60      C        0.11890    0.96300    0.97725    1.000
    H30      H        0.18840    0.96720    0.99010    1.000
    C61      C        0.93100    0.65324    0.85994    1.000
    C62      C        0.96330    0.58814    0.90518    1.000
    C63      C        0.03620    0.53690    0.89028    1.000
    H31      H        0.06020    0.54080    0.85130    1.000
    C64      C        0.92720    0.58150    0.96216    1.000
    H32      H        0.87830    0.61450    0.97140    1.000
    C65      C        0.96320    0.52510    0.00765    1.000
    C66      C        0.07130    0.48230    0.93241    1.000
    H33      H        0.11880    0.44900    0.92180    1.000
    C67      C        0.76410    0.77566    0.69027    1.000
    C68      C        0.75120    0.77704    0.61799    1.000
    C69      C        0.67940    0.82607    0.58318    1.000
    H34      H        0.64370    0.85870    0.60520    1.000
    C70      C        0.66290    0.82507    0.51746    1.000
    H35      H        0.61690    0.85810    0.49480    1.000
    C71      C        0.80350    0.72871    0.58630    1.000
    H36      H        0.85140    0.69760    0.60980    1.000
    C72      C        0.71440    0.77472    0.48277    1.000
    Mg5      Mg       0.25976    0.74100    0.30882    1.000
    O25      O        0.49749    0.67118    0.32132    1.000
    O26      O        0.34196    0.65180    0.34121    1.000
    O27      O        0.48280    0.83621    0.31661    1.000
    O28      O        0.35740    0.81012    0.36985    1.000
    O29      O        0.19517    0.69741    0.21722    1.000
    O30      O        0.33998    0.75508    0.22330    1.000
    C73      C        0.43620    0.64134    0.35057    1.000
    C74      C        0.47550    0.58897    0.40551    1.000
    C75      C        0.58170    0.58159    0.42672    1.000
    H37      H        0.62620    0.60770    0.40560    1.000
    C76      C        0.41070    0.54941    0.43679    1.000
    H38      H        0.34130    0.55330    0.42290    1.000
    C77      C        0.44750    0.50316    0.48938    1.000
    C78      C        0.61890    0.53700    0.47725    1.000
    H39      H        0.68840    0.53280    0.49010    1.000
    C79      C        0.43100    0.84676    0.35994    1.000
    C80      C        0.46330    0.91186    0.40518    1.000
    C81      C        0.53620    0.96310    0.39028    1.000
    H40      H        0.56020    0.95920    0.35130    1.000
    C82      C        0.42720    0.91850    0.46216    1.000
    H41      H        0.37830    0.88550    0.47140    1.000
    C83      C        0.46320    0.97490    0.50765    1.000
    C84      C        0.57130    0.01770    0.43241    1.000
    H42      H        0.61880    0.05100    0.42180    1.000
    C85      C        0.26410    0.72434    0.19027    1.000
    C86      C        0.25120    0.72296    0.11799    1.000
    C87      C        0.17940    0.67393    0.08318    1.000
    H43      H        0.14370    0.64130    0.10520    1.000
    C88      C        0.16290    0.67493    0.01746    1.000
    H44      H        0.11690    0.64190    0.99480    1.000
    C89      C        0.30350    0.77129    0.08630    1.000
    H45      H        0.35140    0.80240    0.10980    1.000
    C90      C        0.21440    0.72528    0.98277    1.000
    Mg6      Mg       0.75976    0.24100    0.30882    1.000
    O31      O        0.99749    0.17118    0.32132    1.000
    O32      O        0.84196    0.15180    0.34121    1.000
    O33      O        0.98280    0.33621    0.31661    1.000
    O34      O        0.85740    0.31012    0.36985    1.000
    O35      O        0.69517    0.19741    0.21722    1.000
    O36      O        0.83998    0.25508    0.22330    1.000
    C91      C        0.93620    0.14134    0.35057    1.000
    C92      C        0.97550    0.08897    0.40551    1.000
    C93      C        0.08170    0.08159    0.42672    1.000
    H46      H        0.12620    0.10770    0.40560    1.000
    C94      C        0.91070    0.04941    0.43679    1.000
    H47      H        0.84130    0.05330    0.42290    1.000
    C95      C        0.94750    0.00316    0.48938    1.000
    C96      C        0.11890    0.03700    0.47725    1.000
    H48      H        0.18840    0.03280    0.49010    1.000
    C97      C        0.93100    0.34676    0.35994    1.000
    C98      C        0.96330    0.41186    0.40518    1.000
    C99      C        0.03620    0.46310    0.39028    1.000
    H49      H        0.06020    0.45920    0.35130    1.000
    C100     C        0.92720    0.41850    0.46216    1.000
    H50      H        0.87830    0.38550    0.47140    1.000
    C101     C        0.96320    0.47490    0.50765    1.000
    C102     C        0.07130    0.51770    0.43241    1.000
    H51      H        0.11880    0.55100    0.42180    1.000
    C103     C        0.76410    0.22434    0.19027    1.000
    C104     C        0.75120    0.22296    0.11799    1.000
    C105     C        0.67940    0.17393    0.08318    1.000
    H52      H        0.64370    0.14130    0.10520    1.000
    C106     C        0.66290    0.17493    0.01746    1.000
    H53      H        0.61690    0.14190    0.99480    1.000
    C107     C        0.80350    0.27129    0.08630    1.000
    H54      H        0.85140    0.30240    0.10980    1.000
    C108     C        0.71440    0.22528    0.98277    1.000
    Mg7      Mg       0.74024    0.74100    0.19118    1.000
    O37      O        0.50251    0.67118    0.17868    1.000
    O38      O        0.65804    0.65180    0.15879    1.000
    O39      O        0.51720    0.83621    0.18339    1.000
    O40      O        0.64260    0.81012    0.13015    1.000
    O41      O        0.80483    0.69741    0.28278    1.000
    O42      O        0.66002    0.75508    0.27670    1.000
    C109     C        0.56380    0.64134    0.14943    1.000
    C110     C        0.52450    0.58897    0.09449    1.000
    C111     C        0.41830    0.58159    0.07328    1.000
    H55      H        0.37380    0.60770    0.09440    1.000
    C112     C        0.58930    0.54941    0.06321    1.000
    H56      H        0.65870    0.55330    0.07710    1.000
    C113     C        0.55250    0.50316    0.01062    1.000
    C114     C        0.38110    0.53700    0.02275    1.000
    H57      H        0.31160    0.53280    0.00990    1.000
    C115     C        0.56900    0.84676    0.14006    1.000
    C116     C        0.53670    0.91186    0.09482    1.000
    C117     C        0.46380    0.96310    0.10972    1.000
    H58      H        0.43980    0.95920    0.14870    1.000
    C118     C        0.57280    0.91850    0.03784    1.000
    H59      H        0.62170    0.88550    0.02860    1.000
    C119     C        0.53680    0.97490    0.99235    1.000
    C120     C        0.42870    0.01770    0.06759    1.000
    H60      H        0.38120    0.05100    0.07820    1.000
    C121     C        0.73590    0.72434    0.30973    1.000
    C122     C        0.74880    0.72296    0.38201    1.000
    C123     C        0.82060    0.67393    0.41682    1.000
    H61      H        0.85630    0.64130    0.39480    1.000
    C124     C        0.83710    0.67493    0.48254    1.000
    H62      H        0.88310    0.64190    0.50520    1.000
    C125     C        0.69650    0.77129    0.41370    1.000
    H63      H        0.64860    0.80240    0.39020    1.000
    C126     C        0.78560    0.72528    0.51723    1.000
    Mg8      Mg       0.24024    0.24100    0.19118    1.000
    O43      O        0.00251    0.17118    0.17868    1.000
    O44      O        0.15804    0.15180    0.15879    1.000
    O45      O        0.01720    0.33621    0.18339    1.000
    O46      O        0.14260    0.31012    0.13015    1.000
    O47      O        0.30483    0.19741    0.28278    1.000
    O48      O        0.16002    0.25508    0.27670    1.000
    C127     C        0.06380    0.14134    0.14943    1.000
    C128     C        0.02450    0.08897    0.09449    1.000
    C129     C        0.91830    0.08159    0.07328    1.000
    H64      H        0.87380    0.10770    0.09440    1.000
    C130     C        0.08930    0.04941    0.06321    1.000
    H65      H        0.15870    0.05330    0.07710    1.000
    C131     C        0.05250    0.00316    0.01062    1.000
    C132     C        0.88110    0.03700    0.02275    1.000
    H66      H        0.81160    0.03280    0.00990    1.000
    C133     C        0.06900    0.34676    0.14006    1.000
    C134     C        0.03670    0.41186    0.09482    1.000
    C135     C        0.96380    0.46310    0.10972    1.000
    H67      H        0.93980    0.45920    0.14870    1.000
    C136     C        0.07280    0.41850    0.03784    1.000
    H68      H        0.12170    0.38550    0.02860    1.000
    C137     C        0.03680    0.47490    0.99235    1.000
    C138     C        0.92870    0.51770    0.06759    1.000
    H69      H        0.88120    0.55100    0.07820    1.000
    C139     C        0.23590    0.22434    0.30973    1.000
    C140     C        0.24880    0.22296    0.38201    1.000
    C141     C        0.32060    0.17393    0.41682    1.000
    H70      H        0.35630    0.14130    0.39480    1.000
    C142     C        0.33710    0.17493    0.48254    1.000
    H71      H        0.38310    0.14190    0.50520    1.000
    C143     C        0.19650    0.27129    0.41370    1.000
    H72      H        0.14860    0.30240    0.39020    1.000
    C144     C        0.28560    0.22528    0.51723    1.000
    Mg9      Mg       0.50000    0.24754    0.75000    1.000
    Mg10     Mg       0.00000    0.74754    0.75000    1.000
    Mg11     Mg       0.50000    0.75246    0.25000    1.000
    Mg12     Mg       0.00000    0.25246    0.25000    1.000
