data_functionalizedCrystal
_audit_creation_method	'EQeq! by Chris Wilmer'
_symmetry_space_group_name_H-M	'P1'
_symmetry_Int_Tables_number	1
_symmetry_cell_setting	triclinic
loop_
_symmetry_equiv_pos_as_xyz
  x,y,z
_cell_length_a	6.783
_cell_length_b	18.974
_cell_length_c	9.394
_cell_angle_alpha	90
_cell_angle_beta	90
_cell_angle_gamma	90
loop_
_atom_site_label
_atom_site_type_symbol
_atom_site_fract_x
_atom_site_fract_y
_atom_site_fract_z
_atom_site_charge
Mof_Ba	Ba	0.75	0.75	0.97294	1.724
Mof_Ba	Ba	0.25	0.25	0.52706	1.452
Mof_Ba	Ba	0.25	0.25	0.02706	1.18
Mof_Ba	Ba	0.75	0.75	0.47294	1.482
Mof_Co	Co	0.5	0.5	-0	1.152
Mof_Co	Co	-0	0	-0	1.062
Mof_Co	Co	-2.62353e-33	0.5	0.5	1.168
Mof_Co	Co	0.5	-2.60993e-33	0.5	1.157
Mof_H 	H 	0.6454	0.5845	0.4001	0.221
Mof_H 	H 	0.4362	0.5697	0.338	0.234
Mof_H 	H 	0.8546	0.9155	0.4001	0.13
Mof_H 	H 	0.0638	0.9303	0.338	0.084
Mof_H 	H 	0.1454	0.4155	0.0999	0.239
Mof_H 	H 	0.9362	0.4303	0.162	0.342
Mof_H 	H 	0.3546	0.0845	0.0999	0.221
Mof_H 	H 	0.5638	0.0697	0.162	0.259
Mof_H 	H 	0.3546	0.4155	0.5999	0.212
Mof_H 	H 	0.5638	0.4303	0.662	0.243
Mof_H 	H 	0.1454	0.0845	0.5999	0.292
Mof_H 	H 	0.9362	0.0697	0.662	0.382
Mof_H 	H 	0.8546	0.5845	0.9001	0.2
Mof_H 	H 	0.0638	0.5697	0.838	0.15
Mof_H 	H 	0.6454	0.9155	0.9001	0.214
Mof_H 	H 	0.4362	0.9303	0.838	0.222
Mof_C 	C 	0.6187	0.6157	0.1945	0.578
Mof_C 	C 	0.576	0.5665	0.3174	-0.76
Mof_C 	C 	0.6267	0.4897	0.3032	0.552
Mof_C 	C 	0.8813	0.8843	0.1945	0.468
Mof_C 	C 	0.924	0.9335	0.3174	-0.367
Mof_C 	C 	0.8733	0.0103	0.3032	0.349
Mof_C 	C 	0.1187	0.3843	0.3055	0.603
Mof_C 	C 	0.076	0.4335	0.1826	-0.955
Mof_C 	C 	0.1267	0.5103	0.1968	0.594
Mof_C 	C 	0.3813	0.1157	0.3055	0.588
Mof_C 	C 	0.424	0.0665	0.1826	-0.91
Mof_C 	C 	0.3733	0.9897	0.1968	0.677
Mof_C 	C 	0.3813	0.3843	0.8055	0.539
Mof_C 	C 	0.424	0.4335	0.6826	-0.735
Mof_C 	C 	0.3733	0.5103	0.6968	0.534
Mof_C 	C 	0.1187	0.1157	0.8055	0.635
Mof_C 	C 	0.076	0.0665	0.6826	-1.094
Mof_C 	C 	0.1267	0.9897	0.6968	0.719
Mof_C 	C 	0.8813	0.6157	0.6945	0.522
Mof_C 	C 	0.924	0.5665	0.8174	-0.57
Mof_C 	C 	0.8733	0.4897	0.8032	0.499
Mof_C 	C 	0.6187	0.8843	0.6945	0.531
Mof_C 	C 	0.576	0.9335	0.8174	-0.595
Mof_C 	C 	0.6267	0.0103	0.8032	0.416
Mof_O 	O 	0.6157	0.59368	0.0662	-0.622
Mof_O 	O 	0.6508	0.67884	0.2233	-0.671
Mof_O 	O 	0.5714	0.45585	0.1938	-0.508
Mof_O 	O 	0.7197	0.46084	0.4022	-0.445
Mof_O 	O 	0.8843	0.90632	0.0662	-0.527
Mof_O 	O 	0.8492	0.82116	0.2233	-0.622
Mof_O 	O 	0.9286	0.04415	0.1938	-0.445
Mof_O 	O 	0.7803	0.03916	0.4022	-0.432
Mof_O 	O 	0.1157	0.40632	0.4338	-0.586
Mof_O 	O 	0.1508	0.32116	0.2767	-0.633
Mof_O 	O 	0.0714	0.54415	0.3062	-0.555
Mof_O 	O 	0.2197	0.53916	0.0978	-0.548
Mof_O 	O 	0.3843	0.09368	0.4338	-0.588
Mof_O 	O 	0.3492	0.17884	0.2767	-0.615
Mof_O 	O 	0.4286	0.95585	0.3062	-0.499
Mof_O 	O 	0.2803	0.96084	0.0978	-0.524
Mof_O 	O 	0.3843	0.40632	0.9338	-0.469
Mof_O 	O 	0.3492	0.32116	0.7767	-0.559
Mof_O 	O 	0.4286	0.54415	0.8062	-0.466
Mof_O 	O 	0.2803	0.53916	0.5978	-0.485
Mof_O 	O 	0.1157	0.09368	0.9338	-0.526
Mof_O 	O 	0.1508	0.17884	0.7767	-0.603
Mof_O 	O 	0.0714	0.95585	0.8062	-0.498
Mof_O 	O 	0.2197	0.96084	0.5978	-0.491
Mof_O 	O 	0.8843	0.59368	0.5662	-0.519
Mof_O 	O 	0.8492	0.67884	0.7233	-0.605
Mof_O 	O 	0.9286	0.45585	0.6938	-0.428
Mof_O 	O 	0.7803	0.46084	0.9022	-0.383
Mof_O 	O 	0.6157	0.90632	0.5662	-0.512
Mof_O 	O 	0.6508	0.82116	0.7233	-0.62
Mof_O 	O 	0.5714	0.04415	0.6938	-0.476
Mof_O 	O 	0.7197	0.03916	0.9022	-0.38
_end
