data_functionalizedCrystal
_audit_creation_method	'EQeq! by Chris Wilmer'
_symmetry_space_group_name_H-M	'P1'
_symmetry_Int_Tables_number	1
_symmetry_cell_setting	triclinic
loop_
_symmetry_equiv_pos_as_xyz
  x,y,z
_cell_length_a	15.273
_cell_length_b	8.881
_cell_length_c	15.39
_cell_angle_alpha	90
_cell_angle_beta	109.92
_cell_angle_gamma	90
loop_
_atom_site_label
_atom_site_type_symbol
_atom_site_fract_x
_atom_site_fract_y
_atom_site_fract_z
_atom_site_charge
Mof_C 	C 	0.17649	0.23557	0.0925	-0.303
Mof_N 	N 	0.13539	0.2272	0.1425	-0.248
Mof_C 	C 	0.16837	0.07492	0.92278	-0.209
Mof_N 	N 	0.12288	0.97944	0.87996	-0.255
Mof_C 	C 	0.34533	0.09249	0.08028	-0.287
Mof_N 	N 	0.39591	0.00446	0.12492	-0.272
Mof_C 	C 	0.82351	0.23557	0.4075	-0.272
Mof_N 	N 	0.86461	0.2272	0.3575	-0.154
Mof_C 	C 	0.83163	0.07492	0.57722	-0.27
Mof_N 	N 	0.87712	0.97944	0.62004	-0.16
Mof_C 	C 	0.65467	0.09249	0.41972	-0.306
Mof_N 	N 	0.60409	0.00446	0.37508	-0.246
Mof_C 	C 	0.32351	0.26443	0.9075	-0.189
Mof_N 	N 	0.36461	0.2728	0.8575	-0.275
Mof_C 	C 	0.33163	0.42508	0.07722	-0.287
Mof_N 	N 	0.37712	0.52056	0.12004	-0.278
Mof_C 	C 	0.15467	0.40751	0.91972	-0.207
Mof_N 	N 	0.10409	0.49554	0.87508	-0.259
Mof_C 	C 	0.67649	0.26443	0.5925	-0.296
Mof_N 	N 	0.63539	0.2728	0.6425	-0.247
Mof_C 	C 	0.66837	0.42508	0.42278	-0.3
Mof_N 	N 	0.62288	0.52056	0.37996	-0.25
Mof_C 	C 	0.84533	0.40751	0.58028	-0.263
Mof_N 	N 	0.89591	0.49554	0.62492	-0.15
Mof_K 	K 	0.5	0.74894	0.25	2.12
Mof_K 	K 	-2.89634e-17	0.75106	0.75	1.603
Mof_Cr	Cr	0.25	0.25	-0	0.948
Mof_Cr	Cr	0.75	0.25	0.5	1.314
Mof_C 	C 	0.67649	0.73557	0.0925	-0.272
Mof_N 	N 	0.63539	0.7272	0.1425	-0.262
Mof_C 	C 	0.66837	0.57492	0.92278	-0.172
Mof_N 	N 	0.62288	0.47944	0.87996	-0.272
Mof_C 	C 	0.84533	0.59249	0.08028	-0.241
Mof_N 	N 	0.89591	0.50446	0.12492	-0.166
Mof_C 	C 	0.32351	0.73557	0.4075	-0.31
Mof_N 	N 	0.36461	0.7272	0.3575	-0.251
Mof_C 	C 	0.33163	0.57492	0.57722	-0.306
Mof_N 	N 	0.37712	0.47944	0.62004	-0.263
Mof_C 	C 	0.15467	0.59249	0.41972	-0.332
Mof_N 	N 	0.10409	0.50446	0.37508	-0.237
Mof_C 	C 	0.82351	0.76443	0.9075	-0.148
Mof_N 	N 	0.86461	0.7728	0.8575	-0.178
Mof_C 	C 	0.83163	0.92508	0.07722	-0.249
Mof_N 	N 	0.87712	0.02056	0.12004	-0.175
Mof_C 	C 	0.65467	0.90751	0.91972	-0.178
Mof_N 	N 	0.60409	0.99554	0.87508	-0.269
Mof_C 	C 	0.17649	0.76443	0.5925	-0.326
Mof_N 	N 	0.13539	0.7728	0.6425	-0.234
Mof_C 	C 	0.16837	0.92508	0.42278	-0.329
Mof_N 	N 	0.12288	0.02056	0.37996	-0.237
Mof_C 	C 	0.34533	0.90751	0.58028	-0.307
Mof_N 	N 	0.39591	0.99554	0.62492	-0.256
Mof_K 	K 	1.26634e-33	0.24894	0.25	1.478
Mof_K 	K 	0.5	0.25106	0.75	2.242
Mof_Cr	Cr	0.75	0.75	-0	0.968
Mof_Cr	Cr	0.25	0.75	0.5	1.28
_end
