# CIF file generated by openbabel 3.1.0, see https://openbabel.org
data_I
_chemical_name_common 'image0'
_cell_length_a 22.1408
_cell_length_b 24.5577
_cell_length_c 7.3445
_cell_angle_alpha 90
_cell_angle_beta 90
_cell_angle_gamma 90
_space_group_name_H-M_alt 'P 1'
_space_group_name_Hall 'P 1'
loop_
    _symmetry_equiv_pos_as_xyz
    x,y,z
loop_
    _atom_site_label
    _atom_site_type_symbol
    _atom_site_fract_x
    _atom_site_fract_y
    _atom_site_fract_z
    _atom_site_occupancy
    Ce1      Ce       0.26041    0.26753    0.78177    1.000
    O1       O        0.63150    0.79640    0.25050    1.000
    O2       O        0.68090    0.78960    0.98700    1.000
    O3       O        0.80230    0.78590    0.98730    1.000
    O4       O        0.84730    0.80570    0.24600    1.000
    O5       O        0.26490    0.13240    0.33980    1.000
    O6       O        0.26110    0.18580    0.57940    1.000
    N1       N        0.24190    0.83310    0.40420    1.000
    C1       C        0.26300    0.13770    0.51180    1.000
    C2       C        0.01520    0.82330    0.78800    1.000
    C3       C        0.57380    0.82130    0.79200    1.000
    H1       H        0.60980    0.82530    0.72850    1.000
    C4       C        0.90700    0.81410    0.78400    1.000
    H2       H        0.87130    0.81100    0.71840    1.000
    C5       C        0.46280    0.82080    0.80300    1.000
    C6       C        0.23810    0.87050    0.26400    1.000
    C7       C        0.63040    0.79850    0.08320    1.000
    C8       C        0.57470    0.80830    0.98120    1.000
    C9       C        0.90510    0.81310    0.97190    1.000
    C10      C        0.26680    0.03750    0.56300    1.000
    H3       H        0.27450    0.03230    0.43940    1.000
    C11      C        0.19800    0.91530    0.25700    1.000
    H4       H        0.16780    0.91810    0.34450    1.000
    C12      C        0.25080    0.99820    0.86700    1.000
    C13      C        0.51830    0.80290    0.07500    1.000
    H5       H        0.51820    0.79530    0.19890    1.000
    C14      C        0.26240    0.99250    0.67800    1.000
    H6       H        0.26720    0.95780    0.63010    1.000
    C15      C        0.28270    0.90660    0.98120    1.000
    H7       H        0.31070    0.90320    0.88750    1.000
    C16      C        0.84870    0.80050    0.07810    1.000
    C17      C        0.25980    0.08890    0.63000    1.000
    C18      C        0.25190    0.09620    0.81200    1.000
    H8       H        0.25110    0.13130    0.85900    1.000
    C19      C        0.24530    0.95250    0.98790    1.000
    C20      C        0.95880    0.81880    0.06910    1.000
    H9       H        0.95840    0.81920    0.19570    1.000
    C21      C        0.51900    0.82800    0.70480    1.000
    H10      H        0.51830    0.83720    0.58190    1.000
    C22      C        0.12520    0.84850    0.77400    1.000
    H11      H        0.12250    0.86260    0.89070    1.000
    C23      C        0.40510    0.82410    0.69920    1.000
    C24      C        0.29580    0.83050    0.50470    1.000
    C25      C        0.96150    0.81970    0.69200    1.000
    H12      H        0.96190    0.82100    0.56550    1.000
    C26      C        0.20230    0.95440    0.12660    1.000
    H13      H        0.17550    0.98350    0.12980    1.000
    C27      C        0.07390    0.82500    0.68480    1.000
    C28      C        0.13510    0.80280    0.42160    1.000
    H14      H        0.13850    0.78730    0.30660    1.000
    C29      C        0.27880    0.86630    0.11060    1.000
    H15      H        0.30290    0.83550    0.09920    1.000
    C30      C        0.35710    0.78730    0.73340    1.000
    H16      H        0.36140    0.76080    0.82270    1.000
    C31      C        0.17980    0.84920    0.67680    1.000
    H17      H        0.21320    0.86550    0.73130    1.000
    C32      C        0.24490    0.05140    0.93200    1.000
    H18      H        0.23620    0.05740    0.05390    1.000
    C33      C        0.01290    0.82400    0.97580    1.000
    H19      H        0.04860    0.82810    0.04130    1.000
    C34      C        0.46370    0.80870    0.98370    1.000
    H20      H        0.42760    0.80420    0.04660    1.000
    C35      C        0.08090    0.80240    0.51140    1.000
    H21      H        0.04760    0.78650    0.45510    1.000
    C36      C        0.34420    0.86800    0.46800    1.000
    C37      C        0.18670    0.82750    0.50710    1.000
    C38      C        0.39650    0.86410    0.56400    1.000
    C39      C        0.30400    0.79060    0.63520    1.000
    Ce2      Ce       0.73959    0.73247    0.78177    1.000
    O7       O        0.36850    0.20360    0.25050    1.000
    O8       O        0.31910    0.21040    0.98700    1.000
    O9       O        0.19770    0.21410    0.98730    1.000
    O10      O        0.15270    0.19430    0.24600    1.000
    O11      O        0.73510    0.86760    0.33980    1.000
    O12      O        0.73890    0.81420    0.57940    1.000
    N2       N        0.75810    0.16690    0.40420    1.000
    C40      C        0.73700    0.86230    0.51180    1.000
    C41      C        0.98480    0.17670    0.78800    1.000
    C42      C        0.42620    0.17870    0.79200    1.000
    H22      H        0.39020    0.17470    0.72850    1.000
    C43      C        0.09300    0.18590    0.78400    1.000
    H23      H        0.12870    0.18900    0.71840    1.000
    C44      C        0.53720    0.17920    0.80300    1.000
    C45      C        0.76190    0.12950    0.26400    1.000
    C46      C        0.36960    0.20150    0.08320    1.000
    C47      C        0.42530    0.19170    0.98120    1.000
    C48      C        0.09490    0.18690    0.97190    1.000
    C49      C        0.73320    0.96250    0.56300    1.000
    H24      H        0.72550    0.96770    0.43940    1.000
    C50      C        0.80200    0.08470    0.25700    1.000
    H25      H        0.83220    0.08190    0.34450    1.000
    C51      C        0.74920    0.00180    0.86700    1.000
    C52      C        0.48170    0.19710    0.07500    1.000
    H26      H        0.48180    0.20470    0.19890    1.000
    C53      C        0.73760    0.00750    0.67800    1.000
    H27      H        0.73280    0.04220    0.63010    1.000
    C54      C        0.71730    0.09340    0.98120    1.000
    H28      H        0.68930    0.09680    0.88750    1.000
    C55      C        0.15130    0.19950    0.07810    1.000
    C56      C        0.74020    0.91110    0.63000    1.000
    C57      C        0.74810    0.90380    0.81200    1.000
    H29      H        0.74890    0.86870    0.85900    1.000
    C58      C        0.75470    0.04750    0.98790    1.000
    C59      C        0.04120    0.18120    0.06910    1.000
    H30      H        0.04160    0.18080    0.19570    1.000
    C60      C        0.48100    0.17200    0.70480    1.000
    H31      H        0.48170    0.16280    0.58190    1.000
    C61      C        0.87480    0.15150    0.77400    1.000
    H32      H        0.87750    0.13740    0.89070    1.000
    C62      C        0.59490    0.17590    0.69920    1.000
    C63      C        0.70420    0.16950    0.50470    1.000
    C64      C        0.03850    0.18030    0.69200    1.000
    H33      H        0.03810    0.17900    0.56550    1.000
    C65      C        0.79770    0.04560    0.12660    1.000
    H34      H        0.82450    0.01650    0.12980    1.000
    C66      C        0.92610    0.17500    0.68480    1.000
    C67      C        0.86490    0.19720    0.42160    1.000
    H35      H        0.86150    0.21270    0.30660    1.000
    C68      C        0.72120    0.13370    0.11060    1.000
    H36      H        0.69710    0.16450    0.09920    1.000
    C69      C        0.64290    0.21270    0.73340    1.000
    H37      H        0.63860    0.23920    0.82270    1.000
    C70      C        0.82020    0.15080    0.67680    1.000
    H38      H        0.78680    0.13450    0.73130    1.000
    C71      C        0.75510    0.94860    0.93200    1.000
    H39      H        0.76380    0.94260    0.05390    1.000
    C72      C        0.98710    0.17600    0.97580    1.000
    H40      H        0.95140    0.17190    0.04130    1.000
    C73      C        0.53630    0.19130    0.98370    1.000
    H41      H        0.57240    0.19580    0.04660    1.000
    C74      C        0.91910    0.19760    0.51140    1.000
    H42      H        0.95240    0.21350    0.45510    1.000
    C75      C        0.65580    0.13200    0.46800    1.000
    C76      C        0.81330    0.17250    0.50710    1.000
    C77      C        0.60350    0.13590    0.56400    1.000
    C78      C        0.69600    0.20940    0.63520    1.000
    Ce3      Ce       0.26041    0.23247    0.28177    1.000
    O13      O        0.63150    0.70360    0.75050    1.000
    O14      O        0.68090    0.71040    0.48700    1.000
    O15      O        0.80230    0.71410    0.48730    1.000
    O16      O        0.84730    0.69430    0.74600    1.000
    O17      O        0.26490    0.36760    0.83980    1.000
    O18      O        0.26110    0.31420    0.07940    1.000
    N3       N        0.24190    0.66690    0.90420    1.000
    C79      C        0.26300    0.36230    0.01180    1.000
    C80      C        0.01520    0.67670    0.28800    1.000
    C81      C        0.57380    0.67870    0.29200    1.000
    H43      H        0.60980    0.67470    0.22850    1.000
    C82      C        0.90700    0.68590    0.28400    1.000
    H44      H        0.87130    0.68900    0.21840    1.000
    C83      C        0.46280    0.67920    0.30300    1.000
    C84      C        0.23810    0.62950    0.76400    1.000
    C85      C        0.63040    0.70150    0.58320    1.000
    C86      C        0.57470    0.69170    0.48120    1.000
    C87      C        0.90510    0.68690    0.47190    1.000
    C88      C        0.26680    0.46250    0.06300    1.000
    H45      H        0.27450    0.46770    0.93940    1.000
    C89      C        0.19800    0.58470    0.75700    1.000
    H46      H        0.16780    0.58190    0.84450    1.000
    C90      C        0.25080    0.50180    0.36700    1.000
    C91      C        0.51830    0.69710    0.57500    1.000
    H47      H        0.51820    0.70470    0.69890    1.000
    C92      C        0.26240    0.50750    0.17800    1.000
    H48      H        0.26720    0.54220    0.13010    1.000
    C93      C        0.28270    0.59340    0.48120    1.000
    H49      H        0.31070    0.59680    0.38750    1.000
    C94      C        0.84870    0.69950    0.57810    1.000
    C95      C        0.25980    0.41110    0.13000    1.000
    C96      C        0.25190    0.40380    0.31200    1.000
    H50      H        0.25110    0.36870    0.35900    1.000
    C97      C        0.24530    0.54750    0.48790    1.000
    C98      C        0.95880    0.68120    0.56910    1.000
    H51      H        0.95840    0.68080    0.69570    1.000
    C99      C        0.51900    0.67200    0.20480    1.000
    H52      H        0.51830    0.66280    0.08190    1.000
    C100     C        0.12520    0.65150    0.27400    1.000
    H53      H        0.12250    0.63740    0.39070    1.000
    C101     C        0.40510    0.67590    0.19920    1.000
    C102     C        0.29580    0.66950    0.00470    1.000
    C103     C        0.96150    0.68030    0.19200    1.000
    H54      H        0.96190    0.67900    0.06550    1.000
    C104     C        0.20230    0.54560    0.62660    1.000
    H55      H        0.17550    0.51650    0.62980    1.000
    C105     C        0.07390    0.67500    0.18480    1.000
    C106     C        0.13510    0.69720    0.92160    1.000
    H56      H        0.13850    0.71270    0.80660    1.000
    C107     C        0.27880    0.63370    0.61060    1.000
    H57      H        0.30290    0.66450    0.59920    1.000
    C108     C        0.35710    0.71270    0.23340    1.000
    H58      H        0.36140    0.73920    0.32270    1.000
    C109     C        0.17980    0.65080    0.17680    1.000
    H59      H        0.21320    0.63450    0.23130    1.000
    C110     C        0.24490    0.44860    0.43200    1.000
    H60      H        0.23620    0.44260    0.55390    1.000
    C111     C        0.01290    0.67600    0.47580    1.000
    H61      H        0.04860    0.67190    0.54130    1.000
    C112     C        0.46370    0.69130    0.48370    1.000
    H62      H        0.42760    0.69580    0.54660    1.000
    C113     C        0.08090    0.69760    0.01140    1.000
    H63      H        0.04760    0.71350    0.95510    1.000
    C114     C        0.34420    0.63200    0.96800    1.000
    C115     C        0.18670    0.67250    0.00710    1.000
    C116     C        0.39650    0.63590    0.06400    1.000
    C117     C        0.30400    0.70940    0.13520    1.000
    Ce4      Ce       0.73959    0.76753    0.28177    1.000
    O19      O        0.36850    0.29640    0.75050    1.000
    O20      O        0.31910    0.28960    0.48700    1.000
    O21      O        0.19770    0.28590    0.48730    1.000
    O22      O        0.15270    0.30570    0.74600    1.000
    O23      O        0.73510    0.63240    0.83980    1.000
    O24      O        0.73890    0.68580    0.07940    1.000
    N4       N        0.75810    0.33310    0.90420    1.000
    C118     C        0.73700    0.63770    0.01180    1.000
    C119     C        0.98480    0.32330    0.28800    1.000
    C120     C        0.42620    0.32130    0.29200    1.000
    H64      H        0.39020    0.32530    0.22850    1.000
    C121     C        0.09300    0.31410    0.28400    1.000
    H65      H        0.12870    0.31100    0.21840    1.000
    C122     C        0.53720    0.32080    0.30300    1.000
    C123     C        0.76190    0.37050    0.76400    1.000
    C124     C        0.36960    0.29850    0.58320    1.000
    C125     C        0.42530    0.30830    0.48120    1.000
    C126     C        0.09490    0.31310    0.47190    1.000
    C127     C        0.73320    0.53750    0.06300    1.000
    H66      H        0.72550    0.53230    0.93940    1.000
    C128     C        0.80200    0.41530    0.75700    1.000
    H67      H        0.83220    0.41810    0.84450    1.000
    C129     C        0.74920    0.49820    0.36700    1.000
    C130     C        0.48170    0.30290    0.57500    1.000
    H68      H        0.48180    0.29530    0.69890    1.000
    C131     C        0.73760    0.49250    0.17800    1.000
    H69      H        0.73280    0.45780    0.13010    1.000
    C132     C        0.71730    0.40660    0.48120    1.000
    H70      H        0.68930    0.40320    0.38750    1.000
    C133     C        0.15130    0.30050    0.57810    1.000
    C134     C        0.74020    0.58890    0.13000    1.000
    C135     C        0.74810    0.59620    0.31200    1.000
    H71      H        0.74890    0.63130    0.35900    1.000
    C136     C        0.75470    0.45250    0.48790    1.000
    C137     C        0.04120    0.31880    0.56910    1.000
    H72      H        0.04160    0.31920    0.69570    1.000
    C138     C        0.48100    0.32800    0.20480    1.000
    H73      H        0.48170    0.33720    0.08190    1.000
    C139     C        0.87480    0.34850    0.27400    1.000
    H74      H        0.87750    0.36260    0.39070    1.000
    C140     C        0.59490    0.32410    0.19920    1.000
    C141     C        0.70420    0.33050    0.00470    1.000
    C142     C        0.03850    0.31970    0.19200    1.000
    H75      H        0.03810    0.32100    0.06550    1.000
    C143     C        0.79770    0.45440    0.62660    1.000
    H76      H        0.82450    0.48350    0.62980    1.000
    C144     C        0.92610    0.32500    0.18480    1.000
    C145     C        0.86490    0.30280    0.92160    1.000
    H77      H        0.86150    0.28730    0.80660    1.000
    C146     C        0.72120    0.36630    0.61060    1.000
    H78      H        0.69710    0.33550    0.59920    1.000
    C147     C        0.64290    0.28730    0.23340    1.000
    H79      H        0.63860    0.26080    0.32270    1.000
    C148     C        0.82020    0.34920    0.17680    1.000
    H80      H        0.78680    0.36550    0.23130    1.000
    C149     C        0.75510    0.55140    0.43200    1.000
    H81      H        0.76380    0.55740    0.55390    1.000
    C150     C        0.98710    0.32400    0.47580    1.000
    H82      H        0.95140    0.32810    0.54130    1.000
    C151     C        0.53630    0.30870    0.48370    1.000
    H83      H        0.57240    0.30420    0.54660    1.000
    C152     C        0.91910    0.30240    0.01140    1.000
    H84      H        0.95240    0.28650    0.95510    1.000
    C153     C        0.65580    0.36800    0.96800    1.000
    C154     C        0.81330    0.32750    0.00710    1.000
    C155     C        0.60350    0.36410    0.06400    1.000
    C156     C        0.69600    0.29060    0.13520    1.000
