data_functionalizedCrystal
_audit_creation_method	'EQeq! by Chris Wilmer'
_symmetry_space_group_name_H-M	'P1'
_symmetry_Int_Tables_number	1
_symmetry_cell_setting	triclinic
loop_
_symmetry_equiv_pos_as_xyz
  x,y,z
_cell_length_a	10.443
_cell_length_b	11.542
_cell_length_c	13.197
_cell_angle_alpha	87.51
_cell_angle_beta	70.648
_cell_angle_gamma	85.711
loop_
_atom_site_label
_atom_site_type_symbol
_atom_site_fract_x
_atom_site_fract_y
_atom_site_fract_z
_atom_site_charge
Mof_Cd	Cd	0.61267	0.88678	0.04891	0.453
Mof_O 	O 	0.4885	0.0752	0.085	-0.321
Mof_O 	O 	0.5795	0.0092	0.2048	-0.311
Mof_O 	O 	0.7205	0.71	0.9641	-0.313
Mof_O 	O 	0.7426	0.7398	0.1211	-0.299
Mof_N 	N 	0.807	0.9765	0.9486	-0.116
Mof_N 	N 	0.0447	0.9938	0.5925	-0.08
Mof_N 	N 	0.4315	0.7877	0.1588	-0.123
Mof_N 	N 	0.4222	0.5806	0.4581	-0.082
Mof_C 	C 	0.2459	0.6681	0.1885	-0.058
Mof_H 	H 	0.1845	0.6361	0.162	0.046
Mof_C 	C 	0.8489	0.0707	0.9815	0.014
Mof_H 	H 	0.7983	0.1013	0.0479	0.04
Mof_C 	C 	0.9646	0.1237	0.9203	-0.037
Mof_H 	H 	0.99	0.1899	0.9446	0.049
Mof_C 	C 	0.0416	0.0779	0.8233	-0.077
Mof_H 	H 	0.1209	0.1116	0.782	0.075
Mof_C 	C 	0.0004	0.9812	0.7874	0.051
Mof_C 	C 	0.882	0.9333	0.8547	-0.014
Mof_H 	H 	0.8543	0.8672	0.8321	0.044
Mof_C 	C 	0.0762	0.9283	0.6806	-0.13
Mof_H 	H 	0.1732	0.9272	0.6682	0.071
Mof_H 	H 	0.0521	0.8487	0.6813	0.063
Mof_C 	C 	0.9007	0.9944	0.6032	-0.055
Mof_H 	H 	0.8463	0.0316	0.6696	0.053
Mof_H 	H 	0.8746	0.9151	0.6064	0.048
Mof_C 	C 	0.1265	0.9416	0.4904	-0.065
Mof_H 	H 	0.1055	0.8611	0.4908	0.051
Mof_H 	H 	0.2221	0.9431	0.4821	0.047
Mof_C 	C 	0.343	0.7372	0.124	0.034
Mof_H 	H 	0.3475	0.7497	0.0528	0.031
Mof_C 	C 	0.241	0.6467	0.2944	-0.065
Mof_H 	H 	0.177	0.599	0.3392	0.048
Mof_C 	C 	0.3317	0.6968	0.3322	0.035
Mof_C 	C 	0.426	0.7671	0.2606	-0.014
Mof_H 	H 	0.4879	0.8012	0.285	0.052
Mof_C 	C 	0.3329	0.6789	0.4462	-0.123
Mof_H 	H 	0.3617	0.7486	0.4685	0.062
Mof_H 	H 	0.2412	0.667	0.4933	0.061
Mof_C 	C 	0.5457	0.5627	0.4007	-0.027
Mof_H 	H 	0.5956	0.6267	0.4102	0.042
Mof_H 	H 	0.5507	0.5641	0.3259	0.044
Mof_C 	C 	0.3828	0.5499	0.5771	-0.067
Mof_H 	H 	0.4049	0.6124	0.614	0.025
Mof_H 	H 	0.2852	0.5431	0.6059	0.037
Mof_C 	C 	0.7596	0.677	0.0407	0.391
Mof_C 	C 	0.8271	0.5566	0.0405	-0.424
Mof_H 	H 	0.8943	0.5582	0.0764	0.152
Mof_H 	H 	0.8744	0.5341	0.9668	0.152
Mof_C 	C 	0.7271	0.4657	0.0957	0.139
Mof_C 	C 	0.5932	0.4745	0.0974	-0.092
Mof_H 	H 	0.5618	0.5398	0.0667	0.076
Mof_C 	C 	0.7689	0.3678	0.1441	-0.098
Mof_H 	H 	0.8578	0.3598	0.1452	0.056
Mof_C 	C 	0.5056	0.389	0.1434	-0.118
Mof_H 	H 	0.4165	0.3971	0.1431	0.082
Mof_C 	C 	0.6823	0.2829	0.1904	-0.118
Mof_H 	H 	0.7131	0.2185	0.2227	0.072
Mof_C 	C 	0.5496	0.291	0.1901	0.161
Mof_C 	C 	0.4548	0.194	0.2375	-0.449
Mof_H 	H 	0.4484	0.1792	0.3119	0.163
Mof_H 	H 	0.3645	0.2169	0.2353	0.169
Mof_C 	C 	0.5096	0.0848	0.1733	0.411
Mof_C 	C 	0.4251	0.4807	0.4287	-0.014
Mof_H 	H 	0.4286	0.4837	0.3543	0.034
Mof_H 	H 	0.3407	0.4474	0.4707	0.033
Mof_C 	C 	0.4549	0.602	0.562	-0.059
Mof_H 	H 	0.4779	0.6819	0.5618	0.034
Mof_H 	H 	0.3749	0.5902	0.624	0.049
Mof_Cd	Cd	0.38733	0.11322	0.95109	0.452
Mof_O 	O 	0.5115	0.9248	0.915	-0.322
Mof_O 	O 	0.4205	0.9908	0.7952	-0.311
Mof_O 	O 	0.2795	0.29	0.0359	-0.313
Mof_O 	O 	0.2574	0.2602	0.8789	-0.299
Mof_N 	N 	0.193	0.0235	0.0514	-0.116
Mof_N 	N 	0.9553	0.0062	0.4075	-0.08
Mof_N 	N 	0.5685	0.2123	0.8412	-0.123
Mof_N 	N 	0.5778	0.4194	0.5419	-0.082
Mof_C 	C 	0.7541	0.3319	0.8115	-0.058
Mof_H 	H 	0.8155	0.3639	0.838	0.046
Mof_C 	C 	0.1511	0.9293	0.0185	0.014
Mof_H 	H 	0.2017	0.8987	0.9521	0.04
Mof_C 	C 	0.0354	0.8763	0.0797	-0.037
Mof_H 	H 	0.01	0.8101	0.0554	0.049
Mof_C 	C 	0.9584	0.9221	0.1767	-0.077
Mof_H 	H 	0.8791	0.8884	0.218	0.075
Mof_C 	C 	0.9996	0.0188	0.2126	0.051
Mof_C 	C 	0.118	0.0667	0.1453	-0.014
Mof_H 	H 	0.1457	0.1328	0.1679	0.044
Mof_C 	C 	0.9238	0.0717	0.3194	-0.13
Mof_H 	H 	0.8268	0.0728	0.3318	0.071
Mof_H 	H 	0.9479	0.1513	0.3187	0.063
Mof_C 	C 	0.0993	0.0056	0.3968	-0.055
Mof_H 	H 	0.1537	0.9684	0.3304	0.053
Mof_H 	H 	0.1254	0.0849	0.3936	0.048
Mof_C 	C 	0.8735	0.0584	0.5096	-0.065
Mof_H 	H 	0.8945	0.1389	0.5092	0.051
Mof_H 	H 	0.7779	0.0569	0.5179	0.047
Mof_C 	C 	0.657	0.2628	0.876	0.034
Mof_H 	H 	0.6525	0.2503	0.9472	0.031
Mof_C 	C 	0.759	0.3533	0.7056	-0.065
Mof_H 	H 	0.823	0.401	0.6608	0.048
Mof_C 	C 	0.6683	0.3032	0.6678	0.035
Mof_C 	C 	0.574	0.2329	0.7394	-0.014
Mof_H 	H 	0.5121	0.1988	0.715	0.052
Mof_C 	C 	0.6671	0.3211	0.5538	-0.123
Mof_H 	H 	0.6383	0.2514	0.5315	0.062
Mof_H 	H 	0.7588	0.333	0.5067	0.061
Mof_C 	C 	0.4543	0.4373	0.5993	-0.027
Mof_H 	H 	0.4044	0.3733	0.5898	0.042
Mof_H 	H 	0.4493	0.4359	0.6741	0.044
Mof_C 	C 	0.6172	0.4501	0.4229	-0.067
Mof_H 	H 	0.5951	0.3876	0.386	0.025
Mof_H 	H 	0.7148	0.4569	0.3941	0.037
Mof_C 	C 	0.2404	0.323	0.9593	0.391
Mof_C 	C 	0.1729	0.4434	0.9595	-0.424
Mof_H 	H 	0.1057	0.4418	0.9236	0.152
Mof_H 	H 	0.1256	0.4659	0.0332	0.152
Mof_C 	C 	0.2729	0.5343	0.9043	0.139
Mof_C 	C 	0.4068	0.5255	0.9026	-0.092
Mof_H 	H 	0.4382	0.4602	0.9333	0.076
Mof_C 	C 	0.2311	0.6322	0.8559	-0.098
Mof_H 	H 	0.1422	0.6402	0.8548	0.056
Mof_C 	C 	0.4944	0.611	0.8566	-0.118
Mof_H 	H 	0.5835	0.6029	0.8569	0.082
Mof_C 	C 	0.3177	0.7171	0.8096	-0.118
Mof_H 	H 	0.2869	0.7815	0.7773	0.072
Mof_C 	C 	0.4504	0.709	0.8099	0.161
Mof_C 	C 	0.5452	0.806	0.7625	-0.449
Mof_H 	H 	0.5516	0.8208	0.6881	0.163
Mof_H 	H 	0.6355	0.7831	0.7647	0.169
Mof_C 	C 	0.4904	0.9152	0.8267	0.411
Mof_C 	C 	0.5749	0.5193	0.5713	-0.014
Mof_H 	H 	0.5714	0.5163	0.6457	0.034
Mof_H 	H 	0.6593	0.5526	0.5293	0.033
Mof_C 	C 	0.5451	0.398	0.438	-0.059
Mof_H 	H 	0.5221	0.3181	0.4382	0.034
Mof_H 	H 	0.6251	0.4098	0.376	0.049
_end
