data_functionalizedCrystal
_audit_creation_method	'EQeq! by Chris Wilmer'
_symmetry_space_group_name_H-M	'P1'
_symmetry_Int_Tables_number	1
_symmetry_cell_setting	triclinic
loop_
_symmetry_equiv_pos_as_xyz
  x,y,z
_cell_length_a	8.267
_cell_length_b	13.344
_cell_length_c	14.724
_cell_angle_alpha	90
_cell_angle_beta	90
_cell_angle_gamma	105.84
loop_
_atom_site_label
_atom_site_type_symbol
_atom_site_fract_x
_atom_site_fract_y
_atom_site_fract_z
_atom_site_charge
Mof_Co	Co	0.3166	0.36953	0.08315	1.156
Mof_Co	Co	0.1834	0.63047	0.58315	1.157
Mof_Co	Co	0.6834	0.63047	0.91685	1.156
Mof_Co	Co	0.8166	0.36953	0.41685	1.157
Mof_H 	H 	0.1202	0.6766	0.3008	-0.032
Mof_H 	H 	0.2201	0.5846	0.0561	-0.013
Mof_H 	H 	0.0085	0.7249	0.1194	-0.157
Mof_H 	H 	0.1818	0.753	0.0696	-0.161
Mof_H 	H 	0.2959	0.8556	0.191	0.385
Mof_H 	H 	0.1569	0.8933	0.1398	0.391
Mof_H 	H 	0.1146	0.8335	0.2322	0.384
Mof_H 	H 	0.5909	0.2681	0.1094	0.021
Mof_H 	H 	0.6719	0.1219	0.0842	0.072
Mof_H 	H 	0.2589	0.015	0.9358	0.063
Mof_H 	H 	0.1968	0.1685	0.9617	-0.021
Mof_H 	H 	0.3798	0.3234	0.8008	-0.033
Mof_H 	H 	0.2799	0.4154	0.5561	-0.013
Mof_H 	H 	0.4915	0.2751	0.6194	-0.156
Mof_H 	H 	0.3182	0.247	0.5696	-0.16
Mof_H 	H 	0.2041	0.1444	0.691	0.385
Mof_H 	H 	0.3431	0.1067	0.6398	0.391
Mof_H 	H 	0.3854	0.1665	0.7322	0.384
Mof_H 	H 	0.9091	0.7319	0.6094	0.021
Mof_H 	H 	0.8281	0.8781	0.5842	0.072
Mof_H 	H 	0.2411	0.985	0.4358	0.063
Mof_H 	H 	0.3032	0.8315	0.4617	-0.021
Mof_H 	H 	0.8798	0.3234	0.6992	-0.033
Mof_H 	H 	0.7799	0.4154	0.9439	-0.014
Mof_H 	H 	0.9915	0.2751	0.8806	-0.157
Mof_H 	H 	0.8182	0.247	0.9304	-0.161
Mof_H 	H 	0.7041	0.1444	0.809	0.385
Mof_H 	H 	0.8431	0.1067	0.8602	0.391
Mof_H 	H 	0.8854	0.1665	0.7678	0.384
Mof_H 	H 	0.4091	0.7319	0.8906	0.021
Mof_H 	H 	0.3281	0.8781	0.9158	0.072
Mof_H 	H 	0.7411	0.985	0.0642	0.063
Mof_H 	H 	0.8032	0.8315	0.0383	-0.021
Mof_H 	H 	0.6202	0.6766	0.1992	-0.033
Mof_H 	H 	0.7201	0.5846	0.4439	-0.013
Mof_H 	H 	0.5085	0.7249	0.3806	-0.156
Mof_H 	H 	0.6818	0.753	0.4304	-0.16
Mof_H 	H 	0.7959	0.8556	0.309	0.385
Mof_H 	H 	0.6569	0.8933	0.3602	0.391
Mof_H 	H 	0.6146	0.8335	0.2678	0.384
Mof_H 	H 	0.0909	0.2681	0.3906	0.021
Mof_H 	H 	0.1719	0.1219	0.4158	0.072
Mof_H 	H 	0.7589	0.015	0.5642	0.063
Mof_H 	H 	0.6968	0.1685	0.5383	-0.021
Mof_C 	C 	0.3208	0.394	0.2774	0.281
Mof_C 	C 	0.2524	0.4809	0.244	0.031
Mof_C 	C 	0.1567	0.6312	0.2633	0.162
Mof_C 	C 	0.1686	0.6505	0.1712	-0.289
Mof_C 	C 	0.2173	0.5766	0.1189	0.166
Mof_C 	C 	0.1681	0.5291	0.4024	0.423
Mof_C 	C 	0.129	0.7423	0.129	0.639
Mof_C 	C 	0.1781	0.8392	0.1769	-1.238
Mof_C 	C 	0.5223	0.216	0.0738	0.074
Mof_C 	C 	0.5718	0.1279	0.0591	-0.135
Mof_C 	C 	0.476	0.0487	0.0079	0.043
Mof_C 	C 	0.3303	0.0658	0.9715	-0.156
Mof_C 	C 	0.2926	0.158	0.9887	0.082
Mof_C 	C 	0.1967	0.5475	0.3015	-0.164
Mof_C 	C 	0.1792	0.606	0.7774	0.281
Mof_C 	C 	0.2476	0.5191	0.744	0.032
Mof_C 	C 	0.3433	0.3688	0.7633	0.162
Mof_C 	C 	0.3314	0.3495	0.6712	-0.288
Mof_C 	C 	0.2827	0.4234	0.6189	0.166
Mof_C 	C 	0.3319	0.4709	0.9024	0.423
Mof_C 	C 	0.371	0.2577	0.629	0.638
Mof_C 	C 	0.3219	0.1608	0.6769	-1.237
Mof_C 	C 	0.9777	0.784	0.5738	0.074
Mof_C 	C 	0.9282	0.8721	0.5591	-0.135
Mof_C 	C 	0.024	0.9513	0.5079	0.043
Mof_C 	C 	0.1697	0.9342	0.4715	-0.156
Mof_C 	C 	0.2074	0.842	0.4887	0.082
Mof_C 	C 	0.3033	0.4525	0.8015	-0.164
Mof_C 	C 	0.6792	0.606	0.7226	0.281
Mof_C 	C 	0.7476	0.5191	0.756	0.031
Mof_C 	C 	0.8433	0.3688	0.7367	0.162
Mof_C 	C 	0.8314	0.3495	0.8288	-0.289
Mof_C 	C 	0.7827	0.4234	0.8811	0.166
Mof_C 	C 	0.8319	0.4709	0.5976	0.423
Mof_C 	C 	0.871	0.2577	0.871	0.639
Mof_C 	C 	0.8219	0.1608	0.8231	-1.238
Mof_C 	C 	0.4777	0.784	0.9262	0.074
Mof_C 	C 	0.4282	0.8721	0.9409	-0.135
Mof_C 	C 	0.524	0.9513	0.9921	0.043
Mof_C 	C 	0.6697	0.9342	0.0285	-0.156
Mof_C 	C 	0.7074	0.842	0.0113	0.082
Mof_C 	C 	0.8033	0.4525	0.6985	-0.164
Mof_C 	C 	0.8208	0.394	0.2226	0.281
Mof_C 	C 	0.7524	0.4809	0.256	0.032
Mof_C 	C 	0.6567	0.6312	0.2367	0.162
Mof_C 	C 	0.6686	0.6505	0.3288	-0.288
Mof_C 	C 	0.7173	0.5766	0.3811	0.166
Mof_C 	C 	0.6681	0.5291	0.0976	0.423
Mof_C 	C 	0.629	0.7423	0.371	0.638
Mof_C 	C 	0.6781	0.8392	0.3231	-1.237
Mof_C 	C 	0.0223	0.216	0.4262	0.074
Mof_C 	C 	0.0718	0.1279	0.4409	-0.135
Mof_C 	C 	0.976	0.0487	0.4921	0.043
Mof_C 	C 	0.8303	0.0658	0.5285	-0.156
Mof_C 	C 	0.7926	0.158	0.5113	0.082
Mof_C 	C 	0.6967	0.5475	0.1985	-0.164
Mof_N 	N 	0.2601	0.4953	0.15346	-0.241
Mof_N 	N 	0.3822	0.2319	0.04042	-0.235
Mof_N 	N 	0.2399	0.5047	0.65346	-0.24
Mof_N 	N 	0.1178	0.7681	0.54042	-0.234
Mof_N 	N 	0.7399	0.5047	0.84654	-0.241
Mof_N 	N 	0.6178	0.7681	0.95958	-0.235
Mof_N 	N 	0.7601	0.4953	0.34654	-0.24
Mof_N 	N 	0.8822	0.2319	0.45958	-0.234
Mof_O 	O 	0.3377	0.32848	0.21819	-0.395
Mof_O 	O 	0.3585	0.39266	0.35778	-0.25
Mof_O 	O 	0.0674	0.44628	0.42838	-0.445
Mof_O 	O 	0.2431	0.60258	0.45249	-0.444
Mof_O 	O 	0.1623	0.67152	0.71819	-0.395
Mof_O 	O 	0.1415	0.60734	0.85778	-0.25
Mof_O 	O 	0.4326	0.55372	0.92838	-0.445
Mof_O 	O 	0.2569	0.39742	0.95249	-0.443
Mof_O 	O 	0.6623	0.67152	0.78181	-0.395
Mof_O 	O 	0.6415	0.60734	0.64222	-0.25
Mof_O 	O 	0.9326	0.55372	0.57162	-0.445
Mof_O 	O 	0.7569	0.39742	0.54751	-0.444
Mof_O 	O 	0.8377	0.32848	0.28181	-0.395
Mof_O 	O 	0.8585	0.39266	0.14222	-0.25
Mof_O 	O 	0.5674	0.44628	0.07162	-0.445
Mof_O 	O 	0.7431	0.60258	0.04751	-0.443
_end
