data_functionalizedCrystal
_audit_creation_method	'EQeq! by Chris Wilmer'
_symmetry_space_group_name_H-M	'P1'
_symmetry_Int_Tables_number	1
_symmetry_cell_setting	triclinic
loop_
_symmetry_equiv_pos_as_xyz
  x,y,z
_cell_length_a	7.5883
_cell_length_b	15.7838
_cell_length_c	15.7838
_cell_angle_alpha	94.2825
_cell_angle_beta	99.4787
_cell_angle_gamma	99.4787
loop_
_atom_site_label
_atom_site_type_symbol
_atom_site_fract_x
_atom_site_fract_y
_atom_site_fract_z
_atom_site_charge
Mof_Zn	Zn	0.20158	0.50695	0.62315	1.245
Mof_Zn	Zn	0.70158	0.62315	0.50695	1.244
Mof_H 	H 	0.9622	0.3048	0.408	0.105
Mof_H 	H 	0.6254	0.2489	0.8689	0.071
Mof_H 	H 	0.7607	0.6496	0.7328	0.134
Mof_H 	H 	0.6529	0.0231	0.3173	0.245
Mof_H 	H 	0.6139	0.0719	0.8005	0.044
Mof_H 	H 	0.3587	0.9232	0.1816	0.043
Mof_H 	H 	0.233	0.0448	0.1108	0.203
Mof_H 	H 	0.9931	0.186	0.1588	0.03
Mof_H 	H 	0.0384	0.1312	0.7594	0.295
Mof_H 	H 	0.7214	0.8793	0.9167	0.053
Mof_H 	H 	0.897	0.7213	0.7011	0.131
Mof_H 	H 	0.1776	0.0733	0.7377	0.296
Mof_H 	H 	0.7012	0.8082	0.3282	0.074
Mof_H 	H 	0.3191	0.3152	0.096	0.242
Mof_H 	H 	0.4931	0.1588	0.186	0.039
Mof_H 	H 	0.6776	0.7377	0.0733	0.293
Mof_H 	H 	0.7249	0.3269	0.0453	0.05
Mof_H 	H 	0.171	0.8515	0.4699	0.088
Mof_H 	H 	0.733	0.1108	0.0448	0.203
Mof_H 	H 	0.3943	0.1682	0.4064	0.087
Mof_H 	H 	0.8943	0.4064	0.1682	0.084
Mof_H 	H 	0.4725	0.7525	0.4003	0.07
Mof_H 	H 	0.1529	0.3173	0.0231	0.249
Mof_H 	H 	0.9725	0.4003	0.7525	0.07
Mof_H 	H 	0.2214	0.9167	0.8793	0.054
Mof_H 	H 	0.8587	0.1816	0.9232	0.045
Mof_H 	H 	0.0825	0.0603	0.0357	0.208
Mof_H 	H 	0.5825	0.0357	0.0603	0.207
Mof_H 	H 	0.282	0.4168	0.3394	0.113
Mof_H 	H 	0.657	0.0329	0.9735	0.183
Mof_H 	H 	0.397	0.7011	0.7213	0.134
Mof_H 	H 	0.782	0.3394	0.4168	0.113
Mof_H 	H 	0.2607	0.7328	0.6496	0.137
Mof_H 	H 	0.2012	0.3282	0.8082	0.074
Mof_H 	H 	0.5384	0.7594	0.1312	0.291
Mof_H 	H 	0.157	0.9735	0.0329	0.185
Mof_H 	H 	0.3464	0.3664	0.0164	0.248
Mof_H 	H 	0.8464	0.0164	0.3664	0.244
Mof_H 	H 	0.7629	0.7885	0.8039	0.079
Mof_H 	H 	0.8191	0.096	0.3152	0.238
Mof_H 	H 	0.153	0.7069	0.9615	0.074
Mof_H 	H 	0.671	0.4699	0.8515	0.089
Mof_H 	H 	0.2612	0.77	0.4832	0.1
Mof_H 	H 	0.0257	0.0381	0.7891	0.292
Mof_H 	H 	0.4622	0.408	0.3048	0.106
Mof_H 	H 	0.6675	0.2342	0.3098	0.077
Mof_H 	H 	0.5257	0.7891	0.0381	0.288
Mof_H 	H 	0.1254	0.8689	0.2489	0.074
Mof_H 	H 	0.653	0.9615	0.7069	0.074
Mof_H 	H 	0.2629	0.8039	0.7885	0.082
Mof_H 	H 	0.1675	0.3098	0.2342	0.082
Mof_H 	H 	0.1139	0.8005	0.0719	0.044
Mof_H 	H 	0.7612	0.4832	0.77	0.101
Mof_H 	H 	0.2249	0.0453	0.3269	0.05
Mof_C 	C 	0.3178	0.2349	0.9865	0.219
Mof_C 	C 	0.1071	0.0886	0.7798	-0.864
Mof_C 	C 	0.9574	0.0204	0.1938	-0.157
Mof_C 	C 	0.4067	0.007	0.848	0.099
Mof_C 	C 	0.0549	0.2462	0.8712	0.089
Mof_C 	C 	0.733	0.8641	0.1251	0.32
Mof_C 	C 	0.2032	0.201	0.908	-0.245
Mof_C 	C 	0.0854	0.3122	0.8206	-0.085
Mof_C 	C 	0.2806	0.316	0.035	-0.7
Mof_C 	C 	0.4488	0.787	0.356	-0.095
Mof_C 	C 	0.8084	0.8443	0.9265	-0.109
Mof_C 	C 	0.4941	0.4947	0.7481	0.363
Mof_C 	C 	0.9941	0.7481	0.4947	0.356
Mof_C 	C 	0.0727	0.1821	0.2093	-0.026
Mof_C 	C 	0.9624	0.7381	0.8705	0.14
Mof_C 	C 	0.7936	0.3294	0.251	0.162
Mof_C 	C 	0.3084	0.9265	0.8443	-0.108
Mof_C 	C 	0.9446	0.599	0.6714	0.45
Mof_C 	C 	0.6527	0.4561	0.7893	-0.171
Mof_C 	C 	0.9832	0.9789	0.1171	0.188
Mof_C 	C 	0.7411	0.2657	0.8567	-0.106
Mof_C 	C 	0.3819	0.8883	0.2255	-0.084
Mof_C 	C 	0.1268	0.0179	0.0699	-0.567
Mof_C 	C 	0.9067	0.848	0.007	0.092
Mof_C 	C 	0.8819	0.2255	0.8883	-0.094
Mof_C 	C 	0.6268	0.0699	0.0179	-0.57
Mof_C 	C 	0.2411	0.8567	0.2657	-0.109
Mof_C 	C 	0.777	0.332	0.8062	0.136
Mof_C 	C 	0.4036	0.4045	0.3549	-0.187
Mof_C 	C 	0.4574	0.1938	0.0204	-0.156
Mof_C 	C 	0.5159	0.4696	0.4322	0.392
Mof_C 	C 	0.3707	0.0842	0.8984	-0.242
Mof_C 	C 	0.8335	0.79	0.8582	-0.109
Mof_C 	C 	0.0401	0.797	0.018	-0.038
Mof_C 	C 	0.233	0.1251	0.8641	0.326
Mof_C 	C 	0.6763	0.2542	0.2564	-0.136
Mof_C 	C 	0.709	0.3092	0.0988	-0.047
Mof_C 	C 	0.1527	0.7893	0.4561	-0.163
Mof_C 	C 	0.2936	0.251	0.3294	0.168
Mof_C 	C 	0.8127	0.3567	0.1721	-0.134
Mof_C 	C 	0.0159	0.4322	0.4696	0.398
Mof_C 	C 	0.0829	0.1017	0.2367	0.041
Mof_C 	C 	0.9488	0.356	0.787	-0.102
Mof_C 	C 	0.4624	0.8705	0.7381	0.148
Mof_C 	C 	0.6071	0.7798	0.0886	-0.856
Mof_C 	C 	0.7806	0.035	0.316	-0.694
Mof_C 	C 	0.209	0.0988	0.3092	-0.042
Mof_C 	C 	0.5401	0.018	0.797	-0.045
Mof_C 	C 	0.5658	0.9517	0.7419	-0.148
Mof_C 	C 	0.8707	0.8984	0.0842	-0.239
Mof_C 	C 	0.4446	0.6714	0.599	0.46
Mof_C 	C 	0.3127	0.1721	0.3567	-0.138
Mof_C 	C 	0.8178	0.9865	0.2349	0.216
Mof_C 	C 	0.9036	0.3549	0.4045	-0.194
Mof_C 	C 	0.5727	0.2093	0.1821	-0.041
Mof_C 	C 	0.5829	0.2367	0.1017	0.043
Mof_C 	C 	0.5549	0.8712	0.2462	0.083
Mof_C 	C 	0.0658	0.7419	0.9517	-0.141
Mof_C 	C 	0.277	0.8062	0.332	0.137
Mof_C 	C 	0.5854	0.8206	0.3122	-0.091
Mof_C 	C 	0.4832	0.1171	0.9789	0.193
Mof_C 	C 	0.7032	0.908	0.201	-0.242
Mof_C 	C 	0.1763	0.2564	0.2542	-0.145
Mof_C 	C 	0.3335	0.8582	0.79	-0.11
Mof_C 	C 	0.3865	0.7274	0.6674	-0.284
Mof_C 	C 	0.8865	0.6674	0.7274	-0.279
Mof_O 	O 	0.4977	0.5708	0.7684	-0.326
Mof_O 	O 	0.0756	0.5654	0.7034	-0.458
Mof_O 	O 	0.0653	0.4099	0.5421	-0.45
Mof_O 	O 	0.8603	0.5788	0.5966	-0.514
Mof_O 	O 	0.3603	0.5966	0.5788	-0.514
Mof_O 	O 	0.5653	0.5421	0.4099	-0.451
Mof_O 	O 	0.8707	0.6937	0.4447	-0.411
Mof_O 	O 	0.8971	0.3846	0.3202	-0.17
Mof_O 	O 	0.9985	0.6795	0.8095	-0.153
Mof_O 	O 	0.539	0.4467	0.5041	-0.307
Mof_O 	O 	0.4985	0.8095	0.6795	-0.15
Mof_O 	O 	0.3971	0.3202	0.3846	-0.17
Mof_O 	O 	0.1329	0.7717	0.3697	-0.159
Mof_O 	O 	0.039	0.5041	0.4467	-0.305
Mof_O 	O 	0.6329	0.3697	0.7717	-0.159
Mof_O 	O 	0.9977	0.7684	0.5708	-0.327
Mof_O 	O 	0.5756	0.7034	0.5654	-0.466
Mof_O 	O 	0.3707	0.4447	0.6937	-0.41
_end
