data_functionalizedCrystal
_audit_creation_method	'EQeq! by Chris Wilmer'
_symmetry_space_group_name_H-M	'P1'
_symmetry_Int_Tables_number	1
_symmetry_cell_setting	triclinic
loop_
_symmetry_equiv_pos_as_xyz
  x,y,z
_cell_length_a	15.87
_cell_length_b	19.22
_cell_length_c	20.433
_cell_angle_alpha	90
_cell_angle_beta	90
_cell_angle_gamma	98.409
loop_
_atom_site_label
_atom_site_type_symbol
_atom_site_fract_x
_atom_site_fract_y
_atom_site_fract_z
_atom_site_charge
Mof_Cd	Cd	0.4442	0.55135	0.22229	0.475
Mof_Cd	Cd	0.46528	0.09759	0.79237	0.472
Mof_Cd	Cd	0.5558	0.94865	0.72229	0.475
Mof_Cd	Cd	0.49182	0.72805	0.26745	0.525
Mof_Cd	Cd	0.4442	0.05135	0.27771	0.474
Mof_Cd	Cd	0.46528	0.59759	0.70763	0.471
Mof_Cd	Cd	0.53472	0.40241	0.29237	0.471
Mof_Cd	Cd	0.53472	0.90241	0.20763	0.471
Mof_Cd	Cd	0.50818	0.27195	0.73255	0.524
Mof_Cd	Cd	0.5558	0.44865	0.77771	0.474
Mof_Cd	Cd	0.49182	0.22805	0.23255	0.524
Mof_Cd	Cd	0.50818	0.77195	0.76745	0.524
Mof_H 	H 	0.302	0.9878	0.8637	-0.001
Mof_H 	H 	0.9875	0.3952	0.3703	0.233
Mof_H 	H 	0.6758	0.3002	0.5591	-0.021
Mof_H 	H 	0.2177	0.1832	0.9795	0.154
Mof_H 	H 	0.1711	0.2554	0.6622	0.154
Mof_H 	H 	0.2867	0.4538	0.1643	0.012
Mof_H 	H 	0.372	0.776	0.1323	-0.01
Mof_H 	H 	0.2752	0.3556	0.3798	0.153
Mof_H 	H 	0.9092	0.7556	0.1551	0.162
Mof_H 	H 	0.0125	0.1048	0.8703	0.23
Mof_H 	H 	0.7462	0.497	0.6219	-0.033
Mof_H 	H 	0.9842	0.421	0.8878	0.243
Mof_H 	H 	0.698	0.5122	0.3637	-0.002
Mof_H 	H 	0.1696	0.4492	0.5877	0.153
Mof_H 	H 	0.1527	0.3108	0.484	0.225
Mof_H 	H 	0.7462	0.997	0.8781	-0.031
Mof_H 	H 	0.839	0.5713	0.8948	0.145
Mof_H 	H 	0.2538	0.003	0.1219	-0.031
Mof_H 	H 	0.1711	0.7554	0.8378	0.153
Mof_H 	H 	0.0908	0.2444	0.8449	0.162
Mof_H 	H 	0.8473	0.1892	0.984	0.221
Mof_H 	H 	0.1504	0.4879	0.4564	0.181
Mof_H 	H 	0.1464	0.8181	0.5166	0.239
Mof_H 	H 	0.8536	0.1819	0.4834	0.239
Mof_H 	H 	0.2867	0.9538	0.3357	0.012
Mof_H 	H 	0.9875	0.8952	0.1297	0.23
Mof_H 	H 	0.2151	0.1883	0.4892	0.139
Mof_H 	H 	0.2752	0.8556	0.1202	0.152
Mof_H 	H 	0.8152	0.8375	0.1677	-0.016
Mof_H 	H 	0.8496	0.5121	0.5436	0.181
Mof_H 	H 	0.3055	0.2932	0.706	-0.006
Mof_H 	H 	0.1848	0.6625	0.6677	-0.016
Mof_H 	H 	0.0448	0.1135	0.0666	0.222
Mof_H 	H 	0.915	0.7968	0.6632	0.166
Mof_H 	H 	0.3776	0.3226	0.8506	-0.021
Mof_H 	H 	0.8304	0.0508	0.0877	0.152
Mof_H 	H 	0.6753	0.2786	0.0634	-0.01
Mof_H 	H 	0.8289	0.7446	0.3378	0.154
Mof_H 	H 	0.6758	0.8002	0.9409	-0.019
Mof_H 	H 	0.1848	0.1625	0.8323	-0.016
Mof_H 	H 	0.8152	0.3375	0.3323	-0.016
Mof_H 	H 	0.9412	0.3673	0.0771	0.235
Mof_H 	H 	0.9552	0.3865	0.5666	0.226
Mof_H 	H 	0.1789	0.9949	0.5674	0.169
Mof_H 	H 	0.6224	0.1774	0.3506	-0.021
Mof_H 	H 	0.1497	0.722	0.3433	0.143
Mof_H 	H 	0.2822	0.3979	0.8727	0.17
Mof_H 	H 	0.9842	0.921	0.6122	0.241
Mof_H 	H 	0.698	0.0122	0.1363	-0.001
Mof_H 	H 	0.7178	0.1021	0.3727	0.17
Mof_H 	H 	0.1789	0.4949	0.9326	0.17
Mof_H 	H 	0.2905	0.028	0.6364	-0.02
Mof_H 	H 	0.7178	0.6021	0.1273	0.17
Mof_H 	H 	0.1778	0.1232	0.3296	-0.02
Mof_H 	H 	0.7226	0.2493	0.7109	0.002
Mof_H 	H 	0.372	0.276	0.3677	-0.01
Mof_H 	H 	0.1527	0.8108	0.016	0.221
Mof_H 	H 	0.2822	0.8979	0.6273	0.17
Mof_H 	H 	0.8222	0.8768	0.6704	-0.02
Mof_H 	H 	0.628	0.224	0.8677	-0.01
Mof_H 	H 	0.6945	0.7068	0.294	-0.006
Mof_H 	H 	0.2177	0.6832	0.5205	0.158
Mof_H 	H 	0.9552	0.8865	0.9334	0.222
Mof_H 	H 	0.085	0.7032	0.1632	0.166
Mof_H 	H 	0.7095	0.972	0.3636	-0.02
Mof_H 	H 	0.3776	0.8226	0.6494	-0.021
Mof_H 	H 	0.8536	0.6819	0.0166	0.242
Mof_H 	H 	0.7849	0.3117	0.9892	0.141
Mof_H 	H 	0.1464	0.3181	0.9834	0.242
Mof_H 	H 	0.302	0.4878	0.6363	-0.002
Mof_H 	H 	0.085	0.2032	0.3368	0.166
Mof_H 	H 	0.7226	0.7493	0.7891	0.002
Mof_H 	H 	0.0448	0.6135	0.4334	0.226
Mof_H 	H 	0.8222	0.3768	0.8296	-0.02
Mof_H 	H 	0.8473	0.6892	0.516	0.225
Mof_H 	H 	0.0125	0.6048	0.6297	0.233
Mof_H 	H 	0.628	0.724	0.6323	-0.01
Mof_H 	H 	0.7823	0.3168	0.4795	0.158
Mof_H 	H 	0.1696	0.9492	0.9123	0.152
Mof_H 	H 	0.8304	0.5508	0.4123	0.153
Mof_H 	H 	0.6224	0.6774	0.1494	-0.021
Mof_H 	H 	0.3055	0.7932	0.794	-0.006
Mof_H 	H 	0.6753	0.7786	0.4366	-0.009
Mof_H 	H 	0.2538	0.503	0.3781	-0.033
Mof_H 	H 	0.6945	0.2068	0.206	-0.006
Mof_H 	H 	0.3242	0.1998	0.0591	-0.019
Mof_H 	H 	0.8211	0.0051	0.4326	0.169
Mof_H 	H 	0.161	0.9287	0.3948	0.144
Mof_H 	H 	0.9092	0.2556	0.3449	0.161
Mof_H 	H 	0.9412	0.8673	0.4229	0.231
Mof_H 	H 	0.7823	0.8168	0.0205	0.154
Mof_H 	H 	0.2774	0.2507	0.2109	0.002
Mof_H 	H 	0.2774	0.7507	0.2891	0.002
Mof_H 	H 	0.7133	0.5462	0.8357	0.012
Mof_H 	H 	0.161	0.4287	0.1052	0.145
Mof_H 	H 	0.8503	0.778	0.8433	0.144
Mof_H 	H 	0.3247	0.2214	0.5634	-0.009
Mof_H 	H 	0.7248	0.6444	0.6202	0.153
Mof_H 	H 	0.2905	0.528	0.8636	-0.021
Mof_H 	H 	0.7095	0.472	0.1364	-0.021
Mof_H 	H 	0.0908	0.7444	0.6551	0.161
Mof_H 	H 	0.0588	0.1327	0.5771	0.231
Mof_H 	H 	0.8211	0.5051	0.0674	0.17
Mof_H 	H 	0.7849	0.8117	0.5108	0.139
Mof_H 	H 	0.0158	0.579	0.1122	0.243
Mof_H 	H 	0.7133	0.0462	0.6643	0.012
Mof_H 	H 	0.1778	0.6232	0.1704	-0.02
Mof_H 	H 	0.7248	0.1444	0.8798	0.152
Mof_H 	H 	0.839	0.0713	0.6052	0.144
Mof_H 	H 	0.8503	0.278	0.6567	0.143
Mof_H 	H 	0.3242	0.6998	0.4409	-0.021
Mof_H 	H 	0.0588	0.6327	0.9229	0.235
Mof_H 	H 	0.915	0.2968	0.8368	0.166
Mof_H 	H 	0.0158	0.079	0.3878	0.241
Mof_H 	H 	0.1497	0.222	0.1567	0.144
Mof_H 	H 	0.1504	0.9879	0.0436	0.178
Mof_H 	H 	0.8289	0.2446	0.1622	0.153
Mof_H 	H 	0.3247	0.7214	0.9366	-0.01
Mof_H 	H 	0.2151	0.6883	0.0108	0.141
Mof_H 	H 	0.8496	0.0121	0.9564	0.178
Mof_C 	C 	0.318	0.6286	0.8913	-0.204
Mof_C 	C 	0.706	0.646	0.8065	-0.17
Mof_C 	C 	0.3764	0.8691	0.2709	0.317
Mof_C 	C 	0.0483	0.8378	0.4626	0.489
Mof_C 	C 	0.3176	0.3945	0.6764	-0.221
Mof_C 	C 	0.2743	0.061	0.6075	0.197
Mof_C 	C 	0.7116	0.3429	0.5563	0.208
Mof_C 	C 	0.1846	0.5855	0.9783	0.338
Mof_C 	C 	0.8154	0.4145	0.0217	0.338
Mof_C 	C 	0.7044	0.3242	0.0641	0.167
Mof_C 	C 	0.8552	0.1774	0.6249	0.287
Mof_C 	C 	0.2566	0.8088	0.131	-0.304
Mof_C 	C 	0.0569	0.3437	0.5328	0.48
Mof_C 	C 	0.2884	0.1571	0.0563	0.203
Mof_C 	C 	0.2625	0.3509	0.8636	-0.363
Mof_C 	C 	0.8261	0.9185	0.995	0.369
Mof_C 	C 	0.5988	0.0816	0.2079	0.443
Mof_C 	C 	0.2956	0.1758	0.5641	0.165
Mof_C 	C 	0.2566	0.3088	0.369	-0.305
Mof_C 	C 	0.2466	0.0398	0.0938	0.235
Mof_C 	C 	0.0151	0.1233	0.0293	-0.483
Mof_C 	C 	0.9998	0.3997	0.926	-0.532
Mof_C 	C 	0.253	0.2859	0.1901	0.149
Mof_C 	C 	0.9275	0.1307	0.4283	0.499
Mof_C 	C 	0.9032	0.1615	0.4831	-0.577
Mof_C 	C 	0.9592	0.3947	0.4665	0.455
Mof_C 	C 	0.2254	0.6473	0.4916	-0.33
Mof_C 	C 	0.6556	0.8608	0.668	0.357
Mof_C 	C 	0.1448	0.3226	0.1249	0.288
Mof_C 	C 	0.0151	0.6233	0.4707	-0.498
Mof_C 	C 	0.1777	0.268	0.1574	-0.26
Mof_C 	C 	0.1854	0.031	0.0467	-0.381
Mof_C 	C 	0.7152	0.8075	0.654	-0.205
Mof_C 	C 	0.795	0.2902	0.3392	0.188
Mof_C 	C 	0.2254	0.1473	0.0084	-0.323
Mof_C 	C 	0.0047	0.8823	0.0885	-0.497
Mof_C 	C 	0.1843	0.3934	0.1267	-0.266
Mof_C 	C 	0.8406	0.1531	0.1186	0.319
Mof_C 	C 	0.7375	0.6491	0.1364	-0.363
Mof_C 	C 	0.3444	0.6392	0.168	0.356
Mof_C 	C 	0.3639	0.6137	0.3483	0.388
Mof_C 	C 	0.7534	0.9602	0.9062	0.235
Mof_C 	C 	0.2466	0.5398	0.4062	0.24
Mof_C 	C 	0.0725	0.3693	0.9283	0.505
Mof_C 	C 	0.7921	0.4594	0.0654	-0.343
Mof_C 	C 	0.0263	0.1324	0.5393	-0.512
Mof_C 	C 	0.1035	0.8314	0.0204	-0.527
Mof_C 	C 	0.1699	0.7844	0.1405	0.335
Mof_C 	C 	0.9517	0.6622	0.9626	0.503
Mof_C 	C 	0.6803	0.6943	0.1484	0.215
Mof_C 	C 	0.7921	0.9594	0.4346	-0.34
Mof_C 	C 	0.8965	0.6686	0.5204	-0.538
Mof_C 	C 	0.8572	0.2824	0.844	-0.346
Mof_C 	C 	0.0483	0.3378	0.0374	0.503
Mof_C 	C 	0.3176	0.8945	0.8236	-0.221
Mof_C 	C 	0.2743	0.561	0.8925	0.2
Mof_C 	C 	0.0725	0.8693	0.5717	0.499
Mof_C 	C 	0.702	0.3957	0.5995	-0.243
Mof_C 	C 	0.7257	0.939	0.3925	0.197
Mof_C 	C 	0.2297	0.6562	0.9803	-0.289
Mof_C 	C 	0.1491	0.259	0.8484	-0.334
Mof_C 	C 	0.702	0.8957	0.9005	-0.239
Mof_C 	C 	0.6436	0.3123	0.3289	0.363
Mof_C 	C 	0.8217	0.1717	0.3626	0.37
Mof_C 	C 	0.0002	0.6003	0.074	-0.532
Mof_C 	C 	0.8021	0.8299	0.6616	0.201
Mof_C 	C 	0.7231	0.0587	0.1408	0.173
Mof_C 	C 	0.7222	0.1752	0.1828	0.177
Mof_C 	C 	0.6436	0.8123	0.1711	0.364
Mof_C 	C 	0.8146	0.469	0.5467	-0.388
Mof_C 	C 	0.3564	0.6877	0.6711	0.363
Mof_C 	C 	0.0047	0.3823	0.4115	-0.506
Mof_C 	C 	0.1972	0.418	0.6115	-0.287
Mof_C 	C 	0.8301	0.2156	0.8595	0.335
Mof_C 	C 	0.8028	0.082	0.1115	-0.286
Mof_C 	C 	0.2769	0.9413	0.8592	0.173
Mof_C 	C 	0.2769	0.4413	0.6408	0.174
Mof_C 	C 	0.8261	0.4185	0.505	0.372
Mof_C 	C 	0.6361	0.3863	0.6517	0.388
Mof_C 	C 	0.7534	0.4602	0.5938	0.24
Mof_C 	C 	0.9237	0.1498	0.9188	0.456
Mof_C 	C 	0.2848	0.6925	0.154	-0.205
Mof_C 	C 	0.1979	0.6701	0.1616	0.2
Mof_C 	C 	0.8572	0.7824	0.656	-0.347
Mof_C 	C 	0.7703	0.8438	0.4803	-0.285
Mof_C 	C 	0.686	0.7386	0.6382	0.179
Mof_C 	C 	0.314	0.2614	0.3618	0.179
Mof_C 	C 	0.6117	0.349	0.158	0.362
Mof_C 	C 	0.1846	0.0855	0.5217	0.337
Mof_C 	C 	0.9275	0.6307	0.0717	0.505
Mof_C 	C 	0.3883	0.651	0.842	0.362
Mof_C 	C 	0.1428	0.2176	0.344	-0.347
Mof_C 	C 	0.0968	0.8385	0.5169	-0.577
Mof_C 	C 	0.7231	0.5587	0.3592	0.174
Mof_C 	C 	0.9237	0.6498	0.5812	0.463
Mof_C 	C 	0.1783	0.3283	0.8626	0.371
Mof_C 	C 	0.2848	0.1925	0.346	-0.205
Mof_C 	C 	0.795	0.7902	0.1608	0.188
Mof_C 	C 	0.2921	0.2346	0.8407	-0.225
Mof_C 	C 	0.0763	0.3502	0.4188	0.463
Mof_C 	C 	0.318	0.1286	0.6087	-0.202
Mof_C 	C 	0.7434	0.1912	0.869	-0.304
Mof_C 	C 	0.1843	0.8934	0.3733	-0.265
Mof_C 	C 	0.9849	0.3767	0.5293	-0.498
Mof_C 	C 	0.9502	0.3979	0.9815	0.481
Mof_C 	C 	0.1739	0.0815	0.005	0.369
Mof_C 	C 	0.9032	0.6615	0.0169	-0.589
Mof_C 	C 	0.9998	0.8997	0.574	-0.526
Mof_C 	C 	0.2079	0.0406	0.5654	-0.34
Mof_C 	C 	0.7116	0.8429	0.9437	0.203
Mof_C 	C 	0.0408	0.6053	0.5335	0.455
Mof_C 	C 	0.6361	0.8863	0.8483	0.387
Mof_C 	C 	0.1428	0.7176	0.156	-0.346
Mof_C 	C 	0.1977	0.3013	0.6554	-0.296
Mof_C 	C 	0.2778	0.8248	0.8172	0.177
Mof_C 	C 	0.6803	0.1943	0.3516	0.214
Mof_C 	C 	0.294	0.854	0.3065	-0.169
Mof_C 	C 	0.8552	0.6774	0.8751	0.288
Mof_C 	C 	0.0498	0.1021	0.4815	0.472
Mof_C 	C 	0.8028	0.582	0.3885	-0.287
Mof_C 	C 	0.686	0.2386	0.8618	0.178
Mof_C 	C 	0.7079	0.2654	0.3407	-0.224
Mof_C 	C 	0.747	0.2141	0.6901	0.148
Mof_C 	C 	0.0498	0.6021	0.0185	0.481
Mof_C 	C 	0.7746	0.8527	0.9916	-0.323
Mof_C 	C 	0.2625	0.8509	0.6364	-0.362
Mof_C 	C 	0.259	0.4078	0.1617	0.141
Mof_C 	C 	0.259	0.9078	0.3383	0.141
Mof_C 	C 	0.3197	0.3057	0.8516	0.215
Mof_C 	C 	0.682	0.3714	0.1087	-0.204
Mof_C 	C 	0.9431	0.6563	0.4672	0.48
Mof_C 	C 	0.8023	0.6987	0.3446	-0.296
Mof_C 	C 	0.5988	0.5816	0.2921	0.443
Mof_C 	C 	0.6824	0.1055	0.1764	-0.221
Mof_C 	C 	0.1699	0.2844	0.3595	0.336
Mof_C 	C 	0.1594	0.3469	0.6186	0.321
Mof_C 	C 	0.1491	0.759	0.6516	-0.333
Mof_C 	C 	0.8509	0.241	0.3484	-0.333
Mof_C 	C 	0.314	0.7614	0.1382	0.178
Mof_C 	C 	0.205	0.2098	0.8392	0.188
Mof_C 	C 	0.7152	0.3075	0.846	-0.205
Mof_C 	C 	0.8223	0.232	0.6574	-0.26
Mof_C 	C 	0.3444	0.1392	0.332	0.357
Mof_C 	C 	0.682	0.8714	0.3913	-0.202
Mof_C 	C 	0.8406	0.6531	0.3814	0.321
Mof_C 	C 	0.2297	0.1562	0.5197	-0.285
Mof_C 	C 	0.3564	0.1877	0.8289	0.364
Mof_C 	C 	0.8965	0.1686	0.9796	-0.527
Mof_C 	C 	0.9502	0.8979	0.5185	0.472
Mof_C 	C 	0.8021	0.3299	0.8384	0.2
Mof_C 	C 	0.7746	0.3527	0.5084	-0.33
Mof_C 	C 	0.9517	0.1622	0.5374	0.489
Mof_C 	C 	0.1854	0.531	0.4533	-0.388
Mof_C 	C 	0.1977	0.8013	0.8446	-0.294
Mof_C 	C 	0.9953	0.1177	0.9115	-0.497
Mof_C 	C 	0.7079	0.7654	0.1593	-0.225
Mof_C 	C 	0.3639	0.1137	0.1517	0.387
Mof_C 	C 	0.3197	0.8057	0.6484	0.214
Mof_C 	C 	0.0002	0.1003	0.426	-0.526
Mof_C 	C 	0.8154	0.9145	0.4783	0.337
Mof_C 	C 	0.7257	0.439	0.1075	0.2
Mof_C 	C 	0.6236	0.6309	0.7709	0.317
Mof_C 	C 	0.2921	0.7346	0.6593	-0.224
Mof_C 	C 	0.6236	0.1309	0.7291	0.317
Mof_C 	C 	0.0968	0.3385	0.9831	-0.589
Mof_C 	C 	0.8301	0.7156	0.6405	0.336
Mof_C 	C 	0.4012	0.9184	0.7921	0.443
Mof_C 	C 	0.8509	0.741	0.1516	-0.334
Mof_C 	C 	0.0763	0.8502	0.0812	0.456
Mof_C 	C 	0.298	0.1043	0.0995	-0.239
Mof_C 	C 	0.9737	0.3676	0.0393	-0.527
Mof_C 	C 	0.2079	0.5406	0.9346	-0.343
Mof_C 	C 	0.0408	0.1053	0.9665	0.445
Mof_C 	C 	0.7375	0.1491	0.3636	-0.362
Mof_C 	C 	0.1783	0.8283	0.6374	0.37
Mof_C 	C 	0.9431	0.1563	0.0328	0.467
Mof_C 	C 	0.1972	0.918	0.8885	-0.286
Mof_C 	C 	0.7044	0.8242	0.4359	0.165
Mof_C 	C 	0.0263	0.6324	0.9607	-0.527
Mof_C 	C 	0.2778	0.3248	0.6828	0.178
Mof_C 	C 	0.3883	0.151	0.658	0.361
Mof_C 	C 	0.1594	0.8469	0.8814	0.319
Mof_C 	C 	0.741	0.5922	0.8383	0.141
Mof_C 	C 	0.253	0.7859	0.3099	0.148
Mof_C 	C 	0.7222	0.6752	0.3172	0.178
Mof_C 	C 	0.7434	0.6912	0.631	-0.305
Mof_C 	C 	0.205	0.7098	0.6608	0.188
Mof_C 	C 	0.6117	0.849	0.342	0.361
Mof_C 	C 	0.294	0.354	0.1935	-0.17
Mof_C 	C 	0.2884	0.6571	0.4437	0.208
Mof_C 	C 	0.747	0.7141	0.8099	0.149
Mof_C 	C 	0.6824	0.6055	0.3236	-0.221
Mof_C 	C 	0.706	0.146	0.6935	-0.169
Mof_C 	C 	0.8223	0.732	0.8426	-0.26
Mof_C 	C 	0.7703	0.3438	0.0197	-0.289
Mof_C 	C 	0.1979	0.1701	0.3384	0.201
Mof_C 	C 	0.9849	0.8767	0.9707	-0.483
Mof_C 	C 	0.9592	0.8947	0.0335	0.445
Mof_C 	C 	0.8023	0.1987	0.1554	-0.294
Mof_C 	C 	0.298	0.6043	0.4005	-0.243
Mof_C 	C 	0.6556	0.3608	0.832	0.356
Mof_C 	C 	0.9953	0.6177	0.5885	-0.506
Mof_C 	C 	0.741	0.0922	0.6617	0.141
Mof_C 	C 	0.1739	0.5815	0.495	0.372
Mof_C 	C 	0.8146	0.969	0.9533	-0.381
Mof_C 	C 	0.1777	0.768	0.3426	-0.26
Mof_C 	C 	0.1035	0.3314	0.4796	-0.538
Mof_C 	C 	0.8217	0.6717	0.1374	0.371
Mof_C 	C 	0.8157	0.6066	0.8733	-0.266
Mof_C 	C 	0.4012	0.4184	0.7079	0.443
Mof_C 	C 	0.9737	0.8676	0.4607	-0.512
Mof_C 	C 	0.0569	0.8437	0.9672	0.467
Mof_C 	C 	0.8157	0.1066	0.6267	-0.265
Mof_C 	C 	0.1448	0.8226	0.3751	0.287
Mof_C 	C 	0.3764	0.3691	0.2291	0.317
Mof_C 	C 	0.2956	0.6758	0.9359	0.167
Mof_O 	O 	0.3213	0.5769	0.1671	-0.295
Mof_O 	O 	0.6251	0.9356	0.8133	-0.303
Mof_O 	O 	0.1184	0.373	0.8695	-0.376
Mof_O 	O 	0.079	0.8234	0.9052	-0.343
Mof_O 	O 	0.6666	0.878	0.1705	-0.281
Mof_O 	O 	0.4145	0.2143	0.6639	-0.298
Mof_O 	O 	0.5777	0.8334	0.6823	-0.294
Mof_O 	O 	0.0656	0.3029	0.0953	-0.333
Mof_O 	O 	0.9344	0.1971	0.5953	-0.331
Mof_O 	O 	0.921	0.6766	0.4052	-0.345
Mof_O 	O 	0.5682	0.5259	0.2936	-0.368
Mof_O 	O 	0.4318	0.9741	0.7936	-0.368
Mof_O 	O 	0.5682	0.0259	0.2064	-0.368
Mof_O 	O 	0.8816	0.127	0.3695	-0.374
Mof_O 	O 	0.5679	0.7887	0.184	-0.311
Mof_O 	O 	0.079	0.3234	0.5948	-0.345
Mof_O 	O 	0.4321	0.2113	0.816	-0.311
Mof_O 	O 	0.8816	0.627	0.1305	-0.376
Mof_O 	O 	0.4375	0.3693	0.737	-0.318
Mof_O 	O 	0.1173	0.3385	0.3607	-0.347
Mof_O 	O 	0.6787	0.9231	0.6671	-0.295
Mof_O 	O 	0.5855	0.2857	0.1639	-0.299
Mof_O 	O 	0.3213	0.0769	0.3329	-0.295
Mof_O 	O 	0.8798	0.4326	0.9768	-0.357
Mof_O 	O 	0.1202	0.5674	0.0232	-0.357
Mof_O 	O 	0.8827	0.6615	0.6393	-0.347
Mof_O 	O 	0.0656	0.8029	0.4047	-0.331
Mof_O 	O 	0.8827	0.1615	0.8607	-0.346
Mof_O 	O 	0.1108	0.0716	0.957	-0.361
Mof_O 	O 	0.4321	0.7113	0.684	-0.311
Mof_O 	O 	0.4318	0.4741	0.7064	-0.368
Mof_O 	O 	0.4223	0.1666	0.3177	-0.294
Mof_O 	O 	0.3749	0.0644	0.1867	-0.303
Mof_O 	O 	0.1202	0.0674	0.4768	-0.355
Mof_O 	O 	0.5864	0.4004	0.1887	-0.281
Mof_O 	O 	0.4136	0.0996	0.6887	-0.28
Mof_O 	O 	0.3749	0.5644	0.3133	-0.303
Mof_O 	O 	0.5836	0.1795	0.7469	-0.295
Mof_O 	O 	0.6787	0.4231	0.8329	-0.295
Mof_O 	O 	0.8892	0.9284	0.043	-0.361
Mof_O 	O 	0.5625	0.1307	0.237	-0.318
Mof_O 	O 	0.921	0.1766	0.0948	-0.343
Mof_O 	O 	0.5836	0.6795	0.7531	-0.295
Mof_O 	O 	0.3334	0.622	0.6705	-0.281
Mof_O 	O 	0.5864	0.9004	0.3113	-0.28
Mof_O 	O 	0.1173	0.8385	0.1393	-0.346
Mof_O 	O 	0.5777	0.3334	0.8177	-0.294
Mof_O 	O 	0.5625	0.6307	0.263	-0.318
Mof_O 	O 	0.8798	0.9326	0.5232	-0.355
Mof_O 	O 	0.5898	0.0636	0.7414	-0.281
Mof_O 	O 	0.5976	0.3233	0.6593	-0.294
Mof_O 	O 	0.3334	0.122	0.8295	-0.281
Mof_O 	O 	0.4024	0.1767	0.1593	-0.294
Mof_O 	O 	0.4102	0.9364	0.2586	-0.281
Mof_O 	O 	0.5679	0.2887	0.316	-0.311
Mof_O 	O 	0.4145	0.7143	0.8361	-0.299
Mof_O 	O 	0.4375	0.8693	0.763	-0.318
Mof_O 	O 	0.1184	0.873	0.6305	-0.374
Mof_O 	O 	0.4102	0.4364	0.2414	-0.281
Mof_O 	O 	0.5898	0.5636	0.7586	-0.281
Mof_O 	O 	0.4024	0.6767	0.3407	-0.294
Mof_O 	O 	0.9344	0.6971	0.9047	-0.333
Mof_O 	O 	0.4164	0.3205	0.2469	-0.295
Mof_O 	O 	0.6666	0.378	0.3295	-0.281
Mof_O 	O 	0.4223	0.6666	0.1823	-0.294
Mof_O 	O 	0.6251	0.4356	0.6867	-0.303
Mof_O 	O 	0.8892	0.4284	0.457	-0.363
Mof_O 	O 	0.4164	0.8205	0.2531	-0.295
Mof_O 	O 	0.5855	0.7857	0.3361	-0.298
Mof_O 	O 	0.1108	0.5716	0.543	-0.363
Mof_O 	O 	0.4136	0.5996	0.8113	-0.281
Mof_O 	O 	0.5976	0.8233	0.8407	-0.294
_end
