data_functionalizedCrystal
_audit_creation_method	'EQeq! by Chris Wilmer'
_symmetry_space_group_name_H-M	'P1'
_symmetry_Int_Tables_number	1
_symmetry_cell_setting	triclinic
loop_
_symmetry_equiv_pos_as_xyz
  x,y,z
_cell_length_a	11.561
_cell_length_b	20.8211
_cell_length_c	23.6909
_cell_angle_alpha	90
_cell_angle_beta	90
_cell_angle_gamma	90
loop_
_atom_site_label
_atom_site_type_symbol
_atom_site_fract_x
_atom_site_fract_y
_atom_site_fract_z
_atom_site_charge
Mof_Sm	Sm	0.91987	0.03601	0.2312	2.456
Mof_Sm	Sm	0.58224	0.02651	0.23433	2.458
Mof_Sm	Sm	0.74386	0.12314	0.34838	2.442
Mof_Sm	Sm	0.76542	0.93266	0.34309	2.436
Mof_Sm	Sm	0.58013	0.96399	0.7312	2.453
Mof_Sm	Sm	0.91776	0.97349	0.73433	2.454
Mof_Sm	Sm	0.75614	0.87686	0.84838	2.441
Mof_Sm	Sm	0.73458	0.06734	0.84309	2.438
Mof_Sm	Sm	0.08013	0.53601	0.2688	2.453
Mof_Sm	Sm	0.41776	0.52651	0.26567	2.458
Mof_Sm	Sm	0.25614	0.62314	0.15162	2.442
Mof_Sm	Sm	0.23458	0.43266	0.15691	2.435
Mof_Sm	Sm	0.41987	0.46399	0.7688	2.454
Mof_Sm	Sm	0.08224	0.47349	0.76567	2.457
Mof_Sm	Sm	0.24386	0.37686	0.65162	2.442
Mof_Sm	Sm	0.26542	0.56734	0.65691	2.435
Mof_H 	H 	0.5958	0.3525	0.3177	0.195
Mof_H 	H 	0.6288	0.2853	0.3133	0.196
Mof_H 	H 	0.6499	0.3288	0.2664	0.188
Mof_H 	H 	0.4343	0.2913	0.3022	0.041
Mof_H 	H 	0.1513	0.2819	0.2091	0.182
Mof_H 	H 	0.1608	0.2337	0.2532	0.187
Mof_H 	H 	0.1231	0.2153	0.197	0.191
Mof_H 	H 	0.5411	0.2576	0.1995	0.188
Mof_H 	H 	0.4143	0.2388	0.2154	0.201
Mof_H 	H 	0.8623	0.9162	0.4936	0.193
Mof_H 	H 	0.9242	0.9421	0.5419	0.184
Mof_H 	H 	0.8684	0.8797	0.5458	0.177
Mof_H 	H 	0.9538	0.2695	0.2055	0.046
Mof_H 	H 	0.9123	0.3185	0.2931	0.198
Mof_H 	H 	0.0398	0.3053	0.312	0.182
Mof_H 	H 	0.6874	0.9262	0.5383	0.059
Mof_H 	H 	0.8169	0.0422	0.5432	0.196
Mof_H 	H 	0.6816	0.0395	0.5433	0.2
Mof_H 	H 	0.7429	0.1334	0.2253	0.225
Mof_H 	H 	0.7604	0.9297	0.2177	0.218
Mof_H 	H 	0.5703	0.0209	0.356	0.26
Mof_H 	H 	0.9448	0.0332	0.3532	0.25
Mof_H 	H 	0.9042	0.6475	0.8177	0.194
Mof_H 	H 	0.8712	0.7147	0.8133	0.196
Mof_H 	H 	0.8501	0.6712	0.7664	0.188
Mof_H 	H 	0.0657	0.7087	0.8022	0.041
Mof_H 	H 	0.3487	0.7181	0.7091	0.182
Mof_H 	H 	0.3392	0.7663	0.7532	0.187
Mof_H 	H 	0.3769	0.7847	0.697	0.191
Mof_H 	H 	0.9589	0.7424	0.6995	0.187
Mof_H 	H 	0.0857	0.7612	0.7154	0.2
Mof_H 	H 	0.6377	0.0838	0.9936	0.194
Mof_H 	H 	0.5758	0.0579	0.0419	0.184
Mof_H 	H 	0.6316	0.1203	0.0458	0.177
Mof_H 	H 	0.5462	0.7305	0.7055	0.046
Mof_H 	H 	0.5877	0.6815	0.7931	0.199
Mof_H 	H 	0.4602	0.6947	0.812	0.184
Mof_H 	H 	0.8126	0.0738	0.0383	0.06
Mof_H 	H 	0.6831	0.9578	0.0432	0.194
Mof_H 	H 	0.8184	0.9605	0.0433	0.199
Mof_H 	H 	0.7571	0.8666	0.7253	0.225
Mof_H 	H 	0.7396	0.0703	0.7177	0.218
Mof_H 	H 	0.9297	0.9791	0.856	0.259
Mof_H 	H 	0.5552	0.9668	0.8532	0.249
Mof_H 	H 	0.4042	0.8525	0.1823	0.195
Mof_H 	H 	0.3712	0.7853	0.1867	0.196
Mof_H 	H 	0.3501	0.8288	0.2336	0.188
Mof_H 	H 	0.5657	0.7913	0.1978	0.041
Mof_H 	H 	0.8487	0.7819	0.2909	0.182
Mof_H 	H 	0.8392	0.7337	0.2468	0.187
Mof_H 	H 	0.8769	0.7153	0.303	0.191
Mof_H 	H 	0.4589	0.7576	0.3005	0.188
Mof_H 	H 	0.5857	0.7388	0.2846	0.201
Mof_H 	H 	0.1377	0.4162	0.0064	0.192
Mof_H 	H 	0.0758	0.4421	0.9581	0.184
Mof_H 	H 	0.1316	0.3797	0.9542	0.177
Mof_H 	H 	0.0462	0.7695	0.2945	0.046
Mof_H 	H 	0.0877	0.8185	0.2069	0.198
Mof_H 	H 	0.9602	0.8053	0.188	0.183
Mof_H 	H 	0.3126	0.4262	0.9617	0.059
Mof_H 	H 	0.1831	0.5422	0.9568	0.196
Mof_H 	H 	0.3184	0.5395	0.9567	0.2
Mof_H 	H 	0.2571	0.6334	0.2747	0.225
Mof_H 	H 	0.2396	0.4297	0.2823	0.218
Mof_H 	H 	0.4297	0.5209	0.144	0.26
Mof_H 	H 	0.0552	0.5332	0.1468	0.249
Mof_H 	H 	0.0958	0.1475	0.6823	0.194
Mof_H 	H 	0.1288	0.2147	0.6867	0.196
Mof_H 	H 	0.1499	0.1712	0.7336	0.188
Mof_H 	H 	0.9343	0.2087	0.6978	0.041
Mof_H 	H 	0.6513	0.2181	0.7909	0.182
Mof_H 	H 	0.6608	0.2663	0.7468	0.187
Mof_H 	H 	0.6231	0.2847	0.803	0.191
Mof_H 	H 	0.0411	0.2424	0.8005	0.187
Mof_H 	H 	0.9143	0.2612	0.7846	0.2
Mof_H 	H 	0.3623	0.5838	0.5064	0.193
Mof_H 	H 	0.4242	0.5579	0.4581	0.184
Mof_H 	H 	0.3684	0.6203	0.4542	0.177
Mof_H 	H 	0.4538	0.2305	0.7945	0.046
Mof_H 	H 	0.4123	0.1815	0.7069	0.199
Mof_H 	H 	0.5398	0.1947	0.688	0.184
Mof_H 	H 	0.1874	0.5738	0.4617	0.059
Mof_H 	H 	0.3169	0.4578	0.4568	0.196
Mof_H 	H 	0.1816	0.4605	0.4567	0.2
Mof_H 	H 	0.2429	0.3666	0.7747	0.225
Mof_H 	H 	0.2604	0.5703	0.7823	0.218
Mof_H 	H 	0.0703	0.4791	0.644	0.26
Mof_H 	H 	0.4448	0.4668	0.6468	0.249
Mof_C 	C 	0.4323	0.3632	0.2429	0.422
Mof_C 	C 	0.4844	0.3033	0.2706	0.059
Mof_C 	C 	0.4909	0.2463	0.2308	-0.474
Mof_C 	C 	0.5339	0.1845	0.2561	0.595
Mof_C 	C 	0.9463	0.1959	0.2636	0.426
Mof_C 	C 	0.9972	0.2582	0.2396	0.053
Mof_C 	C 	0.9911	0.3143	0.2796	-0.448
Mof_C 	C 	0.0289	0.3781	0.2535	0.575
Mof_C 	C 	0.7568	0.9543	0.6158	0.434
Mof_C 	C 	0.7552	0.9504	0.55113	0.048
Mof_C 	C 	0.7507	0.0188	0.5287	-0.476
Mof_C 	C 	0.7502	0.0242	0.46512	0.621
Mof_C 	C 	0.0677	0.6368	0.7429	0.423
Mof_C 	C 	0.0156	0.6967	0.7706	0.058
Mof_C 	C 	0.0091	0.7537	0.7308	-0.471
Mof_C 	C 	0.9661	0.8155	0.7561	0.594
Mof_C 	C 	0.5537	0.8041	0.7636	0.425
Mof_C 	C 	0.5028	0.7418	0.7396	0.053
Mof_C 	C 	0.5089	0.6857	0.7796	-0.452
Mof_C 	C 	0.4711	0.6219	0.7535	0.577
Mof_C 	C 	0.7432	0.0457	0.1158	0.435
Mof_C 	C 	0.7448	0.0496	0.05113	0.045
Mof_C 	C 	0.7493	0.9812	0.0287	-0.469
Mof_C 	C 	0.7498	0.9758	0.96512	0.614
Mof_C 	C 	0.5677	0.8632	0.2571	0.422
Mof_C 	C 	0.5156	0.8033	0.2294	0.059
Mof_C 	C 	0.5091	0.7463	0.2692	-0.474
Mof_C 	C 	0.4661	0.6845	0.2439	0.595
Mof_C 	C 	0.0537	0.6959	0.2364	0.425
Mof_C 	C 	0.0028	0.7582	0.2604	0.053
Mof_C 	C 	0.0089	0.8143	0.2204	-0.451
Mof_C 	C 	0.9711	0.8781	0.2465	0.576
Mof_C 	C 	0.2432	0.4543	0.8842	0.434
Mof_C 	C 	0.2448	0.4504	0.94887	0.049
Mof_C 	C 	0.2493	0.5188	0.9713	-0.477
Mof_C 	C 	0.2498	0.5242	0.03488	0.62
Mof_C 	C 	0.9323	0.1368	0.7571	0.423
Mof_C 	C 	0.9844	0.1967	0.7294	0.058
Mof_C 	C 	0.9909	0.2537	0.7692	-0.471
Mof_C 	C 	0.0339	0.3155	0.7439	0.593
Mof_C 	C 	0.4463	0.3041	0.7364	0.425
Mof_C 	C 	0.4972	0.2418	0.7604	0.053
Mof_C 	C 	0.4911	0.1857	0.7204	-0.452
Mof_C 	C 	0.5289	0.1219	0.7465	0.577
Mof_C 	C 	0.2568	0.5457	0.3842	0.434
Mof_C 	C 	0.2552	0.5496	0.44887	0.049
Mof_C 	C 	0.2507	0.4812	0.4713	-0.477
Mof_C 	C 	0.2502	0.4758	0.53488	0.62
Mof_N 	N 	0.6017	0.3191	0.2944	-0.395
Mof_N 	N 	0.1207	0.246	0.223	-0.391
Mof_N 	N 	0.8634	0.9189	0.5311	-0.388
Mof_N 	N 	0.8983	0.6809	0.7944	-0.395
Mof_N 	N 	0.3793	0.754	0.723	-0.391
Mof_N 	N 	0.6366	0.0811	0.0311	-0.389
Mof_N 	N 	0.3983	0.8191	0.2056	-0.395
Mof_N 	N 	0.8793	0.746	0.277	-0.391
Mof_N 	N 	0.1366	0.4189	0.9689	-0.387
Mof_N 	N 	0.1017	0.1809	0.7056	-0.395
Mof_N 	N 	0.6207	0.254	0.777	-0.391
Mof_N 	N 	0.3634	0.5811	0.4689	-0.388
Mof_O 	O 	0.7471	0.09498	0.24907	-0.967
Mof_O 	O 	0.7579	0.96646	0.24358	-0.961
Mof_O 	O 	0.638	0.02414	0.33126	-0.969
Mof_O 	O 	0.8752	0.03179	0.32964	-0.948
Mof_O 	O 	0.479	0.41593	0.2553	-0.536
Mof_O 	O 	0.3491	0.3546	0.21126	-0.524
Mof_O 	O 	0.6001	0.1882	0.29845	-0.561
Mof_O 	O 	0.5041	0.1331	0.2331	-0.582
Mof_O 	O 	0.9876	0.144	0.2448	-0.537
Mof_O 	O 	0.8677	0.2019	0.2983	-0.513
Mof_O 	O 	0.0012	0.4283	0.2795	-0.562
Mof_O 	O 	0.0851	0.3761	0.2082	-0.574
Mof_O 	O 	0.8542	0.9557	0.63979	-0.56
Mof_O 	O 	0.6603	0.9585	0.63851	-0.558
Mof_O 	O 	0.7543	0.97327	0.43761	-0.589
Mof_O 	O 	0.7441	0.07957	0.44453	-0.547
Mof_O 	O 	0.1144	0.0324	0.28	-0.291
Mof_O 	O 	0.0756	0.0526	0.1575	-0.274
Mof_O 	O 	0.3996	0.0277	0.2934	-0.285
Mof_O 	O 	0.4152	0.0144	0.1695	-0.302
Mof_O 	O 	0.9337	0.143	0.4013	-0.274
Mof_O 	O 	0.733	0.2291	0.3969	-0.282
Mof_O 	O 	0.5512	0.135	0.3997	-0.266
Mof_O 	O 	0.5752	0.9039	0.393	-0.275
Mof_O 	O 	0.7866	0.8225	0.387	-0.285
Mof_O 	O 	0.9548	0.9179	0.403	-0.273
Mof_O 	O 	0.7529	0.90502	0.74907	-0.966
Mof_O 	O 	0.7421	0.03354	0.74358	-0.96
Mof_O 	O 	0.862	0.97586	0.83126	-0.97
Mof_O 	O 	0.6248	0.96821	0.82964	-0.949
Mof_O 	O 	0.021	0.58407	0.7553	-0.537
Mof_O 	O 	0.1509	0.6454	0.71126	-0.524
Mof_O 	O 	0.8999	0.8118	0.79845	-0.561
Mof_O 	O 	0.9959	0.8669	0.7331	-0.582
Mof_O 	O 	0.5124	0.856	0.7448	-0.537
Mof_O 	O 	0.6323	0.7981	0.7983	-0.513
Mof_O 	O 	0.4988	0.5717	0.7795	-0.563
Mof_O 	O 	0.4149	0.6239	0.7082	-0.575
Mof_O 	O 	0.6458	0.0443	0.13979	-0.561
Mof_O 	O 	0.8397	0.0415	0.13851	-0.559
Mof_O 	O 	0.7457	0.02673	0.93761	-0.585
Mof_O 	O 	0.7559	0.92043	0.94453	-0.546
Mof_O 	O 	0.3856	0.9676	0.78	-0.29
Mof_O 	O 	0.4244	0.9474	0.6575	-0.272
Mof_O 	O 	0.1004	0.9723	0.7934	-0.284
Mof_O 	O 	0.0848	0.9856	0.6695	-0.301
Mof_O 	O 	0.5663	0.857	0.9013	-0.275
Mof_O 	O 	0.767	0.7709	0.8969	-0.282
Mof_O 	O 	0.9488	0.865	0.8997	-0.267
Mof_O 	O 	0.9248	0.0961	0.893	-0.274
Mof_O 	O 	0.7134	0.1775	0.887	-0.285
Mof_O 	O 	0.5452	0.0821	0.903	-0.272
Mof_O 	O 	0.2529	0.59498	0.25093	-0.966
Mof_O 	O 	0.2421	0.46646	0.25642	-0.961
Mof_O 	O 	0.362	0.52414	0.16874	-0.969
Mof_O 	O 	0.1248	0.53179	0.17036	-0.948
Mof_O 	O 	0.521	0.91593	0.2447	-0.536
Mof_O 	O 	0.6509	0.8546	0.28874	-0.524
Mof_O 	O 	0.3999	0.6882	0.20155	-0.561
Mof_O 	O 	0.4959	0.6331	0.2669	-0.582
Mof_O 	O 	0.0124	0.644	0.2552	-0.537
Mof_O 	O 	0.1323	0.7019	0.2017	-0.513
Mof_O 	O 	0.9988	0.9283	0.2205	-0.562
Mof_O 	O 	0.9149	0.8761	0.2918	-0.575
Mof_O 	O 	0.1458	0.4557	0.86021	-0.56
Mof_O 	O 	0.3397	0.4585	0.86149	-0.559
Mof_O 	O 	0.2457	0.47327	0.06239	-0.589
Mof_O 	O 	0.2559	0.57957	0.05547	-0.547
Mof_O 	O 	0.8856	0.5324	0.22	-0.29
Mof_O 	O 	0.9244	0.5526	0.3425	-0.272
Mof_O 	O 	0.6004	0.5277	0.2066	-0.285
Mof_O 	O 	0.5848	0.5144	0.3305	-0.302
Mof_O 	O 	0.0663	0.643	0.0987	-0.274
Mof_O 	O 	0.267	0.7291	0.1031	-0.282
Mof_O 	O 	0.4488	0.635	0.1003	-0.266
Mof_O 	O 	0.4248	0.4039	0.107	-0.275
Mof_O 	O 	0.2134	0.3225	0.113	-0.285
Mof_O 	O 	0.0452	0.4179	0.097	-0.273
Mof_O 	O 	0.2471	0.40502	0.75093	-0.966
Mof_O 	O 	0.2579	0.53354	0.75642	-0.961
Mof_O 	O 	0.138	0.47586	0.66874	-0.969
Mof_O 	O 	0.3752	0.46821	0.67036	-0.948
Mof_O 	O 	0.979	0.08407	0.7447	-0.535
Mof_O 	O 	0.8491	0.1454	0.78874	-0.524
Mof_O 	O 	0.1001	0.3118	0.70155	-0.561
Mof_O 	O 	0.0041	0.3669	0.7669	-0.582
Mof_O 	O 	0.4876	0.356	0.7552	-0.537
Mof_O 	O 	0.3677	0.2981	0.7017	-0.513
Mof_O 	O 	0.5012	0.0717	0.7205	-0.562
Mof_O 	O 	0.5851	0.1239	0.7918	-0.575
Mof_O 	O 	0.3542	0.5443	0.36021	-0.56
Mof_O 	O 	0.1603	0.5415	0.36149	-0.559
Mof_O 	O 	0.2543	0.52673	0.56239	-0.589
Mof_O 	O 	0.2441	0.42043	0.55547	-0.547
Mof_O 	O 	0.6144	0.4676	0.72	-0.29
Mof_O 	O 	0.5756	0.4474	0.8425	-0.272
Mof_O 	O 	0.8996	0.4723	0.7066	-0.285
Mof_O 	O 	0.9152	0.4856	0.8305	-0.301
Mof_O 	O 	0.4337	0.357	0.5987	-0.274
Mof_O 	O 	0.233	0.2709	0.6031	-0.282
Mof_O 	O 	0.0512	0.365	0.6003	-0.266
Mof_O 	O 	0.0752	0.5961	0.607	-0.275
Mof_O 	O 	0.2866	0.6775	0.613	-0.285
Mof_O 	O 	0.4548	0.5821	0.597	-0.272
Mof_Cl	Cl	0.7461	0.37088	0.15533	-0.241
Mof_O 	O 	0.7516	0.438	0.1497	0.025
Mof_O 	O 	0.7832	0.3691	0.2129	-0.044
Mof_O 	O 	0.6384	0.3468	0.142	-0.006
Mof_O 	O 	0.8302	0.3447	0.1193	0.018
Mof_Cl	Cl	0.24693	0.18073	0.36127	-0.221
Mof_O 	O 	0.2472	0.1138	0.355	0.024
Mof_O 	O 	0.1404	0.2109	0.3642	-0.012
Mof_O 	O 	0.2688	0.206	0.307	-0.055
Mof_O 	O 	0.3345	0.2117	0.3913	0.022
Mof_Cl	Cl	0.9886	0.21298	0.04986	-0.225
Mof_O 	O 	0.0173	0.1863	0.102	-0.016
Mof_O 	O 	0.0162	0.2789	0.0505	0.009
Mof_O 	O 	0.0434	0.1866	0.0018	0.022
Mof_O 	O 	0.868	0.2034	0.0443	-0.009
Mof_Cl	Cl	0.4054	0.01396	0.49766	-0.253
Mof_O 	O 	0.3428	0.025	0.5484	0.027
Mof_O 	O 	0.3195	0.0073	0.4579	0.041
Mof_O 	O 	0.4769	0.0666	0.4887	0.009
Mof_O 	O 	0.4765	0.9618	0.5079	0.018
Mof_Cl	Cl	0.4712	0.85195	0.05244	-0.209
Mof_O 	O 	0.5139	0.8765	0.105	-0.057
Mof_O 	O 	0.3549	0.8765	0.0599	0.014
Mof_O 	O 	0.4752	0.784	0.0629	0.016
Mof_O 	O 	0.5105	0.8972	0.0104	-0.011
Mof_Cl	Cl	0.7539	0.62912	0.65533	-0.241
Mof_O 	O 	0.7484	0.562	0.6497	0.025
Mof_O 	O 	0.7168	0.6309	0.7129	-0.044
Mof_O 	O 	0.8616	0.6532	0.642	-0.006
Mof_O 	O 	0.6698	0.6553	0.6193	0.018
Mof_Cl	Cl	0.25307	0.81927	0.86127	-0.221
Mof_O 	O 	0.2528	0.8862	0.855	0.024
Mof_O 	O 	0.3596	0.7891	0.8642	-0.011
Mof_O 	O 	0.2312	0.794	0.807	-0.055
Mof_O 	O 	0.1655	0.7883	0.8913	0.022
Mof_Cl	Cl	0.5114	0.78702	0.54986	-0.23
Mof_O 	O 	0.4827	0.8137	0.602	-0.014
Mof_O 	O 	0.4838	0.7211	0.5505	0.011
Mof_O 	O 	0.4566	0.8134	0.5018	0.025
Mof_O 	O 	0.632	0.7966	0.5443	-0.008
Mof_Cl	Cl	0.0946	0.98604	0.99766	-0.253
Mof_O 	O 	0.1572	0.975	0.0484	0.029
Mof_O 	O 	0.1805	0.9927	0.9579	0.041
Mof_O 	O 	0.0231	0.9334	0.9887	0.009
Mof_O 	O 	0.0235	0.0382	0.0079	0.015
Mof_Cl	Cl	0.0288	0.14805	0.55244	-0.211
Mof_O 	O 	0.9861	0.1235	0.605	-0.056
Mof_O 	O 	0.1451	0.1235	0.5599	0.014
Mof_O 	O 	0.0248	0.216	0.5629	0.016
Mof_O 	O 	0.9895	0.1028	0.5104	-0.01
Mof_Cl	Cl	0.2539	0.87088	0.34467	-0.241
Mof_O 	O 	0.2484	0.938	0.3503	0.026
Mof_O 	O 	0.2168	0.8691	0.2871	-0.044
Mof_O 	O 	0.3616	0.8468	0.358	-0.006
Mof_O 	O 	0.1698	0.8447	0.3807	0.018
Mof_Cl	Cl	0.75307	0.68073	0.13873	-0.221
Mof_O 	O 	0.7528	0.6138	0.145	0.024
Mof_O 	O 	0.8596	0.7109	0.1358	-0.011
Mof_O 	O 	0.7312	0.706	0.193	-0.055
Mof_O 	O 	0.6655	0.7117	0.1087	0.022
Mof_Cl	Cl	0.0114	0.71298	0.45014	-0.229
Mof_O 	O 	0.9827	0.6863	0.398	-0.014
Mof_O 	O 	0.9838	0.7789	0.4495	0.011
Mof_O 	O 	0.9566	0.6866	0.4982	0.025
Mof_O 	O 	0.132	0.7034	0.4557	-0.008
Mof_Cl	Cl	0.5946	0.51396	0.00234	-0.253
Mof_O 	O 	0.6572	0.525	0.9516	0.027
Mof_O 	O 	0.6805	0.5073	0.0421	0.042
Mof_O 	O 	0.5231	0.5666	0.0113	0.009
Mof_O 	O 	0.5235	0.4618	0.9921	0.018
Mof_Cl	Cl	0.5288	0.35195	0.44756	-0.208
Mof_O 	O 	0.4861	0.3765	0.395	-0.058
Mof_O 	O 	0.6451	0.3765	0.4401	0.014
Mof_O 	O 	0.5248	0.284	0.4371	0.016
Mof_O 	O 	0.4895	0.3972	0.4896	-0.012
Mof_Cl	Cl	0.2461	0.12912	0.84467	-0.241
Mof_O 	O 	0.2516	0.062	0.8503	0.026
Mof_O 	O 	0.2832	0.1309	0.7871	-0.044
Mof_O 	O 	0.1384	0.1532	0.858	-0.006
Mof_O 	O 	0.3302	0.1553	0.8807	0.018
Mof_Cl	Cl	0.74693	0.31927	0.63873	-0.221
Mof_O 	O 	0.7472	0.3862	0.645	0.024
Mof_O 	O 	0.6404	0.2891	0.6358	-0.011
Mof_O 	O 	0.7688	0.294	0.693	-0.055
Mof_O 	O 	0.8345	0.2883	0.6087	0.023
Mof_Cl	Cl	0.4886	0.28702	0.95014	-0.23
Mof_O 	O 	0.5173	0.3137	0.898	-0.014
Mof_O 	O 	0.5162	0.2211	0.9495	0.011
Mof_O 	O 	0.5434	0.3134	0.9982	0.025
Mof_O 	O 	0.368	0.2966	0.9557	-0.008
Mof_Cl	Cl	0.9054	0.48604	0.50234	-0.253
Mof_O 	O 	0.8428	0.475	0.4516	0.027
Mof_O 	O 	0.8195	0.4927	0.5421	0.042
Mof_O 	O 	0.9769	0.4334	0.5113	0.009
Mof_O 	O 	0.9765	0.5382	0.4921	0.018
Mof_Cl	Cl	0.9712	0.64805	0.94756	-0.209
Mof_O 	O 	0.0139	0.6235	0.895	-0.058
Mof_O 	O 	0.8549	0.6235	0.9401	0.013
Mof_O 	O 	0.9752	0.716	0.9371	0.016
Mof_O 	O 	0.0105	0.6028	0.9896	-0.012
_end
