# CIF file generated by openbabel 3.1.0, see https://openbabel.org
data_I
_chemical_name_common 'image0'
_cell_length_a 20.8189
_cell_length_b 23.3745
_cell_length_c 12.7036
_cell_angle_alpha 90
_cell_angle_beta 90
_cell_angle_gamma 90
_space_group_name_H-M_alt 'P 1'
_space_group_name_Hall 'P 1'
loop_
    _symmetry_equiv_pos_as_xyz
    x,y,z
loop_
    _atom_site_label
    _atom_site_type_symbol
    _atom_site_fract_x
    _atom_site_fract_y
    _atom_site_fract_z
    _atom_site_occupancy
    Zn1      Zn       0.26814    0.09942    0.05448    1.000
    Zn2      Zn       0.17379    0.13582    0.23588    1.000
    Zn3      Zn       0.25137    0.02363    0.27078    1.000
    Zn4      Zn       0.32565    0.13507    0.28856    1.000
    O1       O        0.25550    0.09898    0.21320    1.000
    O2       O        0.64520    0.90830    0.91900    1.000
    O3       O        0.32580    0.71320    0.79130    1.000
    O4       O        0.10860    0.11930    0.12930    1.000
    O5       O        0.68370    0.99410    0.87700    1.000
    O6       O        0.29460    0.01051    0.03110    1.000
    O7       O        0.23590    0.69050    0.87810    1.000
    O8       O        0.83250    0.99510    0.83420    1.000
    O9       O        0.39560    0.08450    0.21180    1.000
    O10      O        0.26000    0.96190    0.17300    1.000
    O11      O        0.87610    0.90780    0.84900    1.000
    O12      O        0.17400    0.06780    0.02670    1.000
    C1       C        0.64230    0.96160    0.91700    1.000
    O13      O        0.36620    0.11713    0.05520    1.000
    C2       C        0.12130    0.08280    0.05910    1.000
    C3       C        0.87610    0.96090    0.85920    1.000
    C4       C        0.27910    0.72340    0.85410    1.000
    C5       C        0.27790    0.96720    0.07690    1.000
    C6       C        0.40200    0.09040    0.11630    1.000
    C7       C        0.06310    0.05430    0.01070    1.000
    C8       C        0.93540    0.98840    0.90560    1.000
    B1       B        0.96420    0.97580    0.01900    1.000
    B2       B        0.05830    0.03090    0.89250    1.000
    B3       B        0.99660    0.04250    0.06900    1.000
    B4       B        0.00510    0.08590    0.95180    1.000
    B5       B        0.00830    0.96790    0.89420    1.000
    B6       B        0.05000    0.98720    0.01380    1.000
    B7       B        0.97620    0.03810    0.84980    1.000
    B8       B        0.93280    0.04550    0.97620    1.000
    H1       H        0.93400    0.95600    0.07500    1.000
    H2       H        0.09730    0.03500    0.84100    1.000
    H3       H        0.98600    0.06100    0.14200    1.000
    H4       H        0.00200    0.13070    0.94500    1.000
    H5       H        0.01200    0.92990    0.85100    1.000
    H6       H        0.08400    0.96290    0.05600    1.000
    H7       H        0.95600    0.05100    0.77800    1.000
    H8       H        0.88670    0.06200    0.99200    1.000
    C9       C        0.45910    0.05960    0.06890    1.000
    C10      C        0.58550    0.99040    0.96670    1.000
    B9       B        0.51290    0.96980    0.95850    1.000
    B10      B        0.52610    0.04870    0.12740    1.000
    B11      B        0.46310    0.03340    0.95320    1.000
    B12      B        0.51560    0.08900    0.00260    1.000
    B13      B        0.55720    0.98110    0.08230    1.000
    B14      B        0.47140    0.99240    0.07640    1.000
    B15      B        0.58880    0.04970    0.02980    1.000
    B16      B        0.54340    0.03800    0.90650    1.000
    H9       H        0.50100    0.94100    0.89800    1.000
    H10      H        0.53300    0.06300    0.20500    1.000
    H11      H        0.42790    0.04300    0.89600    1.000
    H12      H        0.51600    0.13280    0.98400    1.000
    H13      H        0.58200    0.94920    0.12400    1.000
    H14      H        0.43500    0.96900    0.11400    1.000
    H15      H        0.63530    0.06700    0.03100    1.000
    H16      H        0.55700    0.04600    0.82800    1.000
    C11      C        0.27920    0.91100    0.01850    1.000
    C12      C        0.28240    0.78170    0.90450    1.000
    B17      B        0.34360    0.82030    0.92750    1.000
    B18      B        0.23120    0.88940    0.92830    1.000
    B19      B        0.32750    0.86030    0.04690    1.000
    B20      B        0.24100    0.85590    0.05990    1.000
    B21      B        0.27520    0.84120    0.84400    1.000
    B22      B        0.32000    0.89450    0.91660    1.000
    B23      B        0.21910    0.81360    0.94560    1.000
    B24      B        0.28830    0.79350    0.02900    1.000
    H17      H        0.38900    0.80040    0.93100    1.000
    H18      H        0.19500    0.91650    0.89800    1.000
    H19      H        0.35690    0.86300    0.11400    1.000
    H20      H        0.21300    0.85600    0.12900    1.000
    H21      H        0.27300    0.83600    0.76200    1.000
    H22      H        0.34900    0.92720    0.88600    1.000
    H23      H        0.17770    0.78800    0.93900    1.000
    H24      H        0.29500    0.75720    0.07600    1.000
    C13      C        0.27870    0.90940    0.02600    1.000
    C14      C        0.27720    0.78200    0.90500    1.000
    B25      B        0.33470    0.80610    0.97420    1.000
    B26      B        0.25480    0.89790    0.90800    1.000
    B27      B        0.29990    0.85000    0.07710    1.000
    B28      B        0.22000    0.86510    0.02830    1.000
    B29      B        0.30260    0.84040    0.85480    1.000
    B30      B        0.33660    0.88300    0.95970    1.000
    B31      B        0.21970    0.82750    0.90330    1.000
    B32      B        0.25280    0.79380    0.02330    1.000
    H25      H        0.36800    0.77680    0.00600    1.000
    H26      H        0.23900    0.93170    0.86000    1.000
    H27      H        0.30900    0.84600    0.15800    1.000
    H28      H        0.17770    0.87300    0.07100    1.000
    H29      H        0.32040    0.83400    0.77800    1.000
    H30      H        0.37900    0.90780    0.95800    1.000
    H31      H        0.17800    0.81200    0.86500    1.000
    H32      H        0.23700    0.75770    0.06500    1.000
    Zn5      Zn       0.73186    0.90058    0.55448    1.000
    Zn6      Zn       0.82621    0.86418    0.73588    1.000
    Zn7      Zn       0.74863    0.97637    0.77078    1.000
    Zn8      Zn       0.67435    0.86493    0.78856    1.000
    O14      O        0.74450    0.90102    0.71320    1.000
    O15      O        0.35480    0.09170    0.41900    1.000
    O16      O        0.67420    0.28680    0.29130    1.000
    O17      O        0.89140    0.88070    0.62930    1.000
    O18      O        0.31630    0.00590    0.37700    1.000
    O19      O        0.70540    0.98949    0.53110    1.000
    O20      O        0.76410    0.30950    0.37810    1.000
    O21      O        0.16750    0.00490    0.33420    1.000
    O22      O        0.60440    0.91550    0.71180    1.000
    O23      O        0.74000    0.03810    0.67300    1.000
    O24      O        0.12390    0.09220    0.34900    1.000
    O25      O        0.82600    0.93220    0.52670    1.000
    C15      C        0.35770    0.03840    0.41700    1.000
    O26      O        0.63380    0.88287    0.55520    1.000
    C16      C        0.87870    0.91720    0.55910    1.000
    C17      C        0.12390    0.03910    0.35920    1.000
    C18      C        0.72090    0.27660    0.35410    1.000
    C19      C        0.72210    0.03280    0.57690    1.000
    C20      C        0.59800    0.90960    0.61630    1.000
    C21      C        0.93690    0.94570    0.51070    1.000
    C22      C        0.06460    0.01160    0.40560    1.000
    B33      B        0.03580    0.02420    0.51900    1.000
    B34      B        0.94170    0.96910    0.39250    1.000
    B35      B        0.00340    0.95750    0.56900    1.000
    B36      B        0.99490    0.91410    0.45180    1.000
    B37      B        0.99170    0.03210    0.39420    1.000
    B38      B        0.95000    0.01280    0.51380    1.000
    B39      B        0.02380    0.96190    0.34980    1.000
    B40      B        0.06720    0.95450    0.47620    1.000
    H33      H        0.06600    0.04400    0.57500    1.000
    H34      H        0.90270    0.96500    0.34100    1.000
    H35      H        0.01400    0.93900    0.64200    1.000
    H36      H        0.99800    0.86930    0.44500    1.000
    H37      H        0.98800    0.07010    0.35100    1.000
    H38      H        0.91600    0.03710    0.55600    1.000
    H39      H        0.04400    0.94900    0.27800    1.000
    H40      H        0.11330    0.93800    0.49200    1.000
    C23      C        0.54090    0.94040    0.56890    1.000
    C24      C        0.41450    0.00960    0.46670    1.000
    B41      B        0.48710    0.03020    0.45850    1.000
    B42      B        0.47390    0.95130    0.62740    1.000
    B43      B        0.53690    0.96660    0.45320    1.000
    B44      B        0.48440    0.91100    0.50260    1.000
    B45      B        0.44280    0.01890    0.58230    1.000
    B46      B        0.52860    0.00760    0.57640    1.000
    B47      B        0.41120    0.95030    0.52980    1.000
    B48      B        0.45660    0.96200    0.40650    1.000
    H41      H        0.49900    0.05900    0.39800    1.000
    H42      H        0.46700    0.93700    0.70500    1.000
    H43      H        0.57210    0.95700    0.39600    1.000
    H44      H        0.48400    0.86720    0.48400    1.000
    H45      H        0.41800    0.05080    0.62400    1.000
    H46      H        0.56500    0.03100    0.61400    1.000
    H47      H        0.36470    0.93300    0.53100    1.000
    H48      H        0.44300    0.95400    0.32800    1.000
    C25      C        0.72080    0.08900    0.51850    1.000
    C26      C        0.71760    0.21830    0.40450    1.000
    B49      B        0.65640    0.17970    0.42750    1.000
    B50      B        0.76880    0.11060    0.42830    1.000
    B51      B        0.67250    0.13970    0.54690    1.000
    B52      B        0.75900    0.14410    0.55990    1.000
    B53      B        0.72480    0.15880    0.34400    1.000
    B54      B        0.68000    0.10550    0.41660    1.000
    B55      B        0.78090    0.18640    0.44560    1.000
    B56      B        0.71170    0.20650    0.52900    1.000
    H49      H        0.61100    0.19960    0.43100    1.000
    H50      H        0.80500    0.08350    0.39800    1.000
    H51      H        0.64310    0.13700    0.61400    1.000
    H52      H        0.78700    0.14400    0.62900    1.000
    H53      H        0.72700    0.16400    0.26200    1.000
    H54      H        0.65100    0.07280    0.38600    1.000
    H55      H        0.82230    0.21200    0.43900    1.000
    H56      H        0.70500    0.24280    0.57600    1.000
    C27      C        0.72130    0.09060    0.52600    1.000
    C28      C        0.72280    0.21800    0.40500    1.000
    B57      B        0.66530    0.19390    0.47420    1.000
    B58      B        0.74520    0.10210    0.40800    1.000
    B59      B        0.70010    0.15000    0.57710    1.000
    B60      B        0.78000    0.13490    0.52830    1.000
    B61      B        0.69740    0.15960    0.35480    1.000
    B62      B        0.66340    0.11700    0.45970    1.000
    B63      B        0.78030    0.17250    0.40330    1.000
    B64      B        0.74720    0.20620    0.52330    1.000
    H57      H        0.63200    0.22320    0.50600    1.000
    H58      H        0.76100    0.06830    0.36000    1.000
    H59      H        0.69100    0.15400    0.65800    1.000
    H60      H        0.82230    0.12700    0.57100    1.000
    H61      H        0.67960    0.16600    0.27800    1.000
    H62      H        0.62100    0.09220    0.45800    1.000
    H63      H        0.82200    0.18800    0.36500    1.000
    H64      H        0.76300    0.24230    0.56500    1.000
    Zn9      Zn       0.76814    0.40058    0.05448    1.000
    Zn10     Zn       0.67379    0.36418    0.23588    1.000
    Zn11     Zn       0.75137    0.47637    0.27078    1.000
    Zn12     Zn       0.82565    0.36493    0.28856    1.000
    O27      O        0.75550    0.40102    0.21320    1.000
    O28      O        0.14520    0.59170    0.91900    1.000
    O29      O        0.82580    0.78680    0.79130    1.000
    O30      O        0.60860    0.38070    0.12930    1.000
    O31      O        0.18370    0.50590    0.87700    1.000
    O32      O        0.79460    0.48949    0.03110    1.000
    O33      O        0.73590    0.80950    0.87810    1.000
    O34      O        0.33250    0.50490    0.83420    1.000
    O35      O        0.89560    0.41550    0.21180    1.000
    O36      O        0.76000    0.53810    0.17300    1.000
    O37      O        0.37610    0.59220    0.84900    1.000
    O38      O        0.67400    0.43220    0.02670    1.000
    C29      C        0.14230    0.53840    0.91700    1.000
    O39      O        0.86620    0.38287    0.05520    1.000
    C30      C        0.62130    0.41720    0.05910    1.000
    C31      C        0.37610    0.53910    0.85920    1.000
    C32      C        0.77910    0.77660    0.85410    1.000
    C33      C        0.77790    0.53280    0.07690    1.000
    C34      C        0.90200    0.40960    0.11630    1.000
    C35      C        0.56310    0.44570    0.01070    1.000
    C36      C        0.43540    0.51160    0.90560    1.000
    B65      B        0.46420    0.52420    0.01900    1.000
    B66      B        0.55830    0.46910    0.89250    1.000
    B67      B        0.49660    0.45750    0.06900    1.000
    B68      B        0.50510    0.41410    0.95180    1.000
    B69      B        0.50830    0.53210    0.89420    1.000
    B70      B        0.55000    0.51280    0.01380    1.000
    B71      B        0.47620    0.46190    0.84980    1.000
    B72      B        0.43280    0.45450    0.97620    1.000
    H65      H        0.43400    0.54400    0.07500    1.000
    H66      H        0.59730    0.46500    0.84100    1.000
    H67      H        0.48600    0.43900    0.14200    1.000
    H68      H        0.50200    0.36930    0.94500    1.000
    H69      H        0.51200    0.57010    0.85100    1.000
    H70      H        0.58400    0.53710    0.05600    1.000
    H71      H        0.45600    0.44900    0.77800    1.000
    H72      H        0.38670    0.43800    0.99200    1.000
    C37      C        0.95910    0.44040    0.06890    1.000
    C38      C        0.08550    0.50960    0.96670    1.000
    B73      B        0.01290    0.53020    0.95850    1.000
    B74      B        0.02610    0.45130    0.12740    1.000
    B75      B        0.96310    0.46660    0.95320    1.000
    B76      B        0.01560    0.41100    0.00260    1.000
    B77      B        0.05720    0.51890    0.08230    1.000
    B78      B        0.97140    0.50760    0.07640    1.000
    B79      B        0.08880    0.45030    0.02980    1.000
    B80      B        0.04340    0.46200    0.90650    1.000
    H73      H        0.00100    0.55900    0.89800    1.000
    H74      H        0.03300    0.43700    0.20500    1.000
    H75      H        0.92790    0.45700    0.89600    1.000
    H76      H        0.01600    0.36720    0.98400    1.000
    H77      H        0.08200    0.55080    0.12400    1.000
    H78      H        0.93500    0.53100    0.11400    1.000
    H79      H        0.13530    0.43300    0.03100    1.000
    H80      H        0.05700    0.45400    0.82800    1.000
    C39      C        0.77920    0.58900    0.01850    1.000
    C40      C        0.78240    0.71830    0.90450    1.000
    B81      B        0.84360    0.67970    0.92750    1.000
    B82      B        0.73120    0.61060    0.92830    1.000
    B83      B        0.82750    0.63970    0.04690    1.000
    B84      B        0.74100    0.64410    0.05990    1.000
    B85      B        0.77520    0.65880    0.84400    1.000
    B86      B        0.82000    0.60550    0.91660    1.000
    B87      B        0.71910    0.68640    0.94560    1.000
    B88      B        0.78830    0.70650    0.02900    1.000
    H81      H        0.88900    0.69960    0.93100    1.000
    H82      H        0.69500    0.58350    0.89800    1.000
    H83      H        0.85690    0.63700    0.11400    1.000
    H84      H        0.71300    0.64400    0.12900    1.000
    H85      H        0.77300    0.66400    0.76200    1.000
    H86      H        0.84900    0.57280    0.88600    1.000
    H87      H        0.67770    0.71200    0.93900    1.000
    H88      H        0.79500    0.74280    0.07600    1.000
    C41      C        0.77870    0.59060    0.02600    1.000
    C42      C        0.77720    0.71800    0.90500    1.000
    B89      B        0.83470    0.69390    0.97420    1.000
    B90      B        0.75480    0.60210    0.90800    1.000
    B91      B        0.79990    0.65000    0.07710    1.000
    B92      B        0.72000    0.63490    0.02830    1.000
    B93      B        0.80260    0.65960    0.85480    1.000
    B94      B        0.83660    0.61700    0.95970    1.000
    B95      B        0.71970    0.67250    0.90330    1.000
    B96      B        0.75280    0.70620    0.02330    1.000
    H89      H        0.86800    0.72320    0.00600    1.000
    H90      H        0.73900    0.56830    0.86000    1.000
    H91      H        0.80900    0.65400    0.15800    1.000
    H92      H        0.67770    0.62700    0.07100    1.000
    H93      H        0.82040    0.66600    0.77800    1.000
    H94      H        0.87900    0.59220    0.95800    1.000
    H95      H        0.67800    0.68800    0.86500    1.000
    H96      H        0.73700    0.74230    0.06500    1.000
    Zn13     Zn       0.23186    0.59942    0.55448    1.000
    Zn14     Zn       0.32621    0.63582    0.73588    1.000
    Zn15     Zn       0.24863    0.52363    0.77078    1.000
    Zn16     Zn       0.17435    0.63507    0.78856    1.000
    O40      O        0.24450    0.59898    0.71320    1.000
    O41      O        0.85480    0.40830    0.41900    1.000
    O42      O        0.17420    0.21320    0.29130    1.000
    O43      O        0.39140    0.61930    0.62930    1.000
    O44      O        0.81630    0.49410    0.37700    1.000
    O45      O        0.20540    0.51051    0.53110    1.000
    O46      O        0.26410    0.19050    0.37810    1.000
    O47      O        0.66750    0.49510    0.33420    1.000
    O48      O        0.10440    0.58450    0.71180    1.000
    O49      O        0.24000    0.46190    0.67300    1.000
    O50      O        0.62390    0.40780    0.34900    1.000
    O51      O        0.32600    0.56780    0.52670    1.000
    C43      C        0.85770    0.46160    0.41700    1.000
    O52      O        0.13380    0.61713    0.55520    1.000
    C44      C        0.37870    0.58280    0.55910    1.000
    C45      C        0.62390    0.46090    0.35920    1.000
    C46      C        0.22090    0.22340    0.35410    1.000
    C47      C        0.22210    0.46720    0.57690    1.000
    C48      C        0.09800    0.59040    0.61630    1.000
    C49      C        0.43690    0.55430    0.51070    1.000
    C50      C        0.56460    0.48840    0.40560    1.000
    B97      B        0.53580    0.47580    0.51900    1.000
    B98      B        0.44170    0.53090    0.39250    1.000
    B99      B        0.50340    0.54250    0.56900    1.000
    B100     B        0.49490    0.58590    0.45180    1.000
    B101     B        0.49170    0.46790    0.39420    1.000
    B102     B        0.45000    0.48720    0.51380    1.000
    B103     B        0.52380    0.53810    0.34980    1.000
    B104     B        0.56720    0.54550    0.47620    1.000
    H97      H        0.56600    0.45600    0.57500    1.000
    H98      H        0.40270    0.53500    0.34100    1.000
    H99      H        0.51400    0.56100    0.64200    1.000
    H100     H        0.49800    0.63070    0.44500    1.000
    H101     H        0.48800    0.42990    0.35100    1.000
    H102     H        0.41600    0.46290    0.55600    1.000
    H103     H        0.54400    0.55100    0.27800    1.000
    H104     H        0.61330    0.56200    0.49200    1.000
    C51      C        0.04090    0.55960    0.56890    1.000
    C52      C        0.91450    0.49040    0.46670    1.000
    B105     B        0.98710    0.46980    0.45850    1.000
    B106     B        0.97390    0.54870    0.62740    1.000
    B107     B        0.03690    0.53340    0.45320    1.000
    B108     B        0.98440    0.58900    0.50260    1.000
    B109     B        0.94280    0.48110    0.58230    1.000
    B110     B        0.02860    0.49240    0.57640    1.000
    B111     B        0.91120    0.54970    0.52980    1.000
    B112     B        0.95660    0.53800    0.40650    1.000
    H105     H        0.99900    0.44100    0.39800    1.000
    H106     H        0.96700    0.56300    0.70500    1.000
    H107     H        0.07210    0.54300    0.39600    1.000
    H108     H        0.98400    0.63280    0.48400    1.000
    H109     H        0.91800    0.44920    0.62400    1.000
    H110     H        0.06500    0.46900    0.61400    1.000
    H111     H        0.86470    0.56700    0.53100    1.000
    H112     H        0.94300    0.54600    0.32800    1.000
    C53      C        0.22080    0.41100    0.51850    1.000
    C54      C        0.21760    0.28170    0.40450    1.000
    B113     B        0.15640    0.32030    0.42750    1.000
    B114     B        0.26880    0.38940    0.42830    1.000
    B115     B        0.17250    0.36030    0.54690    1.000
    B116     B        0.25900    0.35590    0.55990    1.000
    B117     B        0.22480    0.34120    0.34400    1.000
    B118     B        0.18000    0.39450    0.41660    1.000
    B119     B        0.28090    0.31360    0.44560    1.000
    B120     B        0.21170    0.29350    0.52900    1.000
    H113     H        0.11100    0.30040    0.43100    1.000
    H114     H        0.30500    0.41650    0.39800    1.000
    H115     H        0.14310    0.36300    0.61400    1.000
    H116     H        0.28700    0.35600    0.62900    1.000
    H117     H        0.22700    0.33600    0.26200    1.000
    H118     H        0.15100    0.42720    0.38600    1.000
    H119     H        0.32230    0.28800    0.43900    1.000
    H120     H        0.20500    0.25720    0.57600    1.000
    C55      C        0.22130    0.40940    0.52600    1.000
    C56      C        0.22280    0.28200    0.40500    1.000
    B121     B        0.16530    0.30610    0.47420    1.000
    B122     B        0.24520    0.39790    0.40800    1.000
    B123     B        0.20010    0.35000    0.57710    1.000
    B124     B        0.28000    0.36510    0.52830    1.000
    B125     B        0.19740    0.34040    0.35480    1.000
    B126     B        0.16340    0.38300    0.45970    1.000
    B127     B        0.28030    0.32750    0.40330    1.000
    B128     B        0.24720    0.29380    0.52330    1.000
    H121     H        0.13200    0.27680    0.50600    1.000
    H122     H        0.26100    0.43170    0.36000    1.000
    H123     H        0.19100    0.34600    0.65800    1.000
    H124     H        0.32230    0.37300    0.57100    1.000
    H125     H        0.17960    0.33400    0.27800    1.000
    H126     H        0.12100    0.40780    0.45800    1.000
    H127     H        0.32200    0.31200    0.36500    1.000
    H128     H        0.26300    0.25770    0.56500    1.000
