# CIF file generated by openbabel 3.1.0, see https://openbabel.org
data_I
_chemical_name_common 'EHODOV_clean'
_cell_length_a 13.9668
_cell_length_b 25.3174
_cell_length_c 25.1821
_cell_angle_alpha 32.1101
_cell_angle_beta 74.4783
_cell_angle_gamma 73.4115
_space_group_name_H-M_alt 'P 1'
_space_group_name_Hall 'P 1'
loop_
    _symmetry_equiv_pos_as_xyz
    x,y,z
loop_
    _atom_site_label
    _atom_site_type_symbol
    _atom_site_fract_x
    _atom_site_fract_y
    _atom_site_fract_z
    _atom_site_occupancy
    H1       H        0.03550    0.43170    0.90770    1.000
    H2       H        0.27420    0.44460    0.95420    1.000
    H3       H        0.04330    0.65970    0.87790    1.000
    H4       H        0.04190    0.75030    0.87830    1.000
    H5       H        0.11040    0.98720    0.58280    1.000
    H6       H        0.98390    0.59730    0.79310    1.000
    H7       H        0.10640    0.89800    0.58240    1.000
    H8       H        0.22170    0.61350    0.83390    1.000
    C9       C        0.19212    0.31228    0.01888    1.000
    C10      C        0.07328    0.46692    0.89472    1.000
    C11      C        0.21555    0.47485    0.92185    1.000
    C12      C        0.07946    0.87834    0.73034    1.000
    C13      C        0.07767    0.76953    0.73053    1.000
    C14      C        0.05706    0.72574    0.81874    1.000
    C15      C        0.15870    0.41990    0.94490    1.000
    C16      C        0.05690    0.77950    0.81910    1.000
    C17      C        0.08271    0.93529    0.73129    1.000
    C18      C        0.09708    0.92092    0.64252    1.000
    C19      C        0.04312    0.56648    0.82508    1.000
    C20      C        0.09558    0.86802    0.64202    1.000
    C21      C        0.09828    0.61892    0.80332    1.000
    C22      C        0.18410    0.57590    0.84990    1.000
    O23      O        0.06286    0.23556    0.48794    1.000
    O24      O        0.11681    0.01943    0.65251    1.000
    O25      O        0.05243    0.89803    0.80937    1.000
    O26      O        0.26835    0.27181    0.06615    1.000
    O27      O        0.14196    0.27292    0.02584    1.000
    O28      O        0.07169    0.72051    0.72511    1.000
    H29      H        0.43170    0.03550    0.62510    1.000
    H30      H        0.44460    0.27420    0.32700    1.000
    H31      H        0.65970    0.04330    0.41910    1.000
    H32      H        0.75030    0.04190    0.32950    1.000
    H33      H        0.98720    0.11040    0.31960    1.000
    H34      H        0.59730    0.98390    0.62570    1.000
    H35      H        0.89800    0.10640    0.41320    1.000
    H36      H        0.61350    0.22170    0.33090    1.000
    C37      C        0.31228    0.19212    0.47672    1.000
    C38      C        0.46692    0.07328    0.56508    1.000
    C39      C        0.47485    0.21555    0.38775    1.000
    C40      C        0.87834    0.07946    0.31186    1.000
    C41      C        0.76953    0.07767    0.42227    1.000
    C42      C        0.72574    0.05706    0.39846    1.000
    C43      C        0.41990    0.15870    0.47650    1.000
    C44      C        0.77950    0.05690    0.34450    1.000
    C45      C        0.93529    0.08271    0.25071    1.000
    C46      C        0.92092    0.09708    0.33948    1.000
    C47      C        0.56648    0.04312    0.56532    1.000
    C48      C        0.86802    0.09558    0.39438    1.000
    C49      C        0.61892    0.09828    0.47948    1.000
    C50      C        0.57590    0.18410    0.39010    1.000
    O51      O        0.23556    0.06286    0.21364    1.000
    O52      O        0.01943    0.11681    0.21125    1.000
    O53      O        0.89803    0.05243    0.24017    1.000
    O54      O        0.27181    0.26835    0.39369    1.000
    O55      O        0.27292    0.14196    0.55928    1.000
    O56      O        0.72051    0.07169    0.48269    1.000
    H57      H        0.90770    0.62510    0.03550    1.000
    H58      H        0.95420    0.32700    0.27420    1.000
    H59      H        0.87790    0.41910    0.04330    1.000
    H60      H        0.87830    0.32950    0.04190    1.000
    H61      H        0.58280    0.31960    0.11040    1.000
    H62      H        0.79310    0.62570    0.98390    1.000
    H63      H        0.58240    0.41320    0.10640    1.000
    H64      H        0.83390    0.33090    0.22170    1.000
    C65      C        0.01888    0.47672    0.19212    1.000
    C66      C        0.89472    0.56508    0.07328    1.000
    C67      C        0.92185    0.38775    0.21555    1.000
    C68      C        0.73034    0.31186    0.07946    1.000
    C69      C        0.73053    0.42227    0.07767    1.000
    C70      C        0.81874    0.39846    0.05706    1.000
    C71      C        0.94490    0.47650    0.15870    1.000
    C72      C        0.81910    0.34450    0.05690    1.000
    C73      C        0.73129    0.25071    0.08271    1.000
    C74      C        0.64252    0.33948    0.09708    1.000
    C75      C        0.82508    0.56532    0.04312    1.000
    C76      C        0.64202    0.39438    0.09558    1.000
    C77      C        0.80332    0.47948    0.09828    1.000
    C78      C        0.84990    0.39010    0.18410    1.000
    O79      O        0.48794    0.21364    0.06286    1.000
    O80      O        0.65251    0.21125    0.11681    1.000
    O81      O        0.80937    0.24017    0.05243    1.000
    O82      O        0.06615    0.39369    0.26835    1.000
    O83      O        0.02584    0.55928    0.14196    1.000
    O84      O        0.72511    0.48269    0.07169    1.000
    H85      H        0.62510    0.90770    0.43170    1.000
    H86      H        0.32700    0.95420    0.44460    1.000
    H87      H        0.41910    0.87790    0.65970    1.000
    H88      H        0.32950    0.87830    0.75030    1.000
    H89      H        0.31960    0.58280    0.98720    1.000
    H90      H        0.62570    0.79310    0.59730    1.000
    H91      H        0.41320    0.58240    0.89800    1.000
    H92      H        0.33090    0.83390    0.61350    1.000
    C93      C        0.47672    0.01888    0.31228    1.000
    C94      C        0.56508    0.89472    0.46692    1.000
    C95      C        0.38775    0.92185    0.47485    1.000
    C96      C        0.31186    0.73034    0.87834    1.000
    C97      C        0.42227    0.73053    0.76953    1.000
    C98      C        0.39846    0.81874    0.72574    1.000
    C99      C        0.47650    0.94490    0.41990    1.000
    C100     C        0.34450    0.81910    0.77950    1.000
    C101     C        0.25071    0.73129    0.93529    1.000
    C102     C        0.33948    0.64252    0.92092    1.000
    C103     C        0.56532    0.82508    0.56648    1.000
    C104     C        0.39438    0.64202    0.86802    1.000
    C105     C        0.47948    0.80332    0.61892    1.000
    C106     C        0.39010    0.84990    0.57590    1.000
    O107     O        0.21364    0.48794    0.23556    1.000
    O108     O        0.21125    0.65251    0.01943    1.000
    O109     O        0.24017    0.80937    0.89803    1.000
    O110     O        0.39369    0.06615    0.27181    1.000
    O111     O        0.55928    0.02584    0.27292    1.000
    O112     O        0.48269    0.72511    0.72051    1.000
    H113     H        0.27607    0.49173    0.24415    1.000
    H114     H        0.21450    0.81830    0.34230    1.000
    H115     H        0.97580    0.80540    0.29580    1.000
    H116     H        0.20670    0.59030    0.37210    1.000
    H117     H        0.20810    0.49970    0.37170    1.000
    H118     H        0.13960    0.26280    0.66720    1.000
    H119     H        0.26610    0.65270    0.45690    1.000
    H120     H        0.14360    0.35200    0.66760    1.000
    H121     H        0.02830    0.63650    0.41610    1.000
    C122     C        0.05788    0.93772    0.23112    1.000
    C123     C        0.17672    0.78308    0.35528    1.000
    C124     C        0.03445    0.77515    0.32815    1.000
    C125     C        0.17054    0.37166    0.51966    1.000
    C126     C        0.17233    0.48047    0.51947    1.000
    C127     C        0.19294    0.52426    0.43126    1.000
    C128     C        0.09130    0.83010    0.30510    1.000
    C129     C        0.19310    0.47050    0.43090    1.000
    C130     C        0.16729    0.31471    0.51871    1.000
    C131     C        0.15292    0.32908    0.60748    1.000
    C132     C        0.20688    0.68352    0.42492    1.000
    C133     C        0.15442    0.38198    0.60798    1.000
    C134     C        0.15172    0.63108    0.44668    1.000
    C135     C        0.06590    0.67410    0.40010    1.000
    O136     O        0.18714    0.01444    0.76206    1.000
    O137     O        0.13319    0.23057    0.59749    1.000
    O138     O        0.19757    0.35197    0.44063    1.000
    O139     O        0.98165    0.97819    0.18385    1.000
    O140     O        0.10804    0.97708    0.22416    1.000
    O141     O        0.17831    0.52949    0.52489    1.000
    H142     H        0.26194    0.00585    0.75827    1.000
    H143     H        0.81830    0.21450    0.62490    1.000
    H144     H        0.80540    0.97580    0.92300    1.000
    H145     H        0.59030    0.20670    0.83090    1.000
    H146     H        0.49970    0.20810    0.92050    1.000
    H147     H        0.26280    0.13960    0.93040    1.000
    H148     H        0.65270    0.26610    0.62430    1.000
    H149     H        0.35200    0.14360    0.83680    1.000
    H150     H        0.63650    0.02830    0.91910    1.000
    C151     C        0.93772    0.05788    0.77328    1.000
    C152     C        0.78308    0.17672    0.68492    1.000
    C153     C        0.77515    0.03445    0.86225    1.000
    C154     C        0.37166    0.17054    0.93814    1.000
    C155     C        0.48047    0.17233    0.82773    1.000
    C156     C        0.52426    0.19294    0.85154    1.000
    C157     C        0.83010    0.09130    0.77350    1.000
    C158     C        0.47050    0.19310    0.90550    1.000
    C159     C        0.31471    0.16729    0.99929    1.000
    C160     C        0.32908    0.15292    0.91052    1.000
    C161     C        0.68352    0.20688    0.68468    1.000
    C162     C        0.38198    0.15442    0.85562    1.000
    C163     C        0.63108    0.15172    0.77052    1.000
    C164     C        0.67410    0.06590    0.85990    1.000
    O165     O        0.01444    0.18714    0.03636    1.000
    O166     O        0.23057    0.13319    0.03875    1.000
    O167     O        0.35197    0.19757    0.00983    1.000
    O168     O        0.97819    0.98165    0.85631    1.000
    O169     O        0.97708    0.10804    0.69072    1.000
    O170     O        0.52949    0.17831    0.76731    1.000
    H171     H        0.34230    0.62490    0.21450    1.000
    H172     H        0.29580    0.92300    0.97580    1.000
    H173     H        0.37210    0.83090    0.20670    1.000
    H174     H        0.37170    0.92050    0.20810    1.000
    H175     H        0.66720    0.93040    0.13960    1.000
    H176     H        0.45690    0.62430    0.26610    1.000
    H177     H        0.66760    0.83680    0.14360    1.000
    H178     H        0.41610    0.91910    0.02830    1.000
    C179     C        0.23112    0.77328    0.05788    1.000
    C180     C        0.35528    0.68492    0.17672    1.000
    C181     C        0.32815    0.86225    0.03445    1.000
    C182     C        0.51966    0.93814    0.17054    1.000
    C183     C        0.51947    0.82773    0.17233    1.000
    C184     C        0.43126    0.85154    0.19294    1.000
    C185     C        0.30510    0.77350    0.09130    1.000
    C186     C        0.43090    0.90550    0.19310    1.000
    C187     C        0.51871    0.99929    0.16729    1.000
    C188     C        0.60748    0.91052    0.15292    1.000
    C189     C        0.42492    0.68468    0.20688    1.000
    C190     C        0.60798    0.85562    0.15442    1.000
    C191     C        0.44668    0.77052    0.15172    1.000
    C192     C        0.40010    0.85990    0.06590    1.000
    O193     O        0.76206    0.03636    0.18714    1.000
    O194     O        0.59749    0.03875    0.13319    1.000
    O195     O        0.44063    0.00983    0.19757    1.000
    O196     O        0.18385    0.85631    0.98165    1.000
    O197     O        0.22416    0.69072    0.10804    1.000
    O198     O        0.52489    0.76731    0.17831    1.000
    H199     H        0.62490    0.34230    0.81830    1.000
    H200     H        0.92300    0.29580    0.80540    1.000
    H201     H        0.83090    0.37210    0.59030    1.000
    H202     H        0.92050    0.37170    0.49970    1.000
    H203     H        0.93040    0.66720    0.26280    1.000
    H204     H        0.62430    0.45690    0.65270    1.000
    H205     H        0.83680    0.66760    0.35200    1.000
    H206     H        0.91910    0.41610    0.63650    1.000
    C207     C        0.77328    0.23112    0.93772    1.000
    C208     C        0.68492    0.35528    0.78308    1.000
    C209     C        0.86225    0.32815    0.77515    1.000
    C210     C        0.93814    0.51966    0.37166    1.000
    C211     C        0.82773    0.51947    0.48047    1.000
    C212     C        0.85154    0.43126    0.52426    1.000
    C213     C        0.77350    0.30510    0.83010    1.000
    C214     C        0.90550    0.43090    0.47050    1.000
    C215     C        0.99929    0.51871    0.31471    1.000
    C216     C        0.91052    0.60748    0.32908    1.000
    C217     C        0.68468    0.42492    0.68352    1.000
    C218     C        0.85562    0.60798    0.38198    1.000
    C219     C        0.77052    0.44668    0.63108    1.000
    C220     C        0.85990    0.40010    0.67410    1.000
    O221     O        0.03636    0.76206    0.01444    1.000
    O222     O        0.03875    0.59749    0.23057    1.000
    O223     O        0.00983    0.44063    0.35197    1.000
    O224     O        0.85631    0.18385    0.97819    1.000
    O225     O        0.69072    0.22416    0.97708    1.000
    O226     O        0.76731    0.52489    0.52949    1.000
    In227    In       0.12500    0.12500    0.62500    1.000
    In228    In       0.12500    0.12500    0.12500    1.000
    In229    In       0.62500    0.12500    0.12500    1.000
    In230    In       0.12500    0.62500    0.12500    1.000
    In231    In       0.13881    0.36119    0.36119    1.000
    In232    In       0.36119    0.13881    0.13881    1.000
    In233    In       0.11119    0.88881    0.88881    1.000
    In234    In       0.88881    0.11119    0.11119    1.000
    H235     H        0.49173    0.27607    0.98806    1.000
    H236     H        0.00585    0.26194    0.97393    1.000
    H237     H        0.24415    0.98806    0.27607    1.000
    H238     H        0.75827    0.97393    0.26194    1.000
    H239     H        0.98806    0.24415    0.49173    1.000
    H240     H        0.97393    0.75827    0.00585    1.000
