data_functionalizedCrystal
_audit_creation_method	'EQeq! by Chris Wilmer'
_symmetry_space_group_name_H-M	'P1'
_symmetry_Int_Tables_number	1
_symmetry_cell_setting	triclinic
loop_
_symmetry_equiv_pos_as_xyz
  x,y,z
_cell_length_a	5.0794
_cell_length_b	15.2154
_cell_length_c	16.3604
_cell_angle_alpha	90
_cell_angle_beta	95.696
_cell_angle_gamma	90
loop_
_atom_site_label
_atom_site_type_symbol
_atom_site_fract_x
_atom_site_fract_y
_atom_site_fract_z
_atom_site_charge
Mof_Co	Co	0.34531	0.19683	0.0815	1.156
Mof_Co	Co	0.96517	0.32292	0.21633	1.175
Mof_Co	Co	0.99154	0.92892	0.18005	1.19
Mof_P 	P 	0.41477	0.39932	0.13006	0.512
Mof_P 	P 	0.92488	0.13034	0.16225	0.547
Mof_P 	P 	0.52525	0.88622	0.08784	0.527
Mof_O 	O 	0.3072	0.38624	0.2162	-0.589
Mof_O 	O 	0.2926	0.32627	0.07351	-0.449
Mof_O 	O 	0.7163	0.3899	0.14293	-0.438
Mof_O 	O 	0.3335	0.488	0.09607	-0.219
Mof_O 	O 	0.0307	0.11464	0.07757	-0.613
Mof_O 	O 	0.9675	0.04994	0.21735	-0.446
Mof_O 	O 	0.1019	0.20543	0.20106	-0.528
Mof_O 	O 	0.6374	0.1583	0.1579	-0.488
Mof_O 	O 	0.2448	0.92096	0.09495	-0.544
Mof_O 	O 	0.6529	0.85468	0.17465	-0.564
Mof_O 	O 	0.5221	0.80917	0.02908	-0.462
Mof_O 	O 	0.7106	0.95977	0.06687	-0.504
Mof_Co	Co	0.15469	0.69683	0.4185	1.166
Mof_Co	Co	0.53483	0.82292	0.28367	1.166
Mof_Co	Co	0.50846	0.42892	0.31995	1.162
Mof_P 	P 	0.08523	0.89932	0.36994	0.492
Mof_P 	P 	0.57512	0.63034	0.33775	0.514
Mof_P 	P 	0.97475	0.38622	0.41216	0.55
Mof_O 	O 	0.1928	0.88624	0.2838	-0.579
Mof_O 	O 	0.2074	0.82627	0.42649	-0.417
Mof_O 	O 	0.7837	0.8899	0.35707	-0.404
Mof_O 	O 	0.1665	0.988	0.40393	-0.162
Mof_O 	O 	0.4693	0.61464	0.42243	-0.554
Mof_O 	O 	0.5325	0.54994	0.28265	-0.413
Mof_O 	O 	0.3981	0.70543	0.29894	-0.507
Mof_O 	O 	0.8626	0.6583	0.3421	-0.453
Mof_O 	O 	0.2552	0.42096	0.40505	-0.563
Mof_O 	O 	0.8471	0.35468	0.32535	-0.569
Mof_O 	O 	0.9779	0.30917	0.47092	-0.423
Mof_O 	O 	0.7894	0.45977	0.43313	-0.532
Mof_Co	Co	0.65469	0.80317	0.9185	1.189
Mof_Co	Co	0.03483	0.67708	0.78367	1.147
Mof_Co	Co	0.00846	0.07108	0.81995	1.133
Mof_P 	P 	0.58523	0.60068	0.86994	0.512
Mof_P 	P 	0.07512	0.86966	0.83775	0.457
Mof_P 	P 	0.47475	0.11378	0.91216	0.53
Mof_O 	O 	0.6928	0.61376	0.7838	-0.564
Mof_O 	O 	0.7074	0.67373	0.92649	-0.394
Mof_O 	O 	0.2837	0.6101	0.85707	-0.439
Mof_O 	O 	0.6665	0.512	0.90393	-0.163
Mof_O 	O 	0.9693	0.88536	0.92243	-0.468
Mof_O 	O 	0.0325	0.95006	0.78265	-0.379
Mof_O 	O 	0.8981	0.79457	0.79894	-0.453
Mof_O 	O 	0.3626	0.8417	0.8421	-0.448
Mof_O 	O 	0.7552	0.07904	0.90505	-0.518
Mof_O 	O 	0.3471	0.14532	0.82535	-0.574
Mof_O 	O 	0.4779	0.19083	0.97092	-0.385
Mof_O 	O 	0.2894	0.04023	0.93313	-0.539
Mof_Co	Co	0.84531	0.30317	0.5815	1.18
Mof_Co	Co	0.46517	0.17708	0.71633	1.163
Mof_Co	Co	0.49154	0.57108	0.68005	1.165
Mof_P 	P 	0.91477	0.10068	0.63006	0.539
Mof_P 	P 	0.42488	0.36966	0.66225	0.515
Mof_P 	P 	0.02525	0.61378	0.58784	0.504
Mof_O 	O 	0.8072	0.11376	0.7162	-0.574
Mof_O 	O 	0.7926	0.17373	0.57351	-0.428
Mof_O 	O 	0.2163	0.1101	0.64293	-0.473
Mof_O 	O 	0.8335	0.012	0.59607	-0.217
Mof_O 	O 	0.5307	0.38536	0.57757	-0.558
Mof_O 	O 	0.4675	0.45006	0.71735	-0.407
Mof_O 	O 	0.6019	0.29457	0.70106	-0.491
Mof_O 	O 	0.1374	0.3417	0.6579	-0.487
Mof_O 	O 	0.7448	0.57904	0.59495	-0.518
Mof_O 	O 	0.1529	0.64532	0.67465	-0.572
Mof_O 	O 	0.0221	0.69083	0.52908	-0.431
Mof_O 	O 	0.2106	0.54023	0.56687	-0.54
Mof_Co	Co	-0	0	-0	1.085
Mof_Co	Co	0.5	0.5	0.5	1.164
_end
