# CIF file generated by openbabel 3.1.0, see https://openbabel.org
data_I
_chemical_name_common 'image0'
_cell_length_a 11.545
_cell_length_b 20.225
_cell_length_c 14.39
_cell_angle_alpha 90
_cell_angle_beta 90.528
_cell_angle_gamma 90
_space_group_name_H-M_alt 'P 1'
_space_group_name_Hall 'P 1'
loop_
    _symmetry_equiv_pos_as_xyz
    x,y,z
loop_
    _atom_site_label
    _atom_site_type_symbol
    _atom_site_fract_x
    _atom_site_fract_y
    _atom_site_fract_z
    _atom_site_occupancy
    Co1      Co       0.24613    0.12178    0.23127    1.000
    Co2      Co       0.31192    0.13856    0.00057    1.000
    Co3      Co       0.14780    0.25533    0.09642    1.000
    O1       O        0.41990    0.13397    0.20482    1.000
    O2       O        0.46630    0.16478    0.06128    1.000
    O3       O        0.64860    0.20313    0.47164    1.000
    O4       O        0.80570    0.26350    0.44540    1.000
    O5       O        0.98230    0.25618    0.12900    1.000
    O6       O        0.95510    0.15608    0.06670    1.000
    O7       O        0.68300    0.95795    0.95970    1.000
    O8       O        0.77020    0.97305    0.82385    1.000
    O9       O        0.73570    0.28617    0.79888    1.000
    O10      O        0.72590    0.20078    0.70062    1.000
    O11      O        0.19691    0.16218    0.10261    1.000
    H1       H        0.14100    0.13700    0.08800    1.000
    N1       N        0.30160    0.07837    0.36037    1.000
    N2       N        0.40190    0.00170    0.62000    1.000
    H2       H        0.42950    0.96220    0.62250    1.000
    N3       N        0.36410    0.10212    0.87164    1.000
    C1       C        0.60830    0.17261    0.18190    1.000
    C2       C        0.61700    0.18609    0.27700    1.000
    H3       H        0.55230    0.18030    0.31410    1.000
    C3       C        0.72000    0.20805    0.31730    1.000
    C4       C        0.81570    0.21638    0.26110    1.000
    H4       H        0.88390    0.23320    0.28650    1.000
    C5       C        0.81140    0.19998    0.16710    1.000
    C6       C        0.70720    0.17797    0.12589    1.000
    C7       C        0.72560    0.22620    0.41840    1.000
    C8       C        0.92340    0.20401    0.11460    1.000
    C9       C        0.70880    0.15654    0.02620    1.000
    C10      C        0.71930    0.20141    0.95290    1.000
    H5       H        0.71960    0.24660    0.96500    1.000
    C11      C        0.72940    0.17868    0.86150    1.000
    C12      C        0.73370    0.11118    0.84380    1.000
    H6       H        0.74260    0.09600    0.78330    1.000
    C13      C        0.72470    0.06641    0.91650    1.000
    C14      C        0.71000    0.08951    0.00660    1.000
    H7       H        0.70080    0.05930    0.05470    1.000
    C15      C        0.73100    0.22622    0.78140    1.000
    C16      C        0.72660    0.99335    0.89840    1.000
    C17      C        0.35680    0.11553    0.42450    1.000
    H8       H        0.37150    0.15960    0.41020    1.000
    C18      C        0.39270    0.09240    0.50960    1.000
    H9       H        0.43170    0.12000    0.55100    1.000
    C19      C        0.36990    0.02684    0.53310    1.000
    C20      C        0.31750    0.98666    0.46650    1.000
    H10      H        0.30490    0.94200    0.47810    1.000
    C21      C        0.28460    0.01460    0.38230    1.000
    H11      H        0.24870    0.98760    0.33850    1.000
    C22      C        0.39210    0.03669    0.70270    1.000
    C23      C        0.45240    0.01634    0.78100    1.000
    H12      H        0.50280    0.98050    0.77830    1.000
    C24      C        0.43650    0.05017    0.86330    1.000
    H13      H        0.47790    0.03640    0.91550    1.000
    C25      C        0.30770    0.12074    0.79520    1.000
    H14      H        0.25880    0.15710    0.79960    1.000
    C26      C        0.31596    0.09052    0.71087    1.000
    H15      H        0.27250    0.10510    0.66020    1.000
    C27      C        0.48828    0.15564    0.14511    1.000
    Co4      Co       0.25387    0.62178    0.26873    1.000
    Co5      Co       0.18808    0.63856    0.49943    1.000
    Co6      Co       0.35220    0.75533    0.40358    1.000
    O12      O        0.08010    0.63397    0.29518    1.000
    O13      O        0.03370    0.66478    0.43872    1.000
    O14      O        0.85140    0.70313    0.02836    1.000
    O15      O        0.69430    0.76350    0.05460    1.000
    O16      O        0.51770    0.75618    0.37100    1.000
    O17      O        0.54490    0.65608    0.43330    1.000
    O18      O        0.81700    0.45795    0.54030    1.000
    O19      O        0.72980    0.47305    0.67615    1.000
    O20      O        0.76430    0.78617    0.70112    1.000
    O21      O        0.77410    0.70078    0.79938    1.000
    O22      O        0.30309    0.66218    0.39739    1.000
    H16      H        0.35900    0.63700    0.41200    1.000
    N4       N        0.19840    0.57837    0.13963    1.000
    N5       N        0.09810    0.50170    0.88000    1.000
    H17      H        0.07050    0.46220    0.87750    1.000
    N6       N        0.13590    0.60212    0.62836    1.000
    C28      C        0.89170    0.67261    0.31810    1.000
    C29      C        0.88300    0.68609    0.22300    1.000
    H18      H        0.94770    0.68030    0.18590    1.000
    C30      C        0.78000    0.70805    0.18270    1.000
    C31      C        0.68430    0.71638    0.23890    1.000
    H19      H        0.61610    0.73320    0.21350    1.000
    C32      C        0.68860    0.69998    0.33290    1.000
    C33      C        0.79280    0.67797    0.37411    1.000
    C34      C        0.77440    0.72620    0.08160    1.000
    C35      C        0.57660    0.70401    0.38540    1.000
    C36      C        0.79120    0.65654    0.47380    1.000
    C37      C        0.78070    0.70141    0.54710    1.000
    H20      H        0.78040    0.74660    0.53500    1.000
    C38      C        0.77060    0.67868    0.63850    1.000
    C39      C        0.76630    0.61118    0.65620    1.000
    H21      H        0.75740    0.59600    0.71670    1.000
    C40      C        0.77530    0.56641    0.58350    1.000
    C41      C        0.79000    0.58951    0.49340    1.000
    H22      H        0.79920    0.55930    0.44530    1.000
    C42      C        0.76900    0.72622    0.71860    1.000
    C43      C        0.77340    0.49335    0.60160    1.000
    C44      C        0.14320    0.61553    0.07550    1.000
    H23      H        0.12850    0.65960    0.08980    1.000
    C45      C        0.10730    0.59240    0.99040    1.000
    H24      H        0.06830    0.62000    0.94900    1.000
    C46      C        0.13010    0.52684    0.96690    1.000
    C47      C        0.18250    0.48666    0.03350    1.000
    H25      H        0.19510    0.44200    0.02190    1.000
    C48      C        0.21540    0.51460    0.11770    1.000
    H26      H        0.25130    0.48760    0.16150    1.000
    C49      C        0.10790    0.53669    0.79730    1.000
    C50      C        0.04760    0.51634    0.71900    1.000
    H27      H        0.99720    0.48050    0.72170    1.000
    C51      C        0.06350    0.55017    0.63670    1.000
    H28      H        0.02210    0.53640    0.58450    1.000
    C52      C        0.19230    0.62074    0.70480    1.000
    H29      H        0.24120    0.65710    0.70040    1.000
    C53      C        0.18404    0.59052    0.78913    1.000
    H30      H        0.22750    0.60510    0.83980    1.000
    C54      C        0.01172    0.65564    0.35489    1.000
    Co7      Co       0.75387    0.87822    0.76873    1.000
    Co8      Co       0.68808    0.86144    0.99943    1.000
    Co9      Co       0.85220    0.74467    0.90358    1.000
    O23      O        0.58010    0.86603    0.79518    1.000
    O24      O        0.53370    0.83522    0.93872    1.000
    O25      O        0.35140    0.79687    0.52836    1.000
    O26      O        0.19430    0.73650    0.55460    1.000
    O27      O        0.01770    0.74382    0.87100    1.000
    O28      O        0.04490    0.84392    0.93330    1.000
    O29      O        0.31700    0.04205    0.04030    1.000
    O30      O        0.22980    0.02695    0.17615    1.000
    O31      O        0.26430    0.71383    0.20112    1.000
    O32      O        0.27410    0.79922    0.29938    1.000
    O33      O        0.80309    0.83782    0.89739    1.000
    H31      H        0.85900    0.86300    0.91200    1.000
    N7       N        0.69840    0.92163    0.63963    1.000
    N8       N        0.59810    0.99830    0.38000    1.000
    H32      H        0.57050    0.03780    0.37750    1.000
    N9       N        0.63590    0.89788    0.12836    1.000
    C55      C        0.39170    0.82739    0.81810    1.000
    C56      C        0.38300    0.81391    0.72300    1.000
    H33      H        0.44770    0.81970    0.68590    1.000
    C57      C        0.28000    0.79195    0.68270    1.000
    C58      C        0.18430    0.78362    0.73890    1.000
    H34      H        0.11610    0.76680    0.71350    1.000
    C59      C        0.18860    0.80002    0.83290    1.000
    C60      C        0.29280    0.82203    0.87411    1.000
    C61      C        0.27440    0.77380    0.58160    1.000
    C62      C        0.07660    0.79599    0.88540    1.000
    C63      C        0.29120    0.84346    0.97380    1.000
    C64      C        0.28070    0.79859    0.04710    1.000
    H35      H        0.28040    0.75340    0.03500    1.000
    C65      C        0.27060    0.82132    0.13850    1.000
    C66      C        0.26630    0.88882    0.15620    1.000
    H36      H        0.25740    0.90400    0.21670    1.000
    C67      C        0.27530    0.93359    0.08350    1.000
    C68      C        0.29000    0.91049    0.99340    1.000
    H37      H        0.29920    0.94070    0.94530    1.000
    C69      C        0.26900    0.77378    0.21860    1.000
    C70      C        0.27340    0.00665    0.10160    1.000
    C71      C        0.64320    0.88447    0.57550    1.000
    H38      H        0.62850    0.84040    0.58980    1.000
    C72      C        0.60730    0.90760    0.49040    1.000
    H39      H        0.56830    0.88000    0.44900    1.000
    C73      C        0.63010    0.97316    0.46690    1.000
    C74      C        0.68250    0.01334    0.53350    1.000
    H40      H        0.69510    0.05800    0.52190    1.000
    C75      C        0.71540    0.98540    0.61770    1.000
    H41      H        0.75130    0.01240    0.66150    1.000
    C76      C        0.60790    0.96331    0.29730    1.000
    C77      C        0.54760    0.98366    0.21900    1.000
    H42      H        0.49720    0.01950    0.22170    1.000
    C78      C        0.56350    0.94983    0.13670    1.000
    H43      H        0.52210    0.96360    0.08450    1.000
    C79      C        0.69230    0.87926    0.20480    1.000
    H44      H        0.74120    0.84290    0.20040    1.000
    C80      C        0.68404    0.90948    0.28913    1.000
    H45      H        0.72750    0.89490    0.33980    1.000
    C81      C        0.51172    0.84436    0.85489    1.000
    Co10     Co       0.74613    0.37822    0.73127    1.000
    Co11     Co       0.81192    0.36144    0.50057    1.000
    Co12     Co       0.64780    0.24467    0.59642    1.000
    O34      O        0.91990    0.36603    0.70482    1.000
    O35      O        0.96630    0.33522    0.56128    1.000
    O36      O        0.14860    0.29687    0.97164    1.000
    O37      O        0.30570    0.23650    0.94540    1.000
    O38      O        0.48230    0.24382    0.62900    1.000
    O39      O        0.45510    0.34392    0.56670    1.000
    O40      O        0.18300    0.54205    0.45970    1.000
    O41      O        0.27020    0.52695    0.32385    1.000
    O42      O        0.23570    0.21383    0.29888    1.000
    O43      O        0.22590    0.29922    0.20062    1.000
    O44      O        0.69691    0.33782    0.60261    1.000
    H46      H        0.64100    0.36300    0.58800    1.000
    N10      N        0.80160    0.42163    0.86037    1.000
    N11      N        0.90190    0.49830    0.12000    1.000
    H47      H        0.92950    0.53780    0.12250    1.000
    N12      N        0.86410    0.39788    0.37164    1.000
    C82      C        0.10830    0.32739    0.68190    1.000
    C83      C        0.11700    0.31391    0.77700    1.000
    H48      H        0.05230    0.31970    0.81410    1.000
    C84      C        0.22000    0.29195    0.81730    1.000
    C85      C        0.31570    0.28362    0.76110    1.000
    H49      H        0.38390    0.26680    0.78650    1.000
    C86      C        0.31140    0.30002    0.66710    1.000
    C87      C        0.20720    0.32203    0.62589    1.000
    C88      C        0.22560    0.27380    0.91840    1.000
    C89      C        0.42340    0.29599    0.61460    1.000
    C90      C        0.20880    0.34346    0.52620    1.000
    C91      C        0.21930    0.29859    0.45290    1.000
    H50      H        0.21960    0.25340    0.46500    1.000
    C92      C        0.22940    0.32132    0.36150    1.000
    C93      C        0.23370    0.38882    0.34380    1.000
    H51      H        0.24260    0.40400    0.28330    1.000
    C94      C        0.22470    0.43359    0.41650    1.000
    C95      C        0.21000    0.41049    0.50660    1.000
    H52      H        0.20080    0.44070    0.55470    1.000
    C96      C        0.23100    0.27378    0.28140    1.000
    C97      C        0.22660    0.50665    0.39840    1.000
    C98      C        0.85680    0.38447    0.92450    1.000
    H53      H        0.87150    0.34040    0.91020    1.000
    C99      C        0.89270    0.40760    0.00960    1.000
    H54      H        0.93170    0.38000    0.05100    1.000
    C100     C        0.86990    0.47316    0.03310    1.000
    C101     C        0.81750    0.51334    0.96650    1.000
    H55      H        0.80490    0.55800    0.97810    1.000
    C102     C        0.78460    0.48540    0.88230    1.000
    H56      H        0.74870    0.51240    0.83850    1.000
    C103     C        0.89210    0.46331    0.20270    1.000
    C104     C        0.95240    0.48366    0.28100    1.000
    H57      H        0.00280    0.51950    0.27830    1.000
    C105     C        0.93650    0.44983    0.36330    1.000
    H58      H        0.97790    0.46360    0.41550    1.000
    C106     C        0.80770    0.37926    0.29520    1.000
    H59      H        0.75880    0.34290    0.29960    1.000
    C107     C        0.81596    0.40948    0.21087    1.000
    H60      H        0.77250    0.39490    0.16020    1.000
    C108     C        0.98828    0.34436    0.64511    1.000
