data_functionalizedCrystal
_audit_creation_method	'EQeq! by Chris Wilmer'
_symmetry_space_group_name_H-M	'P1'
_symmetry_Int_Tables_number	1
_symmetry_cell_setting	triclinic
loop_
_symmetry_equiv_pos_as_xyz
  x,y,z
_cell_length_a	12.4498
_cell_length_b	13.8157
_cell_length_c	14.579
_cell_angle_alpha	71.093
_cell_angle_beta	64.724
_cell_angle_gamma	63.2199
loop_
_atom_site_label
_atom_site_type_symbol
_atom_site_fract_x
_atom_site_fract_y
_atom_site_fract_z
_atom_site_charge
Mof_Cd	Cd	0.98614	0.04625	0.61003	0.461
Mof_Cd	Cd	0.64242	0.45375	0.88997	0.463
Mof_Cd	Cd	0.01386	0.95375	0.38997	0.461
Mof_Cd	Cd	0.35758	0.54625	0.11003	0.463
Mof_Cd	Cd	0.71735	0.25	0.75	0.517
Mof_Cd	Cd	0.28265	0.75	0.25	0.517
Mof_C 	C 	0.8364	0.2036	0.495	0.312
Mof_C 	C 	0.755	0.2859	0.4313	-0.07
Mof_C 	C 	0.6645	0.3279	0.3005	-0.004
Mof_C 	C 	0.9919	0.0429	0.7951	0.32
Mof_C 	C 	0.9966	0.0218	0.9012	-0.076
Mof_C 	C 	0.741	0.2526	0.3586	-0.005
Mof_C 	C 	0.5105	0.5173	0.2577	0.312
Mof_C 	C 	0.6015	0.4361	0.3163	-0.063
Mof_C 	C 	0.9043	0.092	0.9704	-0.01
Mof_C 	C 	0.6924	0.395	0.4466	-0.004
Mof_C 	C 	0.6166	0.4701	0.3887	-0.009
Mof_C 	C 	0.0923	0.93	0.9304	0.003
Mof_C 	C 	0.535	0.2964	0.005	0.314
Mof_C 	C 	0.4722	0.2141	0.0687	-0.072
Mof_C 	C 	0.2929	0.1721	0.1995	-0.006
Mof_C 	C 	0.8299	0.4571	0.7049	0.322
Mof_C 	C 	0.9196	0.4782	0.5988	-0.073
Mof_C 	C 	0.3522	0.2474	0.1414	-0.003
Mof_C 	C 	0.2855	0.9827	0.2423	0.306
Mof_C 	C 	0.3539	0.0639	0.1837	-0.059
Mof_C 	C 	0.9667	0.408	0.5296	-0.007
Mof_C 	C 	0.534	0.105	0.0534	-0
Mof_C 	C 	0.4754	0.0299	0.1113	-0.009
Mof_C 	C 	0.9527	0.57	0.5696	-0.002
Mof_C 	C 	0.1636	0.7964	0.505	0.311
Mof_C 	C 	0.245	0.7141	0.5687	-0.071
Mof_C 	C 	0.3355	0.6721	0.6995	-0.004
Mof_C 	C 	0.0081	0.9571	0.2049	0.32
Mof_C 	C 	0.0034	0.9782	0.0988	-0.076
Mof_C 	C 	0.259	0.7474	0.6414	-0.005
Mof_C 	C 	0.4895	0.4827	0.7423	0.312
Mof_C 	C 	0.3985	0.5639	0.6837	-0.063
Mof_C 	C 	0.0957	0.908	0.0296	-0.01
Mof_C 	C 	0.3076	0.605	0.5534	-0.004
Mof_C 	C 	0.3834	0.5299	0.6113	-0.009
Mof_C 	C 	0.9077	0.07	0.0696	0.003
Mof_C 	C 	0.465	0.7036	0.995	0.314
Mof_C 	C 	0.5278	0.7859	0.9313	-0.072
Mof_C 	C 	0.7071	0.8279	0.8005	-0.006
Mof_C 	C 	0.1701	0.5429	0.2951	0.322
Mof_C 	C 	0.0804	0.5218	0.4012	-0.073
Mof_C 	C 	0.6478	0.7526	0.8586	-0.003
Mof_C 	C 	0.7145	0.0173	0.7577	0.306
Mof_C 	C 	0.6461	0.9361	0.8163	-0.059
Mof_C 	C 	0.0333	0.592	0.4704	-0.007
Mof_C 	C 	0.466	0.895	0.9466	-0
Mof_C 	C 	0.5246	0.9701	0.8887	-0.009
Mof_C 	C 	0.0473	0.43	0.4304	-0.002
Mof_O 	O 	0.91319	0.11272	0.4663	-0.294
Mof_O 	O 	0.82882	0.22686	0.5749	-0.296
Mof_O 	O 	0.5079	0.4853	0.1881	-0.273
Mof_O 	O 	0.9085	0.127	0.7674	-0.297
Mof_O 	O 	0.445	0.6109	0.2849	-0.282
Mof_O 	O 	0.07	0.9742	0.7372	-0.291
Mof_O 	O 	0.49221	0.38728	0.0337	-0.294
Mof_O 	O 	0.63058	0.27314	0.9251	-0.297
Mof_O 	O 	0.1813	0.0147	0.3119	-0.268
Mof_O 	O 	0.8029	0.373	0.7326	-0.297
Mof_O 	O 	0.3408	0.8891	0.2151	-0.281
Mof_O 	O 	0.7814	0.5258	0.7628	-0.292
Mof_O 	O 	0.08681	0.88728	0.5337	-0.294
Mof_O 	O 	0.17118	0.77314	0.4251	-0.296
Mof_O 	O 	0.4921	0.5147	0.8119	-0.273
Mof_O 	O 	0.0915	0.873	0.2326	-0.297
Mof_O 	O 	0.555	0.3891	0.7151	-0.282
Mof_O 	O 	0.93	0.0258	0.2628	-0.291
Mof_O 	O 	0.50779	0.61272	0.9663	-0.294
Mof_O 	O 	0.36942	0.72686	0.0749	-0.297
Mof_O 	O 	0.8187	0.9853	0.6881	-0.268
Mof_O 	O 	0.1971	0.627	0.2674	-0.297
Mof_O 	O 	0.6592	0.1109	0.7849	-0.281
Mof_O 	O 	0.2186	0.4742	0.2372	-0.292
Mof_H 	H 	0.65382	0.30045	0.24007	0.049
Mof_H 	H 	0.79224	0.16325	0.34623	0.058
Mof_H 	H 	0.82608	0.16733	0.94608	0.053
Mof_H 	H 	0.70373	0.42223	0.50681	0.048
Mof_H 	H 	0.56647	0.55975	0.40012	0.05
Mof_H 	H 	0.16821	0.87254	0.87316	0.045
Mof_H 	H 	0.19434	0.19955	0.25993	0.05
Mof_H 	H 	0.30173	0.33675	0.15377	0.058
Mof_H 	H 	0.93948	0.33267	0.55392	0.053
Mof_H 	H 	0.63277	0.07777	0.99319	0.046
Mof_H 	H 	0.52634	0.94025	0.09988	0.049
Mof_H 	H 	0.9139	0.62746	0.62684	0.046
Mof_H 	H 	0.34618	0.69955	0.75993	0.049
Mof_H 	H 	0.20767	0.83678	0.65365	0.058
Mof_H 	H 	0.17417	0.83254	0.05345	0.053
Mof_H 	H 	0.29627	0.57777	0.49319	0.048
Mof_H 	H 	0.43353	0.44025	0.59988	0.05
Mof_H 	H 	0.83189	0.12736	0.12696	0.045
Mof_H 	H 	0.80566	0.80045	0.74007	0.05
Mof_H 	H 	0.69811	0.66322	0.84635	0.058
Mof_H 	H 	0.06052	0.66733	0.44608	0.053
Mof_H 	H 	0.36723	0.92223	0.00681	0.046
Mof_H 	H 	0.47351	0.05971	0.90023	0.049
Mof_H 	H 	0.0862	0.37264	0.37304	0.046
_end
