# CIF file generated by openbabel 3.1.0, see https://openbabel.org
data_I
_chemical_name_common 'image0'
_cell_length_a 33.843
_cell_length_b 9.954
_cell_length_c 35.817
_cell_angle_alpha 90
_cell_angle_beta 106.562
_cell_angle_gamma 90
_space_group_name_H-M_alt 'P 1'
_space_group_name_Hall 'P 1'
loop_
    _symmetry_equiv_pos_as_xyz
    x,y,z
loop_
    _atom_site_label
    _atom_site_type_symbol
    _atom_site_fract_x
    _atom_site_fract_y
    _atom_site_fract_z
    _atom_site_occupancy
    Zn1      Zn       0.87268    0.43594    0.14406    1.000
    Zn2      Zn       0.86110    0.67895    0.07371    1.000
    Zn3      Zn       0.09273    0.99573    0.12875    1.000
    Zn4      Zn       0.16658    0.75199    0.15989    1.000
    O1       O        0.87480    0.23250    0.14550    1.000
    O2       O        0.80000    0.82250    0.04340    1.000
    O3       O        0.85740    0.78380    0.02760    1.000
    O4       O        0.92050    0.43510    0.12240    1.000
    O5       O        0.91920    0.62280    0.08750    1.000
    O6       O        0.85860    0.75120    0.12360    1.000
    O7       O        0.88090    0.60670    0.17410    1.000
    O8       O        0.67750    0.97460    0.93820    1.000
    O9       O        0.68510    0.05140    0.88320    1.000
    O10      O        0.06040    0.82660    0.11940    1.000
    O11      O        0.11410    0.69030    0.12340    1.000
    O12      O        0.88800    0.00400    0.31330    1.000
    O13      O        0.86230    0.79830    0.29910    1.000
    O14      O        0.82180    0.07940    0.86410    1.000
    O15      O        0.87710    0.01240    0.91140    1.000
    O16      O        0.03890    0.11870    0.11170    1.000
    O17      O        0.09870    0.21420    0.12730    1.000
    C1       C        0.87650    0.22200    0.17310    1.000
    O18      O        0.87990    0.31440    0.19450    1.000
    C2       C        0.87190    0.07930    0.19460    1.000
    C3       C        0.87430    0.05770    0.23420    1.000
    H1       H        0.87670    0.13110    0.25070    1.000
    C4       C        0.87310    0.92770    0.24910    1.000
    C5       C        0.87360    0.81480    0.22470    1.000
    H2       H        0.87500    0.72760    0.23430    1.000
    C6       C        0.87200    0.83860    0.18620    1.000
    C7       C        0.87150    0.96680    0.17180    1.000
    H3       H        0.87090    0.97830    0.14580    1.000
    C8       C        0.82070    0.83240    0.02000    1.000
    C9       C        0.80330    0.90590    0.98250    1.000
    C10      C        0.76330    0.93090    0.96990    1.000
    H4       H        0.74670    0.90930    0.98570    1.000
    C11      C        0.74480    0.98980    0.93270    1.000
    C12      C        0.76990    0.02880    0.91050    1.000
    H5       H        0.75900    0.07280    0.88690    1.000
    C13      C        0.81240    0.00120    0.92390    1.000
    C14      C        0.93660    0.51820    0.10560    1.000
    C15      C        0.82860    0.94000    0.95970    1.000
    H6       H        0.85660    0.92150    0.96850    1.000
    C16      C        0.98090    0.49990    0.10790    1.000
    C17      C        0.99810    0.37010    0.10960    1.000
    H7       H        0.98140    0.29480    0.10790    1.000
    C18      C        0.03940    0.35540    0.11390    1.000
    C19      C        0.06360    0.46540    0.11570    1.000
    H8       H        0.09150    0.45440    0.11820    1.000
    C20      C        0.04750    0.59320    0.11390    1.000
    C21      C        0.00590    0.60870    0.10950    1.000
    H9       H        0.99470    0.69470    0.10760    1.000
    C22      C        0.07660    0.71360    0.11960    1.000
    C23      C        0.87250    0.90820    0.28980    1.000
    C24      C        0.83940    0.03660    0.89700    1.000
    C25      C        0.06100    0.21930    0.11750    1.000
    C26      C        0.69980    0.00850    0.91730    1.000
    C27      C        0.87080    0.72230    0.15990    1.000
    O19      O        0.19990    0.68900    0.12390    1.000
    N1       N        0.23160    0.52600    0.08700    1.000
    C28      C        0.19420    0.58700    0.10040    1.000
    C29      C        0.16250    0.48500    0.08820    1.000
    C30      C        0.18020    0.38700    0.07060    1.000
    C31      C        0.21890    0.43100    0.05840    1.000
    C32      C        0.27440    0.62100    0.09720    1.000
    C33      C        0.86340    0.21900    0.18580    1.000
    O20      O        0.84300    0.31000    0.19940    1.000
    O21      O        0.19190    0.58500    0.16690    1.000
    N2       N        0.19690    0.64100    0.10000    1.000
    C34      C        0.21130    0.56200    0.14060    1.000
    C35      C        0.25610    0.55700    0.14650    1.000
    C36      C        0.26200    0.58100    0.11060    1.000
    C37      C        0.22490    0.63500    0.07810    1.000
    C38      C        0.14540    0.62900    0.07840    1.000
    Zn5      Zn       0.37268    0.93594    0.14406    1.000
    Zn6      Zn       0.36110    0.17895    0.07371    1.000
    Zn7      Zn       0.59273    0.49573    0.12875    1.000
    Zn8      Zn       0.66658    0.25199    0.15989    1.000
    O22      O        0.37480    0.73250    0.14550    1.000
    O23      O        0.30000    0.32250    0.04340    1.000
    O24      O        0.35740    0.28380    0.02760    1.000
    O25      O        0.42050    0.93510    0.12240    1.000
    O26      O        0.41920    0.12280    0.08750    1.000
    O27      O        0.35860    0.25120    0.12360    1.000
    O28      O        0.38090    0.10670    0.17410    1.000
    O29      O        0.17750    0.47460    0.93820    1.000
    O30      O        0.18510    0.55140    0.88320    1.000
    O31      O        0.56040    0.32660    0.11940    1.000
    O32      O        0.61410    0.19030    0.12340    1.000
    O33      O        0.38800    0.50400    0.31330    1.000
    O34      O        0.36230    0.29830    0.29910    1.000
    O35      O        0.32180    0.57940    0.86410    1.000
    O36      O        0.37710    0.51240    0.91140    1.000
    O37      O        0.53890    0.61870    0.11170    1.000
    O38      O        0.59870    0.71420    0.12730    1.000
    C39      C        0.37650    0.72200    0.17310    1.000
    O39      O        0.37990    0.81440    0.19450    1.000
    C40      C        0.37190    0.57930    0.19460    1.000
    C41      C        0.37430    0.55770    0.23420    1.000
    H10      H        0.37670    0.63110    0.25070    1.000
    C42      C        0.37310    0.42770    0.24910    1.000
    C43      C        0.37360    0.31480    0.22470    1.000
    H11      H        0.37500    0.22760    0.23430    1.000
    C44      C        0.37200    0.33860    0.18620    1.000
    C45      C        0.37150    0.46680    0.17180    1.000
    H12      H        0.37090    0.47830    0.14580    1.000
    C46      C        0.32070    0.33240    0.02000    1.000
    C47      C        0.30330    0.40590    0.98250    1.000
    C48      C        0.26330    0.43090    0.96990    1.000
    H13      H        0.24670    0.40930    0.98570    1.000
    C49      C        0.24480    0.48980    0.93270    1.000
    C50      C        0.26990    0.52880    0.91050    1.000
    H14      H        0.25900    0.57280    0.88690    1.000
    C51      C        0.31240    0.50120    0.92390    1.000
    C52      C        0.43660    0.01820    0.10560    1.000
    C53      C        0.32860    0.44000    0.95970    1.000
    H15      H        0.35660    0.42150    0.96850    1.000
    C54      C        0.48090    0.99990    0.10790    1.000
    C55      C        0.49810    0.87010    0.10960    1.000
    H16      H        0.48140    0.79480    0.10790    1.000
    C56      C        0.53940    0.85540    0.11390    1.000
    C57      C        0.56360    0.96540    0.11570    1.000
    H17      H        0.59150    0.95440    0.11820    1.000
    C58      C        0.54750    0.09320    0.11390    1.000
    C59      C        0.50590    0.10870    0.10950    1.000
    H18      H        0.49470    0.19470    0.10760    1.000
    C60      C        0.57660    0.21360    0.11960    1.000
    C61      C        0.37250    0.40820    0.28980    1.000
    C62      C        0.33940    0.53660    0.89700    1.000
    C63      C        0.56100    0.71930    0.11750    1.000
    C64      C        0.19980    0.50850    0.91730    1.000
    C65      C        0.37080    0.22230    0.15990    1.000
    O40      O        0.69990    0.18900    0.12390    1.000
    N3       N        0.73160    0.02600    0.08700    1.000
    C66      C        0.69420    0.08700    0.10040    1.000
    C67      C        0.66250    0.98500    0.08820    1.000
    C68      C        0.68020    0.88700    0.07060    1.000
    C69      C        0.71890    0.93100    0.05840    1.000
    C70      C        0.77440    0.12100    0.09720    1.000
    C71      C        0.36340    0.71900    0.18580    1.000
    O41      O        0.34300    0.81000    0.19940    1.000
    O42      O        0.69190    0.08500    0.16690    1.000
    N4       N        0.69690    0.14100    0.10000    1.000
    C72      C        0.71130    0.06200    0.14060    1.000
    C73      C        0.75610    0.05700    0.14650    1.000
    C74      C        0.76200    0.08100    0.11060    1.000
    C75      C        0.72490    0.13500    0.07810    1.000
    C76      C        0.64540    0.12900    0.07840    1.000
    Zn9      Zn       0.12732    0.43594    0.35594    1.000
    Zn10     Zn       0.13890    0.67895    0.42629    1.000
    Zn11     Zn       0.90727    0.99573    0.37125    1.000
    Zn12     Zn       0.83342    0.75199    0.34011    1.000
    O43      O        0.12520    0.23250    0.35450    1.000
    O44      O        0.20000    0.82250    0.45660    1.000
    O45      O        0.14260    0.78380    0.47240    1.000
    O46      O        0.07950    0.43510    0.37760    1.000
    O47      O        0.08080    0.62280    0.41250    1.000
    O48      O        0.14140    0.75120    0.37640    1.000
    O49      O        0.11910    0.60670    0.32590    1.000
    O50      O        0.32250    0.97460    0.56180    1.000
    O51      O        0.31490    0.05140    0.61680    1.000
    O52      O        0.93960    0.82660    0.38060    1.000
    O53      O        0.88590    0.69030    0.37660    1.000
    O54      O        0.11200    0.00400    0.18670    1.000
    O55      O        0.13770    0.79830    0.20090    1.000
    O56      O        0.17820    0.07940    0.63590    1.000
    O57      O        0.12290    0.01240    0.58860    1.000
    O58      O        0.96110    0.11870    0.38830    1.000
    O59      O        0.90130    0.21420    0.37270    1.000
    C77      C        0.12350    0.22200    0.32690    1.000
    O60      O        0.12010    0.31440    0.30550    1.000
    C78      C        0.12810    0.07930    0.30540    1.000
    C79      C        0.12570    0.05770    0.26580    1.000
    H19      H        0.12330    0.13110    0.24930    1.000
    C80      C        0.12690    0.92770    0.25090    1.000
    C81      C        0.12640    0.81480    0.27530    1.000
    H20      H        0.12500    0.72760    0.26570    1.000
    C82      C        0.12800    0.83860    0.31380    1.000
    C83      C        0.12850    0.96680    0.32820    1.000
    H21      H        0.12910    0.97830    0.35420    1.000
    C84      C        0.17930    0.83240    0.48000    1.000
    C85      C        0.19670    0.90590    0.51750    1.000
    C86      C        0.23670    0.93090    0.53010    1.000
    H22      H        0.25330    0.90930    0.51430    1.000
    C87      C        0.25520    0.98980    0.56730    1.000
    C88      C        0.23010    0.02880    0.58950    1.000
    H23      H        0.24100    0.07280    0.61310    1.000
    C89      C        0.18760    0.00120    0.57610    1.000
    C90      C        0.06340    0.51820    0.39440    1.000
    C91      C        0.17140    0.94000    0.54030    1.000
    H24      H        0.14340    0.92150    0.53150    1.000
    C92      C        0.01910    0.49990    0.39210    1.000
    C93      C        0.00190    0.37010    0.39040    1.000
    H25      H        0.01860    0.29480    0.39210    1.000
    C94      C        0.96060    0.35540    0.38610    1.000
    C95      C        0.93640    0.46540    0.38430    1.000
    H26      H        0.90850    0.45440    0.38180    1.000
    C96      C        0.95250    0.59320    0.38610    1.000
    C97      C        0.99410    0.60870    0.39050    1.000
    H27      H        0.00530    0.69470    0.39240    1.000
    C98      C        0.92340    0.71360    0.38040    1.000
    C99      C        0.12750    0.90820    0.21020    1.000
    C100     C        0.16060    0.03660    0.60300    1.000
    C101     C        0.93900    0.21930    0.38250    1.000
    C102     C        0.30020    0.00850    0.58270    1.000
    C103     C        0.12920    0.72230    0.34010    1.000
    O61      O        0.80010    0.68900    0.37610    1.000
    N5       N        0.76840    0.52600    0.41300    1.000
    C104     C        0.80580    0.58700    0.39960    1.000
    C105     C        0.83750    0.48500    0.41180    1.000
    C106     C        0.81980    0.38700    0.42940    1.000
    C107     C        0.78110    0.43100    0.44160    1.000
    C108     C        0.72560    0.62100    0.40280    1.000
    C109     C        0.13660    0.21900    0.31420    1.000
    O62      O        0.15700    0.31000    0.30060    1.000
    O63      O        0.80810    0.58500    0.33310    1.000
    N6       N        0.80310    0.64100    0.40000    1.000
    C110     C        0.78870    0.56200    0.35940    1.000
    C111     C        0.74390    0.55700    0.35350    1.000
    C112     C        0.73800    0.58100    0.38940    1.000
    C113     C        0.77510    0.63500    0.42190    1.000
    C114     C        0.85460    0.62900    0.42160    1.000
    Zn13     Zn       0.62732    0.93594    0.35594    1.000
    Zn14     Zn       0.63890    0.17895    0.42629    1.000
    Zn15     Zn       0.40727    0.49573    0.37125    1.000
    Zn16     Zn       0.33342    0.25199    0.34011    1.000
    O64      O        0.62520    0.73250    0.35450    1.000
    O65      O        0.70000    0.32250    0.45660    1.000
    O66      O        0.64260    0.28380    0.47240    1.000
    O67      O        0.57950    0.93510    0.37760    1.000
    O68      O        0.58080    0.12280    0.41250    1.000
    O69      O        0.64140    0.25120    0.37640    1.000
    O70      O        0.61910    0.10670    0.32590    1.000
    O71      O        0.82250    0.47460    0.56180    1.000
    O72      O        0.81490    0.55140    0.61680    1.000
    O73      O        0.43960    0.32660    0.38060    1.000
    O74      O        0.38590    0.19030    0.37660    1.000
    O75      O        0.61200    0.50400    0.18670    1.000
    O76      O        0.63770    0.29830    0.20090    1.000
    O77      O        0.67820    0.57940    0.63590    1.000
    O78      O        0.62290    0.51240    0.58860    1.000
    O79      O        0.46110    0.61870    0.38830    1.000
    O80      O        0.40130    0.71420    0.37270    1.000
    C115     C        0.62350    0.72200    0.32690    1.000
    O81      O        0.62010    0.81440    0.30550    1.000
    C116     C        0.62810    0.57930    0.30540    1.000
    C117     C        0.62570    0.55770    0.26580    1.000
    H28      H        0.62330    0.63110    0.24930    1.000
    C118     C        0.62690    0.42770    0.25090    1.000
    C119     C        0.62640    0.31480    0.27530    1.000
    H29      H        0.62500    0.22760    0.26570    1.000
    C120     C        0.62800    0.33860    0.31380    1.000
    C121     C        0.62850    0.46680    0.32820    1.000
    H30      H        0.62910    0.47830    0.35420    1.000
    C122     C        0.67930    0.33240    0.48000    1.000
    C123     C        0.69670    0.40590    0.51750    1.000
    C124     C        0.73670    0.43090    0.53010    1.000
    H31      H        0.75330    0.40930    0.51430    1.000
    C125     C        0.75520    0.48980    0.56730    1.000
    C126     C        0.73010    0.52880    0.58950    1.000
    H32      H        0.74100    0.57280    0.61310    1.000
    C127     C        0.68760    0.50120    0.57610    1.000
    C128     C        0.56340    0.01820    0.39440    1.000
    C129     C        0.67140    0.44000    0.54030    1.000
    H33      H        0.64340    0.42150    0.53150    1.000
    C130     C        0.51910    0.99990    0.39210    1.000
    C131     C        0.50190    0.87010    0.39040    1.000
    H34      H        0.51860    0.79480    0.39210    1.000
    C132     C        0.46060    0.85540    0.38610    1.000
    C133     C        0.43640    0.96540    0.38430    1.000
    H35      H        0.40850    0.95440    0.38180    1.000
    C134     C        0.45250    0.09320    0.38610    1.000
    C135     C        0.49410    0.10870    0.39050    1.000
    H36      H        0.50530    0.19470    0.39240    1.000
    C136     C        0.42340    0.21360    0.38040    1.000
    C137     C        0.62750    0.40820    0.21020    1.000
    C138     C        0.66060    0.53660    0.60300    1.000
    C139     C        0.43900    0.71930    0.38250    1.000
    C140     C        0.80020    0.50850    0.58270    1.000
    C141     C        0.62920    0.22230    0.34010    1.000
    O82      O        0.30010    0.18900    0.37610    1.000
    N7       N        0.26840    0.02600    0.41300    1.000
    C142     C        0.30580    0.08700    0.39960    1.000
    C143     C        0.33750    0.98500    0.41180    1.000
    C144     C        0.31980    0.88700    0.42940    1.000
    C145     C        0.28110    0.93100    0.44160    1.000
    C146     C        0.22560    0.12100    0.40280    1.000
    C147     C        0.63660    0.71900    0.31420    1.000
    O83      O        0.65700    0.81000    0.30060    1.000
    O84      O        0.30810    0.08500    0.33310    1.000
    N8       N        0.30310    0.14100    0.40000    1.000
    C148     C        0.28870    0.06200    0.35940    1.000
    C149     C        0.24390    0.05700    0.35350    1.000
    C150     C        0.23800    0.08100    0.38940    1.000
    C151     C        0.27510    0.13500    0.42190    1.000
    C152     C        0.35460    0.12900    0.42160    1.000
    Zn17     Zn       0.12732    0.56406    0.85594    1.000
    Zn18     Zn       0.13890    0.32105    0.92629    1.000
    Zn19     Zn       0.90727    0.00427    0.87125    1.000
    Zn20     Zn       0.83342    0.24801    0.84011    1.000
    O85      O        0.12520    0.76750    0.85450    1.000
    O86      O        0.20000    0.17750    0.95660    1.000
    O87      O        0.14260    0.21620    0.97240    1.000
    O88      O        0.07950    0.56490    0.87760    1.000
    O89      O        0.08080    0.37720    0.91250    1.000
    O90      O        0.14140    0.24880    0.87640    1.000
    O91      O        0.11910    0.39330    0.82590    1.000
    O92      O        0.32250    0.02540    0.06180    1.000
    O93      O        0.31490    0.94860    0.11680    1.000
    O94      O        0.93960    0.17340    0.88060    1.000
    O95      O        0.88590    0.30970    0.87660    1.000
    O96      O        0.11200    0.99600    0.68670    1.000
    O97      O        0.13770    0.20170    0.70090    1.000
    O98      O        0.17820    0.92060    0.13590    1.000
    O99      O        0.12290    0.98760    0.08860    1.000
    O100     O        0.96110    0.88130    0.88830    1.000
    O101     O        0.90130    0.78580    0.87270    1.000
    C153     C        0.12350    0.77800    0.82690    1.000
    O102     O        0.12010    0.68560    0.80550    1.000
    C154     C        0.12810    0.92070    0.80540    1.000
    C155     C        0.12570    0.94230    0.76580    1.000
    H37      H        0.12330    0.86890    0.74930    1.000
    C156     C        0.12690    0.07230    0.75090    1.000
    C157     C        0.12640    0.18520    0.77530    1.000
    H38      H        0.12500    0.27240    0.76570    1.000
    C158     C        0.12800    0.16140    0.81380    1.000
    C159     C        0.12850    0.03320    0.82820    1.000
    H39      H        0.12910    0.02170    0.85420    1.000
    C160     C        0.17930    0.16760    0.98000    1.000
    C161     C        0.19670    0.09410    0.01750    1.000
    C162     C        0.23670    0.06910    0.03010    1.000
    H40      H        0.25330    0.09070    0.01430    1.000
    C163     C        0.25520    0.01020    0.06730    1.000
    C164     C        0.23010    0.97120    0.08950    1.000
    H41      H        0.24100    0.92720    0.11310    1.000
    C165     C        0.18760    0.99880    0.07610    1.000
    C166     C        0.06340    0.48180    0.89440    1.000
    C167     C        0.17140    0.06000    0.04030    1.000
    H42      H        0.14340    0.07850    0.03150    1.000
    C168     C        0.01910    0.50010    0.89210    1.000
    C169     C        0.00190    0.62990    0.89040    1.000
    H43      H        0.01860    0.70520    0.89210    1.000
    C170     C        0.96060    0.64460    0.88610    1.000
    C171     C        0.93640    0.53460    0.88430    1.000
    H44      H        0.90850    0.54560    0.88180    1.000
    C172     C        0.95250    0.40680    0.88610    1.000
    C173     C        0.99410    0.39130    0.89050    1.000
    H45      H        0.00530    0.30530    0.89240    1.000
    C174     C        0.92340    0.28640    0.88040    1.000
    C175     C        0.12750    0.09180    0.71020    1.000
    C176     C        0.16060    0.96340    0.10300    1.000
    C177     C        0.93900    0.78070    0.88250    1.000
    C178     C        0.30020    0.99150    0.08270    1.000
    C179     C        0.12920    0.27770    0.84010    1.000
    O103     O        0.80010    0.31100    0.87610    1.000
    N9       N        0.76840    0.47400    0.91300    1.000
    C180     C        0.80580    0.41300    0.89960    1.000
    C181     C        0.83750    0.51500    0.91180    1.000
    C182     C        0.81980    0.61300    0.92940    1.000
    C183     C        0.78110    0.56900    0.94160    1.000
    C184     C        0.72560    0.37900    0.90280    1.000
    C185     C        0.13660    0.78100    0.81420    1.000
    O104     O        0.15700    0.69000    0.80060    1.000
    O105     O        0.80810    0.41500    0.83310    1.000
    N10      N        0.80310    0.35900    0.90000    1.000
    C186     C        0.78870    0.43800    0.85940    1.000
    C187     C        0.74390    0.44300    0.85350    1.000
    C188     C        0.73800    0.41900    0.88940    1.000
    C189     C        0.77510    0.36500    0.92190    1.000
    C190     C        0.85460    0.37100    0.92160    1.000
    Zn21     Zn       0.62732    0.06406    0.85594    1.000
    Zn22     Zn       0.63890    0.82105    0.92629    1.000
    Zn23     Zn       0.40727    0.50427    0.87125    1.000
    Zn24     Zn       0.33342    0.74801    0.84011    1.000
    O106     O        0.62520    0.26750    0.85450    1.000
    O107     O        0.70000    0.67750    0.95660    1.000
    O108     O        0.64260    0.71620    0.97240    1.000
    O109     O        0.57950    0.06490    0.87760    1.000
    O110     O        0.58080    0.87720    0.91250    1.000
    O111     O        0.64140    0.74880    0.87640    1.000
    O112     O        0.61910    0.89330    0.82590    1.000
    O113     O        0.82250    0.52540    0.06180    1.000
    O114     O        0.81490    0.44860    0.11680    1.000
    O115     O        0.43960    0.67340    0.88060    1.000
    O116     O        0.38590    0.80970    0.87660    1.000
    O117     O        0.61200    0.49600    0.68670    1.000
    O118     O        0.63770    0.70170    0.70090    1.000
    O119     O        0.67820    0.42060    0.13590    1.000
    O120     O        0.62290    0.48760    0.08860    1.000
    O121     O        0.46110    0.38130    0.88830    1.000
    O122     O        0.40130    0.28580    0.87270    1.000
    C191     C        0.62350    0.27800    0.82690    1.000
    O123     O        0.62010    0.18560    0.80550    1.000
    C192     C        0.62810    0.42070    0.80540    1.000
    C193     C        0.62570    0.44230    0.76580    1.000
    H46      H        0.62330    0.36890    0.74930    1.000
    C194     C        0.62690    0.57230    0.75090    1.000
    C195     C        0.62640    0.68520    0.77530    1.000
    H47      H        0.62500    0.77240    0.76570    1.000
    C196     C        0.62800    0.66140    0.81380    1.000
    C197     C        0.62850    0.53320    0.82820    1.000
    H48      H        0.62910    0.52170    0.85420    1.000
    C198     C        0.67930    0.66760    0.98000    1.000
    C199     C        0.69670    0.59410    0.01750    1.000
    C200     C        0.73670    0.56910    0.03010    1.000
    H49      H        0.75330    0.59070    0.01430    1.000
    C201     C        0.75520    0.51020    0.06730    1.000
    C202     C        0.73010    0.47120    0.08950    1.000
    H50      H        0.74100    0.42720    0.11310    1.000
    C203     C        0.68760    0.49880    0.07610    1.000
    C204     C        0.56340    0.98180    0.89440    1.000
    C205     C        0.67140    0.56000    0.04030    1.000
    H51      H        0.64340    0.57850    0.03150    1.000
    C206     C        0.51910    0.00010    0.89210    1.000
    C207     C        0.50190    0.12990    0.89040    1.000
    H52      H        0.51860    0.20520    0.89210    1.000
    C208     C        0.46060    0.14460    0.88610    1.000
    C209     C        0.43640    0.03460    0.88430    1.000
    H53      H        0.40850    0.04560    0.88180    1.000
    C210     C        0.45250    0.90680    0.88610    1.000
    C211     C        0.49410    0.89130    0.89050    1.000
    H54      H        0.50530    0.80530    0.89240    1.000
    C212     C        0.42340    0.78640    0.88040    1.000
    C213     C        0.62750    0.59180    0.71020    1.000
    C214     C        0.66060    0.46340    0.10300    1.000
    C215     C        0.43900    0.28070    0.88250    1.000
    C216     C        0.80020    0.49150    0.08270    1.000
    C217     C        0.62920    0.77770    0.84010    1.000
    O124     O        0.30010    0.81100    0.87610    1.000
    N11      N        0.26840    0.97400    0.91300    1.000
    C218     C        0.30580    0.91300    0.89960    1.000
    C219     C        0.33750    0.01500    0.91180    1.000
    C220     C        0.31980    0.11300    0.92940    1.000
    C221     C        0.28110    0.06900    0.94160    1.000
    C222     C        0.22560    0.87900    0.90280    1.000
    C223     C        0.63660    0.28100    0.81420    1.000
    O125     O        0.65700    0.19000    0.80060    1.000
    O126     O        0.30810    0.91500    0.83310    1.000
    N12      N        0.30310    0.85900    0.90000    1.000
    C224     C        0.28870    0.93800    0.85940    1.000
    C225     C        0.24390    0.94300    0.85350    1.000
    C226     C        0.23800    0.91900    0.88940    1.000
    C227     C        0.27510    0.86500    0.92190    1.000
    C228     C        0.35460    0.87100    0.92160    1.000
    Zn25     Zn       0.87268    0.56406    0.64406    1.000
    Zn26     Zn       0.86110    0.32105    0.57371    1.000
    Zn27     Zn       0.09273    0.00427    0.62875    1.000
    Zn28     Zn       0.16658    0.24801    0.65989    1.000
    O127     O        0.87480    0.76750    0.64550    1.000
    O128     O        0.80000    0.17750    0.54340    1.000
    O129     O        0.85740    0.21620    0.52760    1.000
    O130     O        0.92050    0.56490    0.62240    1.000
    O131     O        0.91920    0.37720    0.58750    1.000
    O132     O        0.85860    0.24880    0.62360    1.000
    O133     O        0.88090    0.39330    0.67410    1.000
    O134     O        0.67750    0.02540    0.43820    1.000
    O135     O        0.68510    0.94860    0.38320    1.000
    O136     O        0.06040    0.17340    0.61940    1.000
    O137     O        0.11410    0.30970    0.62340    1.000
    O138     O        0.88800    0.99600    0.81330    1.000
    O139     O        0.86230    0.20170    0.79910    1.000
    O140     O        0.82180    0.92060    0.36410    1.000
    O141     O        0.87710    0.98760    0.41140    1.000
    O142     O        0.03890    0.88130    0.61170    1.000
    O143     O        0.09870    0.78580    0.62730    1.000
    C229     C        0.87650    0.77800    0.67310    1.000
    O144     O        0.87990    0.68560    0.69450    1.000
    C230     C        0.87190    0.92070    0.69460    1.000
    C231     C        0.87430    0.94230    0.73420    1.000
    H55      H        0.87670    0.86890    0.75070    1.000
    C232     C        0.87310    0.07230    0.74910    1.000
    C233     C        0.87360    0.18520    0.72470    1.000
    H56      H        0.87500    0.27240    0.73430    1.000
    C234     C        0.87200    0.16140    0.68620    1.000
    C235     C        0.87150    0.03320    0.67180    1.000
    H57      H        0.87090    0.02170    0.64580    1.000
    C236     C        0.82070    0.16760    0.52000    1.000
    C237     C        0.80330    0.09410    0.48250    1.000
    C238     C        0.76330    0.06910    0.46990    1.000
    H58      H        0.74670    0.09070    0.48570    1.000
    C239     C        0.74480    0.01020    0.43270    1.000
    C240     C        0.76990    0.97120    0.41050    1.000
    H59      H        0.75900    0.92720    0.38690    1.000
    C241     C        0.81240    0.99880    0.42390    1.000
    C242     C        0.93660    0.48180    0.60560    1.000
    C243     C        0.82860    0.06000    0.45970    1.000
    H60      H        0.85660    0.07850    0.46850    1.000
    C244     C        0.98090    0.50010    0.60790    1.000
    C245     C        0.99810    0.62990    0.60960    1.000
    H61      H        0.98140    0.70520    0.60790    1.000
    C246     C        0.03940    0.64460    0.61390    1.000
    C247     C        0.06360    0.53460    0.61570    1.000
    H62      H        0.09150    0.54560    0.61820    1.000
    C248     C        0.04750    0.40680    0.61390    1.000
    C249     C        0.00590    0.39130    0.60950    1.000
    H63      H        0.99470    0.30530    0.60760    1.000
    C250     C        0.07660    0.28640    0.61960    1.000
    C251     C        0.87250    0.09180    0.78980    1.000
    C252     C        0.83940    0.96340    0.39700    1.000
    C253     C        0.06100    0.78070    0.61750    1.000
    C254     C        0.69980    0.99150    0.41730    1.000
    C255     C        0.87080    0.27770    0.65990    1.000
    O145     O        0.19990    0.31100    0.62390    1.000
    N13      N        0.23160    0.47400    0.58700    1.000
    C256     C        0.19420    0.41300    0.60040    1.000
    C257     C        0.16250    0.51500    0.58820    1.000
    C258     C        0.18020    0.61300    0.57060    1.000
    C259     C        0.21890    0.56900    0.55840    1.000
    C260     C        0.27440    0.37900    0.59720    1.000
    C261     C        0.86340    0.78100    0.68580    1.000
    O146     O        0.84300    0.69000    0.69940    1.000
    O147     O        0.19190    0.41500    0.66690    1.000
    N14      N        0.19690    0.35900    0.60000    1.000
    C262     C        0.21130    0.43800    0.64060    1.000
    C263     C        0.25610    0.44300    0.64650    1.000
    C264     C        0.26200    0.41900    0.61060    1.000
    C265     C        0.22490    0.36500    0.57810    1.000
    C266     C        0.14540    0.37100    0.57840    1.000
    Zn29     Zn       0.37268    0.06406    0.64406    1.000
    Zn30     Zn       0.36110    0.82105    0.57371    1.000
    Zn31     Zn       0.59273    0.50427    0.62875    1.000
    Zn32     Zn       0.66658    0.74801    0.65989    1.000
    O148     O        0.37480    0.26750    0.64550    1.000
    O149     O        0.30000    0.67750    0.54340    1.000
    O150     O        0.35740    0.71620    0.52760    1.000
    O151     O        0.42050    0.06490    0.62240    1.000
    O152     O        0.41920    0.87720    0.58750    1.000
    O153     O        0.35860    0.74880    0.62360    1.000
    O154     O        0.38090    0.89330    0.67410    1.000
    O155     O        0.17750    0.52540    0.43820    1.000
    O156     O        0.18510    0.44860    0.38320    1.000
    O157     O        0.56040    0.67340    0.61940    1.000
    O158     O        0.61410    0.80970    0.62340    1.000
    O159     O        0.38800    0.49600    0.81330    1.000
    O160     O        0.36230    0.70170    0.79910    1.000
    O161     O        0.32180    0.42060    0.36410    1.000
    O162     O        0.37710    0.48760    0.41140    1.000
    O163     O        0.53890    0.38130    0.61170    1.000
    O164     O        0.59870    0.28580    0.62730    1.000
    C267     C        0.37650    0.27800    0.67310    1.000
    O165     O        0.37990    0.18560    0.69450    1.000
    C268     C        0.37190    0.42070    0.69460    1.000
    C269     C        0.37430    0.44230    0.73420    1.000
    H64      H        0.37670    0.36890    0.75070    1.000
    C270     C        0.37310    0.57230    0.74910    1.000
    C271     C        0.37360    0.68520    0.72470    1.000
    H65      H        0.37500    0.77240    0.73430    1.000
    C272     C        0.37200    0.66140    0.68620    1.000
    C273     C        0.37150    0.53320    0.67180    1.000
    H66      H        0.37090    0.52170    0.64580    1.000
    C274     C        0.32070    0.66760    0.52000    1.000
    C275     C        0.30330    0.59410    0.48250    1.000
    C276     C        0.26330    0.56910    0.46990    1.000
    H67      H        0.24670    0.59070    0.48570    1.000
    C277     C        0.24480    0.51020    0.43270    1.000
    C278     C        0.26990    0.47120    0.41050    1.000
    H68      H        0.25900    0.42720    0.38690    1.000
    C279     C        0.31240    0.49880    0.42390    1.000
    C280     C        0.43660    0.98180    0.60560    1.000
    C281     C        0.32860    0.56000    0.45970    1.000
    H69      H        0.35660    0.57850    0.46850    1.000
    C282     C        0.48090    0.00010    0.60790    1.000
    C283     C        0.49810    0.12990    0.60960    1.000
    H70      H        0.48140    0.20520    0.60790    1.000
    C284     C        0.53940    0.14460    0.61390    1.000
    C285     C        0.56360    0.03460    0.61570    1.000
    H71      H        0.59150    0.04560    0.61820    1.000
    C286     C        0.54750    0.90680    0.61390    1.000
    C287     C        0.50590    0.89130    0.60950    1.000
    H72      H        0.49470    0.80530    0.60760    1.000
    C288     C        0.57660    0.78640    0.61960    1.000
    C289     C        0.37250    0.59180    0.78980    1.000
    C290     C        0.33940    0.46340    0.39700    1.000
    C291     C        0.56100    0.28070    0.61750    1.000
    C292     C        0.19980    0.49150    0.41730    1.000
    C293     C        0.37080    0.77770    0.65990    1.000
    O166     O        0.69990    0.81100    0.62390    1.000
    N15      N        0.73160    0.97400    0.58700    1.000
    C294     C        0.69420    0.91300    0.60040    1.000
    C295     C        0.66250    0.01500    0.58820    1.000
    C296     C        0.68020    0.11300    0.57060    1.000
    C297     C        0.71890    0.06900    0.55840    1.000
    C298     C        0.77440    0.87900    0.59720    1.000
    C299     C        0.36340    0.28100    0.68580    1.000
    O167     O        0.34300    0.19000    0.69940    1.000
    O168     O        0.69190    0.91500    0.66690    1.000
    N16      N        0.69690    0.85900    0.60000    1.000
    C300     C        0.71130    0.93800    0.64060    1.000
    C301     C        0.75610    0.94300    0.64650    1.000
    C302     C        0.76200    0.91900    0.61060    1.000
    C303     C        0.72490    0.86500    0.57810    1.000
    C304     C        0.64540    0.87100    0.57840    1.000
