data_functionalizedCrystal
_audit_creation_method	'EQeq! by Chris Wilmer'
_symmetry_space_group_name_H-M	'P1'
_symmetry_Int_Tables_number	1
_symmetry_cell_setting	triclinic
loop_
_symmetry_equiv_pos_as_xyz
  x,y,z
_cell_length_a	17.571
_cell_length_b	17.571
_cell_length_c	23.404
_cell_angle_alpha	90
_cell_angle_beta	90
_cell_angle_gamma	90
loop_
_atom_site_label
_atom_site_type_symbol
_atom_site_fract_x
_atom_site_fract_y
_atom_site_fract_z
_atom_site_charge
Mof_N 	N 	0.6201	0.7244	0.4376	-0.163
Mof_N 	N 	0.3817	0.7387	0.50174	-0.16
Mof_C 	C 	0.565	0.6975	0.4561	0.106
Mof_C 	C 	0.5008	0.6617	0.4784	-0.115
Mof_C 	C 	0.4371	0.7055	0.4904	0.107
Mof_C 	C 	0.5006	0.5794	0.4893	0.062
Mof_C 	C 	0.5635	0.534	0.4772	-0.067
Mof_C 	C 	0.4366	0.5431	0.5121	-0.067
Mof_C 	C 	0.697	0.7807	0.5658	0.046
Mof_C 	C 	0.6926	0.7829	0.6245	-0.089
Mof_C 	C 	0.7794	0.693	0.7504	-0.093
Mof_C 	C 	0.7787	0.696	0.8083	0.045
Mof_C 	C 	0.2172	0.805	0.3722	0.078
Mof_C 	C 	0.2151	0.8075	0.313	-0.125
Mof_H 	H 	0.6075	0.5568	0.4609	0.058
Mof_H 	H 	0.3922	0.5722	0.52	0.06
Mof_H 	H 	0.657	0.8041	0.545	0.017
Mof_H 	H 	0.6509	0.8065	0.6433	0.055
Mof_H 	H 	0.8008	0.6502	0.7315	0.056
Mof_H 	H 	0.8008	0.6543	0.8282	0.018
Mof_H 	H 	0.1934	0.8447	0.3931	0.009
Mof_H 	H 	0.1903	0.8484	0.2941	0.07
Mof_N 	N 	0.8799	0.7756	0.4376	-0.162
Mof_N 	N 	0.1183	0.7613	0.50174	-0.16
Mof_C 	C 	0.935	0.8025	0.4561	0.106
Mof_C 	C 	0.9992	0.8383	0.4784	-0.115
Mof_C 	C 	0.0629	0.7945	0.4904	0.107
Mof_C 	C 	0.9994	0.9206	0.4893	0.062
Mof_C 	C 	0.9365	0.966	0.4772	-0.067
Mof_C 	C 	0.0634	0.9569	0.5121	-0.068
Mof_C 	C 	0.803	0.7193	0.5658	0.046
Mof_C 	C 	0.8074	0.7171	0.6245	-0.089
Mof_C 	C 	0.7206	0.807	0.7504	-0.093
Mof_C 	C 	0.7213	0.804	0.8083	0.045
Mof_C 	C 	0.2828	0.695	0.3722	0.078
Mof_C 	C 	0.2849	0.6925	0.313	-0.125
Mof_H 	H 	0.8925	0.9432	0.4609	0.058
Mof_H 	H 	0.1078	0.9278	0.52	0.06
Mof_H 	H 	0.843	0.6959	0.545	0.017
Mof_H 	H 	0.8491	0.6935	0.6433	0.055
Mof_H 	H 	0.6992	0.8498	0.7315	0.056
Mof_H 	H 	0.6992	0.8457	0.8282	0.018
Mof_H 	H 	0.3066	0.6553	0.3931	0.009
Mof_H 	H 	0.3097	0.6516	0.2941	0.07
Mof_N 	N 	0.7756	0.6201	0.4376	-0.162
Mof_N 	N 	0.7613	0.3817	0.50174	-0.16
Mof_C 	C 	0.8025	0.565	0.4561	0.106
Mof_C 	C 	0.8383	0.5008	0.4784	-0.115
Mof_C 	C 	0.7945	0.4371	0.4904	0.107
Mof_C 	C 	0.9206	0.5006	0.4893	0.062
Mof_C 	C 	0.966	0.5635	0.4772	-0.068
Mof_C 	C 	0.9569	0.4366	0.5121	-0.068
Mof_C 	C 	0.7193	0.697	0.5658	0.046
Mof_C 	C 	0.7171	0.6926	0.6245	-0.089
Mof_C 	C 	0.807	0.7794	0.7504	-0.093
Mof_C 	C 	0.804	0.7787	0.8083	0.045
Mof_C 	C 	0.695	0.2172	0.3722	0.078
Mof_C 	C 	0.6925	0.2151	0.313	-0.125
Mof_H 	H 	0.9432	0.6075	0.4609	0.058
Mof_H 	H 	0.9278	0.3922	0.52	0.061
Mof_H 	H 	0.6959	0.657	0.545	0.017
Mof_H 	H 	0.6935	0.6509	0.6433	0.055
Mof_H 	H 	0.8498	0.8008	0.7315	0.056
Mof_H 	H 	0.8457	0.8008	0.8282	0.018
Mof_H 	H 	0.6553	0.1934	0.3931	0.009
Mof_H 	H 	0.6516	0.1903	0.2941	0.07
Mof_N 	N 	0.7244	0.8799	0.4376	-0.162
Mof_N 	N 	0.7387	0.1183	0.50174	-0.16
Mof_C 	C 	0.6975	0.935	0.4561	0.106
Mof_C 	C 	0.6617	0.9992	0.4784	-0.115
Mof_C 	C 	0.7055	0.0629	0.4904	0.107
Mof_C 	C 	0.5794	0.9994	0.4893	0.062
Mof_C 	C 	0.534	0.9365	0.4772	-0.067
Mof_C 	C 	0.5431	0.0634	0.5121	-0.067
Mof_C 	C 	0.7807	0.803	0.5658	0.046
Mof_C 	C 	0.7829	0.8074	0.6245	-0.089
Mof_C 	C 	0.693	0.7206	0.7504	-0.093
Mof_C 	C 	0.696	0.7213	0.8083	0.045
Mof_C 	C 	0.805	0.2828	0.3722	0.078
Mof_C 	C 	0.8075	0.2849	0.313	-0.125
Mof_H 	H 	0.5568	0.8925	0.4609	0.058
Mof_H 	H 	0.5722	0.1078	0.52	0.06
Mof_H 	H 	0.8041	0.843	0.545	0.017
Mof_H 	H 	0.8065	0.8491	0.6433	0.055
Mof_H 	H 	0.6502	0.6992	0.7315	0.056
Mof_H 	H 	0.6543	0.6992	0.8282	0.018
Mof_H 	H 	0.8447	0.3066	0.3931	0.009
Mof_H 	H 	0.8484	0.3097	0.2941	0.07
Mof_N 	N 	0.3799	0.2244	0.0624	-0.161
Mof_N 	N 	0.6183	0.2387	0.99826	-0.149
Mof_C 	C 	0.435	0.1975	0.0439	0.1
Mof_C 	C 	0.4992	0.1617	0.0216	-0.102
Mof_C 	C 	0.5629	0.2055	0.0096	0.092
Mof_C 	C 	0.4994	0.0794	0.0107	0.035
Mof_C 	C 	0.4365	0.034	0.0228	-0.045
Mof_C 	C 	0.5634	0.0431	0.9879	-0.038
Mof_C 	C 	0.303	0.2807	0.9342	0.045
Mof_C 	C 	0.3074	0.2829	0.8755	-0.088
Mof_C 	C 	0.2206	0.193	0.7496	-0.094
Mof_C 	C 	0.2213	0.196	0.6917	0.045
Mof_C 	C 	0.7828	0.305	0.1278	0.078
Mof_C 	C 	0.7849	0.3075	0.187	-0.125
Mof_H 	H 	0.3925	0.0568	0.0391	0.05
Mof_H 	H 	0.6078	0.0722	0.98	0.053
Mof_H 	H 	0.343	0.3041	0.955	0.02
Mof_H 	H 	0.3491	0.3065	0.8567	0.056
Mof_H 	H 	0.1992	0.1502	0.7685	0.056
Mof_H 	H 	0.1992	0.1543	0.6718	0.018
Mof_H 	H 	0.8066	0.3447	0.1069	0.008
Mof_H 	H 	0.8097	0.3484	0.2059	0.07
Mof_N 	N 	0.1201	0.2756	0.0624	-0.161
Mof_N 	N 	0.8817	0.2613	0.99826	-0.149
Mof_C 	C 	0.065	0.3025	0.0439	0.1
Mof_C 	C 	0.0008	0.3383	0.0216	-0.102
Mof_C 	C 	0.9371	0.2945	0.0096	0.092
Mof_C 	C 	0.0006	0.4206	0.0107	0.036
Mof_C 	C 	0.0635	0.466	0.0228	-0.046
Mof_C 	C 	0.9366	0.4569	0.9879	-0.038
Mof_C 	C 	0.197	0.2193	0.9342	0.045
Mof_C 	C 	0.1926	0.2171	0.8755	-0.088
Mof_C 	C 	0.2794	0.307	0.7496	-0.094
Mof_C 	C 	0.2787	0.304	0.6917	0.045
Mof_C 	C 	0.7172	0.195	0.1278	0.078
Mof_C 	C 	0.7151	0.1925	0.187	-0.125
Mof_H 	H 	0.1075	0.4432	0.0391	0.05
Mof_H 	H 	0.8922	0.4278	0.98	0.054
Mof_H 	H 	0.157	0.1959	0.955	0.02
Mof_H 	H 	0.1509	0.1935	0.8567	0.056
Mof_H 	H 	0.3008	0.3498	0.7685	0.056
Mof_H 	H 	0.3008	0.3457	0.6718	0.018
Mof_H 	H 	0.6934	0.1553	0.1069	0.008
Mof_H 	H 	0.6903	0.1516	0.2059	0.07
Mof_N 	N 	0.2244	0.1201	0.0624	-0.161
Mof_N 	N 	0.2387	0.8817	0.99826	-0.149
Mof_C 	C 	0.1975	0.065	0.0439	0.1
Mof_C 	C 	0.1617	0.0008	0.0216	-0.102
Mof_C 	C 	0.2055	0.9371	0.0096	0.092
Mof_C 	C 	0.0794	0.0006	0.0107	0.036
Mof_C 	C 	0.034	0.0635	0.0228	-0.045
Mof_C 	C 	0.0431	0.9366	0.9879	-0.039
Mof_C 	C 	0.2807	0.197	0.9342	0.045
Mof_C 	C 	0.2829	0.1926	0.8755	-0.088
Mof_C 	C 	0.193	0.2794	0.7496	-0.094
Mof_C 	C 	0.196	0.2787	0.6917	0.045
Mof_C 	C 	0.305	0.7172	0.1278	0.078
Mof_C 	C 	0.3075	0.7151	0.187	-0.125
Mof_H 	H 	0.0568	0.1075	0.0391	0.05
Mof_H 	H 	0.0722	0.8922	0.98	0.054
Mof_H 	H 	0.3041	0.157	0.955	0.02
Mof_H 	H 	0.3065	0.1509	0.8567	0.056
Mof_H 	H 	0.1502	0.3008	0.7685	0.056
Mof_H 	H 	0.1543	0.3008	0.6718	0.018
Mof_H 	H 	0.3447	0.6934	0.1069	0.008
Mof_H 	H 	0.3484	0.6903	0.2059	0.07
Mof_N 	N 	0.2756	0.3799	0.0624	-0.161
Mof_N 	N 	0.2613	0.6183	0.99826	-0.149
Mof_C 	C 	0.3025	0.435	0.0439	0.1
Mof_C 	C 	0.3383	0.4992	0.0216	-0.102
Mof_C 	C 	0.2945	0.5629	0.0096	0.092
Mof_C 	C 	0.4206	0.4994	0.0107	0.035
Mof_C 	C 	0.466	0.4365	0.0228	-0.045
Mof_C 	C 	0.4569	0.5634	0.9879	-0.037
Mof_C 	C 	0.2193	0.303	0.9342	0.045
Mof_C 	C 	0.2171	0.3074	0.8755	-0.088
Mof_C 	C 	0.307	0.2206	0.7496	-0.094
Mof_C 	C 	0.304	0.2213	0.6917	0.045
Mof_C 	C 	0.195	0.7828	0.1278	0.078
Mof_C 	C 	0.1925	0.7849	0.187	-0.125
Mof_H 	H 	0.4432	0.3925	0.0391	0.05
Mof_H 	H 	0.4278	0.6078	0.98	0.053
Mof_H 	H 	0.1959	0.343	0.955	0.02
Mof_H 	H 	0.1935	0.3491	0.8567	0.056
Mof_H 	H 	0.3498	0.1992	0.7685	0.056
Mof_H 	H 	0.3457	0.1992	0.6718	0.018
Mof_H 	H 	0.1553	0.8066	0.1069	0.008
Mof_H 	H 	0.1516	0.8097	0.2059	0.07
Mof_N 	N 	0.3799	0.2756	0.5624	-0.162
Mof_N 	N 	0.6183	0.2613	0.49826	-0.16
Mof_C 	C 	0.435	0.3025	0.5439	0.106
Mof_C 	C 	0.4992	0.3383	0.5216	-0.115
Mof_C 	C 	0.5629	0.2945	0.5096	0.107
Mof_C 	C 	0.4994	0.4206	0.5107	0.062
Mof_C 	C 	0.4365	0.466	0.5228	-0.067
Mof_C 	C 	0.5634	0.4569	0.4879	-0.068
Mof_C 	C 	0.303	0.2193	0.4342	0.046
Mof_C 	C 	0.3074	0.2171	0.3755	-0.089
Mof_C 	C 	0.2206	0.307	0.2496	-0.093
Mof_C 	C 	0.2213	0.304	0.1917	0.045
Mof_C 	C 	0.7828	0.195	0.6278	0.078
Mof_C 	C 	0.7849	0.1925	0.687	-0.125
Mof_H 	H 	0.3925	0.4432	0.5391	0.058
Mof_H 	H 	0.6078	0.4278	0.48	0.06
Mof_H 	H 	0.343	0.1959	0.455	0.017
Mof_H 	H 	0.3491	0.1935	0.3567	0.055
Mof_H 	H 	0.1992	0.3498	0.2685	0.056
Mof_H 	H 	0.1992	0.3457	0.1718	0.018
Mof_H 	H 	0.8066	0.1553	0.6069	0.009
Mof_H 	H 	0.8097	0.1516	0.7059	0.07
Mof_N 	N 	0.1201	0.2244	0.5624	-0.162
Mof_N 	N 	0.8817	0.2387	0.49826	-0.16
Mof_C 	C 	0.065	0.1975	0.5439	0.106
Mof_C 	C 	0.0008	0.1617	0.5216	-0.115
Mof_C 	C 	0.9371	0.2055	0.5096	0.107
Mof_C 	C 	0.0006	0.0794	0.5107	0.062
Mof_C 	C 	0.0635	0.034	0.5228	-0.067
Mof_C 	C 	0.9366	0.0431	0.4879	-0.068
Mof_C 	C 	0.197	0.2807	0.4342	0.046
Mof_C 	C 	0.1926	0.2829	0.3755	-0.089
Mof_C 	C 	0.2794	0.193	0.2496	-0.093
Mof_C 	C 	0.2787	0.196	0.1917	0.045
Mof_C 	C 	0.7172	0.305	0.6278	0.078
Mof_C 	C 	0.7151	0.3075	0.687	-0.125
Mof_H 	H 	0.1075	0.0568	0.5391	0.058
Mof_H 	H 	0.8922	0.0722	0.48	0.06
Mof_H 	H 	0.157	0.3041	0.455	0.017
Mof_H 	H 	0.1509	0.3065	0.3567	0.055
Mof_H 	H 	0.3008	0.1502	0.2685	0.056
Mof_H 	H 	0.3008	0.1543	0.1718	0.018
Mof_H 	H 	0.6934	0.3447	0.6069	0.009
Mof_H 	H 	0.6903	0.3484	0.7059	0.07
Mof_N 	N 	0.2244	0.3799	0.5624	-0.162
Mof_N 	N 	0.2387	0.6183	0.49826	-0.16
Mof_C 	C 	0.1975	0.435	0.5439	0.106
Mof_C 	C 	0.1617	0.4992	0.5216	-0.115
Mof_C 	C 	0.2055	0.5629	0.5096	0.107
Mof_C 	C 	0.0794	0.4994	0.5107	0.062
Mof_C 	C 	0.034	0.4365	0.5228	-0.067
Mof_C 	C 	0.0431	0.5634	0.4879	-0.067
Mof_C 	C 	0.2807	0.303	0.4342	0.046
Mof_C 	C 	0.2829	0.3074	0.3755	-0.089
Mof_C 	C 	0.193	0.2206	0.2496	-0.093
Mof_C 	C 	0.196	0.2213	0.1917	0.045
Mof_C 	C 	0.305	0.7828	0.6278	0.078
Mof_C 	C 	0.3075	0.7849	0.687	-0.125
Mof_H 	H 	0.0568	0.3925	0.5391	0.058
Mof_H 	H 	0.0722	0.6078	0.48	0.06
Mof_H 	H 	0.3041	0.343	0.455	0.017
Mof_H 	H 	0.3065	0.3491	0.3567	0.055
Mof_H 	H 	0.1502	0.1992	0.2685	0.056
Mof_H 	H 	0.1543	0.1992	0.1718	0.018
Mof_H 	H 	0.3447	0.8066	0.6069	0.009
Mof_H 	H 	0.3484	0.8097	0.7059	0.07
Mof_N 	N 	0.2756	0.1201	0.5624	-0.162
Mof_N 	N 	0.2613	0.8817	0.49826	-0.16
Mof_C 	C 	0.3025	0.065	0.5439	0.106
Mof_C 	C 	0.3383	0.0008	0.5216	-0.115
Mof_C 	C 	0.2945	0.9371	0.5096	0.107
Mof_C 	C 	0.4206	0.0006	0.5107	0.062
Mof_C 	C 	0.466	0.0635	0.5228	-0.068
Mof_C 	C 	0.4569	0.9366	0.4879	-0.068
Mof_C 	C 	0.2193	0.197	0.4342	0.046
Mof_C 	C 	0.2171	0.1926	0.3755	-0.089
Mof_C 	C 	0.307	0.2794	0.2496	-0.093
Mof_C 	C 	0.304	0.2787	0.1917	0.045
Mof_C 	C 	0.195	0.7172	0.6278	0.078
Mof_C 	C 	0.1925	0.7151	0.687	-0.125
Mof_H 	H 	0.4432	0.1075	0.5391	0.058
Mof_H 	H 	0.4278	0.8922	0.48	0.06
Mof_H 	H 	0.1959	0.157	0.455	0.017
Mof_H 	H 	0.1935	0.1509	0.3567	0.055
Mof_H 	H 	0.3498	0.3008	0.2685	0.056
Mof_H 	H 	0.3457	0.3008	0.1718	0.018
Mof_H 	H 	0.1553	0.6934	0.6069	0.009
Mof_H 	H 	0.1516	0.6903	0.7059	0.07
Mof_N 	N 	0.6201	0.7756	0.9376	-0.163
Mof_N 	N 	0.3817	0.7613	0.00174	-0.169
Mof_C 	C 	0.565	0.8025	0.9561	0.112
Mof_C 	C 	0.5008	0.8383	0.9784	-0.127
Mof_C 	C 	0.4371	0.7945	0.9904	0.122
Mof_C 	C 	0.5006	0.9206	0.9893	0.088
Mof_C 	C 	0.5635	0.966	0.9772	-0.089
Mof_C 	C 	0.4366	0.9569	0.0121	-0.098
Mof_C 	C 	0.697	0.7193	0.0658	0.046
Mof_C 	C 	0.6926	0.7171	0.1245	-0.09
Mof_C 	C 	0.7794	0.807	0.2504	-0.093
Mof_C 	C 	0.7787	0.804	0.3083	0.045
Mof_C 	C 	0.2172	0.695	0.8722	0.078
Mof_C 	C 	0.2151	0.6925	0.813	-0.124
Mof_H 	H 	0.6075	0.9432	0.9609	0.066
Mof_H 	H 	0.3922	0.9278	0.02	0.068
Mof_H 	H 	0.657	0.6959	0.045	0.013
Mof_H 	H 	0.6509	0.6935	0.1433	0.055
Mof_H 	H 	0.8008	0.8498	0.2315	0.055
Mof_H 	H 	0.8008	0.8457	0.3282	0.018
Mof_H 	H 	0.1934	0.6553	0.8931	0.01
Mof_H 	H 	0.1903	0.6516	0.7941	0.07
Mof_N 	N 	0.8799	0.7244	0.9376	-0.163
Mof_N 	N 	0.1183	0.7387	0.00174	-0.169
Mof_C 	C 	0.935	0.6975	0.9561	0.112
Mof_C 	C 	0.9992	0.6617	0.9784	-0.127
Mof_C 	C 	0.0629	0.7055	0.9904	0.122
Mof_C 	C 	0.9994	0.5794	0.9893	0.088
Mof_C 	C 	0.9365	0.534	0.9772	-0.089
Mof_C 	C 	0.0634	0.5431	0.0121	-0.097
Mof_C 	C 	0.803	0.7807	0.0658	0.046
Mof_C 	C 	0.8074	0.7829	0.1245	-0.09
Mof_C 	C 	0.7206	0.693	0.2504	-0.093
Mof_C 	C 	0.7213	0.696	0.3083	0.045
Mof_C 	C 	0.2828	0.805	0.8722	0.078
Mof_C 	C 	0.2849	0.8075	0.813	-0.124
Mof_H 	H 	0.8925	0.5568	0.9609	0.066
Mof_H 	H 	0.1078	0.5722	0.02	0.068
Mof_H 	H 	0.843	0.8041	0.045	0.013
Mof_H 	H 	0.8491	0.8065	0.1433	0.055
Mof_H 	H 	0.6992	0.6502	0.2315	0.055
Mof_H 	H 	0.6992	0.6543	0.3282	0.018
Mof_H 	H 	0.3066	0.8447	0.8931	0.01
Mof_H 	H 	0.3097	0.8484	0.7941	0.07
Mof_N 	N 	0.7756	0.8799	0.9376	-0.163
Mof_N 	N 	0.7613	0.1183	0.00174	-0.169
Mof_C 	C 	0.8025	0.935	0.9561	0.112
Mof_C 	C 	0.8383	0.9992	0.9784	-0.127
Mof_C 	C 	0.7945	0.0629	0.9904	0.122
Mof_C 	C 	0.9206	0.9994	0.9893	0.088
Mof_C 	C 	0.966	0.9365	0.9772	-0.089
Mof_C 	C 	0.9569	0.0634	0.0121	-0.098
Mof_C 	C 	0.7193	0.803	0.0658	0.046
Mof_C 	C 	0.7171	0.8074	0.1245	-0.09
Mof_C 	C 	0.807	0.7206	0.2504	-0.093
Mof_C 	C 	0.804	0.7213	0.3083	0.045
Mof_C 	C 	0.695	0.2828	0.8722	0.078
Mof_C 	C 	0.6925	0.2849	0.813	-0.124
Mof_H 	H 	0.9432	0.8925	0.9609	0.066
Mof_H 	H 	0.9278	0.1078	0.02	0.068
Mof_H 	H 	0.6959	0.843	0.045	0.013
Mof_H 	H 	0.6935	0.8491	0.1433	0.055
Mof_H 	H 	0.8498	0.6992	0.2315	0.055
Mof_H 	H 	0.8457	0.6992	0.3282	0.018
Mof_H 	H 	0.6553	0.3066	0.8931	0.01
Mof_H 	H 	0.6516	0.3097	0.7941	0.07
Mof_N 	N 	0.7244	0.6201	0.9376	-0.163
Mof_N 	N 	0.7387	0.3817	0.00174	-0.169
Mof_C 	C 	0.6975	0.565	0.9561	0.112
Mof_C 	C 	0.6617	0.5008	0.9784	-0.127
Mof_C 	C 	0.7055	0.4371	0.9904	0.122
Mof_C 	C 	0.5794	0.5006	0.9893	0.089
Mof_C 	C 	0.534	0.5635	0.9772	-0.089
Mof_C 	C 	0.5431	0.4366	0.0121	-0.098
Mof_C 	C 	0.7807	0.697	0.0658	0.046
Mof_C 	C 	0.7829	0.6926	0.1245	-0.09
Mof_C 	C 	0.693	0.7794	0.2504	-0.093
Mof_C 	C 	0.696	0.7787	0.3083	0.045
Mof_C 	C 	0.805	0.2172	0.8722	0.078
Mof_C 	C 	0.8075	0.2151	0.813	-0.124
Mof_H 	H 	0.5568	0.6075	0.9609	0.066
Mof_H 	H 	0.5722	0.3922	0.02	0.068
Mof_H 	H 	0.8041	0.657	0.045	0.013
Mof_H 	H 	0.8065	0.6509	0.1433	0.055
Mof_H 	H 	0.6502	0.8008	0.2315	0.055
Mof_H 	H 	0.6543	0.8008	0.3282	0.018
Mof_H 	H 	0.8447	0.1934	0.8931	0.01
Mof_H 	H 	0.8484	0.1903	0.7941	0.07
Mof_Cd	Cd	0.75	0.75	0.43627	0.385
Mof_N 	N 	0.75	0.75	0.5368	-0.173
Mof_N 	N 	0.75	0.75	0.839	-0.171
Mof_C 	C 	0.75	0.75	0.6553	0.067
Mof_C 	C 	0.75	0.75	0.7199	0.085
Mof_Cd	Cd	0.25	0.25	0.06373	0.381
Mof_N 	N 	0.25	0.25	0.9632	-0.17
Mof_N 	N 	0.25	0.25	0.661	-0.171
Mof_C 	C 	0.25	0.25	0.8447	0.066
Mof_C 	C 	0.25	0.25	0.7801	0.086
Mof_Cd	Cd	0.25	0.25	0.56373	0.385
Mof_N 	N 	0.25	0.25	0.4632	-0.173
Mof_N 	N 	0.25	0.25	0.161	-0.171
Mof_C 	C 	0.25	0.25	0.3447	0.067
Mof_C 	C 	0.25	0.25	0.2801	0.084
Mof_Cd	Cd	0.75	0.75	0.93627	0.388
Mof_N 	N 	0.75	0.75	0.0368	-0.176
Mof_N 	N 	0.75	0.75	0.339	-0.171
Mof_C 	C 	0.75	0.75	0.1553	0.069
Mof_C 	C 	0.75	0.75	0.2199	0.083
Mof_Cd	Cd	0.25	0.75	0.5	0.39
Mof_Cd	Cd	0.75	0.25	0.5	0.39
Mof_Cd	Cd	0.75	0.25	-0	0.382
Mof_Cd	Cd	0.25	0.75	-0	0.382
Mof_N 	N 	0.25	0.75	0.4007	-0.157
Mof_C 	C 	0.25	0.75	0.2814	0.05
Mof_N 	N 	0.75	0.25	0.4007	-0.157
Mof_C 	C 	0.75	0.25	0.2814	0.05
Mof_N 	N 	0.75	0.25	0.0993	-0.157
Mof_C 	C 	0.75	0.25	0.2186	0.05
Mof_N 	N 	0.25	0.75	0.0993	-0.157
Mof_C 	C 	0.25	0.75	0.2186	0.05
Mof_N 	N 	0.75	0.25	0.5993	-0.157
Mof_C 	C 	0.75	0.25	0.7186	0.05
Mof_N 	N 	0.25	0.75	0.5993	-0.157
Mof_C 	C 	0.25	0.75	0.7186	0.05
Mof_N 	N 	0.25	0.75	0.9007	-0.155
Mof_C 	C 	0.25	0.75	0.7814	0.05
Mof_N 	N 	0.75	0.25	0.9007	-0.155
Mof_C 	C 	0.75	0.25	0.7814	0.05
_end
