data_functionalizedCrystal
_audit_creation_method	'EQeq! by Chris Wilmer'
_symmetry_space_group_name_H-M	'P1'
_symmetry_Int_Tables_number	1
_symmetry_cell_setting	triclinic
loop_
_symmetry_equiv_pos_as_xyz
  x,y,z
_cell_length_a	13.762
_cell_length_b	9.563
_cell_length_c	9.883
_cell_angle_alpha	90
_cell_angle_beta	101.074
_cell_angle_gamma	90
loop_
_atom_site_label
_atom_site_type_symbol
_atom_site_fract_x
_atom_site_fract_y
_atom_site_fract_z
_atom_site_charge
Mof_Zn	Zn	0.59568	0.06824	0.90085	1.183
Mof_N 	N 	0.55861	0.2103	0.7514	-0.292
Mof_O 	O 	0.72691	0.9864	0.9017	-0.448
Mof_O 	O 	0.77134	0.1938	0.9837	-0.345
Mof_N 	N 	0.55982	0.3463	0.5705	-0.261
Mof_C 	C 	0.9337	0.9369	0.0692	0.007
Mof_H 	H 	0.8893	0.8935	0.1157	0.053
Mof_N 	N 	0.49243	0.3994	0.6434	-0.262
Mof_C 	C 	0.7912	0.0739	0.9471	0.336
Mof_C 	C 	0.0338	0.9048	0.1049	-0.043
Mof_C 	C 	0.8985	0.0325	0.9653	-0.032
Mof_O 	O 	0.156	0.8274	0.2886	-0.48
Mof_H 	H 	0.1692	0.7721	0.353	0.315
Mof_O 	O 	0.0088	0.7253	0.2611	-0.266
Mof_C 	C 	0.5969	0.2333	0.6381	0.106
Mof_H 	H 	0.6441	0.1761	0.6105	-0.018
Mof_C 	C 	0.4943	0.3164	0.7487	0.106
Mof_H 	H 	0.4552	0.3293	0.8148	-0.05
Mof_C 	C 	0.0644	0.8079	0.2244	0.382
Mof_Zn	Zn	0.40432	0.56824	0.59915	1.185
Mof_N 	N 	0.44139	0.7103	0.7486	-0.292
Mof_O 	O 	0.27309	0.4864	0.5983	-0.46
Mof_O 	O 	0.22866	0.6938	0.5163	-0.345
Mof_N 	N 	0.44018	0.8463	0.9295	-0.258
Mof_C 	C 	0.0663	0.4369	0.4308	0.009
Mof_H 	H 	0.1107	0.3935	0.3843	0.053
Mof_N 	N 	0.50757	0.8994	0.8566	-0.26
Mof_C 	C 	0.2088	0.5739	0.5529	0.348
Mof_C 	C 	0.9662	0.4048	0.3951	-0.042
Mof_C 	C 	0.1015	0.5325	0.5347	-0.031
Mof_O 	O 	0.844	0.3274	0.2114	-0.48
Mof_H 	H 	0.8308	0.2721	0.147	0.317
Mof_O 	O 	0.9912	0.2253	0.2389	-0.263
Mof_C 	C 	0.4031	0.7333	0.8619	0.107
Mof_H 	H 	0.3559	0.6761	0.8895	-0.017
Mof_C 	C 	0.5057	0.8164	0.7513	0.106
Mof_H 	H 	0.5448	0.8293	0.6852	-0.049
Mof_C 	C 	0.9356	0.3079	0.2756	0.382
Mof_Zn	Zn	0.40432	0.93176	0.09915	1.182
Mof_N 	N 	0.44139	0.7897	0.2486	-0.293
Mof_O 	O 	0.27309	0.0136	0.0983	-0.448
Mof_O 	O 	0.22866	0.8062	0.0163	-0.345
Mof_N 	N 	0.44018	0.6537	0.4295	-0.261
Mof_C 	C 	0.0663	0.0631	0.9308	0.007
Mof_H 	H 	0.1107	0.1065	0.8843	0.053
Mof_N 	N 	0.50757	0.6006	0.3566	-0.262
Mof_C 	C 	0.2088	0.9261	0.0529	0.336
Mof_C 	C 	0.9662	0.0952	0.8951	-0.043
Mof_C 	C 	0.1015	0.9675	0.0347	-0.032
Mof_O 	O 	0.844	0.1726	0.7114	-0.48
Mof_H 	H 	0.8308	0.2279	0.647	0.315
Mof_O 	O 	0.9912	0.2747	0.7389	-0.266
Mof_C 	C 	0.4031	0.7667	0.3619	0.106
Mof_H 	H 	0.3559	0.8239	0.3895	-0.018
Mof_C 	C 	0.5057	0.6836	0.2513	0.106
Mof_H 	H 	0.5448	0.6707	0.1852	-0.05
Mof_C 	C 	0.9356	0.1921	0.7756	0.382
Mof_Zn	Zn	0.59568	0.43176	0.40085	1.185
Mof_N 	N 	0.55861	0.2897	0.2514	-0.292
Mof_O 	O 	0.72691	0.5136	0.4017	-0.46
Mof_O 	O 	0.77134	0.3062	0.4837	-0.345
Mof_N 	N 	0.55982	0.1537	0.0705	-0.258
Mof_C 	C 	0.9337	0.5631	0.5692	0.009
Mof_H 	H 	0.8893	0.6065	0.6157	0.053
Mof_N 	N 	0.49243	0.1006	0.1434	-0.26
Mof_C 	C 	0.7912	0.4261	0.4471	0.348
Mof_C 	C 	0.0338	0.5952	0.6049	-0.042
Mof_C 	C 	0.8985	0.4675	0.4653	-0.031
Mof_O 	O 	0.156	0.6726	0.7886	-0.48
Mof_H 	H 	0.1692	0.7279	0.853	0.317
Mof_O 	O 	0.0088	0.7747	0.7611	-0.263
Mof_C 	C 	0.5969	0.2667	0.1381	0.107
Mof_H 	H 	0.6441	0.3239	0.1105	-0.017
Mof_C 	C 	0.4943	0.1836	0.2487	0.106
Mof_H 	H 	0.4552	0.1707	0.3148	-0.049
Mof_C 	C 	0.0644	0.6921	0.7244	0.382
_end
