# CIF file generated by openbabel 3.1.0, see https://openbabel.org
data_I
_chemical_name_common 'image0'
_cell_length_a 29.726
_cell_length_b 9.186
_cell_length_c 16.198
_cell_angle_alpha 90
_cell_angle_beta 112.79
_cell_angle_gamma 90
_space_group_name_H-M_alt 'P 1'
_space_group_name_Hall 'P 1'
loop_
    _symmetry_equiv_pos_as_xyz
    x,y,z
loop_
    _atom_site_label
    _atom_site_type_symbol
    _atom_site_fract_x
    _atom_site_fract_y
    _atom_site_fract_z
    _atom_site_occupancy
    Dy1      Dy       0.49720    0.83763    0.40382    1.000
    C1       C        0.92030    0.38900    0.50620    1.000
    C2       C        0.86610    0.36620    0.47890    1.000
    C3       C        0.84040    0.46190    0.51050    1.000
    H1       H        0.85650    0.53410    0.55140    1.000
    C4       C        0.79010    0.44770    0.47990    1.000
    C5       C        0.76570    0.33890    0.42120    1.000
    H2       H        0.73220    0.32700    0.40380    1.000
    C6       C        0.79198    0.24750    0.38860    1.000
    C7       C        0.84200    0.25920    0.41800    1.000
    H3       H        0.85940    0.19530    0.39700    1.000
    C8       C        0.71920    0.58590    0.45880    1.000
    C9       C        0.68570    0.59660    0.49740    1.000
    H4       H        0.69430    0.57110    0.55710    1.000
    C10      C        0.63910    0.64570    0.44710    1.000
    H5       H        0.61660    0.65510    0.47370    1.000
    C11      C        0.62570    0.68080    0.35820    1.000
    C12      C        0.66040    0.66970    0.32000    1.000
    H6       H        0.65190    0.69480    0.26020    1.000
    C13      C        0.70690    0.62230    0.36950    1.000
    H7       H        0.72990    0.61460    0.34370    1.000
    C14      C        0.57554    0.73530    0.30510    1.000
    C15      C        0.71940    0.15370    0.27610    1.000
    C16      C        0.70000    0.27460    0.22470    1.000
    H8       H        0.71980    0.35380    0.22610    1.000
    C17      C        0.65120    0.27710    0.17130    1.000
    H9       H        0.63780    0.35920    0.13680    1.000
    C18      C        0.62160    0.15960    0.16790    1.000
    C19      C        0.64160    0.04170    0.22070    1.000
    H10      H        0.62180    0.96290    0.21970    1.000
    C20      C        0.69050    0.03660    0.27550    1.000
    H11      H        0.70360    0.95560    0.31120    1.000
    C21      C        0.56930    0.15600    0.10240    1.000
    O1       O        0.93938    0.49060    0.55870    1.000
    O2       O        0.94239    0.30480    0.47340    1.000
    O3       O        0.76577    0.54230    0.51380    1.000
    O4       O        0.76944    0.14030    0.32720    1.000
    O5       O        0.54547    0.73690    0.34250    1.000
    O6       O        0.56613    0.77620    0.22650    1.000
    O7       O        0.55529    0.24810    0.04140    1.000
    O8       O        0.54270    0.05440    0.10870    1.000
    Dy2      Dy       0.99720    0.33763    0.40382    1.000
    C22      C        0.42030    0.88900    0.50620    1.000
    C23      C        0.36610    0.86620    0.47890    1.000
    C24      C        0.34040    0.96190    0.51050    1.000
    H12      H        0.35650    0.03410    0.55140    1.000
    C25      C        0.29010    0.94770    0.47990    1.000
    C26      C        0.26570    0.83890    0.42120    1.000
    H13      H        0.23220    0.82700    0.40380    1.000
    C27      C        0.29198    0.74750    0.38860    1.000
    C28      C        0.34200    0.75920    0.41800    1.000
    H14      H        0.35940    0.69530    0.39700    1.000
    C29      C        0.21920    0.08590    0.45880    1.000
    C30      C        0.18570    0.09660    0.49740    1.000
    H15      H        0.19430    0.07110    0.55710    1.000
    C31      C        0.13910    0.14570    0.44710    1.000
    H16      H        0.11660    0.15510    0.47370    1.000
    C32      C        0.12570    0.18080    0.35820    1.000
    C33      C        0.16040    0.16970    0.32000    1.000
    H17      H        0.15190    0.19480    0.26020    1.000
    C34      C        0.20690    0.12230    0.36950    1.000
    H18      H        0.22990    0.11460    0.34370    1.000
    C35      C        0.07554    0.23530    0.30510    1.000
    C36      C        0.21940    0.65370    0.27610    1.000
    C37      C        0.20000    0.77460    0.22470    1.000
    H19      H        0.21980    0.85380    0.22610    1.000
    C38      C        0.15120    0.77710    0.17130    1.000
    H20      H        0.13780    0.85920    0.13680    1.000
    C39      C        0.12160    0.65960    0.16790    1.000
    C40      C        0.14160    0.54170    0.22070    1.000
    H21      H        0.12180    0.46290    0.21970    1.000
    C41      C        0.19050    0.53660    0.27550    1.000
    H22      H        0.20360    0.45560    0.31120    1.000
    C42      C        0.06930    0.65600    0.10240    1.000
    O9       O        0.43938    0.99060    0.55870    1.000
    O10      O        0.44239    0.80480    0.47340    1.000
    O11      O        0.26577    0.04230    0.51380    1.000
    O12      O        0.26944    0.64030    0.32720    1.000
    O13      O        0.04547    0.23690    0.34250    1.000
    O14      O        0.06613    0.27620    0.22650    1.000
    O15      O        0.05529    0.74810    0.04140    1.000
    O16      O        0.04270    0.55440    0.10870    1.000
    Dy3      Dy       0.50280    0.83763    0.09618    1.000
    C43      C        0.07970    0.38900    0.99380    1.000
    C44      C        0.13390    0.36620    0.02110    1.000
    C45      C        0.15960    0.46190    0.98950    1.000
    H23      H        0.14350    0.53410    0.94860    1.000
    C46      C        0.20990    0.44770    0.02010    1.000
    C47      C        0.23430    0.33890    0.07880    1.000
    H24      H        0.26780    0.32700    0.09620    1.000
    C48      C        0.20802    0.24750    0.11140    1.000
    C49      C        0.15800    0.25920    0.08200    1.000
    H25      H        0.14060    0.19530    0.10300    1.000
    C50      C        0.28080    0.58590    0.04120    1.000
    C51      C        0.31430    0.59660    0.00260    1.000
    H26      H        0.30570    0.57110    0.94290    1.000
    C52      C        0.36090    0.64570    0.05290    1.000
    H27      H        0.38340    0.65510    0.02630    1.000
    C53      C        0.37430    0.68080    0.14180    1.000
    C54      C        0.33960    0.66970    0.18000    1.000
    H28      H        0.34810    0.69480    0.23980    1.000
    C55      C        0.29310    0.62230    0.13050    1.000
    H29      H        0.27010    0.61460    0.15630    1.000
    C56      C        0.42446    0.73530    0.19490    1.000
    C57      C        0.28060    0.15370    0.22390    1.000
    C58      C        0.30000    0.27460    0.27530    1.000
    H30      H        0.28020    0.35380    0.27390    1.000
    C59      C        0.34880    0.27710    0.32870    1.000
    H31      H        0.36220    0.35920    0.36320    1.000
    C60      C        0.37840    0.15960    0.33210    1.000
    C61      C        0.35840    0.04170    0.27930    1.000
    H32      H        0.37820    0.96290    0.28030    1.000
    C62      C        0.30950    0.03660    0.22450    1.000
    H33      H        0.29640    0.95560    0.18880    1.000
    C63      C        0.43070    0.15600    0.39760    1.000
    O17      O        0.06062    0.49060    0.94130    1.000
    O18      O        0.05761    0.30480    0.02660    1.000
    O19      O        0.23423    0.54230    0.98620    1.000
    O20      O        0.23056    0.14030    0.17280    1.000
    O21      O        0.45453    0.73690    0.15750    1.000
    O22      O        0.43387    0.77620    0.27350    1.000
    O23      O        0.44471    0.24810    0.45860    1.000
    O24      O        0.45730    0.05440    0.39130    1.000
    Dy4      Dy       0.00280    0.33763    0.09618    1.000
    C64      C        0.57970    0.88900    0.99380    1.000
    C65      C        0.63390    0.86620    0.02110    1.000
    C66      C        0.65960    0.96190    0.98950    1.000
    H34      H        0.64350    0.03410    0.94860    1.000
    C67      C        0.70990    0.94770    0.02010    1.000
    C68      C        0.73430    0.83890    0.07880    1.000
    H35      H        0.76780    0.82700    0.09620    1.000
    C69      C        0.70802    0.74750    0.11140    1.000
    C70      C        0.65800    0.75920    0.08200    1.000
    H36      H        0.64060    0.69530    0.10300    1.000
    C71      C        0.78080    0.08590    0.04120    1.000
    C72      C        0.81430    0.09660    0.00260    1.000
    H37      H        0.80570    0.07110    0.94290    1.000
    C73      C        0.86090    0.14570    0.05290    1.000
    H38      H        0.88340    0.15510    0.02630    1.000
    C74      C        0.87430    0.18080    0.14180    1.000
    C75      C        0.83960    0.16970    0.18000    1.000
    H39      H        0.84810    0.19480    0.23980    1.000
    C76      C        0.79310    0.12230    0.13050    1.000
    H40      H        0.77010    0.11460    0.15630    1.000
    C77      C        0.92446    0.23530    0.19490    1.000
    C78      C        0.78060    0.65370    0.22390    1.000
    C79      C        0.80000    0.77460    0.27530    1.000
    H41      H        0.78020    0.85380    0.27390    1.000
    C80      C        0.84880    0.77710    0.32870    1.000
    H42      H        0.86220    0.85920    0.36320    1.000
    C81      C        0.87840    0.65960    0.33210    1.000
    C82      C        0.85840    0.54170    0.27930    1.000
    H43      H        0.87820    0.46290    0.28030    1.000
    C83      C        0.80950    0.53660    0.22450    1.000
    H44      H        0.79640    0.45560    0.18880    1.000
    C84      C        0.93070    0.65600    0.39760    1.000
    O25      O        0.56062    0.99060    0.94130    1.000
    O26      O        0.55761    0.80480    0.02660    1.000
    O27      O        0.73423    0.04230    0.98620    1.000
    O28      O        0.73056    0.64030    0.17280    1.000
    O29      O        0.95453    0.23690    0.15750    1.000
    O30      O        0.93387    0.27620    0.27350    1.000
    O31      O        0.94471    0.74810    0.45860    1.000
    O32      O        0.95730    0.55440    0.39130    1.000
    Dy5      Dy       0.50280    0.16237    0.59618    1.000
    C85      C        0.07970    0.61100    0.49380    1.000
    C86      C        0.13390    0.63380    0.52110    1.000
    C87      C        0.15960    0.53810    0.48950    1.000
    H45      H        0.14350    0.46590    0.44860    1.000
    C88      C        0.20990    0.55230    0.52010    1.000
    C89      C        0.23430    0.66110    0.57880    1.000
    H46      H        0.26780    0.67300    0.59620    1.000
    C90      C        0.20802    0.75250    0.61140    1.000
    C91      C        0.15800    0.74080    0.58200    1.000
    H47      H        0.14060    0.80470    0.60300    1.000
    C92      C        0.28080    0.41410    0.54120    1.000
    C93      C        0.31430    0.40340    0.50260    1.000
    H48      H        0.30570    0.42890    0.44290    1.000
    C94      C        0.36090    0.35430    0.55290    1.000
    H49      H        0.38340    0.34490    0.52630    1.000
    C95      C        0.37430    0.31920    0.64180    1.000
    C96      C        0.33960    0.33030    0.68000    1.000
    H50      H        0.34810    0.30520    0.73980    1.000
    C97      C        0.29310    0.37770    0.63050    1.000
    H51      H        0.27010    0.38540    0.65630    1.000
    C98      C        0.42446    0.26470    0.69490    1.000
    C99      C        0.28060    0.84630    0.72390    1.000
    C100     C        0.30000    0.72540    0.77530    1.000
    H52      H        0.28020    0.64620    0.77390    1.000
    C101     C        0.34880    0.72290    0.82870    1.000
    H53      H        0.36220    0.64080    0.86320    1.000
    C102     C        0.37840    0.84040    0.83210    1.000
    C103     C        0.35840    0.95830    0.77930    1.000
    H54      H        0.37820    0.03710    0.78030    1.000
    C104     C        0.30950    0.96340    0.72450    1.000
    H55      H        0.29640    0.04440    0.68880    1.000
    C105     C        0.43070    0.84400    0.89760    1.000
    O33      O        0.06062    0.50940    0.44130    1.000
    O34      O        0.05761    0.69520    0.52660    1.000
    O35      O        0.23423    0.45770    0.48620    1.000
    O36      O        0.23056    0.85970    0.67280    1.000
    O37      O        0.45453    0.26310    0.65750    1.000
    O38      O        0.43387    0.22380    0.77350    1.000
    O39      O        0.44471    0.75190    0.95860    1.000
    O40      O        0.45730    0.94560    0.89130    1.000
    Dy6      Dy       0.00280    0.66237    0.59618    1.000
    C106     C        0.57970    0.11100    0.49380    1.000
    C107     C        0.63390    0.13380    0.52110    1.000
    C108     C        0.65960    0.03810    0.48950    1.000
    H56      H        0.64350    0.96590    0.44860    1.000
    C109     C        0.70990    0.05230    0.52010    1.000
    C110     C        0.73430    0.16110    0.57880    1.000
    H57      H        0.76780    0.17300    0.59620    1.000
    C111     C        0.70802    0.25250    0.61140    1.000
    C112     C        0.65800    0.24080    0.58200    1.000
    H58      H        0.64060    0.30470    0.60300    1.000
    C113     C        0.78080    0.91410    0.54120    1.000
    C114     C        0.81430    0.90340    0.50260    1.000
    H59      H        0.80570    0.92890    0.44290    1.000
    C115     C        0.86090    0.85430    0.55290    1.000
    H60      H        0.88340    0.84490    0.52630    1.000
    C116     C        0.87430    0.81920    0.64180    1.000
    C117     C        0.83960    0.83030    0.68000    1.000
    H61      H        0.84810    0.80520    0.73980    1.000
    C118     C        0.79310    0.87770    0.63050    1.000
    H62      H        0.77010    0.88540    0.65630    1.000
    C119     C        0.92446    0.76470    0.69490    1.000
    C120     C        0.78060    0.34630    0.72390    1.000
    C121     C        0.80000    0.22540    0.77530    1.000
    H63      H        0.78020    0.14620    0.77390    1.000
    C122     C        0.84880    0.22290    0.82870    1.000
    H64      H        0.86220    0.14080    0.86320    1.000
    C123     C        0.87840    0.34040    0.83210    1.000
    C124     C        0.85840    0.45830    0.77930    1.000
    H65      H        0.87820    0.53710    0.78030    1.000
    C125     C        0.80950    0.46340    0.72450    1.000
    H66      H        0.79640    0.54440    0.68880    1.000
    C126     C        0.93070    0.34400    0.89760    1.000
    O41      O        0.56062    0.00940    0.44130    1.000
    O42      O        0.55761    0.19520    0.52660    1.000
    O43      O        0.73423    0.95770    0.48620    1.000
    O44      O        0.73056    0.35970    0.67280    1.000
    O45      O        0.95453    0.76310    0.65750    1.000
    O46      O        0.93387    0.72380    0.77350    1.000
    O47      O        0.94471    0.25190    0.95860    1.000
    O48      O        0.95730    0.44560    0.89130    1.000
    Dy7      Dy       0.49720    0.16237    0.90382    1.000
    C127     C        0.92030    0.61100    0.00620    1.000
    C128     C        0.86610    0.63380    0.97890    1.000
    C129     C        0.84040    0.53810    0.01050    1.000
    H67      H        0.85650    0.46590    0.05140    1.000
    C130     C        0.79010    0.55230    0.97990    1.000
    C131     C        0.76570    0.66110    0.92120    1.000
    H68      H        0.73220    0.67300    0.90380    1.000
    C132     C        0.79198    0.75250    0.88860    1.000
    C133     C        0.84200    0.74080    0.91800    1.000
    H69      H        0.85940    0.80470    0.89700    1.000
    C134     C        0.71920    0.41410    0.95880    1.000
    C135     C        0.68570    0.40340    0.99740    1.000
    H70      H        0.69430    0.42890    0.05710    1.000
    C136     C        0.63910    0.35430    0.94710    1.000
    H71      H        0.61660    0.34490    0.97370    1.000
    C137     C        0.62570    0.31920    0.85820    1.000
    C138     C        0.66040    0.33030    0.82000    1.000
    H72      H        0.65190    0.30520    0.76020    1.000
    C139     C        0.70690    0.37770    0.86950    1.000
    H73      H        0.72990    0.38540    0.84370    1.000
    C140     C        0.57554    0.26470    0.80510    1.000
    C141     C        0.71940    0.84630    0.77610    1.000
    C142     C        0.70000    0.72540    0.72470    1.000
    H74      H        0.71980    0.64620    0.72610    1.000
    C143     C        0.65120    0.72290    0.67130    1.000
    H75      H        0.63780    0.64080    0.63680    1.000
    C144     C        0.62160    0.84040    0.66790    1.000
    C145     C        0.64160    0.95830    0.72070    1.000
    H76      H        0.62180    0.03710    0.71970    1.000
    C146     C        0.69050    0.96340    0.77550    1.000
    H77      H        0.70360    0.04440    0.81120    1.000
    C147     C        0.56930    0.84400    0.60240    1.000
    O49      O        0.93938    0.50940    0.05870    1.000
    O50      O        0.94239    0.69520    0.97340    1.000
    O51      O        0.76577    0.45770    0.01380    1.000
    O52      O        0.76944    0.85970    0.82720    1.000
    O53      O        0.54547    0.26310    0.84250    1.000
    O54      O        0.56613    0.22380    0.72650    1.000
    O55      O        0.55529    0.75190    0.54140    1.000
    O56      O        0.54270    0.94560    0.60870    1.000
    Dy8      Dy       0.99720    0.66237    0.90382    1.000
    C148     C        0.42030    0.11100    0.00620    1.000
    C149     C        0.36610    0.13380    0.97890    1.000
    C150     C        0.34040    0.03810    0.01050    1.000
    H78      H        0.35650    0.96590    0.05140    1.000
    C151     C        0.29010    0.05230    0.97990    1.000
    C152     C        0.26570    0.16110    0.92120    1.000
    H79      H        0.23220    0.17300    0.90380    1.000
    C153     C        0.29198    0.25250    0.88860    1.000
    C154     C        0.34200    0.24080    0.91800    1.000
    H80      H        0.35940    0.30470    0.89700    1.000
    C155     C        0.21920    0.91410    0.95880    1.000
    C156     C        0.18570    0.90340    0.99740    1.000
    H81      H        0.19430    0.92890    0.05710    1.000
    C157     C        0.13910    0.85430    0.94710    1.000
    H82      H        0.11660    0.84490    0.97370    1.000
    C158     C        0.12570    0.81920    0.85820    1.000
    C159     C        0.16040    0.83030    0.82000    1.000
    H83      H        0.15190    0.80520    0.76020    1.000
    C160     C        0.20690    0.87770    0.86950    1.000
    H84      H        0.22990    0.88540    0.84370    1.000
    C161     C        0.07554    0.76470    0.80510    1.000
    C162     C        0.21940    0.34630    0.77610    1.000
    C163     C        0.20000    0.22540    0.72470    1.000
    H85      H        0.21980    0.14620    0.72610    1.000
    C164     C        0.15120    0.22290    0.67130    1.000
    H86      H        0.13780    0.14080    0.63680    1.000
    C165     C        0.12160    0.34040    0.66790    1.000
    C166     C        0.14160    0.45830    0.72070    1.000
    H87      H        0.12180    0.53710    0.71970    1.000
    C167     C        0.19050    0.46340    0.77550    1.000
    H88      H        0.20360    0.54440    0.81120    1.000
    C168     C        0.06930    0.34400    0.60240    1.000
    O57      O        0.43938    0.00940    0.05870    1.000
    O58      O        0.44239    0.19520    0.97340    1.000
    O59      O        0.26577    0.95770    0.01380    1.000
    O60      O        0.26944    0.35970    0.82720    1.000
    O61      O        0.04547    0.76310    0.84250    1.000
    O62      O        0.06613    0.72380    0.72650    1.000
    O63      O        0.05529    0.25190    0.54140    1.000
    O64      O        0.04270    0.44560    0.60870    1.000
