data_functionalizedCrystal
_audit_creation_method	'EQeq! by Chris Wilmer'
_symmetry_space_group_name_H-M	'P1'
_symmetry_Int_Tables_number	1
_symmetry_cell_setting	triclinic
loop_
_symmetry_equiv_pos_as_xyz
  x,y,z
_cell_length_a	14.7228
_cell_length_b	15.2375
_cell_length_c	15.7764
_cell_angle_alpha	67.526
_cell_angle_beta	65.847
_cell_angle_gamma	70.866
loop_
_atom_site_label
_atom_site_type_symbol
_atom_site_fract_x
_atom_site_fract_y
_atom_site_fract_z
_atom_site_charge
Mof_C 	C 	0.6963	0.18955	0.1015	-0.878
Mof_Co	Co	0.25376	0.4311	0.97986	1.172
Mof_O 	O 	0.4974	0.01308	0.1392	0.53
Mof_H 	H 	0.4489	0.9838	0.1708	-0.111
Mof_B 	B 	0.6337	0.10193	0.1885	0.773
Mof_H 	H 	0.5604	0.1162	0.2474	-0.262
Mof_B 	B 	0.74983	0.11138	0.18926	0.138
Mof_H 	H 	0.7539	0.1321	0.2483	-0.073
Mof_B 	B 	0.82664	0.1515	0.06655	0.902
Mof_H 	H 	0.8814	0.1989	0.0448	-0.292
Mof_B 	B 	0.75736	0.16669	0.99074	0.227
Mof_H 	H 	0.7661	0.2243	0.9194	-0.102
Mof_B 	B 	0.63906	0.1342	0.06622	0.712
Mof_H 	H 	0.569	0.1693	0.0446	-0.25
Mof_B 	B 	0.72875	0.99624	0.20796	0.185
Mof_H 	H 	0.7181	0.9393	0.2798	-0.102
Mof_B 	B 	0.84825	0.02721	0.13282	-0.382
Mof_H 	H 	0.9178	0.9911	0.1553	0.051
Mof_B 	B 	0.85394	0.06181	0.00908	-0.459
Mof_H 	H 	0.927	0.0491	0.9494	0.082
Mof_B 	B 	0.73667	0.05112	0.00952	0.161
Mof_H 	H 	0.7314	0.0305	0.951	-0.084
Mof_C 	C 	0.66551	0.01584	0.12996	-1.01
Mof_B 	B 	0.79398	0.96549	0.09682	0.957
Mof_H 	H 	0.827	0.8884	0.0954	-0.315
Mof_C 	C 	0.65361	0.29725	0.1021	0.405
Mof_H 	H 	0.7066	0.336	0.0553	-0.09
Mof_O 	O 	0.63141	0.30298	0.1961	-0.467
Mof_H 	H 	0.6519	0.3504	0.1919	0.278
Mof_C 	C 	0.55877	0.33885	0.07211	-0.109
Mof_C 	C 	0.46298	0.33529	0.14119	-0.03
Mof_H 	H 	0.4553	0.3121	0.2083	0.047
Mof_C 	C 	0.37905	0.36581	0.11117	0.014
Mof_H 	H 	0.314	0.3621	0.159	0.022
Mof_N 	N 	0.38519	0.40065	0.01705	-0.222
Mof_C 	C 	0.47699	0.40908	0.95098	0.035
Mof_H 	H 	0.482	0.4367	0.8845	0.011
Mof_C 	C 	0.56522	0.37946	0.9749	-0.018
Mof_H 	H 	0.629	0.3867	0.9258	0.037
Mof_C 	C 	0.58487	0.95476	0.16402	0.923
Mof_H 	H 	0.5632	0.9324	0.2365	-0.592
Mof_C 	C 	0.6244	0.86399	0.13073	-0.31
Mof_C 	C 	0.6679	0.77749	0.18547	0.106
Mof_H 	H 	0.6758	0.7748	0.2433	-0.013
Mof_C 	C 	0.69981	0.69505	0.15521	-0.047
Mof_H 	H 	0.7298	0.6365	0.1934	0.046
Mof_N 	N 	0.69043	0.69372	0.07475	-0.18
Mof_C 	C 	0.64813	0.77793	0.02249	-0.09
Mof_H 	H 	0.6408	0.7788	0.965	0.058
Mof_C 	C 	0.61469	0.86322	0.04757	0.122
Mof_H 	H 	0.5853	0.9209	0.008	-0.028
Mof_O 	O 	0.1991	0.54169	0.04097	-0.436
Mof_C 	C 	0.10753	0.56853	0.08914	0.374
Mof_O 	O 	0.02987	0.55862	0.08246	-0.434
Mof_C 	C 	0.09274	0.61697	0.16194	-0.113
Mof_C 	C 	0.01219	0.69466	0.17849	-0.006
Mof_H 	H 	0.9622	0.714	0.1479	0.055
Mof_C 	C 	0.00504	0.74391	0.23993	-0.142
Mof_H 	H 	0.9514	0.7984	0.2492	0.079
Mof_C 	C 	0.07584	0.71422	0.28813	0.044
Mof_C 	C 	0.15334	0.63315	0.275	-0.112
Mof_H 	H 	0.1998	0.61	0.3102	0.064
Mof_C 	C 	0.16284	0.58632	0.21096	0.03
Mof_H 	H 	0.2175	0.5329	0.2004	0.023
Mof_C 	C 	0.0736	0.7704	0.348	0.019
Mof_C 	C 	0.06146	0.87092	0.31164	-0.097
Mof_H 	H 	0.0483	0.9028	0.2518	0.041
Mof_C 	C 	0.0683	0.92585	0.36159	0.025
Mof_C 	C 	0.08578	0.87851	0.45038	-0.1
Mof_H 	H 	0.0897	0.9152	0.4854	0.057
Mof_C 	C 	0.09758	0.77754	0.4884	0.03
Mof_C 	C 	0.09167	0.72463	0.43634	-0.098
Mof_H 	H 	0.1001	0.6561	0.4616	0.059
Mof_C 	C 	0.12157	0.72403	0.5799	0.034
Mof_C 	C 	0.07722	0.64498	0.64449	-0.098
Mof_H 	H 	0.0274	0.6293	0.6321	0.057
Mof_C 	C 	0.10464	0.58898	0.72635	0.027
Mof_H 	H 	0.073	0.536	0.7701	0.028
Mof_C 	C 	0.17889	0.6106	0.74448	-0.118
Mof_C 	C 	0.22264	0.69013	0.68132	0.031
Mof_H 	H 	0.2729	0.7055	0.6935	0.028
Mof_C 	C 	0.19306	0.74699	0.60064	-0.099
Mof_H 	H 	0.2218	0.8022	0.559	0.059
Mof_C 	C 	0.21059	0.5463	0.82983	0.339
Mof_O 	O 	0.15237	0.49167	0.89884	-0.504
Mof_O 	O 	0.29652	0.54042	0.83439	-0.393
Mof_C 	C 	0.06634	0.03093	0.31229	0.036
Mof_C 	C 	0.13258	0.07645	0.31521	-0.105
Mof_H 	H 	0.1704	0.0438	0.3589	0.055
Mof_C 	C 	0.14377	0.16889	0.25496	0.027
Mof_H 	H 	0.1909	0.1984	0.2561	0.024
Mof_C 	C 	0.0866	0.21901	0.19276	-0.109
Mof_C 	C 	0.01503	0.17698	0.19452	-0.008
Mof_H 	H 	0.9724	0.2123	0.1556	0.06
Mof_C 	C 	0.00573	0.08363	0.25301	-0.141
Mof_H 	H 	0.9574	0.0549	0.2529	0.078
Mof_C 	C 	0.10384	0.31567	0.12138	0.368
Mof_O 	O 	0.18199	0.34264	0.10957	-0.44
Mof_O 	O 	0.04096	0.36126	0.07695	-0.449
Mof_H 	H 	0.5301	0.9965	0.1355	-0.711
Mof_O 	O 	0.5443	0.9373	0.2585	0.336
Mof_H 	H 	0.5018	0.902	0.2796	0.004
Mof_C 	C 	0.3037	0.81045	0.8985	-0.794
Mof_Co	Co	0.74624	0.5689	0.02014	1.158
Mof_O 	O 	0.5026	0.98692	0.8608	0.488
Mof_H 	H 	0.5511	0.0162	0.8292	-0.1
Mof_B 	B 	0.3663	0.89807	0.8115	0.692
Mof_H 	H 	0.4396	0.8838	0.7526	-0.237
Mof_B 	B 	0.25017	0.88862	0.81074	0.08
Mof_H 	H 	0.2461	0.8679	0.7517	-0.059
Mof_B 	B 	0.17336	0.8485	0.93345	0.964
Mof_H 	H 	0.1186	0.8011	0.9552	-0.308
Mof_B 	B 	0.24264	0.83331	0.00926	-0.072
Mof_H 	H 	0.2339	0.7757	0.0806	-0.023
Mof_B 	B 	0.36094	0.8658	0.93378	0.788
Mof_H 	H 	0.431	0.8307	0.9554	-0.261
Mof_B 	B 	0.27125	0.00376	0.79204	0.31
Mof_H 	H 	0.2819	0.0607	0.7202	-0.142
Mof_B 	B 	0.15175	0.97279	0.86718	-0.407
Mof_H 	H 	0.0822	0.0089	0.8447	0.037
Mof_B 	B 	0.14606	0.93819	0.99092	-0.276
Mof_H 	H 	0.073	0.9509	0.0506	-0
Mof_B 	B 	0.26333	0.94888	0.99048	0.328
Mof_H 	H 	0.2686	0.9695	0.049	-0.147
Mof_C 	C 	0.33449	0.98416	0.87004	-1.012
Mof_B 	B 	0.20602	0.03451	0.90318	0.765
Mof_H 	H 	0.173	0.1116	0.9046	-0.264
Mof_C 	C 	0.34639	0.70275	0.8979	0.359
Mof_H 	H 	0.2934	0.664	0.9447	-0.066
Mof_O 	O 	0.36859	0.69702	0.8039	-0.455
Mof_H 	H 	0.3481	0.6496	0.8081	0.275
Mof_C 	C 	0.44123	0.66115	0.92789	-0.053
Mof_C 	C 	0.53702	0.66471	0.85881	-0.055
Mof_H 	H 	0.5447	0.6879	0.7917	0.058
Mof_C 	C 	0.62095	0.63419	0.88883	0.031
Mof_H 	H 	0.686	0.6379	0.841	0.02
Mof_N 	N 	0.61481	0.59935	0.98295	-0.206
Mof_C 	C 	0.52301	0.59092	0.04902	0.023
Mof_H 	H 	0.518	0.5633	0.1155	0.011
Mof_C 	C 	0.43478	0.62054	0.0251	-0.071
Mof_H 	H 	0.371	0.6133	0.0742	0.049
Mof_C 	C 	0.41513	0.04524	0.83598	0.89
Mof_H 	H 	0.4368	0.0676	0.7635	-0.596
Mof_C 	C 	0.3756	0.13601	0.86927	-0.28
Mof_C 	C 	0.3321	0.22251	0.81453	0.085
Mof_H 	H 	0.3242	0.2252	0.7567	-0.008
Mof_C 	C 	0.30019	0.30495	0.84479	-0.036
Mof_H 	H 	0.2702	0.3635	0.8066	0.041
Mof_N 	N 	0.30957	0.30628	0.92525	-0.19
Mof_C 	C 	0.35187	0.22207	0.97751	-0.015
Mof_H 	H 	0.3592	0.2212	0.035	0.013
Mof_C 	C 	0.38531	0.13678	0.95243	0.077
Mof_H 	H 	0.4147	0.0791	0.992	-0.004
Mof_O 	O 	0.8009	0.45831	0.95903	-0.418
Mof_C 	C 	0.89247	0.43147	0.91086	0.381
Mof_O 	O 	0.97013	0.44138	0.91754	-0.393
Mof_C 	C 	0.90726	0.38303	0.83806	-0.121
Mof_C 	C 	0.98781	0.30534	0.82151	0.067
Mof_H 	H 	0.0378	0.286	0.8521	-0.008
Mof_C 	C 	0.99496	0.25609	0.76007	-0.056
Mof_H 	H 	0.0486	0.2016	0.7508	0.009
Mof_C 	C 	0.92416	0.28578	0.71187	0.015
Mof_C 	C 	0.84666	0.36685	0.725	-0.094
Mof_H 	H 	0.8002	0.39	0.6898	0.061
Mof_C 	C 	0.83716	0.41368	0.78904	0.033
Mof_H 	H 	0.7825	0.4671	0.7996	0.027
Mof_C 	C 	0.9264	0.2296	0.652	0.052
Mof_C 	C 	0.93854	0.12908	0.68836	-0.111
Mof_H 	H 	0.9517	0.0972	0.7482	0.061
Mof_C 	C 	0.9317	0.07415	0.63841	0.047
Mof_C 	C 	0.91422	0.12149	0.54962	-0.11
Mof_H 	H 	0.9103	0.0848	0.5146	0.072
Mof_C 	C 	0.90242	0.22246	0.5116	0.049
Mof_C 	C 	0.90833	0.27537	0.56366	-0.113
Mof_H 	H 	0.8999	0.3439	0.5384	0.072
Mof_C 	C 	0.87843	0.27597	0.4201	0.035
Mof_C 	C 	0.92278	0.35502	0.35551	-0.086
Mof_H 	H 	0.9726	0.3707	0.3679	0.07
Mof_C 	C 	0.89536	0.41102	0.27365	0.029
Mof_H 	H 	0.927	0.464	0.2299	0.046
Mof_C 	C 	0.82111	0.3894	0.25552	-0.11
Mof_C 	C 	0.77736	0.30987	0.31868	0.03
Mof_H 	H 	0.7271	0.2945	0.3065	0.029
Mof_C 	C 	0.80694	0.25301	0.39936	-0.09
Mof_H 	H 	0.7782	0.1978	0.441	0.059
Mof_C 	C 	0.78941	0.4537	0.17017	0.339
Mof_O 	O 	0.84763	0.50833	0.10116	-0.5
Mof_O 	O 	0.70348	0.45958	0.16561	-0.397
Mof_C 	C 	0.93366	0.96907	0.68771	0.025
Mof_C 	C 	0.86742	0.92355	0.68479	-0.095
Mof_H 	H 	0.8296	0.9562	0.6411	0.06
Mof_C 	C 	0.85623	0.83111	0.74504	0.039
Mof_H 	H 	0.8091	0.8016	0.7439	0.027
Mof_C 	C 	0.9134	0.78099	0.80724	-0.12
Mof_C 	C 	0.98497	0.82302	0.80548	0.072
Mof_H 	H 	0.0276	0.7877	0.8444	-0.004
Mof_C 	C 	0.99427	0.91637	0.74699	-0.063
Mof_H 	H 	0.0426	0.9451	0.7471	0.015
Mof_C 	C 	0.89616	0.68433	0.87862	0.379
Mof_O 	O 	0.81801	0.65736	0.89043	-0.428
Mof_O 	O 	0.95904	0.63874	0.92305	-0.407
Mof_H 	H 	0.4699	0.0035	0.8645	-0.669
Mof_O 	O 	0.4557	0.0627	0.7415	0.351
Mof_H 	H 	0.4982	0.098	0.7204	-0.002
Mof_Co	Co	-0	0.5	-0	1.183
_end
