data_functionalizedCrystal
_audit_creation_method	'EQeq! by Chris Wilmer'
_symmetry_space_group_name_H-M	'P1'
_symmetry_Int_Tables_number	1
_symmetry_cell_setting	triclinic
loop_
_symmetry_equiv_pos_as_xyz
  x,y,z
_cell_length_a	9.055
_cell_length_b	9.055
_cell_length_c	14.4468
_cell_angle_alpha	90
_cell_angle_beta	90
_cell_angle_gamma	120
loop_
_atom_site_label
_atom_site_type_symbol
_atom_site_fract_x
_atom_site_fract_y
_atom_site_fract_z
_atom_site_charge
Mof_Si	Si	0.66667	0.33334	0.20412	0.492
Mof_Si	Si	0.66667	0.33334	0.6031	0.499
Mof_Si	Si	0.33333	0.66666	0.1031	0.477
Mof_Si	Si	0.33333	0.66666	0.70412	0.498
Mof_I 	I 	0.66667	0.33334	0.4037	-0.24
Mof_I 	I 	0.40176	1e-05	0.15366	-0.255
Mof_I 	I 	0.40175	0.40176	0.65366	-0.247
Mof_I 	I 	0.33333	0.66666	0.9037	-0.216
Mof_I 	I 	0.59825	0.59824	0.15366	-0.257
Mof_I 	I 	0.99999	0.40175	0.15366	-0.254
Mof_I 	I 	0.59824	0.99999	0.65366	-0.248
Mof_I 	I 	1e-05	0.59825	0.65366	-0.249
_end
