data_functionalizedCrystal
_audit_creation_method	'EQeq! by Chris Wilmer'
_symmetry_space_group_name_H-M	'P1'
_symmetry_Int_Tables_number	1
_symmetry_cell_setting	triclinic
loop_
_symmetry_equiv_pos_as_xyz
  x,y,z
_cell_length_a	9.499
_cell_length_b	9.5854
_cell_length_c	11.4945
_cell_angle_alpha	101.906
_cell_angle_beta	95.748
_cell_angle_gamma	119.387
loop_
_atom_site_label
_atom_site_type_symbol
_atom_site_fract_x
_atom_site_fract_y
_atom_site_fract_z
_atom_site_charge
Mof_Er	Er	0.73141	0.36122	0.49497	2.122
Mof_Ag	Ag	0.51032	0.80804	0.17762	0.667
Mof_O 	O 	0.4147	0.8106	0.38528	-0.473
Mof_O 	O 	0.2057	0.6693	0.6931	-0.543
Mof_O 	O 	0.9305	0.5175	0.6735	-0.556
Mof_O 	O 	0.1317	0.781	0.4823	-0.526
Mof_O 	O 	0.8576	0.6244	0.4662	-0.535
Mof_O 	O 	0.4952	0.6448	0.6176	-0.421
Mof_O 	O 	0.6288	0.5071	0.62245	-0.413
Mof_N 	N 	0.2826	0.7565	0.0682	-0.232
Mof_N 	N 	0.7608	0.8703	0.2461	-0.235
Mof_C 	C 	0.1584	0.7469	0.1186	0.125
Mof_H 	H 	0.1754	0.7718	0.2033	-0.014
Mof_C 	C 	0.0067	0.7019	0.0512	-0.207
Mof_H 	H 	0.9255	0.7022	0.09	0.092
Mof_C 	C 	0.9768	0.6565	0.9262	0.147
Mof_H 	H 	0.8735	0.6212	0.8788	-0.025
Mof_C 	C 	0.1028	0.6642	0.8713	-0.239
Mof_C 	C 	0.254	0.7168	0.9444	0.127
Mof_H 	H 	0.3397	0.7255	0.9076	-0.031
Mof_C 	C 	0.0777	0.6136	0.7343	0.534
Mof_C 	C 	0.7938	0.7883	0.3169	0.136
Mof_H 	H 	0.7058	0.694	0.3286	-0.022
Mof_C 	C 	0.9552	0.8408	0.3725	-0.236
Mof_C 	C 	0.0845	0.9815	0.356	0.154
Mof_H 	H 	0.1937	0.0201	0.393	-0.015
Mof_C 	C 	0.0504	0.0647	0.284	-0.212
Mof_H 	H 	0.1362	0.1598	0.2714	0.118
Mof_C 	C 	0.8885	0.0051	0.2312	0.13
Mof_H 	H 	0.8666	0.0617	0.1825	-0.033
Mof_C 	C 	0.9835	0.7419	0.4474	0.519
Mof_C 	C 	0.4868	0.9667	0.4303	0.269
Mof_C 	C 	0.5357	0.543	0.5691	0.26
Mof_O 	O 	0.5402	0.0726	0.37366	-0.432
Mof_Er	Er	0.26859	0.63878	0.50503	2.122
Mof_Ag	Ag	0.48968	0.19196	0.82238	0.667
Mof_O 	O 	0.5853	0.1894	0.61472	-0.473
Mof_O 	O 	0.7943	0.3307	0.3069	-0.543
Mof_O 	O 	0.0695	0.4825	0.3265	-0.556
Mof_O 	O 	0.8683	0.219	0.5177	-0.526
Mof_O 	O 	0.1424	0.3756	0.5338	-0.535
Mof_O 	O 	0.5048	0.3552	0.3824	-0.421
Mof_O 	O 	0.3712	0.4929	0.37755	-0.413
Mof_N 	N 	0.7174	0.2435	0.9318	-0.232
Mof_N 	N 	0.2392	0.1297	0.7539	-0.235
Mof_C 	C 	0.8416	0.2531	0.8814	0.125
Mof_H 	H 	0.8246	0.2282	0.7967	-0.014
Mof_C 	C 	0.9933	0.2981	0.9488	-0.207
Mof_H 	H 	0.0745	0.2978	0.91	0.092
Mof_C 	C 	0.0232	0.3435	0.0738	0.147
Mof_H 	H 	0.1265	0.3788	0.1212	-0.025
Mof_C 	C 	0.8972	0.3358	0.1287	-0.239
Mof_C 	C 	0.746	0.2832	0.0556	0.127
Mof_H 	H 	0.6603	0.2745	0.0924	-0.031
Mof_C 	C 	0.9223	0.3864	0.2657	0.534
Mof_C 	C 	0.2062	0.2117	0.6831	0.136
Mof_H 	H 	0.2942	0.306	0.6714	-0.022
Mof_C 	C 	0.0448	0.1592	0.6275	-0.236
Mof_C 	C 	0.9155	0.0185	0.644	0.154
Mof_H 	H 	0.8063	0.9799	0.607	-0.015
Mof_C 	C 	0.9496	0.9353	0.716	-0.212
Mof_H 	H 	0.8638	0.8402	0.7286	0.118
Mof_C 	C 	0.1115	0.9949	0.7688	0.13
Mof_H 	H 	0.1334	0.9383	0.8175	-0.033
Mof_C 	C 	0.0165	0.2581	0.5526	0.519
Mof_C 	C 	0.5132	0.0333	0.5697	0.269
Mof_C 	C 	0.4643	0.457	0.4309	0.26
Mof_O 	O 	0.4598	0.9274	0.62634	-0.432
_end
