data_functionalizedCrystal
_audit_creation_method	'EQeq! by Chris Wilmer'
_symmetry_space_group_name_H-M	'P1'
_symmetry_Int_Tables_number	1
_symmetry_cell_setting	triclinic
loop_
_symmetry_equiv_pos_as_xyz
  x,y,z
_cell_length_a	23.312
_cell_length_b	10.6627
_cell_length_c	13.167
_cell_angle_alpha	90
_cell_angle_beta	124.168
_cell_angle_gamma	90
loop_
_atom_site_label
_atom_site_type_symbol
_atom_site_fract_x
_atom_site_fract_y
_atom_site_fract_z
_atom_site_charge
Mof_Ag	Ag	0.24296	0.4246	0.37665	0.333
Mof_Ag	Ag	0.27528	0.08384	0.43201	0.31
Mof_Ag	Ag	0.34463	0.24916	0.29291	0.411
Mof_Ag	Ag	0.3635	0.5612	0.6409	0.07
Mof_Ag	Ag	0.3728	0.5584	0.6549	0.078
Mof_Ag	Ag	0.49198	0.28813	0.48415	0.123
Mof_Ag	Ag	0.11266	0.54685	0.3228	0.136
Mof_Ag	Ag	0.1165	0.5528	0.3523	0.104
Mof_F 	F 	0.26132	0.2468	0.3161	-0.645
Mof_C 	C 	0.2458	0.6867	0.4936	-0.027
Mof_C 	C 	0.2355	0.5728	0.477	-0.357
Mof_C 	C 	0.4731	0.2706	0.2565	-0.032
Mof_C 	C 	0.4254	0.2611	0.2704	-0.319
Mof_Ag	Ag	0.74296	0.9246	0.37665	0.33
Mof_Ag	Ag	0.77528	0.58384	0.43201	0.307
Mof_Ag	Ag	0.84463	0.74916	0.29291	0.406
Mof_Ag	Ag	0.8635	0.0612	0.6409	0.064
Mof_Ag	Ag	0.8728	0.0584	0.6549	0.075
Mof_Ag	Ag	0.99198	0.78813	0.48415	0.092
Mof_Ag	Ag	0.61266	0.04685	0.3228	0.133
Mof_Ag	Ag	0.6165	0.0528	0.3523	0.101
Mof_F 	F 	0.76132	0.7468	0.3161	-0.645
Mof_C 	C 	0.7458	0.1867	0.4936	-0.028
Mof_C 	C 	0.7355	0.0728	0.477	-0.355
Mof_C 	C 	0.9731	0.7706	0.2565	-0.072
Mof_C 	C 	0.9254	0.7611	0.2704	-0.301
Mof_Ag	Ag	0.75704	0.4246	0.12335	0.327
Mof_Ag	Ag	0.72472	0.08384	0.06799	0.305
Mof_Ag	Ag	0.65537	0.24916	0.20709	0.41
Mof_Ag	Ag	0.6365	0.5612	0.8591	0.07
Mof_Ag	Ag	0.6272	0.5584	0.8451	0.08
Mof_Ag	Ag	0.50802	0.28813	0.01585	0.119
Mof_Ag	Ag	0.88734	0.54685	0.1772	0.124
Mof_Ag	Ag	0.8835	0.5528	0.1477	0.091
Mof_F 	F 	0.73868	0.2468	0.1839	-0.646
Mof_C 	C 	0.7542	0.6867	0.0064	-0.033
Mof_C 	C 	0.7645	0.5728	0.023	-0.354
Mof_C 	C 	0.5269	0.2706	0.2435	-0.033
Mof_C 	C 	0.5746	0.2611	0.2296	-0.319
Mof_Ag	Ag	0.25704	0.9246	0.12335	0.33
Mof_Ag	Ag	0.22472	0.58384	0.06799	0.307
Mof_Ag	Ag	0.15537	0.74916	0.20709	0.415
Mof_Ag	Ag	0.1365	0.0612	0.8591	0.076
Mof_Ag	Ag	0.1272	0.0584	0.8451	0.083
Mof_Ag	Ag	0.00802	0.78813	0.01585	0.145
Mof_Ag	Ag	0.38734	0.04685	0.1772	0.132
Mof_Ag	Ag	0.3835	0.0528	0.1477	0.101
Mof_F 	F 	0.23868	0.7468	0.1839	-0.646
Mof_C 	C 	0.2542	0.1867	0.0064	-0.032
Mof_C 	C 	0.2645	0.0728	0.023	-0.357
Mof_C 	C 	0.0269	0.7706	0.2435	0.005
Mof_C 	C 	0.0746	0.7611	0.2296	-0.336
Mof_Ag	Ag	0.75704	0.5754	0.62335	0.33
Mof_Ag	Ag	0.72472	0.91616	0.56799	0.309
Mof_Ag	Ag	0.65537	0.75084	0.70709	0.41
Mof_Ag	Ag	0.6365	0.4388	0.3591	0.069
Mof_Ag	Ag	0.6272	0.4416	0.3451	0.078
Mof_Ag	Ag	0.50802	0.71187	0.51585	0.122
Mof_Ag	Ag	0.88734	0.45315	0.6772	0.126
Mof_Ag	Ag	0.8835	0.4472	0.6477	0.092
Mof_F 	F 	0.73868	0.7532	0.6839	-0.646
Mof_C 	C 	0.7542	0.3133	0.5064	-0.029
Mof_C 	C 	0.7645	0.4272	0.523	-0.354
Mof_C 	C 	0.5269	0.7294	0.7435	-0.032
Mof_C 	C 	0.5746	0.7389	0.7296	-0.319
Mof_Ag	Ag	0.25704	0.0754	0.62335	0.333
Mof_Ag	Ag	0.22472	0.41616	0.56799	0.311
Mof_Ag	Ag	0.15537	0.25084	0.70709	0.415
Mof_Ag	Ag	0.1365	0.9388	0.3591	0.075
Mof_Ag	Ag	0.1272	0.9416	0.3451	0.082
Mof_Ag	Ag	0.00802	0.21187	0.51585	0.149
Mof_Ag	Ag	0.38734	0.95315	0.6772	0.133
Mof_Ag	Ag	0.3835	0.9472	0.6477	0.101
Mof_F 	F 	0.23868	0.2532	0.6839	-0.646
Mof_C 	C 	0.2542	0.8133	0.5064	-0.028
Mof_C 	C 	0.2645	0.9272	0.523	-0.356
Mof_C 	C 	0.0269	0.2294	0.7435	0.005
Mof_C 	C 	0.0746	0.2389	0.7296	-0.336
Mof_Ag	Ag	0.24296	0.5754	0.87665	0.335
Mof_Ag	Ag	0.27528	0.91616	0.93201	0.314
Mof_Ag	Ag	0.34463	0.75084	0.79291	0.411
Mof_Ag	Ag	0.3635	0.4388	0.1409	0.069
Mof_Ag	Ag	0.3728	0.4416	0.1549	0.077
Mof_Ag	Ag	0.49198	0.71187	0.98415	0.126
Mof_Ag	Ag	0.11266	0.45315	0.8228	0.138
Mof_Ag	Ag	0.1165	0.4472	0.8523	0.105
Mof_F 	F 	0.26132	0.7532	0.8161	-0.645
Mof_C 	C 	0.2458	0.3133	0.9936	-0.024
Mof_C 	C 	0.2355	0.4272	0.977	-0.356
Mof_C 	C 	0.4731	0.7294	0.7565	-0.032
Mof_C 	C 	0.4254	0.7389	0.7704	-0.319
Mof_Ag	Ag	0.74296	0.0754	0.87665	0.333
Mof_Ag	Ag	0.77528	0.41616	0.93201	0.312
Mof_Ag	Ag	0.84463	0.25084	0.79291	0.406
Mof_Ag	Ag	0.8635	0.9388	0.1409	0.063
Mof_Ag	Ag	0.8728	0.9416	0.1549	0.073
Mof_Ag	Ag	0.99198	0.21187	0.98415	0.096
Mof_Ag	Ag	0.61266	0.95315	0.8228	0.135
Mof_Ag	Ag	0.6165	0.9472	0.8523	0.101
Mof_F 	F 	0.76132	0.2532	0.8161	-0.646
Mof_C 	C 	0.7458	0.8133	0.9936	-0.023
Mof_C 	C 	0.7355	0.9272	0.977	-0.355
Mof_C 	C 	0.9731	0.2294	0.7565	-0.071
Mof_C 	C 	0.9254	0.2389	0.7704	-0.301
Mof_O 	O 	-1.04955e-17	0.4624	0.25	-0.337
Mof_O 	O 	0.5	0.9624	0.25	-0.35
Mof_O 	O 	2.48031e-33	0.5376	0.75	-0.336
Mof_O 	O 	0.5	0.0376	0.75	-0.349
_end
