data_functionalizedCrystal
_audit_creation_method	'EQeq! by Chris Wilmer'
_symmetry_space_group_name_H-M	'P1'
_symmetry_Int_Tables_number	1
_symmetry_cell_setting	triclinic
loop_
_symmetry_equiv_pos_as_xyz
  x,y,z
_cell_length_a	7.2973
_cell_length_b	7.948
_cell_length_c	13.8224
_cell_angle_alpha	90
_cell_angle_beta	90
_cell_angle_gamma	90
loop_
_atom_site_label
_atom_site_type_symbol
_atom_site_fract_x
_atom_site_fract_y
_atom_site_fract_z
_atom_site_charge
Mof_Zn	Zn	0.75924	0.71943	0.66453	1.252
Mof_O 	O 	0.5865	0.9254	0.66291	-0.394
Mof_O 	O 	0.90375	0.80618	0.78854	-0.36
Mof_O 	O 	0.6087	0.60502	0.77203	-0.397
Mof_O 	O 	0.61923	0.61081	0.54686	-0.368
Mof_O 	O 	0.9192	0.86982	0.57341	-0.374
Mof_O 	O 	0.92287	0.50424	0.64373	-0.371
Mof_C 	C 	0.50866	0.6926	0.49474	0.415
Mof_H 	H 	0.4925	0.8089	0.5082	-0.08
Mof_C 	C 	0.50097	0.98458	0.73352	0.448
Mof_H 	H 	0.5205	0.935	0.7952	-0.093
Mof_C 	C 	0.99169	0.94291	0.78645	0.403
Mof_H 	H 	0.9929	0.0037	0.7273	-0.081
Mof_Zn	Zn	0.74076	0.28057	0.16453	1.251
Mof_O 	O 	0.9135	0.0746	0.16291	-0.396
Mof_O 	O 	0.59625	0.19382	0.28854	-0.36
Mof_O 	O 	0.8913	0.39498	0.27203	-0.395
Mof_O 	O 	0.88077	0.38919	0.04686	-0.366
Mof_O 	O 	0.5808	0.13018	0.07341	-0.377
Mof_O 	O 	0.57713	0.49576	0.14373	-0.371
Mof_C 	C 	0.99134	0.3074	0.99474	0.413
Mof_H 	H 	0.0075	0.1911	0.0082	-0.081
Mof_C 	C 	0.99903	0.01542	0.23352	0.45
Mof_H 	H 	0.9795	0.065	0.2952	-0.093
Mof_C 	C 	0.50831	0.05709	0.28645	0.401
Mof_H 	H 	0.5071	0.9963	0.2273	-0.079
Mof_Zn	Zn	0.24076	0.21943	0.83547	1.251
Mof_O 	O 	0.4135	0.4254	0.83709	-0.396
Mof_O 	O 	0.09625	0.30618	0.71146	-0.361
Mof_O 	O 	0.3913	0.10502	0.72797	-0.395
Mof_O 	O 	0.38077	0.11081	0.95314	-0.365
Mof_O 	O 	0.0808	0.36982	0.92659	-0.376
Mof_O 	O 	0.07713	0.00424	0.85627	-0.368
Mof_C 	C 	0.49134	0.1926	0.00526	0.41
Mof_H 	H 	0.5075	0.3089	0.9918	-0.078
Mof_C 	C 	0.49903	0.48458	0.76648	0.451
Mof_H 	H 	0.4795	0.435	0.7048	-0.093
Mof_C 	C 	0.00831	0.44291	0.71355	0.407
Mof_H 	H 	0.0071	0.5037	0.7727	-0.082
Mof_Zn	Zn	0.25924	0.78057	0.33547	1.251
Mof_O 	O 	0.0865	0.5746	0.33709	-0.395
Mof_O 	O 	0.40375	0.69382	0.21146	-0.361
Mof_O 	O 	0.1087	0.89498	0.22797	-0.397
Mof_O 	O 	0.11923	0.88919	0.45314	-0.367
Mof_O 	O 	0.4192	0.63018	0.42659	-0.378
Mof_O 	O 	0.42287	0.99576	0.35627	-0.369
Mof_C 	C 	0.00866	0.8074	0.50526	0.408
Mof_H 	H 	0.9925	0.6911	0.4918	-0.076
Mof_C 	C 	0.00097	0.51542	0.26648	0.449
Mof_H 	H 	0.0205	0.565	0.2048	-0.093
Mof_C 	C 	0.49169	0.55709	0.21355	0.408
Mof_H 	H 	0.4929	0.4963	0.2727	-0.082
_end
