# CIF file generated by openbabel 3.1.0, see https://openbabel.org
data_I
_chemical_name_common 'ZARQAM_clean'
_cell_length_a 9.0805
_cell_length_b 23.613
_cell_length_c 12.8303
_cell_angle_alpha 90
_cell_angle_beta 90
_cell_angle_gamma 90
_space_group_name_H-M_alt 'P 1'
_space_group_name_Hall 'P 1'
loop_
    _symmetry_equiv_pos_as_xyz
    x,y,z
loop_
    _atom_site_label
    _atom_site_type_symbol
    _atom_site_fract_x
    _atom_site_fract_y
    _atom_site_fract_z
    _atom_site_occupancy
    K1       K        0.11450    0.78795    0.93630    1.000
    K2       K        0.88550    0.21205    0.93630    1.000
    K3       K        0.61450    0.71205    0.06370    1.000
    K4       K        0.38550    0.28795    0.06370    1.000
    U1       U        0.14598    0.73306    0.65762    1.000
    U2       U        0.63491    0.56842    0.92325    1.000
    U3       U        0.69495    0.82827    0.85075    1.000
    U4       U        0.85402    0.26694    0.65762    1.000
    U5       U        0.36509    0.43158    0.92325    1.000
    U6       U        0.30505    0.17173    0.85075    1.000
    U7       U        0.64598    0.76694    0.34238    1.000
    U8       U        0.13491    0.93158    0.07675    1.000
    U9       U        0.19495    0.67173    0.14925    1.000
    U10      U        0.35402    0.23306    0.34238    1.000
    U11      U        0.86509    0.06842    0.07675    1.000
    U12      U        0.80505    0.32827    0.14925    1.000
    P1       P        0.32160    0.66227    0.87770    1.000
    P2       P        0.22840    0.55325    0.96460    1.000
    P3       P        0.83110    0.68551    0.81430    1.000
    P4       P        0.74730    0.74154    0.61730    1.000
    P5       P        0.67840    0.33773    0.87770    1.000
    P6       P        0.77160    0.44675    0.96460    1.000
    P7       P        0.16890    0.31449    0.81430    1.000
    P8       P        0.25270    0.25846    0.61730    1.000
    P9       P        0.82160    0.83773    0.12230    1.000
    P10      P        0.72840    0.94675    0.03540    1.000
    P11      P        0.33110    0.81449    0.18570    1.000
    P12      P        0.24730    0.75846    0.38270    1.000
    P13      P        0.17840    0.16227    0.12230    1.000
    P14      P        0.27160    0.05325    0.03540    1.000
    P15      P        0.66890    0.18551    0.18570    1.000
    P16      P        0.75270    0.24154    0.38270    1.000
    H1       H        0.10790    0.60940    0.84710    1.000
    H2       H        0.24670    0.57930    0.79340    1.000
    H3       H        0.78360    0.64550    0.65150    1.000
    H4       H        0.63300    0.66660    0.70400    1.000
    H5       H        0.89210    0.39060    0.84710    1.000
    H6       H        0.75330    0.42070    0.79340    1.000
    H7       H        0.21640    0.35450    0.65150    1.000
    H8       H        0.36700    0.33340    0.70400    1.000
    H9       H        0.60790    0.89060    0.15290    1.000
    H10      H        0.74670    0.92070    0.20660    1.000
    H11      H        0.28360    0.85450    0.34850    1.000
    H12      H        0.13300    0.83340    0.29600    1.000
    H13      H        0.39210    0.10940    0.15290    1.000
    H14      H        0.25330    0.07930    0.20660    1.000
    H15      H        0.71640    0.14550    0.34850    1.000
    H16      H        0.86700    0.16660    0.29600    1.000
    C1       C        0.21250    0.59890    0.85710    1.000
    C2       C        0.73730    0.67670    0.69140    1.000
    C3       C        0.78750    0.40110    0.85710    1.000
    C4       C        0.26270    0.32330    0.69140    1.000
    C5       C        0.71250    0.90110    0.14290    1.000
    C6       C        0.23730    0.82330    0.30860    1.000
    C7       C        0.28750    0.09890    0.14290    1.000
    C8       C        0.76270    0.17670    0.30860    1.000
    O1       O        0.81660    0.62950    0.87620    1.000
    O2       O        0.30930    0.70150    0.78610    1.000
    O3       O        0.66050    0.58970    0.05470    1.000
    O4       O        0.99160    0.70050    0.79150    1.000
    O5       O        0.15440    0.80150    0.71560    1.000
    O6       O        0.67220    0.78670    0.68220    1.000
    O7       O        0.66730    0.73240    0.51390    1.000
    O8       O        0.75290    0.73270    0.87250    1.000
    O9       O        0.17360    0.58140    0.06040    1.000
    O10      O        0.87940    0.84530    0.82400    1.000
    O11      O        0.14690    0.49670    0.94210    1.000
    O12      O        0.91130    0.75420    0.59770    1.000
    O13      O        0.38990    0.53260    0.97060    1.000
    O14      O        0.48220    0.64390    0.89480    1.000
    O15      O        0.25820    0.68920    0.97520    1.000
    O16      O        0.18340    0.37050    0.87620    1.000
    O17      O        0.69070    0.29850    0.78610    1.000
    O18      O        0.33950    0.41030    0.05470    1.000
    O19      O        0.00840    0.29950    0.79150    1.000
    O20      O        0.84560    0.19850    0.71560    1.000
    O21      O        0.32780    0.21330    0.68220    1.000
    O22      O        0.33270    0.26760    0.51390    1.000
    O23      O        0.24710    0.26730    0.87250    1.000
    O24      O        0.82640    0.41860    0.06040    1.000
    O25      O        0.12060    0.15470    0.82400    1.000
    O26      O        0.85310    0.50330    0.94210    1.000
    O27      O        0.08870    0.24580    0.59770    1.000
    O28      O        0.61010    0.46740    0.97060    1.000
    O29      O        0.51780    0.35610    0.89480    1.000
    O30      O        0.74180    0.31080    0.97520    1.000
    O31      O        0.31660    0.87050    0.12380    1.000
    O32      O        0.80930    0.79850    0.21390    1.000
    O33      O        0.16050    0.91030    0.94530    1.000
    O34      O        0.49160    0.79950    0.20850    1.000
    O35      O        0.65440    0.69850    0.28440    1.000
    O36      O        0.17220    0.71330    0.31780    1.000
    O37      O        0.16730    0.76760    0.48610    1.000
    O38      O        0.25290    0.76730    0.12750    1.000
    O39      O        0.67360    0.91860    0.93960    1.000
    O40      O        0.37940    0.65470    0.17600    1.000
    O41      O        0.64690    0.00330    0.05790    1.000
    O42      O        0.41130    0.74580    0.40230    1.000
    O43      O        0.88990    0.96740    0.02940    1.000
    O44      O        0.98220    0.85610    0.10520    1.000
    O45      O        0.75820    0.81080    0.02480    1.000
    O46      O        0.68340    0.12950    0.12380    1.000
    O47      O        0.19070    0.20150    0.21390    1.000
    O48      O        0.83950    0.08970    0.94530    1.000
    O49      O        0.50840    0.20050    0.20850    1.000
    O50      O        0.34560    0.30150    0.28440    1.000
    O51      O        0.82780    0.28670    0.31780    1.000
    O52      O        0.83270    0.23240    0.48610    1.000
    O53      O        0.74710    0.23270    0.12750    1.000
    O54      O        0.32640    0.08140    0.93960    1.000
    O55      O        0.62060    0.34530    0.17600    1.000
    O56      O        0.35310    0.99670    0.05790    1.000
    O57      O        0.58870    0.25420    0.40230    1.000
    O58      O        0.11010    0.03260    0.02940    1.000
    O59      O        0.01780    0.14390    0.10520    1.000
    O60      O        0.24180    0.18920    0.02480    1.000
