# CIF file generated by openbabel 3.1.0, see https://openbabel.org
data_I
_chemical_name_common 'ja500618z_si_008_clean'
_cell_length_a 8.5611
_cell_length_b 9.0426
_cell_length_c 12.0204
_cell_angle_alpha 90
_cell_angle_beta 90
_cell_angle_gamma 90
_space_group_name_H-M_alt 'P 1'
_space_group_name_Hall 'P 1'
loop_
    _symmetry_equiv_pos_as_xyz
    x,y,z
loop_
    _atom_site_label
    _atom_site_type_symbol
    _atom_site_fract_x
    _atom_site_fract_y
    _atom_site_fract_z
    _atom_site_occupancy
    Mn1      Mn       0.24850    0.25000    0.25000    1.000
    Mn2      Mn       0.75150    0.75000    0.75000    1.000
    Mn3      Mn       0.74850    0.75000    0.25000    1.000
    Mn4      Mn       0.25150    0.25000    0.75000    1.000
    H1       H        0.07910    0.56460    0.23090    1.000
    H2       H        0.07910    0.93540    0.26910    1.000
    H3       H        0.42090    0.93540    0.73090    1.000
    H4       H        0.57910    0.06460    0.26910    1.000
    H5       H        0.75000    0.79430    0.00000    1.000
    H6       H        0.75000    0.70570    0.50000    1.000
    H7       H        0.25000    0.29430    0.50000    1.000
    H8       H        0.92090    0.43540    0.76910    1.000
    H9       H        0.92090    0.06460    0.73090    1.000
    H10      H        0.57910    0.43540    0.23090    1.000
    H11      H        0.25000    0.20570    0.00000    1.000
    H12      H        0.42090    0.56460    0.76910    1.000
    C1       C        0.01640    0.98446    0.21776    1.000
    C2       C        0.01640    0.51554    0.28224    1.000
    C3       C        0.98360    0.48446    0.71776    1.000
    C4       C        0.51640    0.01554    0.21776    1.000
    C5       C        0.25000    0.19140    0.50000    1.000
    C6       C        0.25000    0.30860    0.00000    1.000
    C7       C        0.98360    0.01554    0.78224    1.000
    C8       C        0.75000    0.80860    0.50000    1.000
    C9       C        0.48360    0.51554    0.71776    1.000
    C10      C        0.75000    0.69140    0.00000    1.000
    C11      C        0.48360    0.98446    0.78224    1.000
    C12      C        0.51640    0.48446    0.28224    1.000
    O1       O        0.75356    0.63086    0.09187    1.000
    O2       O        0.55517    0.61092    0.30792    1.000
    O3       O        0.59822    0.58331    0.68159    1.000
    O4       O        0.55517    0.88908    0.19208    1.000
    O5       O        0.44483    0.11092    0.80792    1.000
    O6       O        0.25356    0.36914    0.09187    1.000
    O7       O        0.90178    0.91669    0.18159    1.000
    O8       O        0.24644    0.36914    0.90813    1.000
    O9       O        0.59822    0.91669    0.81841    1.000
    O10      O        0.44483    0.38908    0.69208    1.000
    O11      O        0.74644    0.63086    0.90813    1.000
    O12      O        0.05517    0.11092    0.19208    1.000
    O13      O        0.40178    0.08331    0.18159    1.000
    O14      O        0.94483    0.88908    0.80792    1.000
    O15      O        0.09822    0.41669    0.68159    1.000
    O16      O        0.09822    0.08331    0.81841    1.000
    O17      O        0.24644    0.13086    0.59187    1.000
    O18      O        0.25356    0.13086    0.40813    1.000
    O19      O        0.74644    0.86914    0.59187    1.000
    O20      O        0.90178    0.58331    0.31841    1.000
    O21      O        0.05517    0.38908    0.30792    1.000
    O22      O        0.75356    0.86914    0.40813    1.000
    O23      O        0.40178    0.41669    0.31841    1.000
    O24      O        0.94483    0.61092    0.69208    1.000
