data_functionalizedCrystal
_audit_creation_method	'EQeq! by Chris Wilmer'
_symmetry_space_group_name_H-M	'P1'
_symmetry_Int_Tables_number	1
_symmetry_cell_setting	triclinic
loop_
_symmetry_equiv_pos_as_xyz
  x,y,z
_cell_length_a	28.47
_cell_length_b	27.784
_cell_length_c	9.255
_cell_angle_alpha	90
_cell_angle_beta	90
_cell_angle_gamma	90
loop_
_atom_site_label
_atom_site_type_symbol
_atom_site_fract_x
_atom_site_fract_y
_atom_site_fract_z
_atom_site_charge
Mof_Cl	Cl	0.31677	0.49924	0.8929	-0.55
Mof_Zn	Zn	0.36497	0.49206	0.08132	1.193
Mof_C 	C 	0.45563	0.54215	0.1372	0.111
Mof_H 	H 	0.4587	0.5281	0.2279	-0.031
Mof_C 	C 	0.43067	0.5597	0.9283	0.004
Mof_H 	H 	0.4129	0.56	0.844	0.019
Mof_C 	C 	0.46848	0.5865	0.9522	-0.002
Mof_H 	H 	0.4816	0.609	0.8899	0.029
Mof_C 	C 	0.52336	0.59572	0.1638	0.074
Mof_C 	C 	0.55238	0.56772	0.246	-0.074
Mof_H 	H 	0.5481	0.5345	0.2482	0.051
Mof_C 	C 	0.58757	0.58826	0.3249	-0.092
Mof_H 	H 	0.6068	0.5688	0.3815	0.067
Mof_C 	C 	0.59518	0.63728	0.3222	0.098
Mof_C 	C 	0.56616	0.66502	0.2353	-0.09
Mof_H 	H 	0.5712	0.698	0.2292	0.068
Mof_C 	C 	0.53022	0.64452	0.1581	-0.064
Mof_H 	H 	0.5106	0.6637	0.1021	0.055
Mof_C 	C 	0.79662	0.5409	0.7265	0.106
Mof_H 	H 	0.7771	0.5476	0.8046	-0.019
Mof_C 	C 	0.8539	0.5158	0.5991	0.015
Mof_H 	H 	0.8822	0.5016	0.5722	0.005
Mof_C 	C 	0.82428	0.5379	0.5103	-0.006
Mof_H 	H 	0.8278	0.5417	0.411	0.055
Mof_C 	C 	0.7483	0.58109	0.5414	0.1
Mof_C 	C 	0.72486	0.61114	0.6368	-0.084
Mof_H 	H 	0.7351	0.6142	0.7318	0.057
Mof_C 	C 	0.68642	0.63623	0.5893	-0.079
Mof_H 	H 	0.6705	0.6562	0.6533	0.066
Mof_C 	C 	0.67093	0.63244	0.4485	0.086
Mof_C 	C 	0.69476	0.60345	0.3573	-0.068
Mof_H 	H 	0.6851	0.6011	0.2616	0.072
Mof_C 	C 	0.73307	0.5772	0.4032	-0.091
Mof_H 	H 	0.7485	0.5568	0.3392	0.102
Mof_C 	C 	0.63104	0.88573	0.5653	0.11
Mof_H 	H 	0.6552	0.885	0.4975	-0.02
Mof_C 	C 	0.5803	0.91025	0.718	0.004
Mof_H 	H 	0.5627	0.9305	0.777	0.007
Mof_C 	C 	0.57569	0.8626	0.7099	0.001
Mof_H 	H 	0.5543	0.8437	0.7605	0.028
Mof_C 	C 	0.61483	0.79852	0.5645	0.084
Mof_C 	C 	0.57733	0.76714	0.5665	-0.072
Mof_H 	H 	0.5485	0.7769	0.6036	0.055
Mof_C 	C 	0.58276	0.72131	0.5134	-0.087
Mof_H 	H 	0.5576	0.7	0.5154	0.062
Mof_C 	C 	0.62521	0.70679	0.4575	0.093
Mof_C 	C 	0.66261	0.73837	0.4557	-0.084
Mof_H 	H 	0.6913	0.7287	0.4176	0.065
Mof_C 	C 	0.65756	0.78392	0.5098	-0.072
Mof_H 	H 	0.6829	0.805	0.5096	0.058
Mof_N 	N 	0.4219	0.53183	0.0458	-0.281
Mof_N 	N 	0.4842	0.57435	0.0857	-0.143
Mof_N 	N 	0.61517	0.92463	0.6253	-0.279
Mof_N 	N 	0.60846	0.84696	0.6128	-0.14
Mof_N 	N 	0.78783	0.55414	0.5918	-0.138
Mof_N 	N 	0.83619	0.51715	0.7361	-0.278
Mof_N 	N 	0.63094	0.65928	0.4029	-0.155
Mof_Cl	Cl	0.18323	0.99924	0.6071	-0.553
Mof_Zn	Zn	0.13503	0.99206	0.41868	1.192
Mof_C 	C 	0.04437	0.04215	0.3628	0.111
Mof_H 	H 	0.0413	0.0281	0.2721	-0.031
Mof_C 	C 	0.06933	0.0597	0.5717	0.002
Mof_H 	H 	0.0871	0.06	0.656	0.02
Mof_C 	C 	0.03152	0.0865	0.5478	-0.002
Mof_H 	H 	0.0184	0.109	0.6101	0.029
Mof_C 	C 	0.97664	0.09572	0.3362	0.073
Mof_C 	C 	0.94762	0.06772	0.254	-0.074
Mof_H 	H 	0.9519	0.0345	0.2518	0.051
Mof_C 	C 	0.91243	0.08826	0.1751	-0.093
Mof_H 	H 	0.8932	0.0688	0.1185	0.068
Mof_C 	C 	0.90482	0.13728	0.1778	0.098
Mof_C 	C 	0.93384	0.16502	0.2647	-0.091
Mof_H 	H 	0.9288	0.198	0.2708	0.068
Mof_C 	C 	0.96978	0.14452	0.3419	-0.063
Mof_H 	H 	0.9894	0.1637	0.3979	0.055
Mof_C 	C 	0.70338	0.0409	0.7735	0.106
Mof_H 	H 	0.7229	0.0476	0.6954	-0.018
Mof_C 	C 	0.6461	0.0158	0.9009	0.017
Mof_H 	H 	0.6178	0.0016	0.9278	0.004
Mof_C 	C 	0.67572	0.0379	0.9897	-0.01
Mof_H 	H 	0.6722	0.0417	0.089	0.058
Mof_C 	C 	0.7517	0.08109	0.9586	0.093
Mof_C 	C 	0.77514	0.11114	0.8632	-0.079
Mof_H 	H 	0.7649	0.1142	0.7682	0.056
Mof_C 	C 	0.81358	0.13623	0.9107	-0.087
Mof_H 	H 	0.8295	0.1562	0.8467	0.069
Mof_C 	C 	0.82907	0.13244	0.0515	0.092
Mof_C 	C 	0.80524	0.10345	0.1427	-0.074
Mof_H 	H 	0.8149	0.1011	0.2384	0.074
Mof_C 	C 	0.76693	0.0772	0.0968	-0.083
Mof_H 	H 	0.7515	0.0568	0.1608	0.1
Mof_C 	C 	0.86896	0.38573	0.9347	0.105
Mof_H 	H 	0.8448	0.385	0.0025	-0.017
Mof_C 	C 	0.9197	0.41025	0.782	0.004
Mof_H 	H 	0.9373	0.4305	0.723	0.007
Mof_C 	C 	0.92431	0.3626	0.7901	0.001
Mof_H 	H 	0.9457	0.3437	0.7395	0.028
Mof_C 	C 	0.88517	0.29852	0.9355	0.085
Mof_C 	C 	0.92267	0.26714	0.9335	-0.071
Mof_H 	H 	0.9515	0.2769	0.8964	0.055
Mof_C 	C 	0.91724	0.22131	0.9866	-0.089
Mof_H 	H 	0.9424	0.2	0.9846	0.062
Mof_C 	C 	0.87479	0.20679	0.0425	0.094
Mof_C 	C 	0.83739	0.23837	0.0443	-0.08
Mof_H 	H 	0.8087	0.2287	0.0824	0.064
Mof_C 	C 	0.84244	0.28392	0.9902	-0.076
Mof_H 	H 	0.8171	0.305	0.9904	0.058
Mof_N 	N 	0.0781	0.03183	0.4542	-0.28
Mof_N 	N 	0.0158	0.07435	0.4143	-0.142
Mof_N 	N 	0.88483	0.42463	0.8747	-0.278
Mof_N 	N 	0.89154	0.34696	0.8872	-0.139
Mof_N 	N 	0.71217	0.05414	0.9082	-0.137
Mof_N 	N 	0.66381	0.01715	0.7639	-0.278
Mof_N 	N 	0.86906	0.15928	0.0971	-0.156
Mof_Cl	Cl	0.81677	0.49924	0.1071	-0.551
Mof_Zn	Zn	0.86497	0.49206	0.91868	1.192
Mof_C 	C 	0.95563	0.54215	0.8628	0.111
Mof_H 	H 	0.9587	0.5281	0.7721	-0.031
Mof_C 	C 	0.93067	0.5597	0.0717	0.004
Mof_H 	H 	0.9129	0.56	0.156	0.019
Mof_C 	C 	0.96848	0.5865	0.0478	-0.002
Mof_H 	H 	0.9816	0.609	0.1101	0.029
Mof_C 	C 	0.02336	0.59572	0.8362	0.074
Mof_C 	C 	0.05238	0.56772	0.754	-0.075
Mof_H 	H 	0.0481	0.5345	0.7518	0.051
Mof_C 	C 	0.08757	0.58826	0.6751	-0.092
Mof_H 	H 	0.1068	0.5688	0.6185	0.067
Mof_C 	C 	0.09518	0.63728	0.6778	0.098
Mof_C 	C 	0.06616	0.66502	0.7647	-0.09
Mof_H 	H 	0.0712	0.698	0.7708	0.068
Mof_C 	C 	0.03022	0.64452	0.8419	-0.064
Mof_H 	H 	0.0106	0.6637	0.8979	0.055
Mof_C 	C 	0.29662	0.5409	0.2735	0.107
Mof_H 	H 	0.2771	0.5476	0.1954	-0.019
Mof_C 	C 	0.3539	0.5158	0.4009	0.015
Mof_H 	H 	0.3822	0.5016	0.4278	0.005
Mof_C 	C 	0.32428	0.5379	0.4897	-0.006
Mof_H 	H 	0.3278	0.5417	0.589	0.055
Mof_C 	C 	0.2483	0.58109	0.4586	0.1
Mof_C 	C 	0.22486	0.61114	0.3632	-0.084
Mof_H 	H 	0.2351	0.6142	0.2682	0.057
Mof_C 	C 	0.18642	0.63623	0.4107	-0.079
Mof_H 	H 	0.1705	0.6562	0.3467	0.066
Mof_C 	C 	0.17093	0.63244	0.5515	0.086
Mof_C 	C 	0.19476	0.60345	0.6427	-0.068
Mof_H 	H 	0.1851	0.6011	0.7384	0.072
Mof_C 	C 	0.23307	0.5772	0.5968	-0.091
Mof_H 	H 	0.2485	0.5568	0.6608	0.102
Mof_C 	C 	0.13104	0.88573	0.4347	0.11
Mof_H 	H 	0.1552	0.885	0.5025	-0.02
Mof_C 	C 	0.0803	0.91025	0.282	0.004
Mof_H 	H 	0.0627	0.9305	0.223	0.007
Mof_C 	C 	0.07569	0.8626	0.2901	0.001
Mof_H 	H 	0.0543	0.8437	0.2395	0.028
Mof_C 	C 	0.11483	0.79852	0.4355	0.084
Mof_C 	C 	0.07733	0.76714	0.4335	-0.072
Mof_H 	H 	0.0485	0.7769	0.3964	0.055
Mof_C 	C 	0.08276	0.72131	0.4866	-0.087
Mof_H 	H 	0.0576	0.7	0.4846	0.061
Mof_C 	C 	0.12521	0.70679	0.5425	0.093
Mof_C 	C 	0.16261	0.73837	0.5443	-0.084
Mof_H 	H 	0.1913	0.7287	0.5824	0.065
Mof_C 	C 	0.15756	0.78392	0.4902	-0.072
Mof_H 	H 	0.1829	0.805	0.4904	0.058
Mof_N 	N 	0.9219	0.53183	0.9542	-0.281
Mof_N 	N 	0.9842	0.57435	0.9143	-0.143
Mof_N 	N 	0.11517	0.92463	0.3747	-0.279
Mof_N 	N 	0.10846	0.84696	0.3872	-0.14
Mof_N 	N 	0.28783	0.55414	0.4082	-0.138
Mof_N 	N 	0.33619	0.51715	0.2639	-0.278
Mof_N 	N 	0.13094	0.65928	0.5971	-0.155
Mof_Cl	Cl	0.68323	0.99924	0.3929	-0.552
Mof_Zn	Zn	0.63503	0.99206	0.58132	1.192
Mof_C 	C 	0.54437	0.04215	0.6372	0.111
Mof_H 	H 	0.5413	0.0281	0.7279	-0.031
Mof_C 	C 	0.56933	0.0597	0.4283	0.002
Mof_H 	H 	0.5871	0.06	0.344	0.02
Mof_C 	C 	0.53152	0.0865	0.4522	-0.002
Mof_H 	H 	0.5184	0.109	0.3899	0.029
Mof_C 	C 	0.47664	0.09572	0.6638	0.074
Mof_C 	C 	0.44762	0.06772	0.746	-0.074
Mof_H 	H 	0.4519	0.0345	0.7482	0.051
Mof_C 	C 	0.41243	0.08826	0.8249	-0.093
Mof_H 	H 	0.3932	0.0688	0.8815	0.068
Mof_C 	C 	0.40482	0.13728	0.8222	0.098
Mof_C 	C 	0.43384	0.16502	0.7353	-0.09
Mof_H 	H 	0.4288	0.198	0.7292	0.068
Mof_C 	C 	0.46978	0.14452	0.6581	-0.063
Mof_H 	H 	0.4894	0.1637	0.6021	0.055
Mof_C 	C 	0.20338	0.0409	0.2265	0.106
Mof_H 	H 	0.2229	0.0476	0.3046	-0.018
Mof_C 	C 	0.1461	0.0158	0.0991	0.018
Mof_H 	H 	0.1178	0.0016	0.0722	0.004
Mof_C 	C 	0.17572	0.0379	0.0103	-0.011
Mof_H 	H 	0.1722	0.0417	0.911	0.058
Mof_C 	C 	0.2517	0.08109	0.0414	0.094
Mof_C 	C 	0.27514	0.11114	0.1368	-0.079
Mof_H 	H 	0.2649	0.1142	0.2318	0.056
Mof_C 	C 	0.31358	0.13623	0.0893	-0.086
Mof_H 	H 	0.3295	0.1562	0.1533	0.069
Mof_C 	C 	0.32907	0.13244	0.9485	0.092
Mof_C 	C 	0.30524	0.10345	0.8573	-0.074
Mof_H 	H 	0.3149	0.1011	0.7616	0.074
Mof_C 	C 	0.26693	0.0772	0.9032	-0.083
Mof_H 	H 	0.2515	0.0568	0.8392	0.1
Mof_C 	C 	0.36896	0.38573	0.0653	0.106
Mof_H 	H 	0.3448	0.385	0.9975	-0.017
Mof_C 	C 	0.4197	0.41025	0.218	0.004
Mof_H 	H 	0.4373	0.4305	0.277	0.007
Mof_C 	C 	0.42431	0.3626	0.2099	0.001
Mof_H 	H 	0.4457	0.3437	0.2605	0.028
Mof_C 	C 	0.38517	0.29852	0.0645	0.085
Mof_C 	C 	0.42267	0.26714	0.0665	-0.071
Mof_H 	H 	0.4515	0.2769	0.1036	0.055
Mof_C 	C 	0.41724	0.22131	0.0134	-0.089
Mof_H 	H 	0.4424	0.2	0.0154	0.062
Mof_C 	C 	0.37479	0.20679	0.9575	0.094
Mof_C 	C 	0.33739	0.23837	0.9557	-0.08
Mof_H 	H 	0.3087	0.2287	0.9176	0.064
Mof_C 	C 	0.34244	0.28392	0.0098	-0.076
Mof_H 	H 	0.3171	0.305	0.0096	0.058
Mof_N 	N 	0.5781	0.03183	0.5458	-0.28
Mof_N 	N 	0.5158	0.07435	0.5857	-0.142
Mof_N 	N 	0.38483	0.42463	0.1253	-0.278
Mof_N 	N 	0.39154	0.34696	0.1128	-0.139
Mof_N 	N 	0.21217	0.05414	0.0918	-0.137
Mof_N 	N 	0.16381	0.01715	0.2361	-0.278
Mof_N 	N 	0.36906	0.15928	0.9029	-0.156
Mof_Cl	Cl	0.18323	0.50076	0.8929	-0.551
Mof_Zn	Zn	0.13503	0.50794	0.08132	1.192
Mof_C 	C 	0.04437	0.45785	0.1372	0.111
Mof_H 	H 	0.0413	0.4719	0.2279	-0.031
Mof_C 	C 	0.06933	0.4403	0.9283	0.004
Mof_H 	H 	0.0871	0.44	0.844	0.019
Mof_C 	C 	0.03152	0.4135	0.9522	-0.002
Mof_H 	H 	0.0184	0.391	0.8899	0.029
Mof_C 	C 	0.97664	0.40428	0.1638	0.074
Mof_C 	C 	0.94762	0.43228	0.246	-0.075
Mof_H 	H 	0.9519	0.4655	0.2482	0.051
Mof_C 	C 	0.91243	0.41174	0.3249	-0.092
Mof_H 	H 	0.8932	0.4312	0.3815	0.067
Mof_C 	C 	0.90482	0.36272	0.3222	0.098
Mof_C 	C 	0.93384	0.33498	0.2353	-0.09
Mof_H 	H 	0.9288	0.302	0.2292	0.068
Mof_C 	C 	0.96978	0.35548	0.1581	-0.064
Mof_H 	H 	0.9894	0.3363	0.1021	0.055
Mof_C 	C 	0.70338	0.4591	0.7265	0.107
Mof_H 	H 	0.7229	0.4524	0.8046	-0.019
Mof_C 	C 	0.6461	0.4842	0.5991	0.015
Mof_H 	H 	0.6178	0.4984	0.5722	0.005
Mof_C 	C 	0.67572	0.4621	0.5103	-0.006
Mof_H 	H 	0.6722	0.4583	0.411	0.055
Mof_C 	C 	0.7517	0.41891	0.5414	0.1
Mof_C 	C 	0.77514	0.38886	0.6368	-0.084
Mof_H 	H 	0.7649	0.3858	0.7318	0.057
Mof_C 	C 	0.81358	0.36377	0.5893	-0.079
Mof_H 	H 	0.8295	0.3438	0.6533	0.066
Mof_C 	C 	0.82907	0.36756	0.4485	0.086
Mof_C 	C 	0.80524	0.39655	0.3573	-0.068
Mof_H 	H 	0.8149	0.3989	0.2616	0.072
Mof_C 	C 	0.76693	0.4228	0.4032	-0.091
Mof_H 	H 	0.7515	0.4432	0.3392	0.102
Mof_C 	C 	0.86896	0.11427	0.5653	0.11
Mof_H 	H 	0.8448	0.115	0.4975	-0.02
Mof_C 	C 	0.9197	0.08975	0.718	0.004
Mof_H 	H 	0.9373	0.0695	0.777	0.007
Mof_C 	C 	0.92431	0.1374	0.7099	0.001
Mof_H 	H 	0.9457	0.1563	0.7605	0.028
Mof_C 	C 	0.88517	0.20148	0.5645	0.084
Mof_C 	C 	0.92267	0.23286	0.5665	-0.072
Mof_H 	H 	0.9515	0.2231	0.6036	0.055
Mof_C 	C 	0.91724	0.27869	0.5134	-0.087
Mof_H 	H 	0.9424	0.3	0.5154	0.061
Mof_C 	C 	0.87479	0.29321	0.4575	0.093
Mof_C 	C 	0.83739	0.26163	0.4557	-0.084
Mof_H 	H 	0.8087	0.2713	0.4176	0.065
Mof_C 	C 	0.84244	0.21608	0.5098	-0.072
Mof_H 	H 	0.8171	0.195	0.5096	0.058
Mof_N 	N 	0.0781	0.46817	0.0458	-0.281
Mof_N 	N 	0.0158	0.42565	0.0857	-0.143
Mof_N 	N 	0.88483	0.07537	0.6253	-0.279
Mof_N 	N 	0.89154	0.15304	0.6128	-0.14
Mof_N 	N 	0.71217	0.44586	0.5918	-0.138
Mof_N 	N 	0.66381	0.48285	0.7361	-0.278
Mof_N 	N 	0.86906	0.34072	0.4029	-0.155
Mof_Cl	Cl	0.31677	0.00076	0.6071	-0.552
Mof_Zn	Zn	0.36497	0.00794	0.41868	1.192
Mof_C 	C 	0.45563	0.95785	0.3628	0.111
Mof_H 	H 	0.4587	0.9719	0.2721	-0.031
Mof_C 	C 	0.43067	0.9403	0.5717	0.002
Mof_H 	H 	0.4129	0.94	0.656	0.02
Mof_C 	C 	0.46848	0.9135	0.5478	-0.002
Mof_H 	H 	0.4816	0.891	0.6101	0.029
Mof_C 	C 	0.52336	0.90428	0.3362	0.074
Mof_C 	C 	0.55238	0.93228	0.254	-0.074
Mof_H 	H 	0.5481	0.9655	0.2518	0.051
Mof_C 	C 	0.58757	0.91174	0.1751	-0.093
Mof_H 	H 	0.6068	0.9312	0.1185	0.068
Mof_C 	C 	0.59518	0.86272	0.1778	0.098
Mof_C 	C 	0.56616	0.83498	0.2647	-0.09
Mof_H 	H 	0.5712	0.802	0.2708	0.068
Mof_C 	C 	0.53022	0.85548	0.3419	-0.063
Mof_H 	H 	0.5106	0.8363	0.3979	0.055
Mof_C 	C 	0.79662	0.9591	0.7735	0.106
Mof_H 	H 	0.7771	0.9524	0.6954	-0.018
Mof_C 	C 	0.8539	0.9842	0.9009	0.018
Mof_H 	H 	0.8822	0.9984	0.9278	0.004
Mof_C 	C 	0.82428	0.9621	0.9897	-0.011
Mof_H 	H 	0.8278	0.9583	0.089	0.058
Mof_C 	C 	0.7483	0.91891	0.9586	0.094
Mof_C 	C 	0.72486	0.88886	0.8632	-0.079
Mof_H 	H 	0.7351	0.8858	0.7682	0.056
Mof_C 	C 	0.68642	0.86377	0.9107	-0.086
Mof_H 	H 	0.6705	0.8438	0.8467	0.069
Mof_C 	C 	0.67093	0.86756	0.0515	0.092
Mof_C 	C 	0.69476	0.89655	0.1427	-0.074
Mof_H 	H 	0.6851	0.8989	0.2384	0.074
Mof_C 	C 	0.73307	0.9228	0.0968	-0.083
Mof_H 	H 	0.7485	0.9432	0.1608	0.1
Mof_C 	C 	0.63104	0.61427	0.9347	0.106
Mof_H 	H 	0.6552	0.615	0.0025	-0.017
Mof_C 	C 	0.5803	0.58975	0.782	0.004
Mof_H 	H 	0.5627	0.5695	0.723	0.007
Mof_C 	C 	0.57569	0.6374	0.7901	0.001
Mof_H 	H 	0.5543	0.6563	0.7395	0.028
Mof_C 	C 	0.61483	0.70148	0.9355	0.085
Mof_C 	C 	0.57733	0.73286	0.9335	-0.071
Mof_H 	H 	0.5485	0.7231	0.8964	0.055
Mof_C 	C 	0.58276	0.77869	0.9866	-0.089
Mof_H 	H 	0.5576	0.8	0.9846	0.062
Mof_C 	C 	0.62521	0.79321	0.0425	0.094
Mof_C 	C 	0.66261	0.76163	0.0443	-0.08
Mof_H 	H 	0.6913	0.7713	0.0824	0.064
Mof_C 	C 	0.65756	0.71608	0.9902	-0.076
Mof_H 	H 	0.6829	0.695	0.9904	0.058
Mof_N 	N 	0.4219	0.96817	0.4542	-0.28
Mof_N 	N 	0.4842	0.92565	0.4143	-0.142
Mof_N 	N 	0.61517	0.57537	0.8747	-0.278
Mof_N 	N 	0.60846	0.65304	0.8872	-0.139
Mof_N 	N 	0.78783	0.94586	0.9082	-0.137
Mof_N 	N 	0.83619	0.98285	0.7639	-0.278
Mof_N 	N 	0.63094	0.84072	0.0971	-0.156
Mof_Cl	Cl	0.68323	0.50076	0.1071	-0.551
Mof_Zn	Zn	0.63503	0.50794	0.91868	1.192
Mof_C 	C 	0.54437	0.45785	0.8628	0.111
Mof_H 	H 	0.5413	0.4719	0.7721	-0.031
Mof_C 	C 	0.56933	0.4403	0.0717	0.004
Mof_H 	H 	0.5871	0.44	0.156	0.019
Mof_C 	C 	0.53152	0.4135	0.0478	-0.002
Mof_H 	H 	0.5184	0.391	0.1101	0.029
Mof_C 	C 	0.47664	0.40428	0.8362	0.074
Mof_C 	C 	0.44762	0.43228	0.754	-0.074
Mof_H 	H 	0.4519	0.4655	0.7518	0.051
Mof_C 	C 	0.41243	0.41174	0.6751	-0.092
Mof_H 	H 	0.3932	0.4312	0.6185	0.067
Mof_C 	C 	0.40482	0.36272	0.6778	0.098
Mof_C 	C 	0.43384	0.33498	0.7647	-0.09
Mof_H 	H 	0.4288	0.302	0.7708	0.068
Mof_C 	C 	0.46978	0.35548	0.8419	-0.064
Mof_H 	H 	0.4894	0.3363	0.8979	0.055
Mof_C 	C 	0.20338	0.4591	0.2735	0.106
Mof_H 	H 	0.2229	0.4524	0.1954	-0.019
Mof_C 	C 	0.1461	0.4842	0.4009	0.015
Mof_H 	H 	0.1178	0.4984	0.4278	0.005
Mof_C 	C 	0.17572	0.4621	0.4897	-0.006
Mof_H 	H 	0.1722	0.4583	0.589	0.055
Mof_C 	C 	0.2517	0.41891	0.4586	0.1
Mof_C 	C 	0.27514	0.38886	0.3632	-0.084
Mof_H 	H 	0.2649	0.3858	0.2682	0.057
Mof_C 	C 	0.31358	0.36377	0.4107	-0.079
Mof_H 	H 	0.3295	0.3438	0.3467	0.066
Mof_C 	C 	0.32907	0.36756	0.5515	0.086
Mof_C 	C 	0.30524	0.39655	0.6427	-0.068
Mof_H 	H 	0.3149	0.3989	0.7384	0.072
Mof_C 	C 	0.26693	0.4228	0.5968	-0.091
Mof_H 	H 	0.2515	0.4432	0.6608	0.102
Mof_C 	C 	0.36896	0.11427	0.4347	0.11
Mof_H 	H 	0.3448	0.115	0.5025	-0.02
Mof_C 	C 	0.4197	0.08975	0.282	0.004
Mof_H 	H 	0.4373	0.0695	0.223	0.007
Mof_C 	C 	0.42431	0.1374	0.2901	0.001
Mof_H 	H 	0.4457	0.1563	0.2395	0.028
Mof_C 	C 	0.38517	0.20148	0.4355	0.084
Mof_C 	C 	0.42267	0.23286	0.4335	-0.072
Mof_H 	H 	0.4515	0.2231	0.3964	0.055
Mof_C 	C 	0.41724	0.27869	0.4866	-0.087
Mof_H 	H 	0.4424	0.3	0.4846	0.062
Mof_C 	C 	0.37479	0.29321	0.5425	0.093
Mof_C 	C 	0.33739	0.26163	0.5443	-0.084
Mof_H 	H 	0.3087	0.2713	0.5824	0.065
Mof_C 	C 	0.34244	0.21608	0.4902	-0.072
Mof_H 	H 	0.3171	0.195	0.4904	0.058
Mof_N 	N 	0.5781	0.46817	0.9542	-0.281
Mof_N 	N 	0.5158	0.42565	0.9143	-0.143
Mof_N 	N 	0.38483	0.07537	0.3747	-0.279
Mof_N 	N 	0.39154	0.15304	0.3872	-0.14
Mof_N 	N 	0.21217	0.44586	0.4082	-0.138
Mof_N 	N 	0.16381	0.48285	0.2639	-0.278
Mof_N 	N 	0.36906	0.34072	0.5971	-0.155
Mof_Cl	Cl	0.81677	0.00076	0.3929	-0.553
Mof_Zn	Zn	0.86497	0.00794	0.58132	1.192
Mof_C 	C 	0.95563	0.95785	0.6372	0.111
Mof_H 	H 	0.9587	0.9719	0.7279	-0.031
Mof_C 	C 	0.93067	0.9403	0.4283	0.002
Mof_H 	H 	0.9129	0.94	0.344	0.02
Mof_C 	C 	0.96848	0.9135	0.4522	-0.002
Mof_H 	H 	0.9816	0.891	0.3899	0.029
Mof_C 	C 	0.02336	0.90428	0.6638	0.073
Mof_C 	C 	0.05238	0.93228	0.746	-0.074
Mof_H 	H 	0.0481	0.9655	0.7482	0.051
Mof_C 	C 	0.08757	0.91174	0.8249	-0.093
Mof_H 	H 	0.1068	0.9312	0.8815	0.068
Mof_C 	C 	0.09518	0.86272	0.8222	0.098
Mof_C 	C 	0.06616	0.83498	0.7353	-0.091
Mof_H 	H 	0.0712	0.802	0.7292	0.068
Mof_C 	C 	0.03022	0.85548	0.6581	-0.063
Mof_H 	H 	0.0106	0.8363	0.6021	0.055
Mof_C 	C 	0.29662	0.9591	0.2265	0.106
Mof_H 	H 	0.2771	0.9524	0.3046	-0.018
Mof_C 	C 	0.3539	0.9842	0.0991	0.017
Mof_H 	H 	0.3822	0.9984	0.0722	0.004
Mof_C 	C 	0.32428	0.9621	0.0103	-0.01
Mof_H 	H 	0.3278	0.9583	0.911	0.058
Mof_C 	C 	0.2483	0.91891	0.0414	0.093
Mof_C 	C 	0.22486	0.88886	0.1368	-0.079
Mof_H 	H 	0.2351	0.8858	0.2318	0.056
Mof_C 	C 	0.18642	0.86377	0.0893	-0.087
Mof_H 	H 	0.1705	0.8438	0.1533	0.069
Mof_C 	C 	0.17093	0.86756	0.9485	0.092
Mof_C 	C 	0.19476	0.89655	0.8573	-0.074
Mof_H 	H 	0.1851	0.8989	0.7616	0.074
Mof_C 	C 	0.23307	0.9228	0.9032	-0.083
Mof_H 	H 	0.2485	0.9432	0.8392	0.1
Mof_C 	C 	0.13104	0.61427	0.0653	0.105
Mof_H 	H 	0.1552	0.615	0.9975	-0.017
Mof_C 	C 	0.0803	0.58975	0.218	0.004
Mof_H 	H 	0.0627	0.5695	0.277	0.007
Mof_C 	C 	0.07569	0.6374	0.2099	0.001
Mof_H 	H 	0.0543	0.6563	0.2605	0.028
Mof_C 	C 	0.11483	0.70148	0.0645	0.085
Mof_C 	C 	0.07733	0.73286	0.0665	-0.071
Mof_H 	H 	0.0485	0.7231	0.1036	0.055
Mof_C 	C 	0.08276	0.77869	0.0134	-0.089
Mof_H 	H 	0.0576	0.8	0.0154	0.062
Mof_C 	C 	0.12521	0.79321	0.9575	0.094
Mof_C 	C 	0.16261	0.76163	0.9557	-0.08
Mof_H 	H 	0.1913	0.7713	0.9176	0.064
Mof_C 	C 	0.15756	0.71608	0.0098	-0.076
Mof_H 	H 	0.1829	0.695	0.0096	0.058
Mof_N 	N 	0.9219	0.96817	0.5458	-0.28
Mof_N 	N 	0.9842	0.92565	0.5857	-0.142
Mof_N 	N 	0.11517	0.57537	0.1253	-0.278
Mof_N 	N 	0.10846	0.65304	0.1128	-0.139
Mof_N 	N 	0.28783	0.94586	0.0918	-0.137
Mof_N 	N 	0.33619	0.98285	0.2361	-0.278
Mof_N 	N 	0.13094	0.84072	0.9029	-0.156
_end
