# CIF file generated by openbabel 3.1.0, see https://openbabel.org
data_I
_chemical_name_common 'image0'
_cell_length_a 11.6364
_cell_length_b 15.585
_cell_length_c 18.823
_cell_angle_alpha 86.423
_cell_angle_beta 82.869
_cell_angle_gamma 89.722
_space_group_name_H-M_alt 'P 1'
_space_group_name_Hall 'P 1'
loop_
    _symmetry_equiv_pos_as_xyz
    x,y,z
loop_
    _atom_site_label
    _atom_site_type_symbol
    _atom_site_fract_x
    _atom_site_fract_y
    _atom_site_fract_z
    _atom_site_occupancy
    Zn1      Zn       0.54991    0.74924    0.92986    1.000
    C1       C        0.42320    0.71630    0.30840    1.000
    Zn2      Zn       0.57990    0.75647    0.77332    1.000
    B1       B        0.45920    0.75950    0.38510    1.000
    H1       H        0.44610    0.82780    0.39940    1.000
    B2       B        0.56400    0.73070    0.31380    1.000
    H2       H        0.61880    0.78060    0.28030    1.000
    B3       B        0.51760    0.63750    0.27670    1.000
    H3       H        0.54140    0.62460    0.21880    1.000
    B4       B        0.38200    0.61290    0.32180    1.000
    H4       H        0.31440    0.58390    0.29320    1.000
    B5       B        0.34360    0.68900    0.38850    1.000
    H5       H        0.25270    0.71080    0.40410    1.000
    C2       C        0.57370    0.70020    0.40250    1.000
    B6       B        0.61930    0.62750    0.33860    1.000
    H6       H        0.71150    0.60870    0.32260    1.000
    B7       B        0.50350    0.55480    0.34430    1.000
    H7       H        0.51790    0.48600    0.33180    1.000
    B8       B        0.39650    0.58310    0.41240    1.000
    H8       H        0.33910    0.53330    0.44420    1.000
    B9       B        0.44500    0.67310    0.45110    1.000
    H9       H        0.42150    0.68280    0.50960    1.000
    B10      B        0.54370    0.59470    0.42400    1.000
    H10      H        0.58670    0.55430    0.46430    1.000
    C3       C        0.36290    0.78280    0.25730    1.000
    H11      H        0.37500    0.84310    0.27030    1.000
    O1       O        0.24570    0.76330    0.26460    1.000
    H12      H        0.23600    0.71080    0.27670    1.000
    C4       C        0.41260    0.77150    0.17920    1.000
    C5       C        0.48910    0.83040    0.14420    1.000
    H13      H        0.51380    0.87770    0.16800    1.000
    C6       C        0.52970    0.81970    0.07360    1.000
    H14      H        0.58190    0.86160    0.04920    1.000
    N1       N        0.49990    0.75360    0.03682    1.000
    C7       C        0.42340    0.69710    0.07040    1.000
    H15      H        0.39890    0.65110    0.04500    1.000
    C8       C        0.37800    0.70370    0.14230    1.000
    H16      H        0.32420    0.66220    0.16550    1.000
    C9       C        0.67560    0.74230    0.43500    1.000
    H17      H        0.74670    0.70670    0.42450    1.000
    O2       O        0.69690    0.82510    0.40220    1.000
    H18      H        0.69640    0.82360    0.35770    1.000
    C10      C        0.64840    0.74650    0.51630    1.000
    C11      C        0.59550    0.81460    0.54660    1.000
    H19      H        0.57100    0.86150    0.51760    1.000
    C12      C        0.57720    0.81530    0.62050    1.000
    H20      H        0.54010    0.86420    0.64060    1.000
    N2       N        0.60740    0.75350    0.66490    1.000
    C13      C        0.66180    0.68640    0.63400    1.000
    H21      H        0.68600    0.64020    0.66400    1.000
    C14      C        0.68360    0.68210    0.56080    1.000
    H22      H        0.72350    0.63390    0.54120    1.000
    O3       O        0.46290    0.64198    0.91232    1.000
    C15      C        0.42110    0.62880    0.85470    1.000
    O4       O        0.44080    0.67483    0.79698    1.000
    C16      C        0.34490    0.55200    0.85590    1.000
    C17      C        0.34830    0.48510    0.90840    1.000
    H23      H        0.39860    0.48850    0.94420    1.000
    C18      C        0.27800    0.41380    0.90810    1.000
    H24      H        0.28260    0.36740    0.94280    1.000
    C19      C        0.20050    0.40890    0.85760    1.000
    C20      C        0.19770    0.47630    0.80550    1.000
    H25      H        0.14510    0.47430    0.77090    1.000
    C21      C        0.27090    0.54580    0.80410    1.000
    H26      H        0.27060    0.59010    0.76710    1.000
    C22      C        0.12890    0.33030    0.85660    1.000
    C23      C        0.18310    0.25070    0.85420    1.000
    H27      H        0.26460    0.24860    0.85440    1.000
    C24      C        0.12400    0.17400    0.85150    1.000
    C25      C        0.19160    0.09280    0.84860    1.000
    C26      C        0.25700    0.07200    0.78490    1.000
    H28      H        0.25390    0.10830    0.74270    1.000
    C27      C        0.32660    0.99920    0.78170    1.000
    H29      H        0.36960    0.98560    0.73760    1.000
    C28      C        0.33300    0.94680    0.84320    1.000
    C29      C        0.26620    0.96550    0.90620    1.000
    H30      H        0.26820    0.92850    0.94810    1.000
    C30      C        0.19620    0.03810    0.90890    1.000
    H31      H        0.15090    0.05030    0.95260    1.000
    C31      C        0.41310    0.87120    0.84200    1.000
    O5       O        0.47480    0.85924    0.78310    1.000
    O6       O        0.41440    0.82481    0.89887    1.000
    C32      C        0.00180    0.17630    0.85290    1.000
    C33      C        0.93060    0.09830    0.85200    1.000
    C34      C        0.95550    0.03620    0.80210    1.000
    H32      H        0.02310    0.04230    0.76820    1.000
    C35      C        0.88400    0.96640    0.80100    1.000
    H33      H        0.90160    0.92610    0.76540    1.000
    C36      C        0.78610    0.95360    0.85130    1.000
    C37      C        0.75970    0.01620    0.90110    1.000
    H34      H        0.69300    0.00970    0.93560    1.000
    C38      C        0.83000    0.08720    0.90030    1.000
    H35      H        0.80930    0.12980    0.93350    1.000
    C39      C        0.70870    0.87760    0.85180    1.000
    O7       O        0.71060    0.83861    0.79478    1.000
    O8       O        0.64730    0.85682    0.91006    1.000
    C40      C        0.94770    0.25610    0.85450    1.000
    H36      H        0.86620    0.25830    0.85430    1.000
    C41      C        0.00780    0.33300    0.85650    1.000
    C42      C        0.94030    0.41430    0.85720    1.000
    C43      C        0.87660    0.43630    0.80130    1.000
    H37      H        0.88010    0.40070    0.76190    1.000
    C44      C        0.80860    0.50830    0.80160    1.000
    H38      H        0.76700    0.52220    0.76210    1.000
    C45      C        0.79920    0.56140    0.85850    1.000
    C46      C        0.86410    0.54020    0.91500    1.000
    H39      H        0.86010    0.57570    0.95450    1.000
    C47      C        0.93410    0.46790    0.91380    1.000
    H40      H        0.97840    0.45490    0.95220    1.000
    C48      C        0.72110    0.63790    0.85940    1.000
    O9       O        0.68140    0.65708    0.80059    1.000
    O10      O        0.69840    0.67608    0.91623    1.000
    H41      H        0.27730    0.77260    0.26370    1.000
    O11      O        0.38860    0.87650    0.27380    1.000
    H42      H        0.40080    0.90700    0.23520    1.000
    Zn3      Zn       0.45009    0.25076    0.07014    1.000
    C49      C        0.57680    0.28370    0.69160    1.000
    Zn4      Zn       0.42010    0.24353    0.22668    1.000
    B11      B        0.54080    0.24050    0.61490    1.000
    H43      H        0.55390    0.17220    0.60060    1.000
    B12      B        0.43600    0.26930    0.68620    1.000
    H44      H        0.38120    0.21940    0.71970    1.000
    B13      B        0.48240    0.36250    0.72330    1.000
    H45      H        0.45860    0.37540    0.78120    1.000
    B14      B        0.61800    0.38710    0.67820    1.000
    H46      H        0.68560    0.41610    0.70680    1.000
    B15      B        0.65640    0.31100    0.61150    1.000
    H47      H        0.74730    0.28920    0.59590    1.000
    C50      C        0.42630    0.29980    0.59750    1.000
    B16      B        0.38070    0.37250    0.66140    1.000
    H48      H        0.28850    0.39130    0.67740    1.000
    B17      B        0.49650    0.44520    0.65570    1.000
    H49      H        0.48210    0.51400    0.66820    1.000
    B18      B        0.60350    0.41690    0.58760    1.000
    H50      H        0.66090    0.46670    0.55580    1.000
    B19      B        0.55500    0.32690    0.54890    1.000
    H51      H        0.57850    0.31720    0.49040    1.000
    B20      B        0.45630    0.40530    0.57600    1.000
    H52      H        0.41330    0.44570    0.53570    1.000
    C51      C        0.63710    0.21720    0.74270    1.000
    H53      H        0.62500    0.15690    0.72970    1.000
    O12      O        0.75430    0.23670    0.73540    1.000
    H54      H        0.76400    0.28920    0.72330    1.000
    C52      C        0.58740    0.22850    0.82080    1.000
    C53      C        0.51090    0.16960    0.85580    1.000
    H55      H        0.48620    0.12230    0.83200    1.000
    C54      C        0.47030    0.18030    0.92640    1.000
    H56      H        0.41810    0.13840    0.95080    1.000
    N3       N        0.50010    0.24640    0.96318    1.000
    C55      C        0.57660    0.30290    0.92960    1.000
    H57      H        0.60110    0.34890    0.95500    1.000
    C56      C        0.62200    0.29630    0.85770    1.000
    H58      H        0.67580    0.33780    0.83450    1.000
    C57      C        0.32440    0.25770    0.56500    1.000
    H59      H        0.25330    0.29330    0.57550    1.000
    O13      O        0.30310    0.17490    0.59780    1.000
    H60      H        0.30360    0.17640    0.64230    1.000
    C58      C        0.35160    0.25350    0.48370    1.000
    C59      C        0.40450    0.18540    0.45340    1.000
    H61      H        0.42900    0.13850    0.48240    1.000
    C60      C        0.42280    0.18470    0.37950    1.000
    H62      H        0.45990    0.13580    0.35940    1.000
    N4       N        0.39260    0.24650    0.33510    1.000
    C61      C        0.33820    0.31360    0.36600    1.000
    H63      H        0.31400    0.35980    0.33600    1.000
    C62      C        0.31640    0.31790    0.43920    1.000
    H64      H        0.27650    0.36610    0.45880    1.000
    O14      O        0.53710    0.35802    0.08768    1.000
    C63      C        0.57890    0.37120    0.14530    1.000
    O15      O        0.55920    0.32517    0.20302    1.000
    C64      C        0.65510    0.44800    0.14410    1.000
    C65      C        0.65170    0.51490    0.09160    1.000
    H65      H        0.60140    0.51150    0.05580    1.000
    C66      C        0.72200    0.58620    0.09190    1.000
    H66      H        0.71740    0.63260    0.05720    1.000
    C67      C        0.79950    0.59110    0.14240    1.000
    C68      C        0.80230    0.52370    0.19450    1.000
    H67      H        0.85490    0.52570    0.22910    1.000
    C69      C        0.72910    0.45420    0.19590    1.000
    H68      H        0.72940    0.40990    0.23290    1.000
    C70      C        0.87110    0.66970    0.14340    1.000
    C71      C        0.81690    0.74930    0.14580    1.000
    H69      H        0.73540    0.75140    0.14560    1.000
    C72      C        0.87600    0.82600    0.14850    1.000
    C73      C        0.80840    0.90720    0.15140    1.000
    C74      C        0.74300    0.92800    0.21510    1.000
    H70      H        0.74610    0.89170    0.25730    1.000
    C75      C        0.67340    0.00080    0.21830    1.000
    H71      H        0.63040    0.01440    0.26240    1.000
    C76      C        0.66700    0.05320    0.15680    1.000
    C77      C        0.73380    0.03450    0.09380    1.000
    H72      H        0.73180    0.07150    0.05190    1.000
    C78      C        0.80380    0.96190    0.09110    1.000
    H73      H        0.84910    0.94970    0.04740    1.000
    C79      C        0.58690    0.12880    0.15800    1.000
    O16      O        0.52520    0.14076    0.21690    1.000
    O17      O        0.58560    0.17519    0.10113    1.000
    C80      C        0.99820    0.82370    0.14710    1.000
    C81      C        0.06940    0.90170    0.14800    1.000
    C82      C        0.04450    0.96380    0.19790    1.000
    H74      H        0.97690    0.95770    0.23180    1.000
    C83      C        0.11600    0.03360    0.19900    1.000
    H75      H        0.09840    0.07390    0.23460    1.000
    C84      C        0.21390    0.04640    0.14870    1.000
    C85      C        0.24030    0.98380    0.09890    1.000
    H76      H        0.30700    0.99030    0.06440    1.000
    C86      C        0.17000    0.91280    0.09970    1.000
    H77      H        0.19070    0.87020    0.06650    1.000
    C87      C        0.29130    0.12240    0.14820    1.000
    O18      O        0.28940    0.16139    0.20522    1.000
    O19      O        0.35270    0.14318    0.08994    1.000
    C88      C        0.05230    0.74390    0.14550    1.000
    H78      H        0.13380    0.74170    0.14570    1.000
    C89      C        0.99220    0.66700    0.14350    1.000
    C90      C        0.05970    0.58570    0.14280    1.000
    C91      C        0.12340    0.56370    0.19870    1.000
    H79      H        0.11990    0.59930    0.23810    1.000
    C92      C        0.19140    0.49170    0.19840    1.000
    H80      H        0.23300    0.47780    0.23790    1.000
    C93      C        0.20080    0.43860    0.14150    1.000
    C94      C        0.13590    0.45980    0.08500    1.000
    H81      H        0.13990    0.42430    0.04550    1.000
    C95      C        0.06590    0.53210    0.08620    1.000
    H82      H        0.02160    0.54510    0.04780    1.000
    C96      C        0.27890    0.36210    0.14060    1.000
    O20      O        0.31860    0.34292    0.19941    1.000
    O21      O        0.30160    0.32392    0.08377    1.000
    H83      H        0.72270    0.22740    0.73630    1.000
    O22      O        0.61140    0.12350    0.72620    1.000
    H84      H        0.59920    0.09300    0.76480    1.000
