data_functionalizedCrystal
_audit_creation_method	'EQeq! by Chris Wilmer'
_symmetry_space_group_name_H-M	'P1'
_symmetry_Int_Tables_number	1
_symmetry_cell_setting	triclinic
loop_
_symmetry_equiv_pos_as_xyz
  x,y,z
_cell_length_a	10.1149
_cell_length_b	10.1149
_cell_length_c	11.467
_cell_angle_alpha	98.9204
_cell_angle_beta	98.9204
_cell_angle_gamma	115.278
loop_
_atom_site_label
_atom_site_type_symbol
_atom_site_fract_x
_atom_site_fract_y
_atom_site_fract_z
_atom_site_charge
Mof_In	In	0.36303	0.63697	0.25	2.367
Mof_In	In	0.63697	0.36303	0.75	2.367
Mof_H 	H 	0.4186	0.7862	0.568	0.006
Mof_H 	H 	0.5837	0.7539	0.0577	0.023
Mof_H 	H 	0.2138	0.5814	0.932	0.007
Mof_H 	H 	0.2461	0.4163	0.4423	0.025
Mof_H 	H 	0.5814	0.2138	0.432	0.007
Mof_H 	H 	0.4163	0.2461	0.9423	0.024
Mof_H 	H 	0.7862	0.4186	0.068	0.007
Mof_H 	H 	0.7539	0.5837	0.5577	0.025
Mof_C 	C 	0.4513	0.8725	0.5386	0.106
Mof_C 	C 	0.5489	0.6501	0.0351	0.097
Mof_C 	C 	0.6063	0.5889	0.9506	-0.073
Mof_C 	C 	0.4865	0.9867	0.3804	-0.077
Mof_C 	C 	0.466	0.9682	0.2439	0.393
Mof_C 	C 	0.7225	0.6845	0.891	0.362
Mof_C 	C 	0.1275	0.5487	0.9614	0.107
Mof_C 	C 	0.3499	0.4511	0.4649	0.098
Mof_C 	C 	0.4111	0.3937	0.5494	-0.074
Mof_C 	C 	0.0133	0.5135	0.1196	-0.078
Mof_C 	C 	0.0318	0.534	0.2561	0.395
Mof_C 	C 	0.3155	0.2775	0.609	0.363
Mof_C 	C 	0.5487	0.1275	0.4614	0.106
Mof_C 	C 	0.4511	0.3499	0.9649	0.097
Mof_C 	C 	0.3937	0.4111	0.0494	-0.073
Mof_C 	C 	0.5135	0.0133	0.6196	-0.077
Mof_C 	C 	0.534	0.0318	0.7561	0.393
Mof_C 	C 	0.2775	0.3155	0.109	0.362
Mof_C 	C 	0.8725	0.4513	0.0386	0.107
Mof_C 	C 	0.6501	0.5489	0.5351	0.098
Mof_C 	C 	0.5889	0.6063	0.4506	-0.074
Mof_C 	C 	0.9867	0.4865	0.8804	-0.078
Mof_C 	C 	0.9682	0.466	0.7439	0.395
Mof_C 	C 	0.6845	0.7225	0.391	0.363
Mof_N 	N 	0.4379	0.8593	0.4191	-0.226
Mof_N 	N 	0.44393	0.55927	0.0835	-0.262
Mof_N 	N 	0.1407	0.5621	0.0809	-0.227
Mof_N 	N 	0.44073	0.55607	0.4165	-0.262
Mof_N 	N 	0.5621	0.1407	0.5809	-0.226
Mof_N 	N 	0.55607	0.44073	0.9165	-0.262
Mof_N 	N 	0.8593	0.4379	0.9191	-0.227
Mof_N 	N 	0.55927	0.44393	0.5835	-0.262
Mof_O 	O 	0.40872	0.83348	0.1786	-0.555
Mof_O 	O 	0.5016	0.0806	0.2046	-0.238
Mof_O 	O 	0.74989	0.61411	0.8054	-0.523
Mof_O 	O 	0.7835	0.8233	0.9313	-0.218
Mof_O 	O 	0.16652	0.59128	0.3214	-0.555
Mof_O 	O 	0.9194	0.4984	0.2954	-0.239
Mof_O 	O 	0.38589	0.25011	0.6946	-0.524
Mof_O 	O 	0.1767	0.2165	0.5687	-0.219
Mof_O 	O 	0.59128	0.16652	0.8214	-0.555
Mof_O 	O 	0.4984	0.9194	0.7954	-0.238
Mof_O 	O 	0.25011	0.38589	0.1946	-0.523
Mof_O 	O 	0.2165	0.1767	0.0687	-0.218
Mof_O 	O 	0.83348	0.40872	0.6786	-0.555
Mof_O 	O 	0.0806	0.5016	0.7046	-0.239
Mof_O 	O 	0.61411	0.74989	0.3054	-0.524
Mof_O 	O 	0.8233	0.7835	0.4313	-0.219
_end
