# CIF file generated by openbabel 3.1.0, see https://openbabel.org
data_I
_chemical_name_common 'image0'
_cell_length_a 10.861
_cell_length_b 6.3914
_cell_length_c 17.003
_cell_angle_alpha 90
_cell_angle_beta 105.828
_cell_angle_gamma 90
_space_group_name_H-M_alt 'P 1'
_space_group_name_Hall 'P 1'
loop_
    _symmetry_equiv_pos_as_xyz
    x,y,z
loop_
    _atom_site_label
    _atom_site_type_symbol
    _atom_site_fract_x
    _atom_site_fract_y
    _atom_site_fract_z
    _atom_site_occupancy
    Zn1      Zn       0.46915    0.99808    0.08438    1.000
    O1       O        0.34450    0.53230    0.04990    1.000
    O2       O        0.27600    0.86080    0.03460    1.000
    O3       O        0.35970    0.62790    0.34460    1.000
    O4       O        0.38250    0.96070    0.38080    1.000
    O5       O        0.55510    0.80940    0.01670    1.000
    H1       H        0.64690    0.80940    0.04460    1.000
    C1       C        0.25660    0.67010    0.03600    1.000
    C2       C        0.12350    0.58370    0.01990    1.000
    C3       C        0.03640    0.65270    0.06200    1.000
    C4       C        0.91360    0.56890    0.03920    1.000
    H2       H        0.85390    0.61800    0.06500    1.000
    C5       C        0.07610    0.80230    0.13110    1.000
    C6       C        0.01870    0.99360    0.13100    1.000
    H3       H        0.94940    0.03090    0.08760    1.000
    C7       C        0.06370    0.13100    0.19530    1.000
    H4       H        0.02530    0.26130    0.19460    1.000
    C8       C        0.16550    0.07560    0.26040    1.000
    H5       H        0.19660    0.17090    0.30240    1.000
    C9       C        0.22200    0.88040    0.26410    1.000
    C10      C        0.17560    0.74420    0.19840    1.000
    H6       H        0.21190    0.61200    0.19960    1.000
    C11      C        0.33060    0.81540    0.33530    1.000
    Zn2      Zn       0.53085    0.49808    0.41562    1.000
    O6       O        0.65550    0.03230    0.45010    1.000
    O7       O        0.72400    0.36080    0.46540    1.000
    O8       O        0.64030    0.12790    0.15540    1.000
    O9       O        0.61750    0.46070    0.11920    1.000
    O10      O        0.44490    0.30940    0.48330    1.000
    H7       H        0.35310    0.30940    0.45540    1.000
    C12      C        0.74340    0.17010    0.46400    1.000
    C13      C        0.87650    0.08370    0.48010    1.000
    C14      C        0.96360    0.15270    0.43800    1.000
    C15      C        0.08640    0.06890    0.46080    1.000
    H8       H        0.14610    0.11800    0.43500    1.000
    C16      C        0.92390    0.30230    0.36890    1.000
    C17      C        0.98130    0.49360    0.36900    1.000
    H9       H        0.05060    0.53090    0.41240    1.000
    C18      C        0.93630    0.63100    0.30470    1.000
    H10      H        0.97470    0.76130    0.30540    1.000
    C19      C        0.83450    0.57560    0.23960    1.000
    H11      H        0.80340    0.67090    0.19760    1.000
    C20      C        0.77800    0.38040    0.23590    1.000
    C21      C        0.82440    0.24420    0.30160    1.000
    H12      H        0.78810    0.11200    0.30040    1.000
    C22      C        0.66940    0.31540    0.16470    1.000
    Zn3      Zn       0.53085    0.00192    0.91562    1.000
    O11      O        0.65550    0.46770    0.95010    1.000
    O12      O        0.72400    0.13920    0.96540    1.000
    O13      O        0.64030    0.37210    0.65540    1.000
    O14      O        0.61750    0.03930    0.61920    1.000
    O15      O        0.44490    0.19060    0.98330    1.000
    H13      H        0.35310    0.19060    0.95540    1.000
    C23      C        0.74340    0.32990    0.96400    1.000
    C24      C        0.87650    0.41630    0.98010    1.000
    C25      C        0.96360    0.34730    0.93800    1.000
    C26      C        0.08640    0.43110    0.96080    1.000
    H14      H        0.14610    0.38200    0.93500    1.000
    C27      C        0.92390    0.19770    0.86890    1.000
    C28      C        0.98130    0.00640    0.86900    1.000
    H15      H        0.05060    0.96910    0.91240    1.000
    C29      C        0.93630    0.86900    0.80470    1.000
    H16      H        0.97470    0.73870    0.80540    1.000
    C30      C        0.83450    0.92440    0.73960    1.000
    H17      H        0.80340    0.82910    0.69760    1.000
    C31      C        0.77800    0.11960    0.73590    1.000
    C32      C        0.82440    0.25580    0.80160    1.000
    H18      H        0.78810    0.38800    0.80040    1.000
    C33      C        0.66940    0.18460    0.66470    1.000
    Zn4      Zn       0.46915    0.50192    0.58438    1.000
    O16      O        0.34450    0.96770    0.54990    1.000
    O17      O        0.27600    0.63920    0.53460    1.000
    O18      O        0.35970    0.87210    0.84460    1.000
    O19      O        0.38250    0.53930    0.88080    1.000
    O20      O        0.55510    0.69060    0.51670    1.000
    H19      H        0.64690    0.69060    0.54460    1.000
    C34      C        0.25660    0.82990    0.53600    1.000
    C35      C        0.12350    0.91630    0.51990    1.000
    C36      C        0.03640    0.84730    0.56200    1.000
    C37      C        0.91360    0.93110    0.53920    1.000
    H20      H        0.85390    0.88200    0.56500    1.000
    C38      C        0.07610    0.69770    0.63110    1.000
    C39      C        0.01870    0.50640    0.63100    1.000
    H21      H        0.94940    0.46910    0.58760    1.000
    C40      C        0.06370    0.36900    0.69530    1.000
    H22      H        0.02530    0.23870    0.69460    1.000
    C41      C        0.16550    0.42440    0.76040    1.000
    H23      H        0.19660    0.32910    0.80240    1.000
    C42      C        0.22200    0.61960    0.76410    1.000
    C43      C        0.17560    0.75580    0.69840    1.000
    H24      H        0.21190    0.88800    0.69960    1.000
    C44      C        0.33060    0.68460    0.83530    1.000
    Zn5      Zn       0.50000    0.50000    0.00000    1.000
    Zn6      Zn       0.50000    0.00000    0.50000    1.000
