# CIF file generated by openbabel 3.1.0, see https://openbabel.org
data_I
_chemical_name_common 'image0'
_cell_length_a 9.4451
_cell_length_b 9.4451
_cell_length_c 74.309
_cell_angle_alpha 90
_cell_angle_beta 90
_cell_angle_gamma 120
_space_group_name_H-M_alt 'P 1'
_space_group_name_Hall 'P 1'
loop_
    _symmetry_equiv_pos_as_xyz
    x,y,z
loop_
    _atom_site_label
    _atom_site_type_symbol
    _atom_site_fract_x
    _atom_site_fract_y
    _atom_site_fract_z
    _atom_site_occupancy
    H1       H        0.10800    0.47180    0.01140    1.000
    H2       H        0.89220    0.36420    0.11740    1.000
    H3       H        0.77467    0.80513    0.34473    1.000
    H4       H        0.55887    0.69753    0.45073    1.000
    H5       H        0.44133    0.13847    0.67807    1.000
    H6       H        0.22553    0.03087    0.78407    1.000
    H7       H        0.52820    0.63620    0.01140    1.000
    H8       H        0.63580    0.52800    0.11740    1.000
    H9       H        0.19487    0.96953    0.34473    1.000
    H10      H        0.30247    0.86133    0.45073    1.000
    H11      H        0.86153    0.30287    0.67807    1.000
    H12      H        0.96913    0.19467    0.78407    1.000
    H13      H        0.36380    0.89200    0.01140    1.000
    H14      H        0.47200    0.10780    0.11740    1.000
    H15      H        0.03047    0.22533    0.34473    1.000
    H16      H        0.13867    0.44113    0.45073    1.000
    H17      H        0.69713    0.55867    0.67807    1.000
    H18      H        0.80533    0.77447    0.78407    1.000
    H19      H        0.47180    0.10800    0.98860    1.000
    H20      H        0.36420    0.89220    0.88260    1.000
    H21      H        0.13847    0.44133    0.32193    1.000
    H22      H        0.03087    0.22553    0.21593    1.000
    H23      H        0.80513    0.77467    0.65527    1.000
    H24      H        0.69753    0.55887    0.54927    1.000
    H25      H        0.63620    0.52820    0.98860    1.000
    H26      H        0.52800    0.63580    0.88260    1.000
    H27      H        0.30287    0.86153    0.32193    1.000
    H28      H        0.19467    0.96913    0.21593    1.000
    H29      H        0.96953    0.19487    0.65527    1.000
    H30      H        0.86133    0.30247    0.54927    1.000
    H31      H        0.89200    0.36380    0.98860    1.000
    H32      H        0.10780    0.47200    0.88260    1.000
    H33      H        0.55867    0.69713    0.32193    1.000
    H34      H        0.77447    0.80533    0.21593    1.000
    H35      H        0.22533    0.03047    0.65527    1.000
    H36      H        0.44113    0.13867    0.54927    1.000
    H37      H        0.89200    0.52820    0.98860    1.000
    H38      H        0.10780    0.63580    0.88260    1.000
    H39      H        0.55867    0.86153    0.32193    1.000
    H40      H        0.77447    0.96913    0.21593    1.000
    H41      H        0.22533    0.19487    0.65527    1.000
    H42      H        0.44113    0.30247    0.54927    1.000
    H43      H        0.47180    0.36380    0.98860    1.000
    H44      H        0.36420    0.47200    0.88260    1.000
    H45      H        0.13847    0.69713    0.32193    1.000
    H46      H        0.03087    0.80533    0.21593    1.000
    H47      H        0.80513    0.03047    0.65527    1.000
    H48      H        0.69753    0.13867    0.54927    1.000
    H49      H        0.63620    0.10800    0.98860    1.000
    H50      H        0.52800    0.89220    0.88260    1.000
    H51      H        0.30287    0.44133    0.32193    1.000
    H52      H        0.19467    0.22553    0.21593    1.000
    H53      H        0.96953    0.77467    0.65527    1.000
    H54      H        0.86133    0.55887    0.54927    1.000
    H55      H        0.52820    0.89200    0.01140    1.000
    H56      H        0.63580    0.10780    0.11740    1.000
    H57      H        0.19487    0.22533    0.34473    1.000
    H58      H        0.30247    0.44113    0.45073    1.000
    H59      H        0.86153    0.55867    0.67807    1.000
    H60      H        0.96913    0.77447    0.78407    1.000
    H61      H        0.36380    0.47180    0.01140    1.000
    H62      H        0.47200    0.36420    0.11740    1.000
    H63      H        0.03047    0.80513    0.34473    1.000
    H64      H        0.13867    0.69753    0.45073    1.000
    H65      H        0.69713    0.13847    0.67807    1.000
    H66      H        0.80533    0.03087    0.78407    1.000
    H67      H        0.10800    0.63620    0.01140    1.000
    H68      H        0.89220    0.52800    0.11740    1.000
    H69      H        0.77467    0.96953    0.34473    1.000
    H70      H        0.55887    0.86133    0.45073    1.000
    H71      H        0.44133    0.30287    0.67807    1.000
    H72      H        0.22553    0.19467    0.78407    1.000
    Cu1      Cu       0.91002    0.45501    0.04597    1.000
    Cu2      Cu       0.08442    0.54221    0.15207    1.000
    Cl1      Cl       0.94170    0.47085    0.07595    1.000
    Cl2      Cl       0.03800    0.51900    0.18606    1.000
    N1       N        0.83910    0.41955    0.14176    1.000
    N2       N        0.16180    0.58090    0.03567    1.000
    C1       C        0.16450    0.58225    0.01572    1.000
    C2       C        0.83590    0.41795    0.12182    1.000
    Cu3      Cu       0.57669    0.78834    0.37930    1.000
    Cu4      Cu       0.75109    0.87554    0.48540    1.000
    Cl3      Cl       0.60837    0.80418    0.40928    1.000
    Cl4      Cl       0.70467    0.85233    0.51939    1.000
    N3       N        0.50577    0.75288    0.47509    1.000
    N4       N        0.82847    0.91423    0.36900    1.000
    C3       C        0.83117    0.91558    0.34905    1.000
    C4       C        0.50257    0.75128    0.45515    1.000
    Cu5      Cu       0.24335    0.12168    0.71264    1.000
    Cu6      Cu       0.41775    0.20888    0.81874    1.000
    Cl5      Cl       0.27503    0.13752    0.74262    1.000
    Cl6      Cl       0.37133    0.18567    0.85273    1.000
    N5       N        0.17243    0.08622    0.80843    1.000
    N6       N        0.49513    0.24757    0.70234    1.000
    C5       C        0.49783    0.24892    0.68239    1.000
    C6       C        0.16923    0.08462    0.78849    1.000
    Cu7      Cu       0.54499    0.45501    0.04597    1.000
    Cu8      Cu       0.45779    0.54221    0.15207    1.000
    Cl7      Cl       0.52915    0.47085    0.07595    1.000
    Cl8      Cl       0.48100    0.51900    0.18606    1.000
    N7       N        0.58045    0.41955    0.14176    1.000
    N8       N        0.41910    0.58090    0.03567    1.000
    C7       C        0.41775    0.58225    0.01572    1.000
    C8       C        0.58205    0.41795    0.12182    1.000
    Cu9      Cu       0.21166    0.78834    0.37930    1.000
    Cu10     Cu       0.12446    0.87554    0.48540    1.000
    Cl9      Cl       0.19582    0.80418    0.40928    1.000
    Cl10     Cl       0.14767    0.85233    0.51939    1.000
    N9       N        0.24712    0.75288    0.47509    1.000
    N10      N        0.08577    0.91423    0.36900    1.000
    C9       C        0.08442    0.91558    0.34905    1.000
    C10      C        0.24872    0.75128    0.45515    1.000
    Cu11     Cu       0.87832    0.12168    0.71264    1.000
    Cu12     Cu       0.79112    0.20888    0.81874    1.000
    Cl11     Cl       0.86248    0.13752    0.74262    1.000
    Cl12     Cl       0.81433    0.18567    0.85273    1.000
    N11      N        0.91378    0.08622    0.80843    1.000
    N12      N        0.75243    0.24757    0.70234    1.000
    C11      C        0.75108    0.24892    0.68239    1.000
    C12      C        0.91538    0.08462    0.78849    1.000
    Cu13     Cu       0.54499    0.08998    0.04597    1.000
    Cu14     Cu       0.45779    0.91558    0.15207    1.000
    Cl13     Cl       0.52915    0.05830    0.07595    1.000
    Cl14     Cl       0.48100    0.96200    0.18606    1.000
    N13      N        0.58045    0.16090    0.14176    1.000
    N14      N        0.41910    0.83820    0.03567    1.000
    C13      C        0.41775    0.83550    0.01572    1.000
    C14      C        0.58205    0.16410    0.12182    1.000
    Cu15     Cu       0.21166    0.42331    0.37930    1.000
    Cu16     Cu       0.12446    0.24891    0.48540    1.000
    Cl15     Cl       0.19582    0.39163    0.40928    1.000
    Cl16     Cl       0.14767    0.29533    0.51939    1.000
    N15      N        0.24712    0.49423    0.47509    1.000
    N16      N        0.08577    0.17153    0.36900    1.000
    C15      C        0.08442    0.16883    0.34905    1.000
    C16      C        0.24872    0.49743    0.45515    1.000
    Cu17     Cu       0.87832    0.75665    0.71264    1.000
    Cu18     Cu       0.79112    0.58225    0.81874    1.000
    Cl17     Cl       0.86248    0.72497    0.74262    1.000
    Cl18     Cl       0.81433    0.62867    0.85273    1.000
    N17      N        0.91378    0.82757    0.80843    1.000
    N18      N        0.75243    0.50487    0.70234    1.000
    C17      C        0.75108    0.50217    0.68239    1.000
    C18      C        0.91538    0.83077    0.78849    1.000
    Cu19     Cu       0.45501    0.91002    0.95403    1.000
    Cu20     Cu       0.54221    0.08442    0.84793    1.000
    Cl19     Cl       0.47085    0.94170    0.92405    1.000
    Cl20     Cl       0.51900    0.03800    0.81394    1.000
    N19      N        0.41955    0.83910    0.85824    1.000
    N20      N        0.58090    0.16180    0.96433    1.000
    C19      C        0.58225    0.16450    0.98428    1.000
    C20      C        0.41795    0.83590    0.87818    1.000
    Cu21     Cu       0.12168    0.24335    0.28736    1.000
    Cu22     Cu       0.20888    0.41775    0.18126    1.000
    Cl21     Cl       0.13752    0.27503    0.25738    1.000
    Cl22     Cl       0.18567    0.37133    0.14727    1.000
    N21      N        0.08622    0.17243    0.19157    1.000
    N22      N        0.24757    0.49513    0.29766    1.000
    C21      C        0.24892    0.49783    0.31761    1.000
    C22      C        0.08462    0.16923    0.21151    1.000
    Cu23     Cu       0.78834    0.57669    0.62070    1.000
    Cu24     Cu       0.87554    0.75109    0.51460    1.000
    Cl23     Cl       0.80418    0.60837    0.59072    1.000
    Cl24     Cl       0.85233    0.70467    0.48061    1.000
    N23      N        0.75288    0.50577    0.52491    1.000
    N24      N        0.91423    0.82847    0.63100    1.000
    C23      C        0.91558    0.83117    0.65095    1.000
    C24      C        0.75128    0.50257    0.54485    1.000
    Cu25     Cu       0.45501    0.54499    0.95403    1.000
    Cu26     Cu       0.54221    0.45779    0.84793    1.000
    Cl25     Cl       0.47085    0.52915    0.92405    1.000
    Cl26     Cl       0.51900    0.48100    0.81394    1.000
    N25      N        0.41955    0.58045    0.85824    1.000
    N26      N        0.58090    0.41910    0.96433    1.000
    C25      C        0.58225    0.41775    0.98428    1.000
    C26      C        0.41795    0.58205    0.87818    1.000
    Cu27     Cu       0.12168    0.87832    0.28736    1.000
    Cu28     Cu       0.20888    0.79112    0.18126    1.000
    Cl27     Cl       0.13752    0.86248    0.25738    1.000
    Cl28     Cl       0.18567    0.81433    0.14727    1.000
    N27      N        0.08622    0.91378    0.19157    1.000
    N28      N        0.24757    0.75243    0.29766    1.000
    C27      C        0.24892    0.75108    0.31761    1.000
    C28      C        0.08462    0.91538    0.21151    1.000
    Cu29     Cu       0.78834    0.21166    0.62070    1.000
    Cu30     Cu       0.87554    0.12446    0.51460    1.000
    Cl29     Cl       0.80418    0.19582    0.59072    1.000
    Cl30     Cl       0.85233    0.14767    0.48061    1.000
    N29      N        0.75288    0.24712    0.52491    1.000
    N30      N        0.91423    0.08577    0.63100    1.000
    C29      C        0.91558    0.08442    0.65095    1.000
    C30      C        0.75128    0.24872    0.54485    1.000
    Cu31     Cu       0.08998    0.54499    0.95403    1.000
    Cu32     Cu       0.91558    0.45779    0.84793    1.000
    Cl31     Cl       0.05830    0.52915    0.92405    1.000
    Cl32     Cl       0.96200    0.48100    0.81394    1.000
    N31      N        0.16090    0.58045    0.85824    1.000
    N32      N        0.83820    0.41910    0.96433    1.000
    C31      C        0.83550    0.41775    0.98428    1.000
    C32      C        0.16410    0.58205    0.87818    1.000
    Cu33     Cu       0.75665    0.87832    0.28736    1.000
    Cu34     Cu       0.58225    0.79112    0.18126    1.000
    Cl33     Cl       0.72497    0.86248    0.25738    1.000
    Cl34     Cl       0.62867    0.81433    0.14727    1.000
    N33      N        0.82757    0.91378    0.19157    1.000
    N34      N        0.50487    0.75243    0.29766    1.000
    C33      C        0.50217    0.75108    0.31761    1.000
    C34      C        0.83077    0.91538    0.21151    1.000
    Cu35     Cu       0.42331    0.21166    0.62070    1.000
    Cu36     Cu       0.24891    0.12446    0.51460    1.000
    Cl35     Cl       0.39163    0.19582    0.59072    1.000
    Cl36     Cl       0.29533    0.14767    0.48061    1.000
    N35      N        0.49423    0.24712    0.52491    1.000
    N36      N        0.17153    0.08577    0.63100    1.000
    C35      C        0.16883    0.08442    0.65095    1.000
    C36      C        0.49743    0.24872    0.54485    1.000
    Cu37     Cu       0.66667    0.33333    0.01922    1.000
    Cu38     Cu       0.66667    0.33333    0.08590    1.000
    N37      N        0.66667    0.33333    0.11482    1.000
    Cu39     Cu       0.66667    0.33333    0.08270    1.000
    Cu40     Cu       0.66667    0.33333    0.07530    1.000
    Cu41     Cu       0.33333    0.66667    0.35255    1.000
    Cu42     Cu       0.33333    0.66667    0.41923    1.000
    N38      N        0.33333    0.66667    0.44815    1.000
    Cu43     Cu       0.33333    0.66667    0.41603    1.000
    Cu44     Cu       0.33333    0.66667    0.40863    1.000
    Cu45     Cu       0.00000    0.00000    0.68589    1.000
    Cu46     Cu       0.00000    0.00000    0.75257    1.000
    N39      N        0.00000    0.00000    0.78149    1.000
    Cu47     Cu       0.00000    0.00000    0.74937    1.000
    Cu48     Cu       0.00000    0.00000    0.74197    1.000
    Cu49     Cu       0.33333    0.66667    0.98078    1.000
    Cu50     Cu       0.33333    0.66667    0.91410    1.000
    N40      N        0.33333    0.66667    0.88518    1.000
    Cu51     Cu       0.33333    0.66667    0.91730    1.000
    Cu52     Cu       0.33333    0.66667    0.92470    1.000
    Cu53     Cu       0.00000    0.00000    0.31411    1.000
    Cu54     Cu       0.00000    0.00000    0.24743    1.000
    N41      N        0.00000    0.00000    0.21851    1.000
    Cu55     Cu       0.00000    0.00000    0.25063    1.000
    Cu56     Cu       0.00000    0.00000    0.25803    1.000
    Cu57     Cu       0.66667    0.33333    0.64745    1.000
    Cu58     Cu       0.66667    0.33333    0.58077    1.000
    N42      N        0.66667    0.33333    0.55185    1.000
    Cu59     Cu       0.66667    0.33333    0.58397    1.000
    Cu60     Cu       0.66667    0.33333    0.59137    1.000
    Cl37     Cl       0.80276    0.19724    0.03031    1.000
    Cl38     Cl       0.46943    0.53057    0.36364    1.000
    Cl39     Cl       0.13609    0.86391    0.69698    1.000
    Cl40     Cl       0.80276    0.60552    0.03031    1.000
    Cl41     Cl       0.46943    0.93885    0.36364    1.000
    Cl42     Cl       0.13609    0.27219    0.69698    1.000
    Cl43     Cl       0.39448    0.19724    0.03031    1.000
    Cl44     Cl       0.06115    0.53057    0.36364    1.000
    Cl45     Cl       0.72781    0.86391    0.69698    1.000
    Cl46     Cl       0.19724    0.80276    0.96969    1.000
    Cl47     Cl       0.86391    0.13609    0.30302    1.000
    Cl48     Cl       0.53057    0.46943    0.63636    1.000
    Cl49     Cl       0.60552    0.80276    0.96969    1.000
    Cl50     Cl       0.27219    0.13609    0.30302    1.000
    Cl51     Cl       0.93885    0.46943    0.63636    1.000
    Cl52     Cl       0.19724    0.39448    0.96969    1.000
    Cl53     Cl       0.86391    0.72781    0.30302    1.000
    Cl54     Cl       0.53057    0.06115    0.63636    1.000
    N43      N        0.33333    0.66667    0.00870    1.000
    N44      N        0.00000    0.00000    0.34203    1.000
    N45      N        0.66667    0.33333    0.67537    1.000
    N46      N        0.66667    0.33333    0.99130    1.000
    N47      N        0.33333    0.66667    0.32463    1.000
    N48      N        0.00000    0.00000    0.65797    1.000
    C37      C        0.75130    0.50260    0.14823    1.000
    H73      H        0.80675    0.61350    0.14410    1.000
    H74      H        0.75155    0.50310    0.16110    1.000
    C38      C        0.41797    0.83593    0.48156    1.000
    H75      H        0.47342    0.94683    0.47743    1.000
    H76      H        0.41822    0.83643    0.49443    1.000
    C39      C        0.08463    0.16927    0.81490    1.000
    H77      H        0.14008    0.28017    0.81077    1.000
    H78      H        0.08488    0.16977    0.82777    1.000
    C40      C        0.49740    0.24870    0.14823    1.000
    H79      H        0.38650    0.19325    0.14410    1.000
    H80      H        0.49690    0.24845    0.16110    1.000
    C41      C        0.16407    0.58203    0.48156    1.000
    H81      H        0.05317    0.52658    0.47743    1.000
    H82      H        0.16357    0.58178    0.49443    1.000
    C42      C        0.83073    0.91537    0.81490    1.000
    H83      H        0.71983    0.85992    0.81077    1.000
    H84      H        0.83023    0.91512    0.82777    1.000
    C43      C        0.75130    0.24870    0.14823    1.000
    H85      H        0.80675    0.19325    0.14410    1.000
    H86      H        0.75155    0.24845    0.16110    1.000
    C44      C        0.41797    0.58203    0.48156    1.000
    H87      H        0.47342    0.52658    0.47743    1.000
    H88      H        0.41822    0.58178    0.49443    1.000
    C45      C        0.08463    0.91537    0.81490    1.000
    H89      H        0.14008    0.85992    0.81077    1.000
    H90      H        0.08488    0.91512    0.82777    1.000
    C46      C        0.50260    0.75130    0.85177    1.000
    H91      H        0.61350    0.80675    0.85590    1.000
    H92      H        0.50310    0.75155    0.83890    1.000
    C47      C        0.16927    0.08463    0.18510    1.000
    H93      H        0.28017    0.14008    0.18923    1.000
    H94      H        0.16977    0.08488    0.17223    1.000
    C48      C        0.83593    0.41797    0.51844    1.000
    H95      H        0.94683    0.47342    0.52257    1.000
    H96      H        0.83643    0.41822    0.50557    1.000
    C49      C        0.24870    0.49740    0.85177    1.000
    H97      H        0.19325    0.38650    0.85590    1.000
    H98      H        0.24845    0.49690    0.83890    1.000
    C50      C        0.91537    0.83073    0.18510    1.000
    H99      H        0.85992    0.71983    0.18923    1.000
    H100     H        0.91512    0.83023    0.17223    1.000
    C51      C        0.58203    0.16407    0.51844    1.000
    H101     H        0.52658    0.05317    0.52257    1.000
    H102     H        0.58178    0.16357    0.50557    1.000
    C52      C        0.24870    0.75130    0.85177    1.000
    H103     H        0.19325    0.80675    0.85590    1.000
    H104     H        0.24845    0.75155    0.83890    1.000
    C53      C        0.91537    0.08463    0.18510    1.000
    H105     H        0.85992    0.14008    0.18923    1.000
    H106     H        0.91512    0.08488    0.17223    1.000
    C54      C        0.58203    0.41797    0.51844    1.000
    H107     H        0.52658    0.47342    0.52257    1.000
    H108     H        0.58178    0.41822    0.50557    1.000
    C55      C        0.24890    0.75110    0.04209    1.000
    H109     H        0.24780    0.75220    0.05500    1.000
    H110     H        0.19340    0.80660    0.03790    1.000
    C56      C        0.91557    0.08443    0.37542    1.000
    H111     H        0.91447    0.08553    0.38833    1.000
    H112     H        0.86007    0.13993    0.37123    1.000
    C57      C        0.58223    0.41777    0.70876    1.000
    H113     H        0.58113    0.41887    0.72167    1.000
    H114     H        0.52673    0.47327    0.70457    1.000
    C58      C        0.24890    0.49780    0.04209    1.000
    H115     H        0.24780    0.49560    0.05500    1.000
    H116     H        0.19340    0.38680    0.03790    1.000
    C59      C        0.91557    0.83113    0.37542    1.000
    H117     H        0.91447    0.82893    0.38833    1.000
    H118     H        0.86007    0.72013    0.37123    1.000
    C60      C        0.58223    0.16447    0.70876    1.000
    H119     H        0.58113    0.16227    0.72167    1.000
    H120     H        0.52673    0.05347    0.70457    1.000
    C61      C        0.50220    0.75110    0.04209    1.000
    H121     H        0.50440    0.75220    0.05500    1.000
    H122     H        0.61320    0.80660    0.03790    1.000
    C62      C        0.16887    0.08443    0.37542    1.000
    H123     H        0.17107    0.08553    0.38833    1.000
    H124     H        0.27987    0.13993    0.37123    1.000
    C63      C        0.83553    0.41777    0.70876    1.000
    H125     H        0.83773    0.41887    0.72167    1.000
    H126     H        0.94653    0.47327    0.70457    1.000
    C64      C        0.75110    0.24890    0.95791    1.000
    H127     H        0.75220    0.24780    0.94500    1.000
    H128     H        0.80660    0.19340    0.96210    1.000
    C65      C        0.41777    0.58223    0.29124    1.000
    H129     H        0.41887    0.58113    0.27833    1.000
    H130     H        0.47327    0.52673    0.29543    1.000
    C66      C        0.08443    0.91557    0.62458    1.000
    H131     H        0.08553    0.91447    0.61167    1.000
    H132     H        0.13993    0.86007    0.62877    1.000
    C67      C        0.49780    0.24890    0.95791    1.000
    H133     H        0.49560    0.24780    0.94500    1.000
    H134     H        0.38680    0.19340    0.96210    1.000
    C68      C        0.16447    0.58223    0.29124    1.000
    H135     H        0.16227    0.58113    0.27833    1.000
    H136     H        0.05347    0.52673    0.29543    1.000
    C69      C        0.83113    0.91557    0.62458    1.000
    H137     H        0.82893    0.91447    0.61167    1.000
    H138     H        0.72013    0.86007    0.62877    1.000
    C70      C        0.75110    0.50220    0.95791    1.000
    H139     H        0.75220    0.50440    0.94500    1.000
    H140     H        0.80660    0.61320    0.96210    1.000
    C71      C        0.41777    0.83553    0.29124    1.000
    H141     H        0.41887    0.83773    0.27833    1.000
    H142     H        0.47327    0.94653    0.29543    1.000
    C72      C        0.08443    0.16887    0.62458    1.000
    H143     H        0.08553    0.17107    0.61167    1.000
    H144     H        0.13993    0.27987    0.62877    1.000
