data_functionalizedCrystal
_audit_creation_method	'EQeq! by Chris Wilmer'
_symmetry_space_group_name_H-M	'P1'
_symmetry_Int_Tables_number	1
_symmetry_cell_setting	triclinic
loop_
_symmetry_equiv_pos_as_xyz
  x,y,z
_cell_length_a	13.8773
_cell_length_b	21.608
_cell_length_c	34.9221
_cell_angle_alpha	90
_cell_angle_beta	96.236
_cell_angle_gamma	90
loop_
_atom_site_label
_atom_site_type_symbol
_atom_site_fract_x
_atom_site_fract_y
_atom_site_fract_z
_atom_site_charge
Mof_Co	Co	0.47836	0.50654	0.85135	1.174
Mof_Co	Co	0.29978	0.58416	0.81219	1.164
Mof_Co	Co	0.27171	0.43149	0.83774	1.159
Mof_Co	Co	0.97836	0.99346	0.35135	1.172
Mof_Co	Co	0.79978	0.91584	0.31219	1.164
Mof_Co	Co	0.77171	0.06851	0.33774	1.16
Mof_H 	H 	0.7426	0.0339	0.0893	0.155
Mof_H 	H 	0.5228	0.1251	0.9318	0.156
Mof_H 	H 	0.6084	0.9055	0.0124	0.04
Mof_H 	H 	0.593	0.0353	0.9283	0.042
Mof_H 	H 	0.658	0.0843	0.0399	0.046
Mof_H 	H 	0.6474	0.8553	0.9589	0.156
Mof_H 	H 	0.105	0.1066	0.9473	0.16
Mof_H 	H 	0.0937	0.8273	0.9893	0.136
Mof_H 	H 	0.15	0.0168	0.1206	0.134
Mof_H 	H 	0.082	0.8869	0.0332	0.035
Mof_H 	H 	0.4254	0.1864	0.891	0.12
Mof_H 	H 	0.1489	0.0123	0.9546	0.039
Mof_H 	H 	0.3952	0.2791	0.8602	0.006
Mof_H 	H 	0.66	0.919	0.148	0.125
Mof_H 	H 	0.6632	0.9255	0.2133	-0.003
Mof_H 	H 	0.1304	0.0661	0.0648	0.038
Mof_H 	H 	0.6351	0.3513	0.9187	0.009
Mof_H 	H 	0.7564	0.0952	0.1446	0.113
Mof_H 	H 	0.1429	0.0099	0.2498	-0.005
Mof_H 	H 	0.7664	0.1001	0.2117	0.011
Mof_H 	H 	0.6405	0.6644	0.9068	0.004
Mof_H 	H 	0.1653	0.7276	0.9908	0.112
Mof_H 	H 	0.1262	0.8215	0.8912	0.124
Mof_H 	H 	0.6922	0.7572	0.9366	0.121
Mof_H 	H 	0.1631	0.7333	0.8583	0.003
Mof_H 	H 	0.1604	0.2385	0.858	-0.024
Mof_H 	H 	0.4353	0.8355	0.8967	0.135
Mof_H 	H 	0.3911	0.7431	0.8661	-0.001
Mof_H 	H 	0.6639	0.2588	0.9509	0.13
Mof_H 	H 	0.1234	0.154	0.8921	0.156
Mof_H 	H 	0.2154	0.2372	0.9894	0.155
Mof_H 	H 	0.208	0.6411	0.9571	0.013
Mof_H 	H 	0.1949	0.0139	0.189	0.12
Mof_H 	H 	0.9337	0.9562	0.1423	0.133
Mof_H 	H 	0.2463	0.3263	0.9554	-0.014
Mof_H 	H 	0.8841	0.9489	0.2043	-0.001
Mof_H 	H 	0.2426	0.4661	0.5893	0.156
Mof_H 	H 	0.0228	0.3749	0.4318	0.157
Mof_H 	H 	0.1084	0.5945	0.5124	0.041
Mof_H 	H 	0.093	0.4647	0.4283	0.043
Mof_H 	H 	0.158	0.4157	0.5399	0.047
Mof_H 	H 	0.1474	0.6447	0.4589	0.156
Mof_H 	H 	0.605	0.3934	0.4473	0.161
Mof_H 	H 	0.5937	0.6727	0.4893	0.136
Mof_H 	H 	0.65	0.4832	0.6206	0.135
Mof_H 	H 	0.582	0.6131	0.5332	0.034
Mof_H 	H 	0.9254	0.3136	0.391	0.12
Mof_H 	H 	0.6489	0.4877	0.4546	0.038
Mof_H 	H 	0.8952	0.2209	0.3602	0.006
Mof_H 	H 	0.16	0.581	0.648	0.125
Mof_H 	H 	0.1632	0.5745	0.7133	-0.003
Mof_H 	H 	0.6304	0.4339	0.5648	0.036
Mof_H 	H 	0.1351	0.1487	0.4187	0.009
Mof_H 	H 	0.2564	0.4048	0.6446	0.112
Mof_H 	H 	0.6429	0.4901	0.7498	-0.002
Mof_H 	H 	0.2664	0.3999	0.7117	0.011
Mof_H 	H 	0.1405	0.8356	0.4068	0.006
Mof_H 	H 	0.6653	0.7724	0.4908	0.112
Mof_H 	H 	0.6262	0.6785	0.3912	0.125
Mof_H 	H 	0.1922	0.7428	0.4366	0.12
Mof_H 	H 	0.6631	0.7667	0.3583	0.003
Mof_H 	H 	0.6604	0.2615	0.358	-0.023
Mof_H 	H 	0.9353	0.6645	0.3967	0.134
Mof_H 	H 	0.8911	0.7569	0.3661	0.001
Mof_H 	H 	0.1639	0.2412	0.4509	0.13
Mof_H 	H 	0.6234	0.346	0.3921	0.157
Mof_H 	H 	0.7154	0.2628	0.4894	0.155
Mof_H 	H 	0.708	0.8589	0.4571	0.013
Mof_H 	H 	0.6949	0.4861	0.689	0.118
Mof_H 	H 	0.4337	0.5438	0.6423	0.132
Mof_H 	H 	0.7463	0.1737	0.4554	-0.014
Mof_H 	H 	0.3841	0.5511	0.7043	-0.003
Mof_C 	C 	0.6256	0.07031	0.98172	-0.074
Mof_C 	C 	0.6135	0.94737	0.00456	0.01
Mof_C 	C 	0.6449	0.97226	0.0735	0.243
Mof_C 	C 	0.604	0.02445	0.95481	0.016
Mof_C 	C 	0.6363	0.9929	0.03204	-0.069
Mof_C 	C 	0.6423	0.05332	0.02099	0.013
Mof_C 	C 	0.5981	0.96254	0.96544	-0.072
Mof_C 	C 	0.0979	0.92816	0.02681	0.012
Mof_C 	C 	0.5624	0.91646	0.93559	0.248
Mof_C 	C 	0.1279	0.8949	0.95831	0.245
Mof_C 	C 	0.4679	0.2203	0.8971	-0.225
Mof_C 	C 	0.1383	0.0028	0.98034	0.011
Mof_C 	C 	0.1194	0.9428	0.98963	-0.068
Mof_C 	C 	0.1669	0.1141	0.99865	0.24
Mof_C 	C 	0.7053	0.00673	0.13916	0.225
Mof_C 	C 	0.1425	0.0504	0.00736	-0.078
Mof_C 	C 	0.9747	0.9725	0.27219	0.414
Mof_C 	C 	0.5681	0.80494	0.91989	0.229
Mof_C 	C 	0.5481	0.21283	0.92455	0.225
Mof_C 	C 	0.7147	0.0139	0.21951	-0.167
Mof_C 	C 	0.1002	0.9751	0.05438	-0.073
Mof_C 	C 	0.6291	0.13649	0.97158	0.24
Mof_C 	C 	0.1365	0.7827	0.94417	0.219
Mof_C 	C 	0.4854	0.3874	0.86798	0.377
Mof_C 	C 	0.7216	0.0161	0.26275	0.376
Mof_C 	C 	0.4498	0.2756	0.87894	0.13
Mof_C 	C 	0.0088	0.9777	0.23294	-0.196
Mof_C 	C 	0.6799	0.9565	0.16069	-0.225
Mof_C 	C 	0.683	0.9602	0.19937	0.126
Mof_C 	C 	0.1251	0.0352	0.04538	0.01
Mof_C 	C 	0.5909	0.318	0.91363	0.126
Mof_C 	C 	0.5116	0.6955	0.88302	-0.189
Mof_C 	C 	0.4802	0.6345	0.86352	0.417
Mof_C 	C 	0.0637	0.9593	0.09188	0.241
Mof_C 	C 	0.1681	0.1869	0.94357	0.312
Mof_C 	C 	0.0694	0.9849	0.16013	0.246
Mof_C 	C 	0.7378	0.0605	0.15874	-0.212
Mof_C 	C 	0.1	0.9978	0.228	0.159
Mof_C 	C 	0.5082	0.3265	0.88697	-0.171
Mof_C 	C 	0.7431	0.0635	0.19872	0.118
Mof_C 	C 	0.1849	0.678	0.90431	-0.16
Mof_C 	C 	0.209	0.2914	0.90313	-0.239
Mof_C 	C 	0.5993	0.6996	0.90434	0.139
Mof_C 	C 	0.1636	0.7292	0.96353	-0.212
Mof_C 	C 	0.1399	0.784	0.9049	-0.218
Mof_C 	C 	0.6298	0.7544	0.92252	-0.23
Mof_C 	C 	0.1628	0.7318	0.88542	0.123
Mof_C 	C 	0.1719	0.2393	0.88533	0.218
Mof_C 	C 	0.4782	0.8011	0.89876	-0.233
Mof_C 	C 	0.4528	0.746	0.8808	0.147
Mof_C 	C 	0.6089	0.2628	0.93235	-0.223
Mof_C 	C 	0.2313	0.3467	0.88066	0.37
Mof_C 	C 	0.1511	0.1891	0.9055	-0.332
Mof_C 	C 	0.2035	0.2374	0.96213	-0.309
Mof_C 	C 	0.1882	0.6777	0.94339	0.119
Mof_C 	C 	0.1307	0.0007	0.1919	-0.254
Mof_C 	C 	0.9774	0.9664	0.16429	-0.243
Mof_C 	C 	0.2182	0.623	0.88233	0.348
Mof_C 	C 	0.2229	0.2903	0.94177	0.2
Mof_C 	C 	0.9479	0.9625	0.20128	0.142
Mof_C 	C 	0.1256	0.42969	0.48172	-0.073
Mof_C 	C 	0.1135	0.55263	0.50456	0.009
Mof_C 	C 	0.1449	0.52774	0.5735	0.243
Mof_C 	C 	0.104	0.47555	0.45481	0.015
Mof_C 	C 	0.1363	0.5071	0.53204	-0.068
Mof_C 	C 	0.1423	0.44668	0.52099	0.012
Mof_C 	C 	0.0981	0.53746	0.46544	-0.071
Mof_C 	C 	0.5979	0.57184	0.52681	0.015
Mof_C 	C 	0.0624	0.58354	0.43559	0.248
Mof_C 	C 	0.6279	0.6051	0.45831	0.246
Mof_C 	C 	0.9679	0.2797	0.3971	-0.225
Mof_C 	C 	0.6383	0.4972	0.48034	0.017
Mof_C 	C 	0.6194	0.5572	0.48963	-0.073
Mof_C 	C 	0.6669	0.3859	0.49865	0.242
Mof_C 	C 	0.2053	0.49327	0.63916	0.223
Mof_C 	C 	0.6425	0.4496	0.50736	-0.082
Mof_C 	C 	0.4747	0.5275	0.77219	0.424
Mof_C 	C 	0.0681	0.69506	0.41989	0.229
Mof_C 	C 	0.0481	0.28717	0.42455	0.225
Mof_C 	C 	0.2147	0.4861	0.71951	-0.168
Mof_C 	C 	0.6002	0.5249	0.55438	-0.077
Mof_C 	C 	0.1291	0.36351	0.47158	0.24
Mof_C 	C 	0.6365	0.7173	0.44417	0.219
Mof_C 	C 	0.9854	0.1126	0.36798	0.377
Mof_C 	C 	0.2216	0.4839	0.76275	0.374
Mof_C 	C 	0.9498	0.2244	0.37894	0.13
Mof_C 	C 	0.5088	0.5223	0.73294	-0.205
Mof_C 	C 	0.1799	0.5435	0.66069	-0.224
Mof_C 	C 	0.183	0.5398	0.69937	0.127
Mof_C 	C 	0.6251	0.4648	0.54538	0.015
Mof_C 	C 	0.0909	0.182	0.41363	0.127
Mof_C 	C 	0.0116	0.8045	0.38302	-0.178
Mof_C 	C 	0.9802	0.8655	0.36352	0.408
Mof_C 	C 	0.5637	0.5407	0.59188	0.242
Mof_C 	C 	0.6681	0.3131	0.44357	0.313
Mof_C 	C 	0.5694	0.5151	0.66013	0.238
Mof_C 	C 	0.2378	0.4395	0.65874	-0.212
Mof_C 	C 	0.6	0.5022	0.728	0.155
Mof_C 	C 	0.0082	0.1735	0.38697	-0.172
Mof_C 	C 	0.2431	0.4365	0.69872	0.118
Mof_C 	C 	0.6849	0.822	0.40431	-0.16
Mof_C 	C 	0.709	0.2086	0.40313	-0.239
Mof_C 	C 	0.0993	0.8004	0.40434	0.133
Mof_C 	C 	0.6636	0.7708	0.46353	-0.212
Mof_C 	C 	0.6399	0.716	0.4049	-0.218
Mof_C 	C 	0.1298	0.7456	0.42252	-0.227
Mof_C 	C 	0.6628	0.7682	0.38542	0.123
Mof_C 	C 	0.6719	0.2607	0.38533	0.219
Mof_C 	C 	0.9782	0.6989	0.39876	-0.231
Mof_C 	C 	0.9528	0.754	0.3808	0.139
Mof_C 	C 	0.1089	0.2372	0.43235	-0.223
Mof_C 	C 	0.7313	0.1533	0.38066	0.37
Mof_C 	C 	0.6511	0.3109	0.4055	-0.333
Mof_C 	C 	0.7035	0.2626	0.46213	-0.31
Mof_C 	C 	0.6882	0.8223	0.44339	0.119
Mof_C 	C 	0.6307	0.4993	0.6919	-0.247
Mof_C 	C 	0.4774	0.5336	0.66429	-0.238
Mof_C 	C 	0.7182	0.877	0.38233	0.348
Mof_C 	C 	0.7229	0.2097	0.44177	0.2
Mof_C 	C 	0.4479	0.5375	0.70128	0.148
Mof_N 	N 	0.703	0.00787	0.0991	-0.256
Mof_N 	N 	0.5621	0.15436	0.9416	-0.258
Mof_N 	N 	0.5988	0.85957	0.94064	-0.262
Mof_N 	N 	0.1422	0.13231	0.96176	-0.279
Mof_N 	N 	0.1161	0.83515	0.96717	-0.249
Mof_N 	N 	0.1021	0.99102	0.12326	-0.259
Mof_N 	N 	0.203	0.49213	0.5991	-0.256
Mof_N 	N 	0.0621	0.34564	0.4416	-0.259
Mof_N 	N 	0.0988	0.64043	0.44064	-0.262
Mof_N 	N 	0.6422	0.36769	0.46176	-0.28
Mof_N 	N 	0.6161	0.66485	0.46717	-0.249
Mof_N 	N 	0.6021	0.50898	0.62326	-0.259
Mof_O 	O 	0.6013	0.92656	0.08309	-0.255
Mof_O 	O 	0.5012	0.93068	0.90969	-0.238
Mof_O 	O 	0.1484	0.9113	0.92679	-0.259
Mof_O 	O 	0.3371	0.51153	0.85052	-0.614
Mof_O 	O 	0.0003	0.91989	0.0925	-0.261
Mof_O 	O 	0.6859	0.17217	0.98844	-0.24
Mof_O 	O 	0.7572	0.06356	0.27921	-0.438
Mof_O 	O 	0.5244	0.58612	0.87391	-0.458
Mof_O 	O 	0.0247	0.99616	0.30032	-0.46
Mof_O 	O 	0.2083	0.14925	0.02311	-0.258
Mof_O 	O 	0.6952	0.96783	0.27952	-0.446
Mof_O 	O 	0.5315	0.43425	0.88114	-0.433
Mof_O 	O 	0.404	0.63935	0.84057	-0.459
Mof_O 	O 	0.4188	0.39134	0.84034	-0.432
Mof_O 	O 	0.8951	0.94529	0.27401	-0.47
Mof_O 	O 	0.2656	0.3938	0.89701	-0.38
Mof_O 	O 	0.2189	0.34462	0.8443	-0.41
Mof_O 	O 	0.2026	0.62392	0.84666	-0.406
Mof_O 	O 	0.2601	0.5802	0.90359	-0.261
Mof_O 	O 	0.1013	0.57344	0.58309	-0.255
Mof_O 	O 	0.0012	0.56932	0.40969	-0.237
Mof_O 	O 	0.6484	0.5887	0.42679	-0.259
Mof_O 	O 	0.8371	0.98847	0.35052	-0.615
Mof_O 	O 	0.5003	0.58011	0.5925	-0.263
Mof_O 	O 	0.1859	0.32783	0.48844	-0.24
Mof_O 	O 	0.2572	0.43644	0.77921	-0.438
Mof_O 	O 	0.0244	0.91388	0.37391	-0.453
Mof_O 	O 	0.5247	0.50384	0.80032	-0.466
Mof_O 	O 	0.7083	0.35075	0.52311	-0.259
Mof_O 	O 	0.1952	0.53217	0.77952	-0.446
Mof_O 	O 	0.0315	0.06575	0.38114	-0.434
Mof_O 	O 	0.904	0.86065	0.34057	-0.457
Mof_O 	O 	0.9188	0.10866	0.34034	-0.432
Mof_O 	O 	0.3951	0.55471	0.77401	-0.472
Mof_O 	O 	0.7656	0.1062	0.39701	-0.379
Mof_O 	O 	0.7189	0.15538	0.3443	-0.409
Mof_O 	O 	0.7026	0.87608	0.34666	-0.406
Mof_O 	O 	0.7601	0.9198	0.40359	-0.262
Mof_Co	Co	0.02164	0.00654	0.64865	1.173
Mof_Co	Co	0.20022	0.08416	0.68781	1.165
Mof_Co	Co	0.22829	0.93149	0.66226	1.161
Mof_Co	Co	0.52164	0.49346	0.14865	1.175
Mof_Co	Co	0.70022	0.41584	0.18781	1.165
Mof_Co	Co	0.72829	0.56851	0.16226	1.16
Mof_H 	H 	0.7574	0.5339	0.4107	0.156
Mof_H 	H 	0.9772	0.6251	0.5682	0.157
Mof_H 	H 	0.8916	0.4055	0.4876	0.041
Mof_H 	H 	0.907	0.5353	0.5717	0.043
Mof_H 	H 	0.842	0.5843	0.4601	0.047
Mof_H 	H 	0.8526	0.3553	0.5411	0.156
Mof_H 	H 	0.395	0.6066	0.5527	0.161
Mof_H 	H 	0.4063	0.3273	0.5107	0.136
Mof_H 	H 	0.35	0.5168	0.3794	0.135
Mof_H 	H 	0.418	0.3869	0.4668	0.034
Mof_H 	H 	0.0746	0.6864	0.609	0.12
Mof_H 	H 	0.3511	0.5123	0.5454	0.038
Mof_H 	H 	0.1048	0.7791	0.6398	0.006
Mof_H 	H 	0.84	0.419	0.352	0.125
Mof_H 	H 	0.8368	0.4255	0.2867	-0.003
Mof_H 	H 	0.3696	0.5661	0.4352	0.036
Mof_H 	H 	0.8649	0.8513	0.5813	0.009
Mof_H 	H 	0.7436	0.5952	0.3554	0.112
Mof_H 	H 	0.3571	0.5099	0.2502	-0.002
Mof_H 	H 	0.7336	0.6001	0.2883	0.011
Mof_H 	H 	0.8595	0.1644	0.5932	0.006
Mof_H 	H 	0.3347	0.2276	0.5092	0.112
Mof_H 	H 	0.3738	0.3215	0.6088	0.125
Mof_H 	H 	0.8078	0.2572	0.5634	0.12
Mof_H 	H 	0.3369	0.2333	0.6417	0.003
Mof_H 	H 	0.3396	0.7385	0.642	-0.023
Mof_H 	H 	0.0647	0.3355	0.6033	0.134
Mof_H 	H 	0.1089	0.2431	0.6339	0.001
Mof_H 	H 	0.8361	0.7588	0.5491	0.13
Mof_H 	H 	0.3766	0.654	0.6079	0.157
Mof_H 	H 	0.2846	0.7372	0.5106	0.155
Mof_H 	H 	0.292	0.1411	0.5429	0.013
Mof_H 	H 	0.3051	0.5139	0.311	0.118
Mof_H 	H 	0.5663	0.4562	0.3577	0.132
Mof_H 	H 	0.2537	0.8263	0.5446	-0.014
Mof_H 	H 	0.6159	0.4489	0.2957	-0.003
Mof_H 	H 	0.2574	0.9661	0.9107	0.156
Mof_H 	H 	0.4772	0.8749	0.0682	0.157
Mof_H 	H 	0.3916	0.0945	0.9876	0.041
Mof_H 	H 	0.407	0.9647	0.0717	0.043
Mof_H 	H 	0.342	0.9157	0.9601	0.047
Mof_H 	H 	0.3526	0.1447	0.0411	0.157
Mof_H 	H 	0.895	0.8934	0.0527	0.16
Mof_H 	H 	0.9063	0.1727	0.0107	0.136
Mof_H 	H 	0.85	0.9832	0.8794	0.134
Mof_H 	H 	0.918	0.1131	0.9668	0.035
Mof_H 	H 	0.5746	0.8136	0.109	0.12
Mof_H 	H 	0.8511	0.9877	0.0454	0.039
Mof_H 	H 	0.6048	0.7209	0.1398	0.006
Mof_H 	H 	0.34	0.081	0.852	0.125
Mof_H 	H 	0.3368	0.0745	0.7867	-0.003
Mof_H 	H 	0.8696	0.9339	0.9352	0.038
Mof_H 	H 	0.3649	0.6487	0.0813	0.009
Mof_H 	H 	0.2436	0.9048	0.8554	0.113
Mof_H 	H 	0.8571	0.9901	0.7502	-0.005
Mof_H 	H 	0.2336	0.8999	0.7883	0.011
Mof_H 	H 	0.3595	0.3356	0.0932	0.004
Mof_H 	H 	0.8347	0.2724	0.0092	0.112
Mof_H 	H 	0.8738	0.1785	0.1088	0.124
Mof_H 	H 	0.3078	0.2428	0.0634	0.121
Mof_H 	H 	0.8369	0.2667	0.1417	0.003
Mof_H 	H 	0.8396	0.7615	0.142	-0.024
Mof_H 	H 	0.5647	0.1645	0.1033	0.135
Mof_H 	H 	0.6089	0.2569	0.1339	-0.001
Mof_H 	H 	0.3361	0.7412	0.0491	0.13
Mof_H 	H 	0.8766	0.846	0.1079	0.156
Mof_H 	H 	0.7846	0.7628	0.0106	0.155
Mof_H 	H 	0.792	0.3589	0.0429	0.013
Mof_H 	H 	0.8051	0.9861	0.811	0.12
Mof_H 	H 	0.0663	0.0438	0.8577	0.133
Mof_H 	H 	0.7537	0.6737	0.0446	-0.014
Mof_H 	H 	0.1159	0.0511	0.7957	-0.001
Mof_C 	C 	0.8744	0.57031	0.51828	-0.073
Mof_C 	C 	0.8865	0.44737	0.49544	0.009
Mof_C 	C 	0.8551	0.47226	0.4265	0.243
Mof_C 	C 	0.896	0.52445	0.54519	0.015
Mof_C 	C 	0.8637	0.4929	0.46796	-0.068
Mof_C 	C 	0.8577	0.55332	0.47901	0.012
Mof_C 	C 	0.9019	0.46254	0.53456	-0.071
Mof_C 	C 	0.4021	0.42816	0.47319	0.015
Mof_C 	C 	0.9376	0.41646	0.56441	0.248
Mof_C 	C 	0.3721	0.3949	0.54169	0.246
Mof_C 	C 	0.0321	0.7203	0.6029	-0.225
Mof_C 	C 	0.3617	0.5028	0.51966	0.017
Mof_C 	C 	0.3806	0.4428	0.51037	-0.073
Mof_C 	C 	0.3331	0.6141	0.50135	0.242
Mof_C 	C 	0.7947	0.50673	0.36084	0.223
Mof_C 	C 	0.3575	0.5504	0.49264	-0.082
Mof_C 	C 	0.5253	0.4725	0.22781	0.424
Mof_C 	C 	0.9319	0.30494	0.58011	0.229
Mof_C 	C 	0.9519	0.71283	0.57545	0.225
Mof_C 	C 	0.7853	0.5139	0.28049	-0.168
Mof_C 	C 	0.3998	0.4751	0.44562	-0.077
Mof_C 	C 	0.8709	0.63649	0.52842	0.24
Mof_C 	C 	0.3635	0.2827	0.55583	0.219
Mof_C 	C 	0.0146	0.8874	0.63202	0.377
Mof_C 	C 	0.7784	0.5161	0.23725	0.374
Mof_C 	C 	0.0502	0.7756	0.62106	0.13
Mof_C 	C 	0.4912	0.4777	0.26706	-0.205
Mof_C 	C 	0.8201	0.4565	0.33931	-0.224
Mof_C 	C 	0.817	0.4602	0.30063	0.127
Mof_C 	C 	0.3749	0.5352	0.45462	0.015
Mof_C 	C 	0.9091	0.818	0.58637	0.127
Mof_C 	C 	0.9884	0.1955	0.61698	-0.178
Mof_C 	C 	0.0198	0.1345	0.63648	0.408
Mof_C 	C 	0.4363	0.4593	0.40812	0.242
Mof_C 	C 	0.3319	0.6869	0.55643	0.313
Mof_C 	C 	0.4306	0.4849	0.33987	0.238
Mof_C 	C 	0.7622	0.5605	0.34126	-0.212
Mof_C 	C 	0.4	0.4978	0.272	0.155
Mof_C 	C 	0.9918	0.8265	0.61303	-0.172
Mof_C 	C 	0.7569	0.5635	0.30128	0.118
Mof_C 	C 	0.3151	0.178	0.59569	-0.16
Mof_C 	C 	0.291	0.7914	0.59687	-0.239
Mof_C 	C 	0.9007	0.1996	0.59566	0.133
Mof_C 	C 	0.3364	0.2292	0.53647	-0.212
Mof_C 	C 	0.3601	0.284	0.5951	-0.218
Mof_C 	C 	0.8702	0.2544	0.57748	-0.227
Mof_C 	C 	0.3372	0.2318	0.61458	0.123
Mof_C 	C 	0.3281	0.7393	0.61467	0.219
Mof_C 	C 	0.0218	0.3011	0.60124	-0.231
Mof_C 	C 	0.0472	0.246	0.6192	0.139
Mof_C 	C 	0.8911	0.7628	0.56765	-0.223
Mof_C 	C 	0.2687	0.8467	0.61934	0.37
Mof_C 	C 	0.3489	0.6891	0.5945	-0.333
Mof_C 	C 	0.2965	0.7374	0.53787	-0.31
Mof_C 	C 	0.3118	0.1777	0.55661	0.119
Mof_C 	C 	0.3693	0.5007	0.3081	-0.247
Mof_C 	C 	0.5226	0.4664	0.33571	-0.238
Mof_C 	C 	0.2818	0.123	0.61767	0.348
Mof_C 	C 	0.2771	0.7903	0.55823	0.2
Mof_C 	C 	0.5521	0.4625	0.29872	0.148
Mof_C 	C 	0.3744	0.92969	0.01828	-0.074
Mof_C 	C 	0.3865	0.05263	0.99544	0.01
Mof_C 	C 	0.3551	0.02774	0.9265	0.243
Mof_C 	C 	0.396	0.97555	0.04519	0.016
Mof_C 	C 	0.3637	0.0071	0.96796	-0.069
Mof_C 	C 	0.3577	0.94668	0.97901	0.013
Mof_C 	C 	0.4019	0.03746	0.03456	-0.072
Mof_C 	C 	0.9021	0.07184	0.97319	0.012
Mof_C 	C 	0.4376	0.08354	0.06441	0.248
Mof_C 	C 	0.8721	0.1051	0.04169	0.245
Mof_C 	C 	0.5321	0.7797	0.1029	-0.225
Mof_C 	C 	0.8617	0.9972	0.01966	0.011
Mof_C 	C 	0.8806	0.0572	0.01037	-0.068
Mof_C 	C 	0.8331	0.8859	0.00135	0.24
Mof_C 	C 	0.2947	0.99327	0.86084	0.225
Mof_C 	C 	0.8575	0.9496	0.99264	-0.078
Mof_C 	C 	0.0253	0.0275	0.72781	0.414
Mof_C 	C 	0.4319	0.19506	0.08011	0.229
Mof_C 	C 	0.4519	0.78717	0.07545	0.225
Mof_C 	C 	0.2853	0.9861	0.78049	-0.167
Mof_C 	C 	0.8998	0.0249	0.94562	-0.073
Mof_C 	C 	0.3709	0.86351	0.02842	0.24
Mof_C 	C 	0.8635	0.2173	0.05583	0.219
Mof_C 	C 	0.5146	0.6126	0.13202	0.377
Mof_C 	C 	0.2784	0.9839	0.73725	0.376
Mof_C 	C 	0.5502	0.7244	0.12106	0.13
Mof_C 	C 	0.9912	0.0223	0.76706	-0.196
Mof_C 	C 	0.3201	0.0435	0.83931	-0.225
Mof_C 	C 	0.317	0.0398	0.80063	0.126
Mof_C 	C 	0.8749	0.9648	0.95462	0.01
Mof_C 	C 	0.4091	0.682	0.08637	0.126
Mof_C 	C 	0.4884	0.3045	0.11698	-0.189
Mof_C 	C 	0.5198	0.3655	0.13648	0.417
Mof_C 	C 	0.9363	0.0407	0.90812	0.241
Mof_C 	C 	0.8319	0.8131	0.05643	0.312
Mof_C 	C 	0.9306	0.0151	0.83987	0.246
Mof_C 	C 	0.2622	0.9395	0.84126	-0.212
Mof_C 	C 	0.9	0.0022	0.772	0.159
Mof_C 	C 	0.4918	0.6735	0.11303	-0.171
Mof_C 	C 	0.2569	0.9365	0.80128	0.118
Mof_C 	C 	0.8151	0.322	0.09569	-0.16
Mof_C 	C 	0.791	0.7086	0.09687	-0.239
Mof_C 	C 	0.4007	0.3004	0.09566	0.139
Mof_C 	C 	0.8364	0.2708	0.03647	-0.212
Mof_C 	C 	0.8601	0.216	0.0951	-0.218
Mof_C 	C 	0.3702	0.2456	0.07748	-0.23
Mof_C 	C 	0.8372	0.2682	0.11458	0.123
Mof_C 	C 	0.8281	0.7607	0.11467	0.218
Mof_C 	C 	0.5218	0.1989	0.10124	-0.233
Mof_C 	C 	0.5472	0.254	0.1192	0.147
Mof_C 	C 	0.3911	0.7372	0.06765	-0.223
Mof_C 	C 	0.7687	0.6533	0.11934	0.37
Mof_C 	C 	0.8489	0.8109	0.0945	-0.332
Mof_C 	C 	0.7965	0.7626	0.03787	-0.309
Mof_C 	C 	0.8118	0.3223	0.05661	0.119
Mof_C 	C 	0.8693	0.9993	0.8081	-0.254
Mof_C 	C 	0.0226	0.0336	0.83571	-0.243
Mof_C 	C 	0.7818	0.377	0.11767	0.348
Mof_C 	C 	0.7771	0.7097	0.05823	0.2
Mof_C 	C 	0.0521	0.0375	0.79872	0.142
Mof_N 	N 	0.797	0.50787	0.4009	-0.256
Mof_N 	N 	0.9379	0.65436	0.5584	-0.259
Mof_N 	N 	0.9012	0.35957	0.55936	-0.262
Mof_N 	N 	0.3578	0.63231	0.53824	-0.28
Mof_N 	N 	0.3839	0.33515	0.53283	-0.249
Mof_N 	N 	0.3979	0.49102	0.37674	-0.259
Mof_N 	N 	0.297	0.99213	0.9009	-0.256
Mof_N 	N 	0.4379	0.84564	0.0584	-0.258
Mof_N 	N 	0.4012	0.14043	0.05936	-0.262
Mof_N 	N 	0.8578	0.86769	0.03824	-0.279
Mof_N 	N 	0.8839	0.16485	0.03283	-0.249
Mof_N 	N 	0.8979	0.00898	0.87674	-0.259
Mof_O 	O 	0.8987	0.42656	0.41691	-0.255
Mof_O 	O 	0.9988	0.43068	0.59031	-0.237
Mof_O 	O 	0.3516	0.4113	0.57321	-0.259
Mof_O 	O 	0.1629	0.01153	0.64948	-0.615
Mof_O 	O 	0.4997	0.41989	0.4075	-0.263
Mof_O 	O 	0.8141	0.67217	0.51156	-0.24
Mof_O 	O 	0.7428	0.56356	0.22079	-0.438
Mof_O 	O 	0.9756	0.08612	0.62609	-0.453
Mof_O 	O 	0.4753	0.49616	0.19968	-0.466
Mof_O 	O 	0.2917	0.64925	0.47689	-0.259
Mof_O 	O 	0.8048	0.46783	0.22048	-0.446
Mof_O 	O 	0.9685	0.93425	0.61886	-0.434
Mof_O 	O 	0.096	0.13935	0.65943	-0.457
Mof_O 	O 	0.0812	0.89134	0.65966	-0.432
Mof_O 	O 	0.6049	0.44529	0.22599	-0.472
Mof_O 	O 	0.2344	0.8938	0.60299	-0.379
Mof_O 	O 	0.2811	0.84462	0.6557	-0.409
Mof_O 	O 	0.2974	0.12392	0.65334	-0.406
Mof_O 	O 	0.2399	0.0802	0.59641	-0.262
Mof_O 	O 	0.3987	0.07344	0.91691	-0.255
Mof_O 	O 	0.4988	0.06932	0.09031	-0.238
Mof_O 	O 	0.8516	0.0887	0.07321	-0.259
Mof_O 	O 	0.6629	0.48847	0.14948	-0.614
Mof_O 	O 	0.9997	0.08011	0.9075	-0.261
Mof_O 	O 	0.3141	0.82783	0.01156	-0.24
Mof_O 	O 	0.2428	0.93644	0.72079	-0.438
Mof_O 	O 	0.4756	0.41388	0.12609	-0.458
Mof_O 	O 	0.9753	0.00384	0.69968	-0.46
Mof_O 	O 	0.7917	0.85075	0.97689	-0.258
Mof_O 	O 	0.3048	0.03217	0.72048	-0.446
Mof_O 	O 	0.4685	0.56575	0.11886	-0.433
Mof_O 	O 	0.596	0.36065	0.15943	-0.459
Mof_O 	O 	0.5812	0.60866	0.15966	-0.432
Mof_O 	O 	0.1049	0.05471	0.72599	-0.47
Mof_O 	O 	0.7344	0.6062	0.10299	-0.38
Mof_O 	O 	0.7811	0.65538	0.1557	-0.41
Mof_O 	O 	0.7974	0.37608	0.15334	-0.406
Mof_O 	O 	0.7399	0.4198	0.09641	-0.261
_end
