# CIF file generated by openbabel 3.1.0, see https://openbabel.org
data_I
_chemical_name_common 'image0'
_cell_length_a 17.629
_cell_length_b 19.797
_cell_length_c 13.2566
_cell_angle_alpha 90
_cell_angle_beta 131.7
_cell_angle_gamma 90
_space_group_name_H-M_alt 'P 1'
_space_group_name_Hall 'P 1'
loop_
    _symmetry_equiv_pos_as_xyz
    x,y,z
loop_
    _atom_site_label
    _atom_site_type_symbol
    _atom_site_fract_x
    _atom_site_fract_y
    _atom_site_fract_z
    _atom_site_occupancy
    Ce1      Ce       0.39237    0.01738    0.28468    1.000
    Ce2      Ce       0.10752    0.76738    0.21520    1.000
    O1       O        0.47184    0.11577    0.25930    1.000
    O2       O        0.56070    0.21254    0.33240    1.000
    O3       O        0.39790    0.00464    0.48080    1.000
    O4       O        0.44270    0.04140    0.67450    1.000
    O5       O        0.21291    0.86543    0.24100    1.000
    O6       O        0.22850    0.96230    0.16740    1.000
    O7       O        0.91712    0.75488    0.01870    1.000
    O8       O        0.76789    0.79146    0.82510    1.000
    N1       N        0.48530    0.11131    0.47120    1.000
    N2       N        0.01390    0.86069    0.02820    1.000
    C1       C        0.53060    0.16279    0.46490    1.000
    C2       C        0.58310    0.21266    0.56380    1.000
    H1       H        0.61640    0.24710    0.55900    1.000
    C3       C        0.58480    0.20990    0.66970    1.000
    H2       H        0.61790    0.24320    0.73600    1.000
    C4       C        0.53620    0.15661    0.67550    1.000
    H3       H        0.53550    0.15390    0.74490    1.000
    C5       C        0.48910    0.10782    0.57570    1.000
    C6       C        0.51990    0.16391    0.34180    1.000
    C7       C        0.43930    0.04646    0.57730    1.000
    C8       C        0.06610    0.91237    0.03520    1.000
    C9       C        0.01940    0.96290    0.93610    1.000
    H4       H        0.05740    0.99770    0.94120    1.000
    C10      C        0.91550    0.95960    0.83050    1.000
    H5       H        0.88230    0.99270    0.76380    1.000
    C11      C        0.86110    0.90679    0.82450    1.000
    H6       H        0.79090    0.90430    0.75530    1.000
    C12      C        0.91370    0.85776    0.92390    1.000
    C13      C        0.17850    0.91354    0.15780    1.000
    C14      C        0.86240    0.79608    0.92280    1.000
    Ce3      Ce       0.89237    0.51738    0.28468    1.000
    Ce4      Ce       0.60752    0.26738    0.21520    1.000
    O9       O        0.97184    0.61577    0.25930    1.000
    O10      O        0.06070    0.71254    0.33240    1.000
    O11      O        0.89790    0.50464    0.48080    1.000
    O12      O        0.94270    0.54140    0.67450    1.000
    O13      O        0.71291    0.36543    0.24100    1.000
    O14      O        0.72850    0.46230    0.16740    1.000
    O15      O        0.41712    0.25488    0.01870    1.000
    O16      O        0.26789    0.29146    0.82510    1.000
    N3       N        0.98530    0.61131    0.47120    1.000
    N4       N        0.51390    0.36069    0.02820    1.000
    C15      C        0.03060    0.66279    0.46490    1.000
    C16      C        0.08310    0.71266    0.56380    1.000
    H7       H        0.11640    0.74710    0.55900    1.000
    C17      C        0.08480    0.70990    0.66970    1.000
    H8       H        0.11790    0.74320    0.73600    1.000
    C18      C        0.03620    0.65661    0.67550    1.000
    H9       H        0.03550    0.65390    0.74490    1.000
    C19      C        0.98910    0.60782    0.57570    1.000
    C20      C        0.01990    0.66391    0.34180    1.000
    C21      C        0.93930    0.54646    0.57730    1.000
    C22      C        0.56610    0.41237    0.03520    1.000
    C23      C        0.51940    0.46290    0.93610    1.000
    H10      H        0.55740    0.49770    0.94120    1.000
    C24      C        0.41550    0.45960    0.83050    1.000
    H11      H        0.38230    0.49270    0.76380    1.000
    C25      C        0.36110    0.40679    0.82450    1.000
    H12      H        0.29090    0.40430    0.75530    1.000
    C26      C        0.41370    0.35776    0.92390    1.000
    C27      C        0.67850    0.41354    0.15780    1.000
    C28      C        0.36240    0.29608    0.92280    1.000
    Ce5      Ce       0.39237    0.98262    0.78468    1.000
    Ce6      Ce       0.10752    0.23262    0.71520    1.000
    O17      O        0.47184    0.88423    0.75930    1.000
    O18      O        0.56070    0.78746    0.83240    1.000
    O19      O        0.39790    0.99536    0.98080    1.000
    O20      O        0.44270    0.95860    0.17450    1.000
    O21      O        0.21291    0.13457    0.74100    1.000
    O22      O        0.22850    0.03770    0.66740    1.000
    O23      O        0.91712    0.24512    0.51870    1.000
    O24      O        0.76789    0.20854    0.32510    1.000
    N5       N        0.48530    0.88869    0.97120    1.000
    N6       N        0.01390    0.13931    0.52820    1.000
    C29      C        0.53060    0.83721    0.96490    1.000
    C30      C        0.58310    0.78734    0.06380    1.000
    H13      H        0.61640    0.75290    0.05900    1.000
    C31      C        0.58480    0.79010    0.16970    1.000
    H14      H        0.61790    0.75680    0.23600    1.000
    C32      C        0.53620    0.84339    0.17550    1.000
    H15      H        0.53550    0.84610    0.24490    1.000
    C33      C        0.48910    0.89218    0.07570    1.000
    C34      C        0.51990    0.83609    0.84180    1.000
    C35      C        0.43930    0.95354    0.07730    1.000
    C36      C        0.06610    0.08763    0.53520    1.000
    C37      C        0.01940    0.03710    0.43610    1.000
    H16      H        0.05740    0.00230    0.44120    1.000
    C38      C        0.91550    0.04040    0.33050    1.000
    H17      H        0.88230    0.00730    0.26380    1.000
    C39      C        0.86110    0.09321    0.32450    1.000
    H18      H        0.79090    0.09570    0.25530    1.000
    C40      C        0.91370    0.14224    0.42390    1.000
    C41      C        0.17850    0.08646    0.65780    1.000
    C42      C        0.86240    0.20392    0.42280    1.000
    Ce7      Ce       0.89237    0.48262    0.78468    1.000
    Ce8      Ce       0.60752    0.73262    0.71520    1.000
    O25      O        0.97184    0.38423    0.75930    1.000
    O26      O        0.06070    0.28746    0.83240    1.000
    O27      O        0.89790    0.49536    0.98080    1.000
    O28      O        0.94270    0.45860    0.17450    1.000
    O29      O        0.71291    0.63457    0.74100    1.000
    O30      O        0.72850    0.53770    0.66740    1.000
    O31      O        0.41712    0.74512    0.51870    1.000
    O32      O        0.26789    0.70854    0.32510    1.000
    N7       N        0.98530    0.38869    0.97120    1.000
    N8       N        0.51390    0.63931    0.52820    1.000
    C43      C        0.03060    0.33721    0.96490    1.000
    C44      C        0.08310    0.28734    0.06380    1.000
    H19      H        0.11640    0.25290    0.05900    1.000
    C45      C        0.08480    0.29010    0.16970    1.000
    H20      H        0.11790    0.25680    0.23600    1.000
    C46      C        0.03620    0.34339    0.17550    1.000
    H21      H        0.03550    0.34610    0.24490    1.000
    C47      C        0.98910    0.39218    0.07570    1.000
    C48      C        0.01990    0.33609    0.84180    1.000
    C49      C        0.93930    0.45354    0.07730    1.000
    C50      C        0.56610    0.58763    0.53520    1.000
    C51      C        0.51940    0.53710    0.43610    1.000
    H22      H        0.55740    0.50230    0.44120    1.000
    C52      C        0.41550    0.54040    0.33050    1.000
    H23      H        0.38230    0.50730    0.26380    1.000
    C53      C        0.36110    0.59321    0.32450    1.000
    H24      H        0.29090    0.59570    0.25530    1.000
    C54      C        0.41370    0.64224    0.42390    1.000
    C55      C        0.67850    0.58646    0.65780    1.000
    C56      C        0.36240    0.70392    0.42280    1.000
