# CIF file generated by openbabel 3.1.0, see https://openbabel.org
data_I
_chemical_name_common 'image0'
_cell_length_a 16.3307
_cell_length_b 29.0681
_cell_length_c 9.2803
_cell_angle_alpha 90
_cell_angle_beta 96.324
_cell_angle_gamma 90
_space_group_name_H-M_alt 'P 1'
_space_group_name_Hall 'P 1'
loop_
    _symmetry_equiv_pos_as_xyz
    x,y,z
loop_
    _atom_site_label
    _atom_site_type_symbol
    _atom_site_fract_x
    _atom_site_fract_y
    _atom_site_fract_z
    _atom_site_occupancy
    Zn1      Zn       0.99208    0.23065    0.57077    1.000
    C1       C        0.03080    0.38894    0.63900    1.000
    O1       O        0.01239    0.29361    0.63410    1.000
    O2       O        0.61488    0.70960    0.88080    1.000
    C2       C        0.92650    0.53637    0.75690    1.000
    O3       O        0.57748    0.68845    0.65180    1.000
    C3       C        0.62680    0.68867    0.76570    1.000
    C4       C        0.92640    0.58439    0.75650    1.000
    C5       C        0.84810    0.61032    0.76120    1.000
    C6       C        0.03090    0.43626    0.63940    1.000
    C7       C        0.70350    0.66102    0.76600    1.000
    C8       C        0.78280    0.60432    0.65530    1.000
    C9       C        0.71210    0.63026    0.65560    1.000
    C10      C        0.76760    0.66606    0.87490    1.000
    H1       H        0.76240    0.68640    0.95070    1.000
    C11      C        0.83910    0.64119    0.87220    1.000
    H2       H        0.88190    0.64510    0.94580    1.000
    C12      C        0.11360    0.22320    0.20320    1.000
    C13      C        0.14110    0.18930    0.27300    1.000
    C14      C        0.11110    0.22550    0.34500    1.000
    H3       H        0.05100    0.37530    0.56600    1.000
    H4       H        0.66700    0.62330    0.58900    1.000
    H5       H        0.78900    0.57600    0.58100    1.000
    H6       H        0.05500    0.45700    0.53500    1.000
    N1       N        0.02640    0.22830    0.37180    1.000
    N2       N        0.96330    0.22867    0.36090    1.000
    C15      C        0.10010    0.24440    0.27780    1.000
    N3       N        0.85230    0.51370    0.76480    1.000
    Zn2      Zn       0.49208    0.73065    0.57077    1.000
    C16      C        0.53080    0.88894    0.63900    1.000
    O4       O        0.51239    0.79361    0.63410    1.000
    O5       O        0.11488    0.20960    0.88080    1.000
    C17      C        0.42650    0.03637    0.75690    1.000
    O6       O        0.07748    0.18845    0.65180    1.000
    C18      C        0.12680    0.18867    0.76570    1.000
    C19      C        0.42640    0.08439    0.75650    1.000
    C20      C        0.34810    0.11032    0.76120    1.000
    C21      C        0.53090    0.93626    0.63940    1.000
    C22      C        0.20350    0.16102    0.76600    1.000
    C23      C        0.28280    0.10432    0.65530    1.000
    C24      C        0.21210    0.13026    0.65560    1.000
    C25      C        0.26760    0.16606    0.87490    1.000
    H7       H        0.26240    0.18640    0.95070    1.000
    C26      C        0.33910    0.14119    0.87220    1.000
    H8       H        0.38190    0.14510    0.94580    1.000
    C27      C        0.61360    0.72320    0.20320    1.000
    C28      C        0.64110    0.68930    0.27300    1.000
    C29      C        0.61110    0.72550    0.34500    1.000
    H9       H        0.55100    0.87530    0.56600    1.000
    H10      H        0.16700    0.12330    0.58900    1.000
    H11      H        0.28900    0.07600    0.58100    1.000
    H12      H        0.55500    0.95700    0.53500    1.000
    N4       N        0.52640    0.72830    0.37180    1.000
    N5       N        0.46330    0.72867    0.36090    1.000
    C30      C        0.60010    0.74440    0.27780    1.000
    N6       N        0.35230    0.01370    0.76480    1.000
    Zn3      Zn       0.00792    0.23065    0.92923    1.000
    C31      C        0.96920    0.38894    0.86100    1.000
    O7       O        0.98761    0.29361    0.86590    1.000
    O8       O        0.38512    0.70960    0.61920    1.000
    C32      C        0.07350    0.53637    0.74310    1.000
    O9       O        0.42252    0.68845    0.84820    1.000
    C33      C        0.37320    0.68867    0.73430    1.000
    C34      C        0.07360    0.58439    0.74350    1.000
    C35      C        0.15190    0.61032    0.73880    1.000
    C36      C        0.96910    0.43626    0.86060    1.000
    C37      C        0.29650    0.66102    0.73400    1.000
    C38      C        0.21720    0.60432    0.84470    1.000
    C39      C        0.28790    0.63026    0.84440    1.000
    C40      C        0.23240    0.66606    0.62510    1.000
    H13      H        0.23760    0.68640    0.54930    1.000
    C41      C        0.16090    0.64119    0.62780    1.000
    H14      H        0.11810    0.64510    0.55420    1.000
    C42      C        0.88640    0.22320    0.29680    1.000
    C43      C        0.85890    0.18930    0.22700    1.000
    C44      C        0.88890    0.22550    0.15500    1.000
    H15      H        0.94900    0.37530    0.93400    1.000
    H16      H        0.33300    0.62330    0.91100    1.000
    H17      H        0.21100    0.57600    0.91900    1.000
    H18      H        0.94500    0.45700    0.96500    1.000
    N7       N        0.97360    0.22830    0.12820    1.000
    N8       N        0.03670    0.22867    0.13910    1.000
    C45      C        0.89990    0.24440    0.22220    1.000
    N9       N        0.14770    0.51370    0.73520    1.000
    Zn4      Zn       0.50792    0.73065    0.92923    1.000
    C46      C        0.46920    0.88894    0.86100    1.000
    O10      O        0.48761    0.79361    0.86590    1.000
    O11      O        0.88512    0.20960    0.61920    1.000
    C47      C        0.57350    0.03637    0.74310    1.000
    O12      O        0.92252    0.18845    0.84820    1.000
    C48      C        0.87320    0.18867    0.73430    1.000
    C49      C        0.57360    0.08439    0.74350    1.000
    C50      C        0.65190    0.11032    0.73880    1.000
    C51      C        0.46910    0.93626    0.86060    1.000
    C52      C        0.79650    0.16102    0.73400    1.000
    C53      C        0.71720    0.10432    0.84470    1.000
    C54      C        0.78790    0.13026    0.84440    1.000
    C55      C        0.73240    0.16606    0.62510    1.000
    H19      H        0.73760    0.18640    0.54930    1.000
    C56      C        0.66090    0.14119    0.62780    1.000
    H20      H        0.61810    0.14510    0.55420    1.000
    C57      C        0.38640    0.72320    0.29680    1.000
    C58      C        0.35890    0.68930    0.22700    1.000
    C59      C        0.38890    0.72550    0.15500    1.000
    H21      H        0.44900    0.87530    0.93400    1.000
    H22      H        0.83300    0.12330    0.91100    1.000
    H23      H        0.71100    0.07600    0.91900    1.000
    H24      H        0.44500    0.95700    0.96500    1.000
    N10      N        0.47360    0.72830    0.12820    1.000
    N11      N        0.53670    0.72867    0.13910    1.000
    C60      C        0.39990    0.74440    0.22220    1.000
    N12      N        0.64770    0.01370    0.73520    1.000
    C61      C        0.00000    0.60789    0.75000    1.000
    C62      C        0.00000    0.31380    0.75000    1.000
    C63      C        0.00000    0.46119    0.75000    1.000
    C64      C        0.00000    0.36446    0.75000    1.000
    C65      C        0.00000    0.51185    0.75000    1.000
    N13      N        0.00000    0.65370    0.75000    1.000
    C66      C        0.50000    0.10789    0.75000    1.000
    C67      C        0.50000    0.81380    0.75000    1.000
    C68      C        0.50000    0.96119    0.75000    1.000
    C69      C        0.50000    0.86446    0.75000    1.000
    C70      C        0.50000    0.01185    0.75000    1.000
    N14      N        0.50000    0.15370    0.75000    1.000
    C71      C        0.00000    0.23061    0.25000    1.000
    C72      C        0.50000    0.73061    0.25000    1.000
    Zn5      Zn       0.00792    0.76935    0.42923    1.000
    C73      C        0.96920    0.61106    0.36100    1.000
    O13      O        0.98761    0.70639    0.36590    1.000
    O14      O        0.38512    0.29040    0.11920    1.000
    C74      C        0.07350    0.46363    0.24310    1.000
    O15      O        0.42252    0.31155    0.34820    1.000
    C75      C        0.37320    0.31133    0.23430    1.000
    C76      C        0.07360    0.41561    0.24350    1.000
    C77      C        0.15190    0.38968    0.23880    1.000
    C78      C        0.96910    0.56374    0.36060    1.000
    C79      C        0.29650    0.33898    0.23400    1.000
    C80      C        0.21720    0.39568    0.34470    1.000
    C81      C        0.28790    0.36974    0.34440    1.000
    C82      C        0.23240    0.33394    0.12510    1.000
    H25      H        0.23760    0.31360    0.04930    1.000
    C83      C        0.16090    0.35881    0.12780    1.000
    H26      H        0.11810    0.35490    0.05420    1.000
    C84      C        0.88640    0.77680    0.79680    1.000
    C85      C        0.85890    0.81070    0.72700    1.000
    C86      C        0.88890    0.77450    0.65500    1.000
    H27      H        0.94900    0.62470    0.43400    1.000
    H28      H        0.33300    0.37670    0.41100    1.000
    H29      H        0.21100    0.42400    0.41900    1.000
    H30      H        0.94500    0.54300    0.46500    1.000
    N15      N        0.97360    0.77170    0.62820    1.000
    N16      N        0.03670    0.77133    0.63910    1.000
    C87      C        0.89990    0.75560    0.72220    1.000
    N17      N        0.14770    0.48630    0.23520    1.000
    Zn6      Zn       0.50792    0.26935    0.42923    1.000
    C88      C        0.46920    0.11106    0.36100    1.000
    O16      O        0.48761    0.20639    0.36590    1.000
    O17      O        0.88512    0.79040    0.11920    1.000
    C89      C        0.57350    0.96363    0.24310    1.000
    O18      O        0.92252    0.81155    0.34820    1.000
    C90      C        0.87320    0.81133    0.23430    1.000
    C91      C        0.57360    0.91561    0.24350    1.000
    C92      C        0.65190    0.88968    0.23880    1.000
    C93      C        0.46910    0.06374    0.36060    1.000
    C94      C        0.79650    0.83898    0.23400    1.000
    C95      C        0.71720    0.89568    0.34470    1.000
    C96      C        0.78790    0.86974    0.34440    1.000
    C97      C        0.73240    0.83394    0.12510    1.000
    H31      H        0.73760    0.81360    0.04930    1.000
    C98      C        0.66090    0.85881    0.12780    1.000
    H32      H        0.61810    0.85490    0.05420    1.000
    C99      C        0.38640    0.27680    0.79680    1.000
    C100     C        0.35890    0.31070    0.72700    1.000
    C101     C        0.38890    0.27450    0.65500    1.000
    H33      H        0.44900    0.12470    0.43400    1.000
    H34      H        0.83300    0.87670    0.41100    1.000
    H35      H        0.71100    0.92400    0.41900    1.000
    H36      H        0.44500    0.04300    0.46500    1.000
    N18      N        0.47360    0.27170    0.62820    1.000
    N19      N        0.53670    0.27133    0.63910    1.000
    C102     C        0.39990    0.25560    0.72220    1.000
    N20      N        0.64770    0.98630    0.23520    1.000
    Zn7      Zn       0.99208    0.76935    0.07077    1.000
    C103     C        0.03080    0.61106    0.13900    1.000
    O19      O        0.01239    0.70639    0.13410    1.000
    O20      O        0.61488    0.29040    0.38080    1.000
    C104     C        0.92650    0.46363    0.25690    1.000
    O21      O        0.57748    0.31155    0.15180    1.000
    C105     C        0.62680    0.31133    0.26570    1.000
    C106     C        0.92640    0.41561    0.25650    1.000
    C107     C        0.84810    0.38968    0.26120    1.000
    C108     C        0.03090    0.56374    0.13940    1.000
    C109     C        0.70350    0.33898    0.26600    1.000
    C110     C        0.78280    0.39568    0.15530    1.000
    C111     C        0.71210    0.36974    0.15560    1.000
    C112     C        0.76760    0.33394    0.37490    1.000
    H37      H        0.76240    0.31360    0.45070    1.000
    C113     C        0.83910    0.35881    0.37220    1.000
    H38      H        0.88190    0.35490    0.44580    1.000
    C114     C        0.11360    0.77680    0.70320    1.000
    C115     C        0.14110    0.81070    0.77300    1.000
    C116     C        0.11110    0.77450    0.84500    1.000
    H39      H        0.05100    0.62470    0.06600    1.000
    H40      H        0.66700    0.37670    0.08900    1.000
    H41      H        0.78900    0.42400    0.08100    1.000
    H42      H        0.05500    0.54300    0.03500    1.000
    N21      N        0.02640    0.77170    0.87180    1.000
    N22      N        0.96330    0.77133    0.86090    1.000
    C117     C        0.10010    0.75560    0.77780    1.000
    N23      N        0.85230    0.48630    0.26480    1.000
    Zn8      Zn       0.49208    0.26935    0.07077    1.000
    C118     C        0.53080    0.11106    0.13900    1.000
    O22      O        0.51239    0.20639    0.13410    1.000
    O23      O        0.11488    0.79040    0.38080    1.000
    C119     C        0.42650    0.96363    0.25690    1.000
    O24      O        0.07748    0.81155    0.15180    1.000
    C120     C        0.12680    0.81133    0.26570    1.000
    C121     C        0.42640    0.91561    0.25650    1.000
    C122     C        0.34810    0.88968    0.26120    1.000
    C123     C        0.53090    0.06374    0.13940    1.000
    C124     C        0.20350    0.83898    0.26600    1.000
    C125     C        0.28280    0.89568    0.15530    1.000
    C126     C        0.21210    0.86974    0.15560    1.000
    C127     C        0.26760    0.83394    0.37490    1.000
    H43      H        0.26240    0.81360    0.45070    1.000
    C128     C        0.33910    0.85881    0.37220    1.000
    H44      H        0.38190    0.85490    0.44580    1.000
    C129     C        0.61360    0.27680    0.70320    1.000
    C130     C        0.64110    0.31070    0.77300    1.000
    C131     C        0.61110    0.27450    0.84500    1.000
    H45      H        0.55100    0.12470    0.06600    1.000
    H46      H        0.16700    0.87670    0.08900    1.000
    H47      H        0.28900    0.92400    0.08100    1.000
    H48      H        0.55500    0.04300    0.03500    1.000
    N24      N        0.52640    0.27170    0.87180    1.000
    N25      N        0.46330    0.27133    0.86090    1.000
    C132     C        0.60010    0.25560    0.77780    1.000
    N26      N        0.35230    0.98630    0.26480    1.000
    C133     C        0.00000    0.39211    0.25000    1.000
    C134     C        0.00000    0.68620    0.25000    1.000
    C135     C        0.00000    0.53881    0.25000    1.000
    C136     C        0.00000    0.63554    0.25000    1.000
    C137     C        0.00000    0.48815    0.25000    1.000
    N27      N        0.00000    0.34630    0.25000    1.000
    C138     C        0.50000    0.89211    0.25000    1.000
    C139     C        0.50000    0.18620    0.25000    1.000
    C140     C        0.50000    0.03881    0.25000    1.000
    C141     C        0.50000    0.13554    0.25000    1.000
    C142     C        0.50000    0.98815    0.25000    1.000
    N28      N        0.50000    0.84630    0.25000    1.000
    C143     C        0.00000    0.76939    0.75000    1.000
    C144     C        0.50000    0.26939    0.75000    1.000
