# CIF file generated by openbabel 3.1.0, see https://openbabel.org
data_I
_chemical_name_common 'GEDQUD_charged'
_cell_length_a 13.6945
_cell_length_b 14.7711
_cell_length_c 16.0651
_cell_angle_alpha 117.369
_cell_angle_beta 97.9829
_cell_angle_gamma 90
_space_group_name_H-M_alt 'P 1'
_space_group_name_Hall 'P 1'
loop_
    _symmetry_equiv_pos_as_xyz
    x,y,z
loop_
    _atom_site_label
    _atom_site_type_symbol
    _atom_site_fract_x
    _atom_site_fract_y
    _atom_site_fract_z
    _atom_site_occupancy
    Nd1      Nd       0.96041    0.39327    0.36342    1.000
    Nd2      Nd       0.53959    0.02985    0.63658    1.000
    Nd3      Nd       0.03959    0.60673    0.63658    1.000
    Nd4      Nd       0.46041    0.97015    0.36342    1.000
    H1       H        0.10590    0.19620    0.06540    1.000
    H2       H        0.15410    0.16530    0.92320    1.000
    H3       H        0.09270    0.44850    0.97160    1.000
    H4       H        0.03730    0.47720    0.10980    1.000
    H5       H        0.17700    0.20500    0.81200    1.000
    H6       H        0.08380    0.39280    0.67820    1.000
    H7       H        0.28320    0.20950    0.71660    1.000
    H8       H        0.21870    0.20360    0.46200    1.000
    H9       H        0.39410    0.13080    0.93460    1.000
    H10      H        0.34590    0.24210    0.07680    1.000
    H11      H        0.40730    0.47690    0.02840    1.000
    H12      H        0.46270    0.36740    0.89020    1.000
    H13      H        0.32300    0.39300    0.18800    1.000
    H14      H        0.41620    0.71460    0.32180    1.000
    H15      H        0.21680    0.49290    0.28340    1.000
    H16      H        0.28130    0.74160    0.53800    1.000
    H17      H        0.89410    0.80380    0.93460    1.000
    H18      H        0.84590    0.83470    0.07680    1.000
    H19      H        0.90730    0.55150    0.02840    1.000
    H20      H        0.96270    0.52280    0.89020    1.000
    H21      H        0.82300    0.79500    0.18800    1.000
    H22      H        0.91620    0.60720    0.32180    1.000
    H23      H        0.71680    0.79050    0.28340    1.000
    H24      H        0.78130    0.79640    0.53800    1.000
    H25      H        0.60590    0.86920    0.06540    1.000
    H26      H        0.65410    0.75790    0.92320    1.000
    H27      H        0.59270    0.52310    0.97160    1.000
    H28      H        0.53730    0.63260    0.10980    1.000
    H29      H        0.67700    0.60700    0.81200    1.000
    H30      H        0.58380    0.28540    0.67820    1.000
    H31      H        0.78320    0.50710    0.71660    1.000
    H32      H        0.71870    0.25840    0.46200    1.000
    C1       C        0.02760    0.35570    0.18940    1.000
    C2       C        0.06630    0.33890    0.10220    1.000
    C3       C        0.10180    0.24670    0.04600    1.000
    C4       C        0.13150    0.22840    0.96120    1.000
    C5       C        0.12770    0.30320    0.93280    1.000
    C6       C        0.09380    0.39710    0.98980    1.000
    C7       C        0.06180    0.41490    0.07300    1.000
    C8       C        0.15570    0.27790    0.83980    1.000
    C9       C        0.08520    0.34040    0.49660    1.000
    C10      C        0.14290    0.30400    0.56060    1.000
    C11      C        0.12740    0.34210    0.65420    1.000
    C12      C        0.17780    0.30390    0.71220    1.000
    C13      C        0.24720    0.23250    0.67740    1.000
    C14      C        0.26290    0.19520    0.58380    1.000
    C15      C        0.20960    0.22990    0.52500    1.000
    C16      C        0.33730    0.11630    0.54500    1.000
    C17      C        0.47240    0.16630    0.81060    1.000
    C18      C        0.43370    0.23670    0.89780    1.000
    C19      C        0.39820    0.20070    0.95400    1.000
    C20      C        0.36850    0.26720    0.03880    1.000
    C21      C        0.37230    0.37040    0.06720    1.000
    C22      C        0.40620    0.40730    0.01020    1.000
    C23      C        0.43820    0.34190    0.92700    1.000
    C24      C        0.34430    0.43810    0.16020    1.000
    C25      C        0.41480    0.84380    0.50340    1.000
    C26      C        0.35710    0.74340    0.43940    1.000
    C27      C        0.37260    0.68790    0.34580    1.000
    C28      C        0.32220    0.59170    0.28780    1.000
    C29      C        0.25280    0.55510    0.32260    1.000
    C30      C        0.23710    0.61140    0.41620    1.000
    C31      C        0.29040    0.70490    0.47500    1.000
    C32      C        0.16270    0.57130    0.45500    1.000
    C33      C        0.97240    0.64430    0.81060    1.000
    C34      C        0.93370    0.66110    0.89780    1.000
    C35      C        0.89820    0.75330    0.95400    1.000
    C36      C        0.86850    0.77160    0.03880    1.000
    C37      C        0.87230    0.69680    0.06720    1.000
    C38      C        0.90620    0.60290    0.01020    1.000
    C39      C        0.93820    0.58510    0.92700    1.000
    C40      C        0.84430    0.72210    0.16020    1.000
    C41      C        0.91480    0.65960    0.50340    1.000
    C42      C        0.85710    0.69600    0.43940    1.000
    C43      C        0.87260    0.65790    0.34580    1.000
    C44      C        0.82220    0.69610    0.28780    1.000
    C45      C        0.75280    0.76750    0.32260    1.000
    C46      C        0.73710    0.80480    0.41620    1.000
    C47      C        0.79040    0.77010    0.47500    1.000
    C48      C        0.66270    0.88370    0.45500    1.000
    C49      C        0.52760    0.83370    0.18940    1.000
    C50      C        0.56630    0.76330    0.10220    1.000
    C51      C        0.60180    0.79930    0.04600    1.000
    C52      C        0.63150    0.73280    0.96120    1.000
    C53      C        0.62770    0.62960    0.93280    1.000
    C54      C        0.59380    0.59270    0.98980    1.000
    C55      C        0.56180    0.65810    0.07300    1.000
    C56      C        0.65570    0.56190    0.83980    1.000
    C57      C        0.58520    0.15620    0.49660    1.000
    C58      C        0.64290    0.25660    0.56060    1.000
    C59      C        0.62740    0.31210    0.65420    1.000
    C60      C        0.67780    0.40830    0.71220    1.000
    C61      C        0.74720    0.44490    0.67740    1.000
    C62      C        0.76290    0.38860    0.58380    1.000
    C63      C        0.70960    0.29510    0.52500    1.000
    C64      C        0.83730    0.42870    0.54500    1.000
    N1       N        0.15380    0.34100    0.80580    1.000
    N2       N        0.34620    0.53520    0.19420    1.000
    N3       N        0.84620    0.65900    0.19420    1.000
    N4       N        0.65380    0.46480    0.80580    1.000
    Cl1      Cl       0.86550    0.20360    0.23720    1.000
    Cl2      Cl       0.63450    0.96640    0.76280    1.000
    Cl3      Cl       0.13450    0.79640    0.76280    1.000
    Cl4      Cl       0.36550    0.03360    0.23720    1.000
    O1       O        0.05350    0.29850    0.22560    1.000
    O2       O        0.97010    0.42600    0.22520    1.000
    O3       O        0.06730    0.28309    0.40998    1.000
    O4       O        0.05450    0.42864    0.53308    1.000
    O5       O        0.38130    0.08880    0.60180    1.000
    O6       O        0.35110    0.08817    0.46234    1.000
    O7       O        0.78520    0.42530    0.30320    1.000
    O8       O        0.44650    0.07290    0.77440    1.000
    O9       O        0.52990    0.20080    0.77480    1.000
    O10      O        0.43270    0.87311    0.59002    1.000
    O11      O        0.44550    0.89556    0.46692    1.000
    O12      O        0.11870    0.48700    0.39820    1.000
    O13      O        0.14890    0.62583    0.53766    1.000
    O14      O        0.71480    0.12210    0.69680    1.000
    O15      O        0.94650    0.70150    0.77440    1.000
    O16      O        0.02990    0.57400    0.77480    1.000
    O17      O        0.93270    0.71691    0.59002    1.000
    O18      O        0.94550    0.57136    0.46692    1.000
    O19      O        0.61870    0.91120    0.39820    1.000
    O20      O        0.64890    0.91183    0.53766    1.000
    O21      O        0.21480    0.57470    0.69680    1.000
    O22      O        0.55350    0.92710    0.22560    1.000
    O23      O        0.47010    0.79920    0.22520    1.000
    O24      O        0.56730    0.12689    0.40998    1.000
    O25      O        0.55450    0.10444    0.53308    1.000
    O26      O        0.88130    0.51300    0.60180    1.000
    O27      O        0.85110    0.37417    0.46234    1.000
    O28      O        0.28520    0.87790    0.30320    1.000
    H33      H        0.76840    0.47940    0.08740    1.000
    H34      H        0.73160    0.39200    0.91260    1.000
    H35      H        0.75000    0.17760    0.00000    1.000
    C65      C        0.76370    0.40920    0.04760    1.000
    C66      C        0.73630    0.36160    0.95240    1.000
    C67      C        0.75000    0.24100    0.00000    1.000
    N5       N        0.78280    0.33570    0.07440    1.000
    N6       N        0.71720    0.26130    0.92560    1.000
    H36      H        0.23160    0.52060    0.91260    1.000
    H37      H        0.26840    0.60800    0.08740    1.000
    H38      H        0.25000    0.82240    0.00000    1.000
    C68      C        0.23630    0.59080    0.95240    1.000
    C69      C        0.26370    0.63840    0.04760    1.000
    C70      C        0.25000    0.75900    0.00000    1.000
    N7       N        0.21720    0.66430    0.92560    1.000
    N8       N        0.28280    0.73870    0.07440    1.000
