# CIF file generated by openbabel 3.1.0, see https://openbabel.org
data_I
_chemical_name_common 'image0'
_cell_length_a 22.9416
_cell_length_b 22.9416
_cell_length_c 15.7488
_cell_angle_alpha 90
_cell_angle_beta 90
_cell_angle_gamma 120
_space_group_name_H-M_alt 'P 1'
_space_group_name_Hall 'P 1'
loop_
    _symmetry_equiv_pos_as_xyz
    x,y,z
loop_
    _atom_site_label
    _atom_site_type_symbol
    _atom_site_fract_x
    _atom_site_fract_y
    _atom_site_fract_z
    _atom_site_occupancy
    N1       N        0.97321    0.32361    0.42312    1.000
    C1       C        0.00074    0.36554    0.48841    1.000
    H1       H        0.99774    0.40429    0.49419    1.000
    N2       N        0.03315    0.34849    0.54552    1.000
    C2       C        0.99052    0.27390    0.43666    1.000
    C3       C        0.97572    0.21712    0.39075    1.000
    H2       H        0.95138    0.20677    0.34046    1.000
    C4       C        0.99876    0.17667    0.42227    1.000
    H3       H        0.99002    0.13821    0.39235    1.000
    C5       C        0.03539    0.19169    0.49949    1.000
    H4       H        0.05033    0.16306    0.51883    1.000
    C6       C        0.02691    0.28891    0.51331    1.000
    C7       C        0.04922    0.24748    0.54588    1.000
    H5       H        0.07252    0.25714    0.59708    1.000
    N3       N        0.92444    0.41150    0.35473    1.000
    C8       C        0.94564    0.47383    0.33074    1.000
    H6       H        0.97609    0.49339    0.28643    1.000
    N4       N        0.92177    0.50731    0.37214    1.000
    C9       C        0.87894    0.46164    0.43074    1.000
    C10      C        0.83874    0.46752    0.49575    1.000
    H7       H        0.83872    0.50758    0.50379    1.000
    C11      C        0.87987    0.40287    0.42141    1.000
    C12      C        0.84014    0.34485    0.47429    1.000
    H8       H        0.84119    0.30511    0.46763    1.000
    C13      C        0.80051    0.41326    0.54552    1.000
    H9       H        0.77371    0.41673    0.58721    1.000
    C14      C        0.80024    0.35158    0.53607    1.000
    H10      H        0.77327    0.31539    0.57116    1.000
    Zn1      Zn       0.93451    0.33900    0.33107    1.000
    N5       N        0.63988    0.65694    0.75645    1.000
    C15      C        0.66741    0.69887    0.82174    1.000
    H11      H        0.66441    0.73762    0.82752    1.000
    N6       N        0.69982    0.68182    0.87885    1.000
    C16      C        0.65719    0.60723    0.76999    1.000
    C17      C        0.64239    0.55045    0.72408    1.000
    H12      H        0.61805    0.54010    0.67379    1.000
    C18      C        0.66543    0.51000    0.75560    1.000
    H13      H        0.65669    0.47154    0.72568    1.000
    C19      C        0.70206    0.52502    0.83282    1.000
    H14      H        0.71700    0.49639    0.85216    1.000
    C20      C        0.69358    0.62224    0.84664    1.000
    C21      C        0.71589    0.58081    0.87921    1.000
    H15      H        0.73919    0.59047    0.93041    1.000
    N7       N        0.59111    0.74483    0.68806    1.000
    C22      C        0.61231    0.80716    0.66407    1.000
    H16      H        0.64276    0.82672    0.61976    1.000
    N8       N        0.58844    0.84064    0.70547    1.000
    C23      C        0.54561    0.79497    0.76407    1.000
    C24      C        0.50541    0.80085    0.82908    1.000
    H17      H        0.50539    0.84091    0.83712    1.000
    C25      C        0.54654    0.73620    0.75474    1.000
    C26      C        0.50681    0.67818    0.80762    1.000
    H18      H        0.50786    0.63844    0.80096    1.000
    C27      C        0.46718    0.74659    0.87885    1.000
    H19      H        0.44038    0.75006    0.92054    1.000
    C28      C        0.46691    0.68491    0.86940    1.000
    H20      H        0.43994    0.64872    0.90449    1.000
    Zn2      Zn       0.60118    0.67233    0.66440    1.000
    N9       N        0.30654    0.99028    0.08979    1.000
    C29      C        0.33407    0.03221    0.15508    1.000
    H21      H        0.33107    0.07096    0.16086    1.000
    N10      N        0.36648    0.01516    0.21219    1.000
    C30      C        0.32385    0.94057    0.10333    1.000
    C31      C        0.30905    0.88379    0.05742    1.000
    H22      H        0.28471    0.87344    0.00713    1.000
    C32      C        0.33209    0.84334    0.08894    1.000
    H23      H        0.32335    0.80488    0.05902    1.000
    C33      C        0.36872    0.85836    0.16616    1.000
    H24      H        0.38366    0.82973    0.18550    1.000
    C34      C        0.36024    0.95558    0.17998    1.000
    C35      C        0.38255    0.91415    0.21255    1.000
    H25      H        0.40585    0.92381    0.26375    1.000
    N11      N        0.25777    0.07817    0.02140    1.000
    C36      C        0.27897    0.14050    0.99741    1.000
    H26      H        0.30942    0.16006    0.95310    1.000
    N12      N        0.25510    0.17398    0.03881    1.000
    C37      C        0.21227    0.12831    0.09741    1.000
    C38      C        0.17207    0.13419    0.16242    1.000
    H27      H        0.17205    0.17425    0.17046    1.000
    C39      C        0.21320    0.06954    0.08808    1.000
    C40      C        0.17347    0.01152    0.14096    1.000
    H28      H        0.17452    0.97178    0.13430    1.000
    C41      C        0.13384    0.07993    0.21219    1.000
    H29      H        0.10704    0.08340    0.25388    1.000
    C42      C        0.13357    0.01825    0.20274    1.000
    H30      H        0.10660    0.98206    0.23783    1.000
    Zn3      Zn       0.26784    0.00567    0.99774    1.000
    N13      N        0.67639    0.64960    0.42312    1.000
    C43      C        0.63446    0.63520    0.48841    1.000
    H31      H        0.59571    0.59345    0.49419    1.000
    N14      N        0.65151    0.68466    0.54552    1.000
    C44      C        0.72610    0.71662    0.43666    1.000
    C45      C        0.78288    0.75860    0.39075    1.000
    H32      H        0.79323    0.74461    0.34046    1.000
    C46      C        0.82333    0.82209    0.42227    1.000
    H33      H        0.86179    0.85181    0.39235    1.000
    C47      C        0.80831    0.84370    0.49949    1.000
    H34      H        0.83694    0.88727    0.51883    1.000
    C48      C        0.71109    0.73800    0.51331    1.000
    C49      C        0.75252    0.80174    0.54588    1.000
    H35      H        0.74286    0.81538    0.59708    1.000
    N15      N        0.58850    0.51294    0.35473    1.000
    C50      C        0.52617    0.47181    0.33074    1.000
    H36      H        0.50661    0.48270    0.28643    1.000
    N16      N        0.49269    0.41446    0.37214    1.000
    C51      C        0.53836    0.41730    0.43074    1.000
    C52      C        0.53248    0.37122    0.49575    1.000
    H37      H        0.49242    0.33114    0.50379    1.000
    C53      C        0.59713    0.47700    0.42141    1.000
    C54      C        0.65515    0.49529    0.47429    1.000
    H38      H        0.69489    0.53608    0.46763    1.000
    C55      C        0.58674    0.38725    0.54552    1.000
    H39      H        0.58327    0.35698    0.58721    1.000
    C56      C        0.64842    0.44866    0.53607    1.000
    H40      H        0.68461    0.45788    0.57116    1.000
    Zn4      Zn       0.66100    0.59551    0.33107    1.000
    N17      N        0.34306    0.98293    0.75645    1.000
    C57      C        0.30113    0.96853    0.82174    1.000
    H41      H        0.26238    0.92678    0.82752    1.000
    N18      N        0.31818    0.01799    0.87885    1.000
    C58      C        0.39277    0.04995    0.76999    1.000
    C59      C        0.44955    0.09193    0.72408    1.000
    H42      H        0.45990    0.07794    0.67379    1.000
    C60      C        0.49000    0.15542    0.75560    1.000
    H43      H        0.52846    0.18514    0.72568    1.000
    C61      C        0.47498    0.17703    0.83282    1.000
    H44      H        0.50361    0.22060    0.85216    1.000
    C62      C        0.37776    0.07133    0.84664    1.000
    C63      C        0.41919    0.13507    0.87921    1.000
    H45      H        0.40953    0.14871    0.93041    1.000
    N19      N        0.25517    0.84627    0.68806    1.000
    C64      C        0.19284    0.80514    0.66407    1.000
    H46      H        0.17328    0.81603    0.61976    1.000
    N20      N        0.15936    0.74779    0.70547    1.000
    C65      C        0.20503    0.75063    0.76407    1.000
    C66      C        0.19915    0.70455    0.82908    1.000
    H47      H        0.15909    0.66447    0.83712    1.000
    C67      C        0.26380    0.81033    0.75474    1.000
    C68      C        0.32182    0.82862    0.80762    1.000
    H48      H        0.36156    0.86941    0.80096    1.000
    C69      C        0.25341    0.72058    0.87885    1.000
    H49      H        0.24994    0.69031    0.92054    1.000
    C70      C        0.31509    0.78199    0.86940    1.000
    H50      H        0.35128    0.79121    0.90449    1.000
    Zn5      Zn       0.32767    0.92884    0.66440    1.000
    N21      N        0.00972    0.31627    0.08979    1.000
    C71      C        0.96779    0.30187    0.15508    1.000
    H51      H        0.92904    0.26012    0.16086    1.000
    N22      N        0.98484    0.35133    0.21219    1.000
    C72      C        0.05943    0.38329    0.10333    1.000
    C73      C        0.11621    0.42527    0.05742    1.000
    H52      H        0.12656    0.41128    0.00713    1.000
    C74      C        0.15666    0.48876    0.08894    1.000
    H53      H        0.19512    0.51848    0.05902    1.000
    C75      C        0.14164    0.51037    0.16616    1.000
    H54      H        0.17027    0.55394    0.18550    1.000
    C76      C        0.04442    0.40467    0.17998    1.000
    C77      C        0.08585    0.46841    0.21255    1.000
    H55      H        0.07619    0.48205    0.26375    1.000
    N23      N        0.92183    0.17961    0.02140    1.000
    C78      C        0.85950    0.13848    0.99741    1.000
    H56      H        0.83994    0.14937    0.95310    1.000
    N24      N        0.82602    0.08113    0.03881    1.000
    C79      C        0.87169    0.08397    0.09741    1.000
    C80      C        0.86581    0.03789    0.16242    1.000
    H57      H        0.82575    0.99781    0.17046    1.000
    C81      C        0.93046    0.14367    0.08808    1.000
    C82      C        0.98848    0.16196    0.14096    1.000
    H58      H        0.02822    0.20275    0.13430    1.000
    C83      C        0.92007    0.05392    0.21219    1.000
    H59      H        0.91660    0.02365    0.25388    1.000
    C84      C        0.98175    0.11533    0.20274    1.000
    H60      H        0.01794    0.12455    0.23783    1.000
    Zn6      Zn       0.99433    0.26218    0.99774    1.000
    N25      N        0.35040    0.02679    0.42312    1.000
    C85      C        0.36480    0.99926    0.48841    1.000
    H61      H        0.40655    0.00226    0.49419    1.000
    N26      N        0.31534    0.96685    0.54552    1.000
    C86      C        0.28338    0.00948    0.43666    1.000
    C87      C        0.24140    0.02428    0.39075    1.000
    H62      H        0.25539    0.04862    0.34046    1.000
    C88      C        0.17791    0.00124    0.42227    1.000
    H63      H        0.14819    0.00998    0.39235    1.000
    C89      C        0.15630    0.96461    0.49949    1.000
    H64      H        0.11273    0.94967    0.51883    1.000
    C90      C        0.26200    0.97309    0.51331    1.000
    C91      C        0.19826    0.95078    0.54588    1.000
    H65      H        0.18462    0.92748    0.59708    1.000
    N27      N        0.48706    0.07556    0.35473    1.000
    C92      C        0.52819    0.05436    0.33074    1.000
    H66      H        0.51730    0.02391    0.28643    1.000
    N28      N        0.58554    0.07823    0.37214    1.000
    C93      C        0.58270    0.12106    0.43074    1.000
    C94      C        0.62878    0.16126    0.49575    1.000
    H67      H        0.66886    0.16128    0.50379    1.000
    C95      C        0.52300    0.12013    0.42141    1.000
    C96      C        0.50471    0.15986    0.47429    1.000
    H68      H        0.46392    0.15881    0.46763    1.000
    C97      C        0.61275    0.19949    0.54552    1.000
    H69      H        0.64302    0.22629    0.58721    1.000
    C98      C        0.55134    0.19976    0.53607    1.000
    H70      H        0.54212    0.22673    0.57116    1.000
    Zn7      Zn       0.40449    0.06549    0.33107    1.000
    N29      N        0.01707    0.36012    0.75645    1.000
    C99      C        0.03147    0.33259    0.82174    1.000
    H71      H        0.07322    0.33559    0.82752    1.000
    N30      N        0.98201    0.30018    0.87885    1.000
    C100     C        0.95005    0.34281    0.76999    1.000
    C101     C        0.90807    0.35761    0.72408    1.000
    H72      H        0.92206    0.38195    0.67379    1.000
    C102     C        0.84458    0.33457    0.75560    1.000
    H73      H        0.81486    0.34331    0.72568    1.000
    C103     C        0.82297    0.29794    0.83282    1.000
    H74      H        0.77940    0.28300    0.85216    1.000
    C104     C        0.92867    0.30642    0.84664    1.000
    C105     C        0.86493    0.28411    0.87921    1.000
    H75      H        0.85129    0.26081    0.93041    1.000
    N31      N        0.15373    0.40889    0.68806    1.000
    C106     C        0.19486    0.38769    0.66407    1.000
    H76      H        0.18397    0.35724    0.61976    1.000
    N32      N        0.25221    0.41156    0.70547    1.000
    C107     C        0.24937    0.45439    0.76407    1.000
    C108     C        0.29545    0.49459    0.82908    1.000
    H77      H        0.33553    0.49461    0.83712    1.000
    C109     C        0.18967    0.45346    0.75474    1.000
    C110     C        0.17138    0.49319    0.80762    1.000
    H78      H        0.13059    0.49214    0.80096    1.000
    C111     C        0.27942    0.53282    0.87885    1.000
    H79      H        0.30969    0.55962    0.92054    1.000
    C112     C        0.21801    0.53309    0.86940    1.000
    H80      H        0.20879    0.56006    0.90449    1.000
    Zn8      Zn       0.07116    0.39882    0.66440    1.000
    N33      N        0.68373    0.69346    0.08979    1.000
    C113     C        0.69813    0.66593    0.15508    1.000
    H81      H        0.73988    0.66893    0.16086    1.000
    N34      N        0.64867    0.63352    0.21219    1.000
    C114     C        0.61671    0.67615    0.10333    1.000
    C115     C        0.57473    0.69095    0.05742    1.000
    H82      H        0.58872    0.71529    0.00713    1.000
    C116     C        0.51124    0.66791    0.08894    1.000
    H83      H        0.48152    0.67665    0.05902    1.000
    C117     C        0.48963    0.63128    0.16616    1.000
    H84      H        0.44606    0.61634    0.18550    1.000
    C118     C        0.59533    0.63976    0.17998    1.000
    C119     C        0.53159    0.61745    0.21255    1.000
    H85      H        0.51795    0.59415    0.26375    1.000
    N35      N        0.82039    0.74223    0.02140    1.000
    C120     C        0.86152    0.72103    0.99741    1.000
    H86      H        0.85063    0.69058    0.95310    1.000
    N36      N        0.91887    0.74490    0.03881    1.000
    C121     C        0.91603    0.78773    0.09741    1.000
    C122     C        0.96211    0.82793    0.16242    1.000
    H87      H        0.00219    0.82795    0.17046    1.000
    C123     C        0.85633    0.78680    0.08808    1.000
    C124     C        0.83804    0.82653    0.14096    1.000
    H88      H        0.79725    0.82548    0.13430    1.000
    C125     C        0.94608    0.86616    0.21219    1.000
    H89      H        0.97635    0.89296    0.25388    1.000
    C126     C        0.88467    0.86643    0.20274    1.000
    H90      H        0.87545    0.89340    0.23783    1.000
    Zn9      Zn       0.73782    0.73216    0.99774    1.000
    N37      N        0.02679    0.67639    0.57688    1.000
    C127     C        0.99926    0.63446    0.51159    1.000
    H91      H        0.00226    0.59571    0.50581    1.000
    N38      N        0.96685    0.65151    0.45448    1.000
    C128     C        0.00948    0.72610    0.56334    1.000
    C129     C        0.02428    0.78288    0.60925    1.000
    H92      H        0.04862    0.79323    0.65954    1.000
    C130     C        0.00124    0.82333    0.57773    1.000
    H93      H        0.00998    0.86179    0.60765    1.000
    C131     C        0.96461    0.80831    0.50051    1.000
    H94      H        0.94967    0.83694    0.48117    1.000
    C132     C        0.97309    0.71109    0.48669    1.000
    C133     C        0.95078    0.75252    0.45412    1.000
    H95      H        0.92748    0.74286    0.40292    1.000
    N39      N        0.07556    0.58850    0.64527    1.000
    C134     C        0.05436    0.52617    0.66926    1.000
    H96      H        0.02391    0.50661    0.71357    1.000
    N40      N        0.07823    0.49269    0.62786    1.000
    C135     C        0.12106    0.53836    0.56926    1.000
    C136     C        0.16126    0.53248    0.50425    1.000
    H97      H        0.16128    0.49242    0.49621    1.000
    C137     C        0.12013    0.59713    0.57859    1.000
    C138     C        0.15986    0.65515    0.52571    1.000
    H98      H        0.15881    0.69489    0.53237    1.000
    C139     C        0.19949    0.58674    0.45448    1.000
    H99      H        0.22629    0.58327    0.41279    1.000
    C140     C        0.19976    0.64842    0.46393    1.000
    H100     H        0.22673    0.68461    0.42884    1.000
    Zn10     Zn       0.06549    0.66100    0.66893    1.000
    N41      N        0.69346    0.00972    0.91021    1.000
    C141     C        0.66593    0.96779    0.84492    1.000
    H101     H        0.66893    0.92904    0.83914    1.000
    N42      N        0.63352    0.98484    0.78781    1.000
    C142     C        0.67615    0.05943    0.89667    1.000
    C143     C        0.69095    0.11621    0.94258    1.000
    H102     H        0.71529    0.12656    0.99287    1.000
    C144     C        0.66791    0.15666    0.91106    1.000
    H103     H        0.67665    0.19512    0.94098    1.000
    C145     C        0.63128    0.14164    0.83384    1.000
    H104     H        0.61634    0.17027    0.81450    1.000
    C146     C        0.63976    0.04442    0.82002    1.000
    C147     C        0.61745    0.08585    0.78745    1.000
    H105     H        0.59415    0.07619    0.73625    1.000
    N43      N        0.74223    0.92183    0.97860    1.000
    C148     C        0.72103    0.85950    0.00259    1.000
    H106     H        0.69058    0.83994    0.04690    1.000
    N44      N        0.74490    0.82602    0.96119    1.000
    C149     C        0.78773    0.87169    0.90259    1.000
    C150     C        0.82793    0.86581    0.83758    1.000
    H107     H        0.82795    0.82575    0.82954    1.000
    C151     C        0.78680    0.93046    0.91192    1.000
    C152     C        0.82653    0.98848    0.85904    1.000
    H108     H        0.82548    0.02822    0.86570    1.000
    C153     C        0.86616    0.92007    0.78781    1.000
    H109     H        0.89296    0.91660    0.74612    1.000
    C154     C        0.86643    0.98175    0.79726    1.000
    H110     H        0.89340    0.01794    0.76217    1.000
    Zn11     Zn       0.73216    0.99433    0.00226    1.000
    N45      N        0.36012    0.34306    0.24355    1.000
    C155     C        0.33259    0.30113    0.17826    1.000
    H111     H        0.33559    0.26238    0.17248    1.000
    N46      N        0.30018    0.31818    0.12115    1.000
    C156     C        0.34281    0.39277    0.23001    1.000
    C157     C        0.35761    0.44955    0.27592    1.000
    H112     H        0.38195    0.45990    0.32621    1.000
    C158     C        0.33457    0.49000    0.24440    1.000
    H113     H        0.34331    0.52846    0.27432    1.000
    C159     C        0.29794    0.47498    0.16718    1.000
    H114     H        0.28300    0.50361    0.14784    1.000
    C160     C        0.30642    0.37776    0.15336    1.000
    C161     C        0.28411    0.41919    0.12079    1.000
    H115     H        0.26081    0.40953    0.06959    1.000
    N47      N        0.40889    0.25517    0.31194    1.000
    C162     C        0.38769    0.19284    0.33593    1.000
    H116     H        0.35724    0.17328    0.38024    1.000
    N48      N        0.41156    0.15936    0.29453    1.000
    C163     C        0.45439    0.20503    0.23593    1.000
    C164     C        0.49459    0.19915    0.17092    1.000
    H117     H        0.49461    0.15909    0.16288    1.000
    C165     C        0.45346    0.26380    0.24526    1.000
    C166     C        0.49319    0.32182    0.19238    1.000
    H118     H        0.49214    0.36156    0.19904    1.000
    C167     C        0.53282    0.25341    0.12115    1.000
    H119     H        0.55962    0.24994    0.07946    1.000
    C168     C        0.53309    0.31509    0.13060    1.000
    H120     H        0.56006    0.35128    0.09551    1.000
    Zn12     Zn       0.39882    0.32767    0.33560    1.000
    N49      N        0.32361    0.35040    0.57688    1.000
    C169     C        0.36554    0.36480    0.51159    1.000
    H121     H        0.40429    0.40655    0.50581    1.000
    N50      N        0.34849    0.31534    0.45448    1.000
    C170     C        0.27390    0.28338    0.56334    1.000
    C171     C        0.21712    0.24140    0.60925    1.000
    H122     H        0.20677    0.25539    0.65954    1.000
    C172     C        0.17667    0.17791    0.57773    1.000
    H123     H        0.13821    0.14819    0.60765    1.000
    C173     C        0.19169    0.15630    0.50051    1.000
    H124     H        0.16306    0.11273    0.48117    1.000
    C174     C        0.28891    0.26200    0.48669    1.000
    C175     C        0.24748    0.19826    0.45412    1.000
    H125     H        0.25714    0.18462    0.40292    1.000
    N51      N        0.41150    0.48706    0.64527    1.000
    C176     C        0.47383    0.52819    0.66926    1.000
    H126     H        0.49339    0.51730    0.71357    1.000
    N52      N        0.50731    0.58554    0.62786    1.000
    C177     C        0.46164    0.58270    0.56926    1.000
    C178     C        0.46752    0.62878    0.50425    1.000
    H127     H        0.50758    0.66886    0.49621    1.000
    C179     C        0.40287    0.52300    0.57859    1.000
    C180     C        0.34485    0.50471    0.52571    1.000
    H128     H        0.30511    0.46392    0.53237    1.000
    C181     C        0.41326    0.61275    0.45448    1.000
    H129     H        0.41673    0.64302    0.41279    1.000
    C182     C        0.35158    0.55134    0.46393    1.000
    H130     H        0.31539    0.54212    0.42884    1.000
    Zn13     Zn       0.33900    0.40449    0.66893    1.000
    N53      N        0.99028    0.68373    0.91021    1.000
    C183     C        0.03221    0.69813    0.84492    1.000
    H131     H        0.07096    0.73988    0.83914    1.000
    N54      N        0.01516    0.64867    0.78781    1.000
    C184     C        0.94057    0.61671    0.89667    1.000
    C185     C        0.88379    0.57473    0.94258    1.000
    H132     H        0.87344    0.58872    0.99287    1.000
    C186     C        0.84334    0.51124    0.91106    1.000
    H133     H        0.80488    0.48152    0.94098    1.000
    C187     C        0.85836    0.48963    0.83384    1.000
    H134     H        0.82973    0.44606    0.81450    1.000
    C188     C        0.95558    0.59533    0.82002    1.000
    C189     C        0.91415    0.53159    0.78745    1.000
    H135     H        0.92381    0.51795    0.73625    1.000
    N55      N        0.07817    0.82039    0.97860    1.000
    C190     C        0.14050    0.86152    0.00259    1.000
    H136     H        0.16006    0.85063    0.04690    1.000
    N56      N        0.17398    0.91887    0.96119    1.000
    C191     C        0.12831    0.91603    0.90259    1.000
    C192     C        0.13419    0.96211    0.83758    1.000
    H137     H        0.17425    0.00219    0.82954    1.000
    C193     C        0.06954    0.85633    0.91192    1.000
    C194     C        0.01152    0.83804    0.85904    1.000
    H138     H        0.97178    0.79725    0.86570    1.000
    C195     C        0.07993    0.94608    0.78781    1.000
    H139     H        0.08340    0.97635    0.74612    1.000
    C196     C        0.01825    0.88467    0.79726    1.000
    H140     H        0.98206    0.87545    0.76217    1.000
    Zn14     Zn       0.00567    0.73782    0.00226    1.000
    N57      N        0.65694    0.01707    0.24355    1.000
    C197     C        0.69887    0.03147    0.17826    1.000
    H141     H        0.73762    0.07322    0.17248    1.000
    N58      N        0.68182    0.98201    0.12115    1.000
    C198     C        0.60723    0.95005    0.23001    1.000
    C199     C        0.55045    0.90807    0.27592    1.000
    H142     H        0.54010    0.92206    0.32621    1.000
    C200     C        0.51000    0.84458    0.24440    1.000
    H143     H        0.47154    0.81486    0.27432    1.000
    C201     C        0.52502    0.82297    0.16718    1.000
    H144     H        0.49639    0.77940    0.14784    1.000
    C202     C        0.62224    0.92867    0.15336    1.000
    C203     C        0.58081    0.86493    0.12079    1.000
    H145     H        0.59047    0.85129    0.06959    1.000
    N59      N        0.74483    0.15373    0.31194    1.000
    C204     C        0.80716    0.19486    0.33593    1.000
    H146     H        0.82672    0.18397    0.38024    1.000
    N60      N        0.84064    0.25221    0.29453    1.000
    C205     C        0.79497    0.24937    0.23593    1.000
    C206     C        0.80085    0.29545    0.17092    1.000
    H147     H        0.84091    0.33553    0.16288    1.000
    C207     C        0.73620    0.18967    0.24526    1.000
    C208     C        0.67818    0.17138    0.19238    1.000
    H148     H        0.63844    0.13059    0.19904    1.000
    C209     C        0.74659    0.27942    0.12115    1.000
    H149     H        0.75006    0.30969    0.07946    1.000
    C210     C        0.68491    0.21801    0.13060    1.000
    H150     H        0.64872    0.20879    0.09551    1.000
    Zn15     Zn       0.67233    0.07116    0.33560    1.000
    N61      N        0.64960    0.97321    0.57688    1.000
    C211     C        0.63520    0.00074    0.51159    1.000
    H151     H        0.59345    0.99774    0.50581    1.000
    N62      N        0.68466    0.03315    0.45448    1.000
    C212     C        0.71662    0.99052    0.56334    1.000
    C213     C        0.75860    0.97572    0.60925    1.000
    H152     H        0.74461    0.95138    0.65954    1.000
    C214     C        0.82209    0.99876    0.57773    1.000
    H153     H        0.85181    0.99002    0.60765    1.000
    C215     C        0.84370    0.03539    0.50051    1.000
    H154     H        0.88727    0.05033    0.48117    1.000
    C216     C        0.73800    0.02691    0.48669    1.000
    C217     C        0.80174    0.04922    0.45412    1.000
    H155     H        0.81538    0.07252    0.40292    1.000
    N63      N        0.51294    0.92444    0.64527    1.000
    C218     C        0.47181    0.94564    0.66926    1.000
    H156     H        0.48270    0.97609    0.71357    1.000
    N64      N        0.41446    0.92177    0.62786    1.000
    C219     C        0.41730    0.87894    0.56926    1.000
    C220     C        0.37122    0.83874    0.50425    1.000
    H157     H        0.33114    0.83872    0.49621    1.000
    C221     C        0.47700    0.87987    0.57859    1.000
    C222     C        0.49529    0.84014    0.52571    1.000
    H158     H        0.53608    0.84119    0.53237    1.000
    C223     C        0.38725    0.80051    0.45448    1.000
    H159     H        0.35698    0.77371    0.41279    1.000
    C224     C        0.44866    0.80024    0.46393    1.000
    H160     H        0.45788    0.77327    0.42884    1.000
    Zn16     Zn       0.59551    0.93451    0.66893    1.000
    N65      N        0.31627    0.30654    0.91021    1.000
    C225     C        0.30187    0.33407    0.84492    1.000
    H161     H        0.26012    0.33107    0.83914    1.000
    N66      N        0.35133    0.36648    0.78781    1.000
    C226     C        0.38329    0.32385    0.89667    1.000
    C227     C        0.42527    0.30905    0.94258    1.000
    H162     H        0.41128    0.28471    0.99287    1.000
    C228     C        0.48876    0.33209    0.91106    1.000
    H163     H        0.51848    0.32335    0.94098    1.000
    C229     C        0.51037    0.36872    0.83384    1.000
    H164     H        0.55394    0.38366    0.81450    1.000
    C230     C        0.40467    0.36024    0.82002    1.000
    C231     C        0.46841    0.38255    0.78745    1.000
    H165     H        0.48205    0.40585    0.73625    1.000
    N67      N        0.17961    0.25777    0.97860    1.000
    C232     C        0.13848    0.27897    0.00259    1.000
    H166     H        0.14937    0.30942    0.04690    1.000
    N68      N        0.08113    0.25510    0.96119    1.000
    C233     C        0.08397    0.21227    0.90259    1.000
    C234     C        0.03789    0.17207    0.83758    1.000
    H167     H        0.99781    0.17205    0.82954    1.000
    C235     C        0.14367    0.21320    0.91192    1.000
    C236     C        0.16196    0.17347    0.85904    1.000
    H168     H        0.20275    0.17452    0.86570    1.000
    C237     C        0.05392    0.13384    0.78781    1.000
    H169     H        0.02365    0.10704    0.74612    1.000
    C238     C        0.11533    0.13357    0.79726    1.000
    H170     H        0.12455    0.10660    0.76217    1.000
    Zn17     Zn       0.26218    0.26784    0.00226    1.000
    N69      N        0.98293    0.63988    0.24355    1.000
    C239     C        0.96853    0.66741    0.17826    1.000
    H171     H        0.92678    0.66441    0.17248    1.000
    N70      N        0.01799    0.69982    0.12115    1.000
    C240     C        0.04995    0.65719    0.23001    1.000
    C241     C        0.09193    0.64239    0.27592    1.000
    H172     H        0.07794    0.61805    0.32621    1.000
    C242     C        0.15542    0.66543    0.24440    1.000
    H173     H        0.18514    0.65669    0.27432    1.000
    C243     C        0.17703    0.70206    0.16718    1.000
    H174     H        0.22060    0.71700    0.14784    1.000
    C244     C        0.07133    0.69358    0.15336    1.000
    C245     C        0.13507    0.71589    0.12079    1.000
    H175     H        0.14871    0.73919    0.06959    1.000
    N71      N        0.84627    0.59111    0.31194    1.000
    C246     C        0.80514    0.61231    0.33593    1.000
    H176     H        0.81603    0.64276    0.38024    1.000
    N72      N        0.74779    0.58844    0.29453    1.000
    C247     C        0.75063    0.54561    0.23593    1.000
    C248     C        0.70455    0.50541    0.17092    1.000
    H177     H        0.66447    0.50539    0.16288    1.000
    C249     C        0.81033    0.54654    0.24526    1.000
    C250     C        0.82862    0.50681    0.19238    1.000
    H178     H        0.86941    0.50786    0.19904    1.000
    C251     C        0.72058    0.46718    0.12115    1.000
    H179     H        0.69031    0.44038    0.07946    1.000
    C252     C        0.78199    0.46691    0.13060    1.000
    H180     H        0.79121    0.43994    0.09551    1.000
    Zn18     Zn       0.92884    0.60118    0.33560    1.000
