data_functionalizedCrystal
_audit_creation_method	'EQeq! by Chris Wilmer'
_symmetry_space_group_name_H-M	'P1'
_symmetry_Int_Tables_number	1
_symmetry_cell_setting	triclinic
loop_
_symmetry_equiv_pos_as_xyz
  x,y,z
_cell_length_a	10.165
_cell_length_b	22.005
_cell_length_c	14.144
_cell_angle_alpha	91.55
_cell_angle_beta	90
_cell_angle_gamma	90
loop_
_atom_site_label
_atom_site_type_symbol
_atom_site_fract_x
_atom_site_fract_y
_atom_site_fract_z
_atom_site_charge
Mof_Eu	Eu	0.7494	0.2494	0.02511	2.299
Mof_Eu	Eu	0.5578	0.2594	0.76737	2.105
Mof_Eu	Eu	0.2494	0.7506	0.47489	2.305
Mof_Eu	Eu	0.0578	0.7406	0.73263	2.102
Mof_Eu	Eu	0.2506	0.7506	0.97489	2.3
Mof_Eu	Eu	0.4422	0.7406	0.23263	2.106
Mof_Eu	Eu	0.7506	0.2494	0.52511	2.306
Mof_Eu	Eu	0.9422	0.2594	0.26737	2.103
Mof_H 	H 	0.6847	0.0843	0.945	0.196
Mof_H 	H 	0.5436	0.0944	0.9865	0.195
Mof_H 	H 	0.7268	0.9929	0.8634	0.079
Mof_H 	H 	0.6596	0.9031	0.7901	0.047
Mof_H 	H 	0.2866	0.9564	0.8128	0.061
Mof_H 	H 	0.3532	0.0468	0.8837	0.073
Mof_H 	H 	0.4929	0.8424	0.712	0.16
Mof_H 	H 	0.3523	0.8704	0.6994	0.165
Mof_H 	H 	0.8764	0.3412	0.7222	0.151
Mof_H 	H 	0.0112	0.3148	0.7569	0.143
Mof_H 	H 	0.1724	0.3857	0.8139	0.044
Mof_H 	H 	0.2313	0.4812	0.8707	0.082
Mof_H 	H 	0.8577	0.5335	0.8693	0.079
Mof_H 	H 	0.7962	0.4384	0.8126	0.058
Mof_H 	H 	0.0395	0.588	0.9708	0.172
Mof_H 	H 	0.1837	0.5752	0.9373	0.176
Mof_H 	H 	0.3629	0.3739	0.0872	0.185
Mof_H 	H 	0.2992	0.3787	0.9865	0.188
Mof_H 	H 	0.4203	0.472	0.1453	0.073
Mof_H 	H 	0.4904	0.433	0.8718	0.08
Mof_H 	H 	0.1516	0.1322	0.0499	0.165
Mof_H 	H 	0.0871	0.1152	0.1462	0.176
Mof_H 	H 	0.9664	0.0225	0.1592	0.079
Mof_H 	H 	0.0949	0.0712	0.9042	0.06
Mof_H 	H 	0.1847	0.9157	0.555	0.193
Mof_H 	H 	0.0436	0.9056	0.5135	0.192
Mof_H 	H 	0.2268	0.0071	0.6366	0.075
Mof_H 	H 	0.1596	0.0969	0.7099	0.05
Mof_H 	H 	0.7866	0.0436	0.6872	0.065
Mof_H 	H 	0.8532	0.9532	0.6163	0.07
Mof_H 	H 	0.9929	0.1576	0.788	0.163
Mof_H 	H 	0.8523	0.1296	0.8006	0.168
Mof_H 	H 	0.3764	0.6588	0.7778	0.151
Mof_H 	H 	0.5112	0.6852	0.7431	0.145
Mof_H 	H 	0.6724	0.6143	0.6861	0.04
Mof_H 	H 	0.7313	0.5188	0.6293	0.086
Mof_H 	H 	0.3577	0.4665	0.6307	0.084
Mof_H 	H 	0.2962	0.5616	0.6874	0.053
Mof_H 	H 	0.5395	0.412	0.5292	0.176
Mof_H 	H 	0.6837	0.4248	0.5627	0.179
Mof_H 	H 	0.8629	0.6261	0.4128	0.185
Mof_H 	H 	0.7992	0.6213	0.5135	0.19
Mof_H 	H 	0.9203	0.528	0.3547	0.073
Mof_H 	H 	0.9904	0.567	0.6282	0.081
Mof_H 	H 	0.6516	0.8678	0.4501	0.165
Mof_H 	H 	0.5871	0.8848	0.3538	0.175
Mof_H 	H 	0.4664	0.9775	0.3408	0.077
Mof_H 	H 	0.5949	0.9288	0.5958	0.061
Mof_H 	H 	0.3153	0.9157	0.055	0.196
Mof_H 	H 	0.4564	0.9056	0.0135	0.195
Mof_H 	H 	0.2732	0.0071	0.1366	0.079
Mof_H 	H 	0.3404	0.0969	0.2099	0.047
Mof_H 	H 	0.7134	0.0436	0.1872	0.061
Mof_H 	H 	0.6468	0.9532	0.1163	0.073
Mof_H 	H 	0.5071	0.1576	0.288	0.16
Mof_H 	H 	0.6477	0.1296	0.3006	0.165
Mof_H 	H 	0.1236	0.6588	0.2778	0.151
Mof_H 	H 	0.9888	0.6852	0.2431	0.143
Mof_H 	H 	0.8276	0.6143	0.1861	0.044
Mof_H 	H 	0.7687	0.5188	0.1293	0.082
Mof_H 	H 	0.1423	0.4665	0.1307	0.079
Mof_H 	H 	0.2038	0.5616	0.1874	0.058
Mof_H 	H 	0.9605	0.412	0.0292	0.172
Mof_H 	H 	0.8163	0.4248	0.0627	0.176
Mof_H 	H 	0.6371	0.6261	0.9128	0.185
Mof_H 	H 	0.7008	0.6213	0.0135	0.188
Mof_H 	H 	0.5797	0.528	0.8547	0.073
Mof_H 	H 	0.5096	0.567	0.1282	0.08
Mof_H 	H 	0.8484	0.8678	0.9501	0.165
Mof_H 	H 	0.9129	0.8848	0.8538	0.176
Mof_H 	H 	0.0336	0.9775	0.8408	0.079
Mof_H 	H 	0.9051	0.9288	0.0958	0.06
Mof_H 	H 	0.8153	0.0843	0.445	0.193
Mof_H 	H 	0.9564	0.0944	0.4865	0.192
Mof_H 	H 	0.7732	0.9929	0.3634	0.075
Mof_H 	H 	0.8404	0.9031	0.2901	0.05
Mof_H 	H 	0.2134	0.9564	0.3128	0.065
Mof_H 	H 	0.1468	0.0468	0.3837	0.07
Mof_H 	H 	0.0071	0.8424	0.212	0.163
Mof_H 	H 	0.1477	0.8704	0.1994	0.168
Mof_H 	H 	0.6236	0.3412	0.2222	0.151
Mof_H 	H 	0.4888	0.3148	0.2569	0.145
Mof_H 	H 	0.3276	0.3857	0.3139	0.04
Mof_H 	H 	0.2687	0.4812	0.3707	0.086
Mof_H 	H 	0.6423	0.5335	0.3693	0.084
Mof_H 	H 	0.7038	0.4384	0.3126	0.053
Mof_H 	H 	0.4605	0.588	0.4708	0.176
Mof_H 	H 	0.3163	0.5752	0.4373	0.179
Mof_H 	H 	0.1371	0.3739	0.5872	0.185
Mof_H 	H 	0.2008	0.3787	0.4865	0.19
Mof_H 	H 	0.0797	0.472	0.6453	0.073
Mof_H 	H 	0.0096	0.433	0.3718	0.081
Mof_H 	H 	0.3484	0.1322	0.5499	0.165
Mof_H 	H 	0.4129	0.1152	0.6462	0.175
Mof_H 	H 	0.5336	0.0225	0.6592	0.077
Mof_H 	H 	0.4051	0.0712	0.4042	0.061
Mof_C 	C 	0.5782	0.14506	0.871	0.561
Mof_C 	C 	0.5927	0.0886	0.9281	-0.549
Mof_C 	C 	0.5476	0.02995	0.8806	0.204
Mof_C 	C 	0.6376	0.9861	0.8527	-0.15
Mof_C 	C 	0.5971	0.93186	0.8088	-0.089
Mof_C 	C 	0.4664	0.92031	0.7927	0.15
Mof_C 	C 	0.3758	0.9637	0.822	-0.098
Mof_C 	C 	0.4158	0.018	0.8651	-0.133
Mof_C 	C 	0.4199	0.8614	0.7454	-0.485
Mof_C 	C 	0.3656	0.81792	0.8157	0.521
Mof_C 	C 	0.8646	0.30757	0.8559	0.492
Mof_C 	C 	0.9348	0.33845	0.7762	-0.443
Mof_C 	C 	0.9772	0.40159	0.8091	0.128
Mof_C 	C 	0.1081	0.4151	0.8254	-0.085
Mof_C 	C 	0.1431	0.4727	0.8591	-0.156
Mof_C 	C 	0.0514	0.5172	0.8757	0.201
Mof_C 	C 	0.9215	0.5039	0.8584	-0.138
Mof_C 	C 	0.8844	0.4466	0.8247	-0.085
Mof_C 	C 	0.0934	0.5784	0.9158	-0.528
Mof_C 	C 	0.0848	0.63072	0.8497	0.549
Mof_C 	C 	0.4724	0.33012	0.9835	0.629
Mof_C 	C 	0.3817	0.38027	0.0209	-0.555
Mof_C 	C 	0.4442	0.44206	0.0104	0.182
Mof_C 	C 	0.452	0.4831	0.0865	-0.122
Mof_C 	C 	0.4938	0.4598	0.9236	-0.121
Mof_C 	C 	0.9647	0.16477	0.0641	0.519
Mof_C 	C 	0.071	0.11837	0.0789	-0.504
Mof_C 	C 	0.0368	0.05664	0.0383	0.19
Mof_C 	C 	0.98	0.01368	0.0952	-0.132
Mof_C 	C 	0.0567	0.04259	0.9428	-0.109
Mof_C 	C 	0.0782	0.85494	0.629	0.559
Mof_C 	C 	0.0927	0.9114	0.5719	-0.542
Mof_C 	C 	0.0476	0.97005	0.6194	0.192
Mof_C 	C 	0.1376	0.0139	0.6473	-0.138
Mof_C 	C 	0.0971	0.06814	0.6912	-0.1
Mof_C 	C 	0.9664	0.07969	0.7073	0.159
Mof_C 	C 	0.8758	0.0363	0.678	-0.106
Mof_C 	C 	0.9158	0.982	0.6349	-0.122
Mof_C 	C 	0.9199	0.1386	0.7546	-0.491
Mof_C 	C 	0.8656	0.18208	0.6843	0.523
Mof_C 	C 	0.3646	0.69243	0.6441	0.492
Mof_C 	C 	0.4348	0.66155	0.7238	-0.442
Mof_C 	C 	0.4772	0.59841	0.6909	0.117
Mof_C 	C 	0.6081	0.5849	0.6746	-0.071
Mof_C 	C 	0.6431	0.5273	0.6409	-0.169
Mof_C 	C 	0.5514	0.4828	0.6243	0.216
Mof_C 	C 	0.4215	0.4961	0.6416	-0.155
Mof_C 	C 	0.3844	0.5534	0.6753	-0.074
Mof_C 	C 	0.5934	0.4216	0.5842	-0.538
Mof_C 	C 	0.5848	0.36928	0.6503	0.553
Mof_C 	C 	0.9724	0.66988	0.5165	0.629
Mof_C 	C 	0.8817	0.61973	0.4791	-0.559
Mof_C 	C 	0.9442	0.55794	0.4896	0.181
Mof_C 	C 	0.952	0.5169	0.4135	-0.124
Mof_C 	C 	0.9938	0.5402	0.5764	-0.121
Mof_C 	C 	0.4647	0.83523	0.4359	0.523
Mof_C 	C 	0.571	0.88163	0.4211	-0.506
Mof_C 	C 	0.5368	0.94336	0.4617	0.18
Mof_C 	C 	0.48	0.98632	0.4048	-0.122
Mof_C 	C 	0.5567	0.95741	0.5572	-0.106
Mof_C 	C 	0.4218	0.85494	0.129	0.561
Mof_C 	C 	0.4073	0.9114	0.0719	-0.549
Mof_C 	C 	0.4524	0.97005	0.1194	0.204
Mof_C 	C 	0.3624	0.0139	0.1473	-0.15
Mof_C 	C 	0.4029	0.06814	0.1912	-0.089
Mof_C 	C 	0.5336	0.07969	0.2073	0.15
Mof_C 	C 	0.6242	0.0363	0.178	-0.098
Mof_C 	C 	0.5842	0.982	0.1349	-0.133
Mof_C 	C 	0.5801	0.1386	0.2546	-0.485
Mof_C 	C 	0.6344	0.18208	0.1843	0.521
Mof_C 	C 	0.1354	0.69243	0.1441	0.492
Mof_C 	C 	0.0652	0.66155	0.2238	-0.443
Mof_C 	C 	0.0228	0.59841	0.1909	0.128
Mof_C 	C 	0.8919	0.5849	0.1746	-0.085
Mof_C 	C 	0.8569	0.5273	0.1409	-0.156
Mof_C 	C 	0.9486	0.4828	0.1243	0.201
Mof_C 	C 	0.0785	0.4961	0.1416	-0.138
Mof_C 	C 	0.1156	0.5534	0.1753	-0.085
Mof_C 	C 	0.9066	0.4216	0.0842	-0.528
Mof_C 	C 	0.9152	0.36928	0.1503	0.549
Mof_C 	C 	0.5276	0.66988	0.0165	0.629
Mof_C 	C 	0.6183	0.61973	0.9791	-0.555
Mof_C 	C 	0.5558	0.55794	0.9896	0.182
Mof_C 	C 	0.548	0.5169	0.9135	-0.122
Mof_C 	C 	0.5062	0.5402	0.0764	-0.121
Mof_C 	C 	0.0353	0.83523	0.9359	0.519
Mof_C 	C 	0.929	0.88163	0.9211	-0.504
Mof_C 	C 	0.9632	0.94336	0.9617	0.19
Mof_C 	C 	0.02	0.98632	0.9048	-0.132
Mof_C 	C 	0.9433	0.95741	0.0572	-0.109
Mof_C 	C 	0.9218	0.14506	0.371	0.559
Mof_C 	C 	0.9073	0.0886	0.4281	-0.542
Mof_C 	C 	0.9524	0.02995	0.3806	0.192
Mof_C 	C 	0.8624	0.9861	0.3527	-0.138
Mof_C 	C 	0.9029	0.93186	0.3088	-0.1
Mof_C 	C 	0.0336	0.92031	0.2927	0.159
Mof_C 	C 	0.1242	0.9637	0.322	-0.106
Mof_C 	C 	0.0842	0.018	0.3651	-0.122
Mof_C 	C 	0.0801	0.8614	0.2454	-0.491
Mof_C 	C 	0.1344	0.81792	0.3157	0.523
Mof_C 	C 	0.6354	0.30757	0.3559	0.492
Mof_C 	C 	0.5652	0.33845	0.2762	-0.442
Mof_C 	C 	0.5228	0.40159	0.3091	0.117
Mof_C 	C 	0.3919	0.4151	0.3254	-0.071
Mof_C 	C 	0.3569	0.4727	0.3591	-0.169
Mof_C 	C 	0.4486	0.5172	0.3757	0.216
Mof_C 	C 	0.5785	0.5039	0.3584	-0.155
Mof_C 	C 	0.6156	0.4466	0.3247	-0.074
Mof_C 	C 	0.4066	0.5784	0.4158	-0.538
Mof_C 	C 	0.4152	0.63072	0.3497	0.553
Mof_C 	C 	0.0276	0.33012	0.4835	0.629
Mof_C 	C 	0.1183	0.38027	0.5209	-0.559
Mof_C 	C 	0.0558	0.44206	0.5104	0.181
Mof_C 	C 	0.048	0.4831	0.5865	-0.124
Mof_C 	C 	0.0062	0.4598	0.4236	-0.121
Mof_C 	C 	0.5353	0.16477	0.5641	0.523
Mof_C 	C 	0.429	0.11837	0.5789	-0.506
Mof_C 	C 	0.4632	0.05664	0.5383	0.18
Mof_C 	C 	0.52	0.01368	0.5952	-0.122
Mof_C 	C 	0.4433	0.04259	0.4428	-0.106
Mof_O 	O 	0.6318	0.19401	0.90235	-0.704
Mof_O 	O 	0.5182	0.14588	0.7951	-0.524
Mof_O 	O 	0.2655	0.78578	0.7955	-0.639
Mof_O 	O 	0.4206	0.8128	0.8935	-0.52
Mof_O 	O 	0.741	0.30805	0.861	-0.619
Mof_O 	O 	0.9313	0.28358	0.9191	-0.52
Mof_O 	O 	0.162	0.67509	0.86519	-0.69
Mof_O 	O 	0.0066	0.63223	0.7828	-0.514
Mof_O 	O 	0.4484	0.3063	0.9044	-0.597
Mof_O 	O 	0.5664	0.31628	0.0345	-0.614
Mof_O 	O 	0.9748	0.21672	0.10593	-0.654
Mof_O 	O 	0.8694	0.15293	0.0119	-0.541
Mof_O 	O 	0.1318	0.80599	0.59765	-0.705
Mof_O 	O 	0.0182	0.85412	0.7049	-0.524
Mof_O 	O 	0.7655	0.21422	0.7045	-0.64
Mof_O 	O 	0.9206	0.1872	0.6065	-0.521
Mof_O 	O 	0.241	0.69195	0.639	-0.62
Mof_O 	O 	0.4313	0.71642	0.5809	-0.523
Mof_O 	O 	0.662	0.32491	0.63481	-0.691
Mof_O 	O 	0.5066	0.36777	0.7172	-0.514
Mof_O 	O 	0.9484	0.6937	0.5956	-0.596
Mof_O 	O 	0.0664	0.68372	0.4655	-0.615
Mof_O 	O 	0.4748	0.78328	0.39407	-0.654
Mof_O 	O 	0.3694	0.84707	0.4881	-0.54
Mof_O 	O 	0.3682	0.80599	0.09765	-0.704
Mof_O 	O 	0.4818	0.85412	0.2049	-0.524
Mof_O 	O 	0.7345	0.21422	0.2045	-0.639
Mof_O 	O 	0.5794	0.1872	0.1065	-0.52
Mof_O 	O 	0.259	0.69195	0.139	-0.619
Mof_O 	O 	0.0687	0.71642	0.0809	-0.52
Mof_O 	O 	0.838	0.32491	0.13481	-0.69
Mof_O 	O 	0.9934	0.36777	0.2172	-0.514
Mof_O 	O 	0.5516	0.6937	0.0956	-0.597
Mof_O 	O 	0.4336	0.68372	0.9655	-0.614
Mof_O 	O 	0.0252	0.78328	0.89407	-0.654
Mof_O 	O 	0.1306	0.84707	0.9881	-0.541
Mof_O 	O 	0.8682	0.19401	0.40235	-0.705
Mof_O 	O 	0.9818	0.14588	0.2951	-0.524
Mof_O 	O 	0.2345	0.78578	0.2955	-0.64
Mof_O 	O 	0.0794	0.8128	0.3935	-0.521
Mof_O 	O 	0.759	0.30805	0.361	-0.62
Mof_O 	O 	0.5687	0.28358	0.4191	-0.523
Mof_O 	O 	0.338	0.67509	0.36519	-0.691
Mof_O 	O 	0.4934	0.63223	0.2828	-0.514
Mof_O 	O 	0.0516	0.3063	0.4044	-0.596
Mof_O 	O 	0.9336	0.31628	0.5345	-0.615
Mof_O 	O 	0.5252	0.21672	0.60593	-0.654
Mof_O 	O 	0.6306	0.15293	0.5119	-0.54
_end
