data_functionalizedCrystal
_audit_creation_method	'EQeq! by Chris Wilmer'
_symmetry_space_group_name_H-M	'P1'
_symmetry_Int_Tables_number	1
_symmetry_cell_setting	triclinic
loop_
_symmetry_equiv_pos_as_xyz
  x,y,z
_cell_length_a	14.708
_cell_length_b	15.429
_cell_length_c	23.084
_cell_angle_alpha	84.282
_cell_angle_beta	82.619
_cell_angle_gamma	86.756
loop_
_atom_site_label
_atom_site_type_symbol
_atom_site_fract_x
_atom_site_fract_y
_atom_site_fract_z
_atom_site_charge
Mof_C 	C 	0.9644	0.0363	0.21	0.515
Mof_C 	C 	0.0405	0.0005	0.1699	-0.317
Mof_C 	C 	0.1291	0.0262	0.1711	0.249
Mof_H 	H 	0.1398	0.0644	0.1979	-0.043
Mof_C 	C 	0.0268	0.9435	0.1294	0.272
Mof_H 	H 	0.968	0.9255	0.1277	-0.062
Mof_C 	C 	0.099	0.913	0.0914	-0.382
Mof_H 	H 	0.0888	0.8742	0.0648	0.167
Mof_C 	C 	0.2017	0.9962	0.1331	-0.365
Mof_H 	H 	0.2607	0.0138	0.1347	0.173
Mof_C 	C 	0.1864	0.94	0.0928	0.369
Mof_C 	C 	0.2521	0.8754	0.006	0.391
Mof_C 	C 	0.2067	0.921	0.9634	-0.425
Mof_H 	H 	0.1814	0.9766	0.9688	0.191
Mof_C 	C 	0.2919	0.7946	0.9983	-0.406
Mof_H 	H 	0.3239	0.7648	0.0269	0.174
Mof_C 	C 	0.199	0.8837	0.9129	0.325
Mof_H 	H 	0.1679	0.9143	0.8841	-0.09
Mof_C 	C 	0.2835	0.7583	0.9472	0.309
Mof_H 	H 	0.3103	0.7032	0.9418	-0.069
Mof_C 	C 	0.237	0.8007	0.9041	-0.378
Mof_C 	C 	0.2258	0.7605	0.8489	0.621
Mof_C 	C 	0.7824	0.9216	0.3593	0.433
Mof_C 	C 	0.7521	0.9345	0.4221	-0.306
Mof_C 	C 	0.6761	0.9894	0.4361	0.258
Mof_H 	H 	0.6455	0.0182	0.4064	-0.058
Mof_C 	C 	0.7966	0.8919	0.4659	0.236
Mof_H 	H 	0.8464	0.8537	0.4567	-0.052
Mof_C 	C 	0.6461	0.0013	0.494	-0.392
Mof_H 	H 	0.5944	0.037	0.5035	0.171
Mof_C 	C 	0.7677	0.9052	0.5242	-0.356
Mof_H 	H 	0.7987	0.8774	0.554	0.169
Mof_C 	C 	0.6922	0.9606	0.5371	0.375
Mof_C 	C 	0.6029	0.0345	0.6128	0.408
Mof_C 	C 	0.6207	0.1209	0.5993	-0.412
Mof_H 	H 	0.6746	0.1367	0.576	0.178
Mof_C 	C 	0.5254	0.0096	0.6461	-0.422
Mof_H 	H 	0.514	0.9508	0.6549	0.191
Mof_C 	C 	0.5588	0.1846	0.6203	0.276
Mof_H 	H 	0.5713	0.2431	0.6114	-0.06
Mof_C 	C 	0.478	0.1611	0.6544	-0.341
Mof_C 	C 	0.462	0.0738	0.6671	0.306
Mof_H 	H 	0.4081	0.0571	0.6901	-0.098
Mof_C 	C 	0.4116	0.2281	0.6811	0.491
Mof_C 	C 	0.7479	0.8352	0.1249	0.486
Mof_C 	C 	0.7194	0.8295	0.0656	-0.303
Mof_C 	C 	0.7847	0.8341	0.0165	0.256
Mof_H 	H 	0.8454	0.8438	0.0204	-0.053
Mof_C 	C 	0.6287	0.8187	0.0593	0.285
Mof_H 	H 	0.5845	0.8167	0.092	-0.081
Mof_C 	C 	0.7605	0.8246	0.9622	-0.382
Mof_H 	H 	0.8047	0.8251	0.9295	0.18
Mof_C 	C 	0.6033	0.8108	0.0046	-0.4
Mof_H 	H 	0.5424	0.8033	-0	0.172
Mof_C 	C 	0.6704	0.8144	0.9568	0.39
Mof_C 	C 	0.5745	0.8344	0.8793	0.415
Mof_C 	C 	0.5387	0.9165	0.8912	-0.432
Mof_H 	H 	0.5635	0.9477	0.9175	0.187
Mof_C 	C 	0.5382	0.7875	0.8409	-0.428
Mof_H 	H 	0.5622	0.7318	0.834	0.199
Mof_C 	C 	0.4658	0.951	0.8634	0.321
Mof_H 	H 	0.4401	0.0054	0.872	-0.073
Mof_C 	C 	0.4667	0.8233	0.8127	0.327
Mof_H 	H 	0.4422	0.7918	0.7865	-0.082
Mof_C 	C 	0.4299	0.9069	0.823	-0.379
Mof_C 	C 	0.3519	0.9436	0.792	0.614
Mof_C 	C 	0.9108	0.7251	0.2166	0.54
Mof_C 	C 	0.9822	0.6635	0.1887	-0.383
Mof_C 	C 	0.0712	0.6864	0.1814	0.329
Mof_H 	H 	0.0859	0.7398	0.1923	-0.07
Mof_C 	C 	0.9612	0.586	0.1716	0.352
Mof_H 	H 	0.9005	0.5698	0.1763	-0.105
Mof_C 	C 	0.1402	0.6305	0.1577	-0.461
Mof_H 	H 	0.2013	0.6453	0.1541	0.197
Mof_C 	C 	0.0309	0.5308	0.1469	-0.467
Mof_H 	H 	0.017	0.4776	0.1353	0.199
Mof_C 	C 	0.1184	0.5551	0.14	0.451
Mof_C 	C 	0.2045	0.4864	0.0612	0.459
Mof_C 	C 	0.1738	0.5448	0.019	-0.488
Mof_H 	H 	0.1391	0.5944	0.0294	0.2
Mof_C 	C 	0.2572	0.4145	0.0464	-0.476
Mof_H 	H 	0.2787	0.375	0.0752	0.221
Mof_C 	C 	0.1943	0.5299	0.9607	0.369
Mof_H 	H 	0.1724	0.5694	0.932	-0.099
Mof_C 	C 	0.2779	0.4016	0.988	0.362
Mof_H 	H 	0.3146	0.353	0.9778	-0.078
Mof_C 	C 	0.2467	0.4573	0.9444	-0.416
Mof_C 	C 	0.2708	0.4377	0.8821	0.611
Mof_C 	C 	0.7051	0.5076	0.3359	0.476
Mof_C 	C 	0.7032	0.5533	0.3893	-0.317
Mof_C 	C 	0.7569	0.6247	0.3898	0.285
Mof_H 	H 	0.7964	0.6425	0.3565	-0.083
Mof_C 	C 	0.6455	0.5277	0.439	0.27
Mof_H 	H 	0.6095	0.4801	0.4392	-0.054
Mof_C 	C 	0.7523	0.6692	0.4387	-0.395
Mof_H 	H 	0.7886	0.7166	0.4387	0.187
Mof_C 	C 	0.6405	0.5722	0.4887	-0.387
Mof_H 	H 	0.6016	0.5544	0.5223	0.172
Mof_C 	C 	0.6936	0.6428	0.4877	0.386
Mof_C 	C 	0.6073	0.7103	0.5662	0.414
Mof_C 	C 	0.5935	0.6937	0.6254	-0.436
Mof_H 	H 	0.6408	0.669	0.6456	0.196
Mof_C 	C 	0.5395	0.7489	0.5365	-0.411
Mof_H 	H 	0.5499	0.7606	0.4959	0.181
Mof_C 	C 	0.5091	0.7138	0.6555	0.332
Mof_H 	H 	0.4996	0.7012	0.696	-0.096
Mof_C 	C 	0.4544	0.7711	0.5666	0.289
Mof_H 	H 	0.4082	0.7986	0.5466	-0.063
Mof_C 	C 	0.4399	0.7512	0.6274	-0.358
Mof_C 	C 	0.3471	0.7712	0.6588	0.544
Mof_C 	C 	0.5184	0.4817	0.2381	0.48
Mof_C 	C 	0.4241	0.4976	0.2677	-0.329
Mof_C 	C 	0.4125	0.5422	0.318	0.257
Mof_H 	H 	0.4623	0.5675	0.3295	-0.062
Mof_C 	C 	0.3498	0.4628	0.2506	0.282
Mof_H 	H 	0.3574	0.432	0.2176	-0.058
Mof_C 	C 	0.3278	0.5492	0.3504	-0.372
Mof_H 	H 	0.3207	0.5776	0.3845	0.175
Mof_C 	C 	0.2642	0.4725	0.2809	-0.402
Mof_H 	H 	0.2138	0.4516	0.2671	0.182
Mof_C 	C 	0.2525	0.5135	0.3322	0.38
Mof_C 	C 	0.0998	0.4737	0.3546	0.433
Mof_C 	C 	0.034	0.5187	0.326	-0.449
Mof_H 	H 	0.0345	0.5791	0.3189	0.201
Mof_C 	C 	0.0959	0.3865	0.3705	-0.462
Mof_H 	H 	0.1389	0.3582	0.3929	0.208
Mof_C 	C 	0.9666	0.4729	0.3077	0.348
Mof_H 	H 	0.9218	0.5024	0.2873	-0.086
Mof_C 	C 	0.0287	0.3408	0.3535	0.35
Mof_H 	H 	0.0251	0.2814	0.3647	-0.09
Mof_C 	C 	0.9656	0.3835	0.3194	-0.402
Mof_C 	C 	0.8997	0.3327	0.2945	0.622
Mof_Nd	Nd	0.81455	0.13019	0.28154	2.503
Mof_Nd	Nd	0.78876	0.88006	0.23844	2.637
Mof_Nd	Nd	0.66772	0.66493	0.22696	2.395
Mof_Nd	Nd	0.70391	0.40303	0.23495	2.745
Mof_O 	O 	0.9765	0.0984	0.23803	-0.543
Mof_O 	O 	0.8857	0.0017	0.21591	-0.727
Mof_O 	O 	0.2635	0.912	0.05755	-0.355
Mof_O 	O 	0.1749	0.797	0.81441	-0.638
Mof_O 	O 	0.2702	0.6886	0.84134	-0.648
Mof_O 	O 	0.7571	0.9794	0.31968	-0.702
Mof_O 	O 	0.8273	0.8548	0.3441	-0.509
Mof_O 	O 	0.6668	0.9691	0.59626	-0.354
Mof_O 	O 	0.4319	0.3057	0.67774	-0.521
Mof_O 	O 	0.3363	0.2032	0.7107	-0.734
Mof_O 	O 	0.8206	0.8708	0.12981	-0.519
Mof_O 	O 	0.6962	0.8049	0.17037	-0.699
Mof_O 	O 	0.6514	0.7979	0.9018	-0.368
Mof_O 	O 	0.3221	0.0199	0.80001	-0.626
Mof_O 	O 	0.3216	0.8977	0.7575	-0.622
Mof_O 	O 	0.9338	0.796	0.22995	-0.575
Mof_O 	O 	0.8269	0.7055	0.22502	-0.679
Mof_O 	O 	0.1883	0.4958	0.1204	-0.386
Mof_O 	O 	0.2458	0.4911	0.842	-0.702
Mof_O 	O 	0.3148	0.3687	0.87168	-0.63
Mof_O 	O 	0.7372	0.5467	0.28647	-0.672
Mof_O 	O 	0.6746	0.4327	0.33939	-0.548
Mof_O 	O 	0.6934	0.6886	0.5365	-0.356
Mof_O 	O 	0.3251	0.7345	0.71016	-0.701
Mof_O 	O 	0.2937	0.8261	0.63542	-0.568
Mof_O 	O 	0.5808	0.5335	0.241	-0.734
Mof_O 	O 	0.5384	0.4113	0.21423	-0.531
Mof_O 	O 	0.172	0.5211	0.3683	-0.357
Mof_O 	O 	0.8505	0.3749	0.2577	-0.678
Mof_O 	O 	0.8933	0.2525	0.30818	-0.618
Mof_C 	C 	0.0356	0.9637	0.79	0.517
Mof_C 	C 	0.9595	0.9995	0.8301	-0.318
Mof_C 	C 	0.8709	0.9738	0.8289	0.252
Mof_H 	H 	0.8602	0.9356	0.8021	-0.044
Mof_C 	C 	0.9732	0.0565	0.8706	0.276
Mof_H 	H 	0.032	0.0745	0.8723	-0.063
Mof_C 	C 	0.901	0.087	0.9086	-0.387
Mof_H 	H 	0.9112	0.1258	0.9352	0.17
Mof_C 	C 	0.7983	0.0038	0.8669	-0.369
Mof_H 	H 	0.7393	0.9862	0.8653	0.175
Mof_C 	C 	0.8136	0.06	0.9072	0.375
Mof_C 	C 	0.7479	0.1246	0.994	0.437
Mof_C 	C 	0.7933	0.079	0.0366	-0.469
Mof_H 	H 	0.8186	0.0234	0.0312	0.204
Mof_C 	C 	0.7081	0.2054	0.0017	-0.466
Mof_H 	H 	0.6761	0.2352	0.9731	0.2
Mof_C 	C 	0.801	0.1163	0.0871	0.358
Mof_H 	H 	0.8321	0.0857	0.1159	-0.101
Mof_C 	C 	0.7165	0.2417	0.0528	0.348
Mof_H 	H 	0.6897	0.2968	0.0582	-0.084
Mof_C 	C 	0.763	0.1993	0.0959	-0.405
Mof_C 	C 	0.7742	0.2395	0.1511	0.631
Mof_C 	C 	0.2176	0.0784	0.6407	0.433
Mof_C 	C 	0.2479	0.0655	0.5779	-0.306
Mof_C 	C 	0.3239	0.0106	0.5639	0.258
Mof_H 	H 	0.3545	0.9818	0.5936	-0.058
Mof_C 	C 	0.2034	0.1081	0.5341	0.236
Mof_H 	H 	0.1536	0.1463	0.5433	-0.052
Mof_C 	C 	0.3539	0.9987	0.506	-0.392
Mof_H 	H 	0.4056	0.963	0.4965	0.171
Mof_C 	C 	0.2323	0.0948	0.4758	-0.356
Mof_H 	H 	0.2013	0.1226	0.446	0.169
Mof_C 	C 	0.3078	0.0394	0.4629	0.375
Mof_C 	C 	0.3971	0.9655	0.3872	0.408
Mof_C 	C 	0.3793	0.8791	0.4007	-0.412
Mof_H 	H 	0.3254	0.8633	0.424	0.178
Mof_C 	C 	0.4746	0.9904	0.3539	-0.422
Mof_H 	H 	0.486	0.0492	0.3451	0.191
Mof_C 	C 	0.4412	0.8154	0.3797	0.276
Mof_H 	H 	0.4287	0.7569	0.3886	-0.06
Mof_C 	C 	0.522	0.8389	0.3456	-0.341
Mof_C 	C 	0.538	0.9262	0.3329	0.306
Mof_H 	H 	0.5919	0.9429	0.3099	-0.098
Mof_C 	C 	0.5884	0.7719	0.3189	0.491
Mof_C 	C 	0.2521	0.1648	0.8751	0.485
Mof_C 	C 	0.2806	0.1705	0.9344	-0.3
Mof_C 	C 	0.2153	0.1659	0.9835	0.264
Mof_H 	H 	0.1546	0.1562	0.9796	-0.054
Mof_C 	C 	0.3713	0.1813	0.9407	0.276
Mof_H 	H 	0.4155	0.1833	0.908	-0.077
Mof_C 	C 	0.2395	0.1754	0.0378	-0.387
Mof_H 	H 	0.1953	0.1749	0.0705	0.18
Mof_C 	C 	0.3967	0.1892	0.9954	-0.378
Mof_H 	H 	0.4576	0.1967	-0	0.162
Mof_C 	C 	0.3296	0.1856	0.0432	0.378
Mof_C 	C 	0.4255	0.1656	0.1207	0.412
Mof_C 	C 	0.4613	0.0835	0.1088	-0.43
Mof_H 	H 	0.4365	0.0523	0.0825	0.185
Mof_C 	C 	0.4618	0.2125	0.1591	-0.426
Mof_H 	H 	0.4378	0.2682	0.166	0.198
Mof_C 	C 	0.5342	0.049	0.1366	0.32
Mof_H 	H 	0.5599	0.9946	0.128	-0.073
Mof_C 	C 	0.5333	0.1767	0.1873	0.326
Mof_H 	H 	0.5578	0.2082	0.2135	-0.082
Mof_C 	C 	0.5701	0.0931	0.177	-0.378
Mof_C 	C 	0.6481	0.0564	0.208	0.614
Mof_C 	C 	0.0892	0.2749	0.7834	0.54
Mof_C 	C 	0.0178	0.3365	0.8113	-0.382
Mof_C 	C 	0.9288	0.3136	0.8186	0.327
Mof_H 	H 	0.9141	0.2602	0.8077	-0.069
Mof_C 	C 	0.0388	0.414	0.8284	0.351
Mof_H 	H 	0.0995	0.4302	0.8237	-0.104
Mof_C 	C 	0.8598	0.3695	0.8423	-0.459
Mof_H 	H 	0.7987	0.3547	0.8459	0.196
Mof_C 	C 	0.9691	0.4692	0.8531	-0.465
Mof_H 	H 	0.983	0.5224	0.8647	0.199
Mof_C 	C 	0.8816	0.4449	0.86	0.448
Mof_C 	C 	0.7955	0.5136	0.9388	0.436
Mof_C 	C 	0.8262	0.4552	0.981	-0.454
Mof_H 	H 	0.8609	0.4056	0.9706	0.19
Mof_C 	C 	0.7428	0.5855	0.9536	-0.44
Mof_H 	H 	0.7213	0.625	0.9248	0.21
Mof_C 	C 	0.8057	0.4701	0.0393	0.335
Mof_H 	H 	0.8276	0.4306	0.068	-0.088
Mof_C 	C 	0.7221	0.5984	0.012	0.327
Mof_H 	H 	0.6854	0.647	0.0222	-0.068
Mof_C 	C 	0.7533	0.5427	0.0556	-0.393
Mof_C 	C 	0.7292	0.5623	0.1179	0.602
Mof_C 	C 	0.2949	0.4924	0.6641	0.476
Mof_C 	C 	0.2968	0.4467	0.6107	-0.317
Mof_C 	C 	0.2431	0.3753	0.6102	0.285
Mof_H 	H 	0.2036	0.3575	0.6435	-0.083
Mof_C 	C 	0.3545	0.4723	0.561	0.27
Mof_H 	H 	0.3905	0.5199	0.5608	-0.054
Mof_C 	C 	0.2477	0.3308	0.5613	-0.395
Mof_H 	H 	0.2114	0.2834	0.5613	0.187
Mof_C 	C 	0.3595	0.4278	0.5113	-0.387
Mof_H 	H 	0.3984	0.4456	0.4777	0.172
Mof_C 	C 	0.3064	0.3572	0.5123	0.386
Mof_C 	C 	0.3927	0.2897	0.4338	0.414
Mof_C 	C 	0.4065	0.3063	0.3746	-0.436
Mof_H 	H 	0.3592	0.331	0.3544	0.196
Mof_C 	C 	0.4605	0.2511	0.4635	-0.411
Mof_H 	H 	0.4501	0.2394	0.5041	0.181
Mof_C 	C 	0.4909	0.2862	0.3445	0.332
Mof_H 	H 	0.5004	0.2988	0.304	-0.096
Mof_C 	C 	0.5456	0.2289	0.4334	0.289
Mof_H 	H 	0.5918	0.2014	0.4534	-0.063
Mof_C 	C 	0.5601	0.2488	0.3726	-0.358
Mof_C 	C 	0.6529	0.2288	0.3412	0.544
Mof_C 	C 	0.4816	0.5183	0.7619	0.48
Mof_C 	C 	0.5759	0.5024	0.7323	-0.329
Mof_C 	C 	0.5875	0.4578	0.682	0.256
Mof_H 	H 	0.5377	0.4325	0.6705	-0.062
Mof_C 	C 	0.6502	0.5372	0.7494	0.281
Mof_H 	H 	0.6426	0.568	0.7824	-0.058
Mof_C 	C 	0.6722	0.4508	0.6496	-0.372
Mof_H 	H 	0.6793	0.4224	0.6155	0.175
Mof_C 	C 	0.7358	0.5275	0.7191	-0.402
Mof_H 	H 	0.7862	0.5484	0.7329	0.182
Mof_C 	C 	0.7475	0.4865	0.6678	0.38
Mof_C 	C 	0.9002	0.5263	0.6454	0.433
Mof_C 	C 	0.966	0.4813	0.674	-0.449
Mof_H 	H 	0.9655	0.4209	0.6811	0.201
Mof_C 	C 	0.9041	0.6135	0.6295	-0.462
Mof_H 	H 	0.8611	0.6418	0.6071	0.208
Mof_C 	C 	0.0334	0.5271	0.6923	0.348
Mof_H 	H 	0.0782	0.4976	0.7127	-0.086
Mof_C 	C 	0.9713	0.6592	0.6465	0.35
Mof_H 	H 	0.9749	0.7186	0.6353	-0.09
Mof_C 	C 	0.0344	0.6165	0.6806	-0.402
Mof_C 	C 	0.1003	0.6673	0.7055	0.622
Mof_Nd	Nd	0.18545	0.86981	0.71846	2.502
Mof_Nd	Nd	0.21124	0.11994	0.76156	2.637
Mof_Nd	Nd	0.33228	0.33507	0.77304	2.396
Mof_Nd	Nd	0.29609	0.59697	0.76505	2.745
Mof_O 	O 	0.0235	0.9016	0.76197	-0.543
Mof_O 	O 	0.1143	0.9983	0.78409	-0.727
Mof_O 	O 	0.7365	0.088	0.94245	-0.365
Mof_O 	O 	0.8251	0.203	0.18559	-0.641
Mof_O 	O 	0.7298	0.3114	0.15866	-0.651
Mof_O 	O 	0.2429	0.0206	0.68032	-0.702
Mof_O 	O 	0.1727	0.1452	0.6559	-0.509
Mof_O 	O 	0.3332	0.0309	0.40374	-0.354
Mof_O 	O 	0.5681	0.6943	0.32226	-0.521
Mof_O 	O 	0.6637	0.7968	0.2893	-0.734
Mof_O 	O 	0.1794	0.1292	0.87019	-0.518
Mof_O 	O 	0.3038	0.1951	0.82963	-0.699
Mof_O 	O 	0.3486	0.2021	0.0982	-0.365
Mof_O 	O 	0.6779	0.9801	0.19999	-0.626
Mof_O 	O 	0.6784	0.1023	0.2425	-0.622
Mof_O 	O 	0.0662	0.204	0.77005	-0.575
Mof_O 	O 	0.1731	0.2945	0.77498	-0.679
Mof_O 	O 	0.8117	0.5042	0.8796	-0.38
Mof_O 	O 	0.7542	0.5089	0.158	-0.699
Mof_O 	O 	0.6852	0.6313	0.12832	-0.628
Mof_O 	O 	0.2628	0.4533	0.71353	-0.672
Mof_O 	O 	0.3254	0.5673	0.66061	-0.548
Mof_O 	O 	0.3066	0.3114	0.4635	-0.356
Mof_O 	O 	0.6749	0.2655	0.28984	-0.701
Mof_O 	O 	0.7063	0.1739	0.36458	-0.568
Mof_O 	O 	0.4192	0.4665	0.759	-0.734
Mof_O 	O 	0.4616	0.5887	0.78577	-0.53
Mof_O 	O 	0.828	0.4789	0.6317	-0.357
Mof_O 	O 	0.1495	0.6251	0.7423	-0.678
Mof_O 	O 	0.1067	0.7475	0.69182	-0.618
_end
