# CIF file generated by openbabel 3.1.0, see https://openbabel.org
data_I
_chemical_name_common 'image0'
_cell_length_a 31.517
_cell_length_b 14.882
_cell_length_c 28.494
_cell_angle_alpha 90
_cell_angle_beta 120.19
_cell_angle_gamma 90
_space_group_name_H-M_alt 'P 1'
_space_group_name_Hall 'P 1'
loop_
    _symmetry_equiv_pos_as_xyz
    x,y,z
loop_
    _atom_site_label
    _atom_site_type_symbol
    _atom_site_fract_x
    _atom_site_fract_y
    _atom_site_fract_z
    _atom_site_occupancy
    Gd1      Gd       0.26752    0.11811    0.48781    1.000
    O1       O        0.07431    0.35710    0.35580    1.000
    H1       H        0.08900    0.40270    0.35600    1.000
    O2       O        0.25307    0.97430    0.12819    1.000
    H2       H        0.23430    0.01420    0.10930    1.000
    O3       O        0.22859    0.07040    0.30124    1.000
    H3       H        0.23280    0.11960    0.31600    1.000
    O4       O        0.24117    0.86770    0.05091    1.000
    O5       O        0.20322    0.73980    0.04090    1.000
    O6       O        0.25082    0.07290    0.40110    1.000
    O7       O        0.32533    0.04850    0.46461    1.000
    O8       O        0.20066    0.20870    0.43746    1.000
    O9       O        0.16113    0.33530    0.43457    1.000
    C1       C        0.12767    0.23950    0.35770    1.000
    C2       C        0.13380    0.17240    0.32870    1.000
    H4       H        0.16210    0.13750    0.34600    1.000
    C3       C        0.10000    0.15430    0.27510    1.000
    C4       C        0.05620    0.20640    0.24710    1.000
    C5       C        0.04740    0.27200    0.27550    1.000
    C6       C        0.08192    0.29170    0.32780    1.000
    H5       H        0.99950    0.36430    0.22230    1.000
    C7       C        0.02320    0.18850    0.19030    1.000
    H6       H        0.99340    0.21890    0.17210    1.000
    C8       C        0.03470    0.12940    0.16400    1.000
    H7       H        0.01670    0.12670    0.12630    1.000
    C9       C        0.21110    0.82910    0.11012    1.000
    C10      C        0.18740    0.76840    0.12560    1.000
    H8       H        0.17630    0.71450    0.10680    1.000
    C11      C        0.17958    0.78600    0.16919    1.000
    C12      C        0.19817    0.86650    0.19930    1.000
    C13      C        0.22802    0.91320    0.14105    1.000
    C14      C        0.22447    0.92830    0.18644    1.000
    C15      C        0.24455    0.01710    0.21900    1.000
    H9       H        0.25710    0.05360    0.20040    1.000
    H10      H        0.21710    0.04930    0.21740    1.000
    C16      C        0.18740    0.88150    0.24050    1.000
    H11      H        0.19710    0.93480    0.26020    1.000
    C17      C        0.29512    0.04790    0.41353    1.000
    C18      C        0.27150    0.03480    0.31460    1.000
    C19      C        0.35150    0.99200    0.38600    1.000
    H12      H        0.37300    0.97950    0.42250    1.000
    C20      C        0.30677    0.02850    0.37280    1.000
    C21      C        0.28412    0.01030    0.27764    1.000
    C22      C        0.33103    0.97620    0.29330    1.000
    C23      C        0.36728    0.97210    0.34970    1.000
    C24      C        0.34560    0.95400    0.25510    1.000
    H13      H        0.32290    0.95920    0.21820    1.000
    C25      C        0.39250    0.92500    0.27090    1.000
    H14      H        0.40060    0.90870    0.24490    1.000
    C26      C        0.16200    0.81610    0.25220    1.000
    H15      H        0.15600    0.82690    0.28050    1.000
    C27      C        0.41390    0.94300    0.36230    1.000
    H16      H        0.43720    0.93920    0.39900    1.000
    C28      C        0.21977    0.80870    0.06505    1.000
    C29      C        0.10750    0.09080    0.24280    1.000
    H17      H        0.13850    0.06470    0.25860    1.000
    C30      C        0.07750    0.06600    0.19560    1.000
    H18      H        0.08110    0.01260    0.18100    1.000
    C31      C        0.16539    0.26070    0.41310    1.000
    C32      C        0.14520    0.73540    0.22330    1.000
    H19      H        0.12810    0.69290    0.23130    1.000
    C33      C        0.15520    0.72390    0.18410    1.000
    H20      H        0.14540    0.67030    0.16490    1.000
    C34      C        0.42880    0.92000    0.32770    1.000
    H21      H        0.46090    0.90180    0.33960    1.000
    Gd2      Gd       0.76751    0.61811    0.48781    1.000
    O10      O        0.57431    0.85710    0.35580    1.000
    H22      H        0.58900    0.90270    0.35600    1.000
    O11      O        0.75307    0.47430    0.12819    1.000
    H23      H        0.73430    0.51420    0.10930    1.000
    O12      O        0.72859    0.57040    0.30124    1.000
    H24      H        0.73280    0.61960    0.31600    1.000
    O13      O        0.74117    0.36770    0.05091    1.000
    O14      O        0.70322    0.23980    0.04090    1.000
    O15      O        0.75082    0.57290    0.40110    1.000
    O16      O        0.82533    0.54850    0.46461    1.000
    O17      O        0.70066    0.70870    0.43746    1.000
    O18      O        0.66113    0.83530    0.43457    1.000
    C35      C        0.62767    0.73950    0.35770    1.000
    C36      C        0.63380    0.67240    0.32870    1.000
    H25      H        0.66210    0.63750    0.34600    1.000
    C37      C        0.60000    0.65430    0.27510    1.000
    C38      C        0.55620    0.70640    0.24710    1.000
    C39      C        0.54740    0.77200    0.27550    1.000
    C40      C        0.58192    0.79170    0.32780    1.000
    H26      H        0.49950    0.86430    0.22230    1.000
    C41      C        0.52320    0.68850    0.19030    1.000
    H27      H        0.49340    0.71890    0.17210    1.000
    C42      C        0.53470    0.62940    0.16400    1.000
    H28      H        0.51670    0.62670    0.12630    1.000
    C43      C        0.71110    0.32910    0.11012    1.000
    C44      C        0.68740    0.26840    0.12560    1.000
    H29      H        0.67630    0.21450    0.10680    1.000
    C45      C        0.67958    0.28600    0.16919    1.000
    C46      C        0.69817    0.36650    0.19930    1.000
    C47      C        0.72802    0.41320    0.14105    1.000
    C48      C        0.72447    0.42830    0.18644    1.000
    C49      C        0.74455    0.51710    0.21900    1.000
    H30      H        0.75710    0.55360    0.20040    1.000
    H31      H        0.71710    0.54930    0.21740    1.000
    C50      C        0.68740    0.38150    0.24050    1.000
    H32      H        0.69710    0.43480    0.26020    1.000
    C51      C        0.79512    0.54790    0.41353    1.000
    C52      C        0.77150    0.53480    0.31460    1.000
    C53      C        0.85150    0.49200    0.38600    1.000
    H33      H        0.87300    0.47950    0.42250    1.000
    C54      C        0.80677    0.52850    0.37280    1.000
    C55      C        0.78412    0.51030    0.27764    1.000
    C56      C        0.83103    0.47620    0.29330    1.000
    C57      C        0.86728    0.47210    0.34970    1.000
    C58      C        0.84560    0.45400    0.25510    1.000
    H34      H        0.82290    0.45920    0.21820    1.000
    C59      C        0.89250    0.42500    0.27090    1.000
    H35      H        0.90060    0.40870    0.24490    1.000
    C60      C        0.66200    0.31610    0.25220    1.000
    H36      H        0.65600    0.32690    0.28050    1.000
    C61      C        0.91390    0.44300    0.36230    1.000
    H37      H        0.93720    0.43920    0.39900    1.000
    C62      C        0.71977    0.30870    0.06505    1.000
    C63      C        0.60750    0.59080    0.24280    1.000
    H38      H        0.63850    0.56470    0.25860    1.000
    C64      C        0.57750    0.56600    0.19560    1.000
    H39      H        0.58110    0.51260    0.18100    1.000
    C65      C        0.66539    0.76070    0.41310    1.000
    C66      C        0.64520    0.23540    0.22330    1.000
    H40      H        0.62810    0.19290    0.23130    1.000
    C67      C        0.65520    0.22390    0.18410    1.000
    H41      H        0.64540    0.17030    0.16490    1.000
    C68      C        0.92880    0.42000    0.32770    1.000
    H42      H        0.96090    0.40180    0.33960    1.000
    Gd3      Gd       0.73248    0.11811    0.01219    1.000
    O19      O        0.92569    0.35710    0.14420    1.000
    H43      H        0.91100    0.40270    0.14400    1.000
    O20      O        0.74693    0.97430    0.37181    1.000
    H44      H        0.76570    0.01420    0.39070    1.000
    O21      O        0.77141    0.07040    0.19876    1.000
    H45      H        0.76720    0.11960    0.18400    1.000
    O22      O        0.75883    0.86770    0.44909    1.000
    O23      O        0.79678    0.73980    0.45910    1.000
    O24      O        0.74918    0.07290    0.09890    1.000
    O25      O        0.67467    0.04850    0.03539    1.000
    O26      O        0.79934    0.20870    0.06254    1.000
    O27      O        0.83887    0.33530    0.06543    1.000
    C69      C        0.87233    0.23950    0.14230    1.000
    C70      C        0.86620    0.17240    0.17130    1.000
    H46      H        0.83790    0.13750    0.15400    1.000
    C71      C        0.90000    0.15430    0.22490    1.000
    C72      C        0.94380    0.20640    0.25290    1.000
    C73      C        0.95260    0.27200    0.22450    1.000
    C74      C        0.91808    0.29170    0.17220    1.000
    H47      H        0.00050    0.36430    0.27770    1.000
    C75      C        0.97680    0.18850    0.30970    1.000
    H48      H        0.00660    0.21890    0.32790    1.000
    C76      C        0.96530    0.12940    0.33600    1.000
    H49      H        0.98330    0.12670    0.37370    1.000
    C77      C        0.78890    0.82910    0.38988    1.000
    C78      C        0.81260    0.76840    0.37440    1.000
    H50      H        0.82370    0.71450    0.39320    1.000
    C79      C        0.82042    0.78600    0.33081    1.000
    C80      C        0.80183    0.86650    0.30070    1.000
    C81      C        0.77198    0.91320    0.35895    1.000
    C82      C        0.77553    0.92830    0.31356    1.000
    C83      C        0.75545    0.01710    0.28100    1.000
    H51      H        0.74290    0.05360    0.29960    1.000
    H52      H        0.78290    0.04930    0.28260    1.000
    C84      C        0.81260    0.88150    0.25950    1.000
    H53      H        0.80290    0.93480    0.23980    1.000
    C85      C        0.70488    0.04790    0.08647    1.000
    C86      C        0.72850    0.03480    0.18540    1.000
    C87      C        0.64850    0.99200    0.11400    1.000
    H54      H        0.62700    0.97950    0.07750    1.000
    C88      C        0.69323    0.02850    0.12720    1.000
    C89      C        0.71588    0.01030    0.22236    1.000
    C90      C        0.66897    0.97620    0.20670    1.000
    C91      C        0.63272    0.97210    0.15030    1.000
    C92      C        0.65440    0.95400    0.24490    1.000
    H55      H        0.67710    0.95920    0.28180    1.000
    C93      C        0.60750    0.92500    0.22910    1.000
    H56      H        0.59940    0.90870    0.25510    1.000
    C94      C        0.83800    0.81610    0.24780    1.000
    H57      H        0.84400    0.82690    0.21950    1.000
    C95      C        0.58610    0.94300    0.13770    1.000
    H58      H        0.56280    0.93920    0.10100    1.000
    C96      C        0.78023    0.80870    0.43495    1.000
    C97      C        0.89250    0.09080    0.25720    1.000
    H59      H        0.86150    0.06470    0.24140    1.000
    C98      C        0.92250    0.06600    0.30440    1.000
    H60      H        0.91890    0.01260    0.31900    1.000
    C99      C        0.83461    0.26070    0.08690    1.000
    C100     C        0.85480    0.73540    0.27670    1.000
    H61      H        0.87190    0.69290    0.26870    1.000
    C101     C        0.84480    0.72390    0.31590    1.000
    H62      H        0.85460    0.67030    0.33510    1.000
    C102     C        0.57120    0.92000    0.17230    1.000
    H63      H        0.53910    0.90180    0.16040    1.000
    Gd4      Gd       0.23248    0.61811    0.01219    1.000
    O28      O        0.42569    0.85710    0.14420    1.000
    H64      H        0.41100    0.90270    0.14400    1.000
    O29      O        0.24693    0.47430    0.37181    1.000
    H65      H        0.26570    0.51420    0.39070    1.000
    O30      O        0.27141    0.57040    0.19876    1.000
    H66      H        0.26720    0.61960    0.18400    1.000
    O31      O        0.25883    0.36770    0.44909    1.000
    O32      O        0.29678    0.23980    0.45910    1.000
    O33      O        0.24918    0.57290    0.09890    1.000
    O34      O        0.17467    0.54850    0.03539    1.000
    O35      O        0.29934    0.70870    0.06254    1.000
    O36      O        0.33887    0.83530    0.06543    1.000
    C103     C        0.37233    0.73950    0.14230    1.000
    C104     C        0.36620    0.67240    0.17130    1.000
    H67      H        0.33790    0.63750    0.15400    1.000
    C105     C        0.40000    0.65430    0.22490    1.000
    C106     C        0.44380    0.70640    0.25290    1.000
    C107     C        0.45260    0.77200    0.22450    1.000
    C108     C        0.41808    0.79170    0.17220    1.000
    H68      H        0.50050    0.86430    0.27770    1.000
    C109     C        0.47680    0.68850    0.30970    1.000
    H69      H        0.50660    0.71890    0.32790    1.000
    C110     C        0.46530    0.62940    0.33600    1.000
    H70      H        0.48330    0.62670    0.37370    1.000
    C111     C        0.28890    0.32910    0.38988    1.000
    C112     C        0.31260    0.26840    0.37440    1.000
    H71      H        0.32370    0.21450    0.39320    1.000
    C113     C        0.32042    0.28600    0.33081    1.000
    C114     C        0.30183    0.36650    0.30070    1.000
    C115     C        0.27198    0.41320    0.35895    1.000
    C116     C        0.27553    0.42830    0.31356    1.000
    C117     C        0.25545    0.51710    0.28100    1.000
    H72      H        0.24290    0.55360    0.29960    1.000
    H73      H        0.28290    0.54930    0.28260    1.000
    C118     C        0.31260    0.38150    0.25950    1.000
    H74      H        0.30290    0.43480    0.23980    1.000
    C119     C        0.20488    0.54790    0.08647    1.000
    C120     C        0.22850    0.53480    0.18540    1.000
    C121     C        0.14850    0.49200    0.11400    1.000
    H75      H        0.12700    0.47950    0.07750    1.000
    C122     C        0.19323    0.52850    0.12720    1.000
    C123     C        0.21588    0.51030    0.22236    1.000
    C124     C        0.16897    0.47620    0.20670    1.000
    C125     C        0.13272    0.47210    0.15030    1.000
    C126     C        0.15440    0.45400    0.24490    1.000
    H76      H        0.17710    0.45920    0.28180    1.000
    C127     C        0.10750    0.42500    0.22910    1.000
    H77      H        0.09940    0.40870    0.25510    1.000
    C128     C        0.33800    0.31610    0.24780    1.000
    H78      H        0.34400    0.32690    0.21950    1.000
    C129     C        0.08610    0.44300    0.13770    1.000
    H79      H        0.06280    0.43920    0.10100    1.000
    C130     C        0.28023    0.30870    0.43495    1.000
    C131     C        0.39250    0.59080    0.25720    1.000
    H80      H        0.36150    0.56470    0.24140    1.000
    C132     C        0.42250    0.56600    0.30440    1.000
    H81      H        0.41890    0.51260    0.31900    1.000
    C133     C        0.33461    0.76070    0.08690    1.000
    C134     C        0.35480    0.23540    0.27670    1.000
    H82      H        0.37190    0.19290    0.26870    1.000
    C135     C        0.34480    0.22390    0.31590    1.000
    H83      H        0.35460    0.17030    0.33510    1.000
    C136     C        0.07120    0.42000    0.17230    1.000
    H84      H        0.03910    0.40180    0.16040    1.000
    Gd5      Gd       0.73248    0.88189    0.51219    1.000
    O37      O        0.92569    0.64290    0.64420    1.000
    H85      H        0.91100    0.59730    0.64400    1.000
    O38      O        0.74693    0.02570    0.87181    1.000
    H86      H        0.76570    0.98580    0.89070    1.000
    O39      O        0.77141    0.92960    0.69876    1.000
    H87      H        0.76720    0.88040    0.68400    1.000
    O40      O        0.75883    0.13230    0.94909    1.000
    O41      O        0.79678    0.26020    0.95910    1.000
    O42      O        0.74918    0.92710    0.59890    1.000
    O43      O        0.67467    0.95150    0.53539    1.000
    O44      O        0.79934    0.79130    0.56254    1.000
    O45      O        0.83887    0.66470    0.56543    1.000
    C137     C        0.87233    0.76050    0.64230    1.000
    C138     C        0.86620    0.82760    0.67130    1.000
    H88      H        0.83790    0.86250    0.65400    1.000
    C139     C        0.90000    0.84570    0.72490    1.000
    C140     C        0.94380    0.79360    0.75290    1.000
    C141     C        0.95260    0.72800    0.72450    1.000
    C142     C        0.91808    0.70830    0.67220    1.000
    H89      H        0.00050    0.63570    0.77770    1.000
    C143     C        0.97680    0.81150    0.80970    1.000
    H90      H        0.00660    0.78110    0.82790    1.000
    C144     C        0.96530    0.87060    0.83600    1.000
    H91      H        0.98330    0.87330    0.87370    1.000
    C145     C        0.78890    0.17090    0.88988    1.000
    C146     C        0.81260    0.23160    0.87440    1.000
    H92      H        0.82370    0.28550    0.89320    1.000
    C147     C        0.82042    0.21400    0.83081    1.000
    C148     C        0.80183    0.13350    0.80070    1.000
    C149     C        0.77198    0.08680    0.85895    1.000
    C150     C        0.77553    0.07170    0.81356    1.000
    C151     C        0.75545    0.98290    0.78100    1.000
    H93      H        0.74290    0.94640    0.79960    1.000
    H94      H        0.78290    0.95070    0.78260    1.000
    C152     C        0.81260    0.11850    0.75950    1.000
    H95      H        0.80290    0.06520    0.73980    1.000
    C153     C        0.70488    0.95210    0.58647    1.000
    C154     C        0.72850    0.96520    0.68540    1.000
    C155     C        0.64850    0.00800    0.61400    1.000
    H96      H        0.62700    0.02050    0.57750    1.000
    C156     C        0.69323    0.97150    0.62720    1.000
    C157     C        0.71588    0.98970    0.72236    1.000
    C158     C        0.66897    0.02380    0.70670    1.000
    C159     C        0.63272    0.02790    0.65030    1.000
    C160     C        0.65440    0.04600    0.74490    1.000
    H97      H        0.67710    0.04080    0.78180    1.000
    C161     C        0.60750    0.07500    0.72910    1.000
    H98      H        0.59940    0.09130    0.75510    1.000
    C162     C        0.83800    0.18390    0.74780    1.000
    H99      H        0.84400    0.17310    0.71950    1.000
    C163     C        0.58610    0.05700    0.63770    1.000
    H100     H        0.56280    0.06080    0.60100    1.000
    C164     C        0.78023    0.19130    0.93495    1.000
    C165     C        0.89250    0.90920    0.75720    1.000
    H101     H        0.86150    0.93530    0.74140    1.000
    C166     C        0.92250    0.93400    0.80440    1.000
    H102     H        0.91890    0.98740    0.81900    1.000
    C167     C        0.83461    0.73930    0.58690    1.000
    C168     C        0.85480    0.26460    0.77670    1.000
    H103     H        0.87190    0.30710    0.76870    1.000
    C169     C        0.84480    0.27610    0.81590    1.000
    H104     H        0.85460    0.32970    0.83510    1.000
    C170     C        0.57120    0.08000    0.67230    1.000
    H105     H        0.53910    0.09820    0.66040    1.000
    Gd6      Gd       0.23248    0.38189    0.51219    1.000
    O46      O        0.42569    0.14290    0.64420    1.000
    H106     H        0.41100    0.09730    0.64400    1.000
    O47      O        0.24693    0.52570    0.87181    1.000
    H107     H        0.26570    0.48580    0.89070    1.000
    O48      O        0.27141    0.42960    0.69876    1.000
    H108     H        0.26720    0.38040    0.68400    1.000
    O49      O        0.25883    0.63230    0.94909    1.000
    O50      O        0.29678    0.76020    0.95910    1.000
    O51      O        0.24918    0.42710    0.59890    1.000
    O52      O        0.17467    0.45150    0.53539    1.000
    O53      O        0.29934    0.29130    0.56254    1.000
    O54      O        0.33887    0.16470    0.56543    1.000
    C171     C        0.37233    0.26050    0.64230    1.000
    C172     C        0.36620    0.32760    0.67130    1.000
    H109     H        0.33790    0.36250    0.65400    1.000
    C173     C        0.40000    0.34570    0.72490    1.000
    C174     C        0.44380    0.29360    0.75290    1.000
    C175     C        0.45260    0.22800    0.72450    1.000
    C176     C        0.41808    0.20830    0.67220    1.000
    H110     H        0.50050    0.13570    0.77770    1.000
    C177     C        0.47680    0.31150    0.80970    1.000
    H111     H        0.50660    0.28110    0.82790    1.000
    C178     C        0.46530    0.37060    0.83600    1.000
    H112     H        0.48330    0.37330    0.87370    1.000
    C179     C        0.28890    0.67090    0.88988    1.000
    C180     C        0.31260    0.73160    0.87440    1.000
    H113     H        0.32370    0.78550    0.89320    1.000
    C181     C        0.32042    0.71400    0.83081    1.000
    C182     C        0.30183    0.63350    0.80070    1.000
    C183     C        0.27198    0.58680    0.85895    1.000
    C184     C        0.27553    0.57170    0.81356    1.000
    C185     C        0.25545    0.48290    0.78100    1.000
    H114     H        0.24290    0.44640    0.79960    1.000
    H115     H        0.28290    0.45070    0.78260    1.000
    C186     C        0.31260    0.61850    0.75950    1.000
    H116     H        0.30290    0.56520    0.73980    1.000
    C187     C        0.20488    0.45210    0.58647    1.000
    C188     C        0.22850    0.46520    0.68540    1.000
    C189     C        0.14850    0.50800    0.61400    1.000
    H117     H        0.12700    0.52050    0.57750    1.000
    C190     C        0.19323    0.47150    0.62720    1.000
    C191     C        0.21588    0.48970    0.72236    1.000
    C192     C        0.16897    0.52380    0.70670    1.000
    C193     C        0.13272    0.52790    0.65030    1.000
    C194     C        0.15440    0.54600    0.74490    1.000
    H118     H        0.17710    0.54080    0.78180    1.000
    C195     C        0.10750    0.57500    0.72910    1.000
    H119     H        0.09940    0.59130    0.75510    1.000
    C196     C        0.33800    0.68390    0.74780    1.000
    H120     H        0.34400    0.67310    0.71950    1.000
    C197     C        0.08610    0.55700    0.63770    1.000
    H121     H        0.06280    0.56080    0.60100    1.000
    C198     C        0.28023    0.69130    0.93495    1.000
    C199     C        0.39250    0.40920    0.75720    1.000
    H122     H        0.36150    0.43530    0.74140    1.000
    C200     C        0.42250    0.43400    0.80440    1.000
    H123     H        0.41890    0.48740    0.81900    1.000
    C201     C        0.33461    0.23930    0.58690    1.000
    C202     C        0.35480    0.76460    0.77670    1.000
    H124     H        0.37190    0.80710    0.76870    1.000
    C203     C        0.34480    0.77610    0.81590    1.000
    H125     H        0.35460    0.82970    0.83510    1.000
    C204     C        0.07120    0.58000    0.67230    1.000
    H126     H        0.03910    0.59820    0.66040    1.000
    Gd7      Gd       0.26752    0.88189    0.98781    1.000
    O55      O        0.07431    0.64290    0.85580    1.000
    H127     H        0.08900    0.59730    0.85600    1.000
    O56      O        0.25307    0.02570    0.62819    1.000
    H128     H        0.23430    0.98580    0.60930    1.000
    O57      O        0.22859    0.92960    0.80124    1.000
    H129     H        0.23280    0.88040    0.81600    1.000
    O58      O        0.24117    0.13230    0.55091    1.000
    O59      O        0.20322    0.26020    0.54090    1.000
    O60      O        0.25082    0.92710    0.90110    1.000
    O61      O        0.32533    0.95150    0.96461    1.000
    O62      O        0.20066    0.79130    0.93746    1.000
    O63      O        0.16113    0.66470    0.93457    1.000
    C205     C        0.12767    0.76050    0.85770    1.000
    C206     C        0.13380    0.82760    0.82870    1.000
    H130     H        0.16210    0.86250    0.84600    1.000
    C207     C        0.10000    0.84570    0.77510    1.000
    C208     C        0.05620    0.79360    0.74710    1.000
    C209     C        0.04740    0.72800    0.77550    1.000
    C210     C        0.08192    0.70830    0.82780    1.000
    H131     H        0.99950    0.63570    0.72230    1.000
    C211     C        0.02320    0.81150    0.69030    1.000
    H132     H        0.99340    0.78110    0.67210    1.000
    C212     C        0.03470    0.87060    0.66400    1.000
    H133     H        0.01670    0.87330    0.62630    1.000
    C213     C        0.21110    0.17090    0.61012    1.000
    C214     C        0.18740    0.23160    0.62560    1.000
    H134     H        0.17630    0.28550    0.60680    1.000
    C215     C        0.17958    0.21400    0.66919    1.000
    C216     C        0.19817    0.13350    0.69930    1.000
    C217     C        0.22802    0.08680    0.64105    1.000
    C218     C        0.22447    0.07170    0.68644    1.000
    C219     C        0.24455    0.98290    0.71900    1.000
    H135     H        0.25710    0.94640    0.70040    1.000
    H136     H        0.21710    0.95070    0.71740    1.000
    C220     C        0.18740    0.11850    0.74050    1.000
    H137     H        0.19710    0.06520    0.76020    1.000
    C221     C        0.29512    0.95210    0.91353    1.000
    C222     C        0.27150    0.96520    0.81460    1.000
    C223     C        0.35150    0.00800    0.88600    1.000
    H138     H        0.37300    0.02050    0.92250    1.000
    C224     C        0.30677    0.97150    0.87280    1.000
    C225     C        0.28412    0.98970    0.77764    1.000
    C226     C        0.33103    0.02380    0.79330    1.000
    C227     C        0.36728    0.02790    0.84970    1.000
    C228     C        0.34560    0.04600    0.75510    1.000
    H139     H        0.32290    0.04080    0.71820    1.000
    C229     C        0.39250    0.07500    0.77090    1.000
    H140     H        0.40060    0.09130    0.74490    1.000
    C230     C        0.16200    0.18390    0.75220    1.000
    H141     H        0.15600    0.17310    0.78050    1.000
    C231     C        0.41390    0.05700    0.86230    1.000
    H142     H        0.43720    0.06080    0.89900    1.000
    C232     C        0.21977    0.19130    0.56505    1.000
    C233     C        0.10750    0.90920    0.74280    1.000
    H143     H        0.13850    0.93530    0.75860    1.000
    C234     C        0.07750    0.93400    0.69560    1.000
    H144     H        0.08110    0.98740    0.68100    1.000
    C235     C        0.16539    0.73930    0.91310    1.000
    C236     C        0.14520    0.26460    0.72330    1.000
    H145     H        0.12810    0.30710    0.73130    1.000
    C237     C        0.15520    0.27610    0.68410    1.000
    H146     H        0.14540    0.32970    0.66490    1.000
    C238     C        0.42880    0.08000    0.82770    1.000
    H147     H        0.46090    0.09820    0.83960    1.000
    Gd8      Gd       0.76751    0.38189    0.98781    1.000
    O64      O        0.57431    0.14290    0.85580    1.000
    H148     H        0.58900    0.09730    0.85600    1.000
    O65      O        0.75307    0.52570    0.62819    1.000
    H149     H        0.73430    0.48580    0.60930    1.000
    O66      O        0.72859    0.42960    0.80124    1.000
    H150     H        0.73280    0.38040    0.81600    1.000
    O67      O        0.74117    0.63230    0.55091    1.000
    O68      O        0.70322    0.76020    0.54090    1.000
    O69      O        0.75082    0.42710    0.90110    1.000
    O70      O        0.82533    0.45150    0.96461    1.000
    O71      O        0.70066    0.29130    0.93746    1.000
    O72      O        0.66113    0.16470    0.93457    1.000
    C239     C        0.62767    0.26050    0.85770    1.000
    C240     C        0.63380    0.32760    0.82870    1.000
    H151     H        0.66210    0.36250    0.84600    1.000
    C241     C        0.60000    0.34570    0.77510    1.000
    C242     C        0.55620    0.29360    0.74710    1.000
    C243     C        0.54740    0.22800    0.77550    1.000
    C244     C        0.58192    0.20830    0.82780    1.000
    H152     H        0.49950    0.13570    0.72230    1.000
    C245     C        0.52320    0.31150    0.69030    1.000
    H153     H        0.49340    0.28110    0.67210    1.000
    C246     C        0.53470    0.37060    0.66400    1.000
    H154     H        0.51670    0.37330    0.62630    1.000
    C247     C        0.71110    0.67090    0.61012    1.000
    C248     C        0.68740    0.73160    0.62560    1.000
    H155     H        0.67630    0.78550    0.60680    1.000
    C249     C        0.67958    0.71400    0.66919    1.000
    C250     C        0.69817    0.63350    0.69930    1.000
    C251     C        0.72802    0.58680    0.64105    1.000
    C252     C        0.72447    0.57170    0.68644    1.000
    C253     C        0.74455    0.48290    0.71900    1.000
    H156     H        0.75710    0.44640    0.70040    1.000
    H157     H        0.71710    0.45070    0.71740    1.000
    C254     C        0.68740    0.61850    0.74050    1.000
    H158     H        0.69710    0.56520    0.76020    1.000
    C255     C        0.79512    0.45210    0.91353    1.000
    C256     C        0.77150    0.46520    0.81460    1.000
    C257     C        0.85150    0.50800    0.88600    1.000
    H159     H        0.87300    0.52050    0.92250    1.000
    C258     C        0.80677    0.47150    0.87280    1.000
    C259     C        0.78412    0.48970    0.77764    1.000
    C260     C        0.83103    0.52380    0.79330    1.000
    C261     C        0.86728    0.52790    0.84970    1.000
    C262     C        0.84560    0.54600    0.75510    1.000
    H160     H        0.82290    0.54080    0.71820    1.000
    C263     C        0.89250    0.57500    0.77090    1.000
    H161     H        0.90060    0.59130    0.74490    1.000
    C264     C        0.66200    0.68390    0.75220    1.000
    H162     H        0.65600    0.67310    0.78050    1.000
    C265     C        0.91390    0.55700    0.86230    1.000
    H163     H        0.93720    0.56080    0.89900    1.000
    C266     C        0.71977    0.69130    0.56505    1.000
    C267     C        0.60750    0.40920    0.74280    1.000
    H164     H        0.63850    0.43530    0.75860    1.000
    C268     C        0.57750    0.43400    0.69560    1.000
    H165     H        0.58110    0.48740    0.68100    1.000
    C269     C        0.66539    0.23930    0.91310    1.000
    C270     C        0.64520    0.76460    0.72330    1.000
    H166     H        0.62810    0.80710    0.73130    1.000
    C271     C        0.65520    0.77610    0.68410    1.000
    H167     H        0.64540    0.82970    0.66490    1.000
    C272     C        0.92880    0.58000    0.82770    1.000
    H168     H        0.96090    0.59820    0.83960    1.000
    C273     C        0.00000    0.32560    0.25000    1.000
    C274     C        0.50000    0.82560    0.25000    1.000
    C275     C        0.00000    0.67440    0.75000    1.000
    C276     C        0.50000    0.17440    0.75000    1.000
