# CIF file generated by openbabel 3.1.0, see https://openbabel.org
data_I
_chemical_name_common 'image0'
_cell_length_a 26.3396
_cell_length_b 14.0398
_cell_length_c 16.8718
_cell_angle_alpha 90
_cell_angle_beta 97.759
_cell_angle_gamma 90
_space_group_name_H-M_alt 'P 1'
_space_group_name_Hall 'P 1'
loop_
    _symmetry_equiv_pos_as_xyz
    x,y,z
loop_
    _atom_site_label
    _atom_site_type_symbol
    _atom_site_fract_x
    _atom_site_fract_y
    _atom_site_fract_z
    _atom_site_occupancy
    Eu1      Eu       0.00142    0.57673    0.38946    1.000
    N1       N        0.19030    0.23220    0.47340    1.000
    N2       N        0.29120    0.27420    0.35390    1.000
    N3       N        0.22940    0.69580    0.32180    1.000
    N4       N        0.30580    0.77700    0.16700    1.000
    N5       N        0.81340    0.27840    0.47820    1.000
    N6       N        0.69090    0.25710    0.35830    1.000
    N7       N        0.01760    0.74250    0.41030    1.000
    H1       H        0.02250    0.74760    0.46390    1.000
    H2       H        0.04880    0.75000    0.39530    1.000
    H3       H        0.53120    0.29480    0.23660    1.000
    H4       H        0.47810    0.29480    0.20560    1.000
    O1       O        0.04720    0.43100    0.40330    1.000
    O2       O        0.05920    0.36780    0.52650    1.000
    O3       O        0.43040    0.16360    0.31580    1.000
    O4       O        0.44310    0.10330    0.43850    1.000
    O5       O        0.07890    0.61070    0.33420    1.000
    O6       O        0.05370    0.65590    0.20880    1.000
    O7       O        0.45070    0.97250    0.24770    1.000
    O8       O        0.43470    0.92170    0.12380    1.000
    O9       O        0.95020    0.42400    0.48210    1.000
    O10      O        0.92870    0.47080    0.35780    1.000
    O11      O        0.54740    0.14110    0.37310    1.000
    O12      O        0.57470    0.07620    0.48820    1.000
    H5       H        0.97390    0.45450    0.24510    1.000
    C1       C        0.07200    0.38410    0.46010    1.000
    C2       C        0.14420    0.26580    0.48500    1.000
    H6       H        0.12600    0.23580    0.52140    1.000
    C3       C        0.12310    0.34640    0.44250    1.000
    C4       C        0.14620    0.38080    0.38270    1.000
    H7       H        0.13090    0.42760    0.34840    1.000
    C5       C        0.19430    0.34340    0.37420    1.000
    H8       H        0.21180    0.36730    0.33410    1.000
    C6       C        0.21590    0.27510    0.42100    1.000
    C7       C        0.41760    0.14540    0.38210    1.000
    C8       C        0.33790    0.24270    0.34450    1.000
    H9       H        0.35340    0.26680    0.30240    1.000
    C9       C        0.36400    0.17610    0.39430    1.000
    C10      C        0.34200    0.14510    0.45600    1.000
    H10      H        0.36010    0.10570    0.49420    1.000
    C11      C        0.29190    0.17170    0.46340    1.000
    H11      H        0.27490    0.14320    0.50210    1.000
    C12      C        0.26750    0.23970    0.41370    1.000
    C13      C        0.08750    0.64420    0.26790    1.000
    C14      C        0.18070    0.66000    0.32340    1.000
    H12      H        0.17430    0.62310    0.36670    1.000
    C15      C        0.14060    0.67770    0.26160    1.000
    C16      C        0.14810    0.72700    0.20050    1.000
    H13      H        0.12200    0.73680    0.15850    1.000
    C17      C        0.19760    0.76600    0.19890    1.000
    H14      H        0.20220    0.80730    0.15750    1.000
    C18      C        0.23570    0.74770    0.24990    1.000
    C19      C        0.42570    0.92500    0.19310    1.000
    C20      C        0.34850    0.81550    0.15670    1.000
    H15      H        0.36140    0.80090    0.10940    1.000
    C21      C        0.37740    0.87670    0.20900    1.000
    C22      C        0.35610    0.89600    0.27970    1.000
    H16      H        0.37290    0.93570    0.31890    1.000
    C23      C        0.30920    0.85400    0.29000    1.000
    H17      H        0.29320    0.87020    0.33390    1.000
    C24      C        0.28700    0.79000    0.23600    1.000
    C25      C        0.92030    0.42630    0.41900    1.000
    C26      C        0.85890    0.32320    0.47720    1.000
    H18      H        0.88380    0.31710    0.52160    1.000
    C27      C        0.87000    0.37650    0.41440    1.000
    C28      C        0.83350    0.38230    0.35060    1.000
    H19      H        0.84020    0.41690    0.30610    1.000
    C29      C        0.78680    0.33860    0.34940    1.000
    H20      H        0.76160    0.34510    0.30550    1.000
    C30      C        0.77810    0.28460    0.41480    1.000
    C31      C        0.58120    0.12660    0.42920    1.000
    C32      C        0.64360    0.21940    0.36220    1.000
    H21      H        0.61750    0.23050    0.32050    1.000
    C33      C        0.63380    0.16630    0.42540    1.000
    C34      C        0.67470    0.14490    0.48000    1.000
    H22      H        0.67040    0.10230    0.52070    1.000
    C35      C        0.72160    0.18310    0.47770    1.000
    H23      H        0.74920    0.16810    0.51620    1.000
    C36      C        0.72680    0.24270    0.41850    1.000
    C37      C        0.99280    0.82830    0.38590    1.000
    H24      H        0.01040    0.85860    0.34650    1.000
    H25      H        0.99300    0.86970    0.43120    1.000
    H26      H        0.95800    0.81530    0.36330    1.000
    H27      H        0.50640    0.41780    0.27200    1.000
    H28      H        0.50730    0.35680    0.35000    1.000
    H29      H        0.45510    0.37830    0.29670    1.000
    Eu2      Eu       0.49758    0.97548    0.03638    1.000
    C38      C        0.49080    0.36530    0.29620    1.000
    N8       N        0.21920    0.75810    0.31240    1.000
    N9       N        0.29660    0.84930    0.20180    1.000
    O13      O        0.43240    0.98690    0.20510    1.000
    O14      O        0.45590    0.96220    0.33330    1.000
    C39      C        0.17240    0.71800    0.32080    1.000
    H30      H        0.16210    0.71870    0.37140    1.000
    C40      C        0.15930    0.68000    0.18600    1.000
    H31      H        0.13790    0.66010    0.14080    1.000
    C41      C        0.20680    0.71120    0.17780    1.000
    H32      H        0.21990    0.70900    0.12930    1.000
    C42      C        0.42670    0.95300    0.26510    1.000
    C43      C        0.34150    0.89520    0.20350    1.000
    H33      H        0.34670    0.93230    0.15970    1.000
    C44      C        0.37940    0.89000    0.26530    1.000
    C45      C        0.36760    0.83580    0.33270    1.000
    H34      H        0.39110    0.83440    0.37910    1.000
    C46      C        0.32320    0.78690    0.33030    1.000
    H35      H        0.31680    0.74800    0.37250    1.000
    C47      C        0.28700    0.79700    0.26200    1.000
    Eu3      Eu       0.99858    0.57673    0.11054    1.000
    N10      N        0.80970    0.23220    0.02660    1.000
    N11      N        0.70880    0.27420    0.14610    1.000
    N12      N        0.77060    0.69580    0.17820    1.000
    N13      N        0.69420    0.77700    0.33300    1.000
    N14      N        0.18660    0.27840    0.02180    1.000
    N15      N        0.30910    0.25710    0.14170    1.000
    N16      N        0.98240    0.74250    0.08970    1.000
    H36      H        0.97750    0.74760    0.03610    1.000
    H37      H        0.95120    0.75000    0.10470    1.000
    H38      H        0.46880    0.29480    0.26340    1.000
    H39      H        0.52190    0.29480    0.29440    1.000
    O15      O        0.95280    0.43100    0.09670    1.000
    O16      O        0.94080    0.36780    0.97350    1.000
    O17      O        0.56960    0.16360    0.18420    1.000
    O18      O        0.55690    0.10330    0.06150    1.000
    O19      O        0.92110    0.61070    0.16580    1.000
    O20      O        0.94630    0.65590    0.29120    1.000
    O21      O        0.54930    0.97250    0.25230    1.000
    O22      O        0.56530    0.92170    0.37620    1.000
    O23      O        0.04980    0.42400    0.01790    1.000
    O24      O        0.07130    0.47080    0.14220    1.000
    O25      O        0.45260    0.14110    0.12690    1.000
    O26      O        0.42530    0.07620    0.01180    1.000
    H40      H        0.02610    0.45450    0.25490    1.000
    C48      C        0.92800    0.38410    0.03990    1.000
    C49      C        0.85580    0.26580    0.01500    1.000
    H41      H        0.87400    0.23580    0.97860    1.000
    C50      C        0.87690    0.34640    0.05750    1.000
    C51      C        0.85380    0.38080    0.11730    1.000
    H42      H        0.86910    0.42760    0.15160    1.000
    C52      C        0.80570    0.34340    0.12580    1.000
    H43      H        0.78820    0.36730    0.16590    1.000
    C53      C        0.78410    0.27510    0.07900    1.000
    C54      C        0.58240    0.14540    0.11790    1.000
    C55      C        0.66210    0.24270    0.15550    1.000
    H44      H        0.64660    0.26680    0.19760    1.000
    C56      C        0.63600    0.17610    0.10570    1.000
    C57      C        0.65800    0.14510    0.04400    1.000
    H45      H        0.63990    0.10570    0.00580    1.000
    C58      C        0.70810    0.17170    0.03660    1.000
    H46      H        0.72510    0.14320    0.99790    1.000
    C59      C        0.73250    0.23970    0.08630    1.000
    C60      C        0.91250    0.64420    0.23210    1.000
    C61      C        0.81930    0.66000    0.17660    1.000
    H47      H        0.82570    0.62310    0.13330    1.000
    C62      C        0.85940    0.67770    0.23840    1.000
    C63      C        0.85190    0.72700    0.29950    1.000
    H48      H        0.87800    0.73680    0.34150    1.000
    C64      C        0.80240    0.76600    0.30110    1.000
    H49      H        0.79780    0.80730    0.34250    1.000
    C65      C        0.76430    0.74770    0.25010    1.000
    C66      C        0.57430    0.92500    0.30690    1.000
    C67      C        0.65150    0.81550    0.34330    1.000
    H50      H        0.63860    0.80090    0.39060    1.000
    C68      C        0.62260    0.87670    0.29100    1.000
    C69      C        0.64390    0.89600    0.22030    1.000
    H51      H        0.62710    0.93570    0.18110    1.000
    C70      C        0.69080    0.85400    0.21000    1.000
    H52      H        0.70680    0.87020    0.16610    1.000
    C71      C        0.71300    0.79000    0.26400    1.000
    C72      C        0.07970    0.42630    0.08100    1.000
    C73      C        0.14110    0.32320    0.02280    1.000
    H53      H        0.11620    0.31710    0.97840    1.000
    C74      C        0.13000    0.37650    0.08560    1.000
    C75      C        0.16650    0.38230    0.14940    1.000
    H54      H        0.15980    0.41690    0.19390    1.000
    C76      C        0.21320    0.33860    0.15060    1.000
    H55      H        0.23840    0.34510    0.19450    1.000
    C77      C        0.22190    0.28460    0.08520    1.000
    C78      C        0.41880    0.12660    0.07080    1.000
    C79      C        0.35640    0.21940    0.13780    1.000
    H56      H        0.38250    0.23050    0.17950    1.000
    C80      C        0.36620    0.16630    0.07460    1.000
    C81      C        0.32530    0.14490    0.02000    1.000
    H57      H        0.32960    0.10230    0.97930    1.000
    C82      C        0.27840    0.18310    0.02230    1.000
    H58      H        0.25080    0.16810    0.98380    1.000
    C83      C        0.27320    0.24270    0.08150    1.000
    C84      C        0.00720    0.82830    0.11410    1.000
    H59      H        0.98960    0.85860    0.15350    1.000
    H60      H        0.00700    0.86970    0.06880    1.000
    H61      H        0.04200    0.81530    0.13670    1.000
    H62      H        0.49360    0.41780    0.22800    1.000
    H63      H        0.49270    0.35680    0.15000    1.000
    H64      H        0.54490    0.37830    0.20330    1.000
    Eu4      Eu       0.50242    0.97548    0.46362    1.000
    C85      C        0.50920    0.36530    0.20380    1.000
    N17      N        0.78080    0.75810    0.18760    1.000
    N18      N        0.70340    0.84930    0.29820    1.000
    O27      O        0.56760    0.98690    0.29490    1.000
    O28      O        0.54410    0.96220    0.16670    1.000
    C86      C        0.82760    0.71800    0.17920    1.000
    H65      H        0.83790    0.71870    0.12860    1.000
    C87      C        0.84070    0.68000    0.31400    1.000
    H66      H        0.86210    0.66010    0.35920    1.000
    C88      C        0.79320    0.71120    0.32220    1.000
    H67      H        0.78010    0.70900    0.37070    1.000
    C89      C        0.57330    0.95300    0.23490    1.000
    C90      C        0.65850    0.89520    0.29650    1.000
    H68      H        0.65330    0.93230    0.34030    1.000
    C91      C        0.62060    0.89000    0.23470    1.000
    C92      C        0.63240    0.83580    0.16730    1.000
    H69      H        0.60890    0.83440    0.12090    1.000
    C93      C        0.67680    0.78690    0.16970    1.000
    H70      H        0.68320    0.74800    0.12750    1.000
    C94      C        0.71300    0.79700    0.23800    1.000
    Eu5      Eu       0.99858    0.42327    0.61054    1.000
    N19      N        0.80970    0.76780    0.52660    1.000
    N20      N        0.70880    0.72580    0.64610    1.000
    N21      N        0.77060    0.30420    0.67820    1.000
    N22      N        0.69420    0.22300    0.83300    1.000
    N23      N        0.18660    0.72160    0.52180    1.000
    N24      N        0.30910    0.74290    0.64170    1.000
    N25      N        0.98240    0.25750    0.58970    1.000
    H71      H        0.97750    0.25240    0.53610    1.000
    H72      H        0.95120    0.25000    0.60470    1.000
    H73      H        0.46880    0.70520    0.76340    1.000
    H74      H        0.52190    0.70520    0.79440    1.000
    O29      O        0.95280    0.56900    0.59670    1.000
    O30      O        0.94080    0.63220    0.47350    1.000
    O31      O        0.56960    0.83640    0.68420    1.000
    O32      O        0.55690    0.89670    0.56150    1.000
    O33      O        0.92110    0.38930    0.66580    1.000
    O34      O        0.94630    0.34410    0.79120    1.000
    O35      O        0.54930    0.02750    0.75230    1.000
    O36      O        0.56530    0.07830    0.87620    1.000
    O37      O        0.04980    0.57600    0.51790    1.000
    O38      O        0.07130    0.52920    0.64220    1.000
    O39      O        0.45260    0.85890    0.62690    1.000
    O40      O        0.42530    0.92380    0.51180    1.000
    H75      H        0.02610    0.54550    0.75490    1.000
    C95      C        0.92800    0.61590    0.53990    1.000
    C96      C        0.85580    0.73420    0.51500    1.000
    H76      H        0.87400    0.76420    0.47860    1.000
    C97      C        0.87690    0.65360    0.55750    1.000
    C98      C        0.85380    0.61920    0.61730    1.000
    H77      H        0.86910    0.57240    0.65160    1.000
    C99      C        0.80570    0.65660    0.62580    1.000
    H78      H        0.78820    0.63270    0.66590    1.000
    C100     C        0.78410    0.72490    0.57900    1.000
    C101     C        0.58240    0.85460    0.61790    1.000
    C102     C        0.66210    0.75730    0.65550    1.000
    H79      H        0.64660    0.73320    0.69760    1.000
    C103     C        0.63600    0.82390    0.60570    1.000
    C104     C        0.65800    0.85490    0.54400    1.000
    H80      H        0.63990    0.89430    0.50580    1.000
    C105     C        0.70810    0.82830    0.53660    1.000
    H81      H        0.72510    0.85680    0.49790    1.000
    C106     C        0.73250    0.76030    0.58630    1.000
    C107     C        0.91250    0.35580    0.73210    1.000
    C108     C        0.81930    0.34000    0.67660    1.000
    H82      H        0.82570    0.37690    0.63330    1.000
    C109     C        0.85940    0.32230    0.73840    1.000
    C110     C        0.85190    0.27300    0.79950    1.000
    H83      H        0.87800    0.26320    0.84150    1.000
    C111     C        0.80240    0.23400    0.80110    1.000
    H84      H        0.79780    0.19270    0.84250    1.000
    C112     C        0.76430    0.25230    0.75010    1.000
    C113     C        0.57430    0.07500    0.80690    1.000
    C114     C        0.65150    0.18450    0.84330    1.000
    H85      H        0.63860    0.19910    0.89060    1.000
    C115     C        0.62260    0.12330    0.79100    1.000
    C116     C        0.64390    0.10400    0.72030    1.000
    H86      H        0.62710    0.06430    0.68110    1.000
    C117     C        0.69080    0.14600    0.71000    1.000
    H87      H        0.70680    0.12980    0.66610    1.000
    C118     C        0.71300    0.21000    0.76400    1.000
    C119     C        0.07970    0.57370    0.58100    1.000
    C120     C        0.14110    0.67680    0.52280    1.000
    H88      H        0.11620    0.68290    0.47840    1.000
    C121     C        0.13000    0.62350    0.58560    1.000
    C122     C        0.16650    0.61770    0.64940    1.000
    H89      H        0.15980    0.58310    0.69390    1.000
    C123     C        0.21320    0.66140    0.65060    1.000
    H90      H        0.23840    0.65490    0.69450    1.000
    C124     C        0.22190    0.71540    0.58520    1.000
    C125     C        0.41880    0.87340    0.57080    1.000
    C126     C        0.35640    0.78060    0.63780    1.000
    H91      H        0.38250    0.76950    0.67950    1.000
    C127     C        0.36620    0.83370    0.57460    1.000
    C128     C        0.32530    0.85510    0.52000    1.000
    H92      H        0.32960    0.89770    0.47930    1.000
    C129     C        0.27840    0.81690    0.52230    1.000
    H93      H        0.25080    0.83190    0.48380    1.000
    C130     C        0.27320    0.75730    0.58150    1.000
    C131     C        0.00720    0.17170    0.61410    1.000
    H94      H        0.98960    0.14140    0.65350    1.000
    H95      H        0.00700    0.13030    0.56880    1.000
    H96      H        0.04200    0.18470    0.63670    1.000
    H97      H        0.49360    0.58220    0.72800    1.000
    H98      H        0.49270    0.64320    0.65000    1.000
    H99      H        0.54490    0.62170    0.70330    1.000
    Eu6      Eu       0.50242    0.02452    0.96362    1.000
    C132     C        0.50920    0.63470    0.70380    1.000
    N26      N        0.78080    0.24190    0.68760    1.000
    N27      N        0.70340    0.15070    0.79820    1.000
    O41      O        0.56760    0.01310    0.79490    1.000
    O42      O        0.54410    0.03780    0.66670    1.000
    C133     C        0.82760    0.28200    0.67920    1.000
    H100     H        0.83790    0.28130    0.62860    1.000
    C134     C        0.84070    0.32000    0.81400    1.000
    H101     H        0.86210    0.33990    0.85920    1.000
    C135     C        0.79320    0.28880    0.82220    1.000
    H102     H        0.78010    0.29100    0.87070    1.000
    C136     C        0.57330    0.04700    0.73490    1.000
    C137     C        0.65850    0.10480    0.79650    1.000
    H103     H        0.65330    0.06770    0.84030    1.000
    C138     C        0.62060    0.11000    0.73470    1.000
    C139     C        0.63240    0.16420    0.66730    1.000
    H104     H        0.60890    0.16560    0.62090    1.000
    C140     C        0.67680    0.21310    0.66970    1.000
    H105     H        0.68320    0.25200    0.62750    1.000
    C141     C        0.71300    0.20300    0.73800    1.000
    Eu7      Eu       0.00142    0.42327    0.88946    1.000
    N28      N        0.19030    0.76780    0.97340    1.000
    N29      N        0.29120    0.72580    0.85390    1.000
    N30      N        0.22940    0.30420    0.82180    1.000
    N31      N        0.30580    0.22300    0.66700    1.000
    N32      N        0.81340    0.72160    0.97820    1.000
    N33      N        0.69090    0.74290    0.85830    1.000
    N34      N        0.01760    0.25750    0.91030    1.000
    H106     H        0.02250    0.25240    0.96390    1.000
    H107     H        0.04880    0.25000    0.89530    1.000
    H108     H        0.53120    0.70520    0.73660    1.000
    H109     H        0.47810    0.70520    0.70560    1.000
    O43      O        0.04720    0.56900    0.90330    1.000
    O44      O        0.05920    0.63220    0.02650    1.000
    O45      O        0.43040    0.83640    0.81580    1.000
    O46      O        0.44310    0.89670    0.93850    1.000
    O47      O        0.07890    0.38930    0.83420    1.000
    O48      O        0.05370    0.34410    0.70880    1.000
    O49      O        0.45070    0.02750    0.74770    1.000
    O50      O        0.43470    0.07830    0.62380    1.000
    O51      O        0.95020    0.57600    0.98210    1.000
    O52      O        0.92870    0.52920    0.85780    1.000
    O53      O        0.54740    0.85890    0.87310    1.000
    O54      O        0.57470    0.92380    0.98820    1.000
    H110     H        0.97390    0.54550    0.74510    1.000
    C142     C        0.07200    0.61590    0.96010    1.000
    C143     C        0.14420    0.73420    0.98500    1.000
    H111     H        0.12600    0.76420    0.02140    1.000
    C144     C        0.12310    0.65360    0.94250    1.000
    C145     C        0.14620    0.61920    0.88270    1.000
    H112     H        0.13090    0.57240    0.84840    1.000
    C146     C        0.19430    0.65660    0.87420    1.000
    H113     H        0.21180    0.63270    0.83410    1.000
    C147     C        0.21590    0.72490    0.92100    1.000
    C148     C        0.41760    0.85460    0.88210    1.000
    C149     C        0.33790    0.75730    0.84450    1.000
    H114     H        0.35340    0.73320    0.80240    1.000
    C150     C        0.36400    0.82390    0.89430    1.000
    C151     C        0.34200    0.85490    0.95600    1.000
    H115     H        0.36010    0.89430    0.99420    1.000
    C152     C        0.29190    0.82830    0.96340    1.000
    H116     H        0.27490    0.85680    0.00210    1.000
    C153     C        0.26750    0.76030    0.91370    1.000
    C154     C        0.08750    0.35580    0.76790    1.000
    C155     C        0.18070    0.34000    0.82340    1.000
    H117     H        0.17430    0.37690    0.86670    1.000
    C156     C        0.14060    0.32230    0.76160    1.000
    C157     C        0.14810    0.27300    0.70050    1.000
    H118     H        0.12200    0.26320    0.65850    1.000
    C158     C        0.19760    0.23400    0.69890    1.000
    H119     H        0.20220    0.19270    0.65750    1.000
    C159     C        0.23570    0.25230    0.74990    1.000
    C160     C        0.42570    0.07500    0.69310    1.000
    C161     C        0.34850    0.18450    0.65670    1.000
    H120     H        0.36140    0.19910    0.60940    1.000
    C162     C        0.37740    0.12330    0.70900    1.000
    C163     C        0.35610    0.10400    0.77970    1.000
    H121     H        0.37290    0.06430    0.81890    1.000
    C164     C        0.30920    0.14600    0.79000    1.000
    H122     H        0.29320    0.12980    0.83390    1.000
    C165     C        0.28700    0.21000    0.73600    1.000
    C166     C        0.92030    0.57370    0.91900    1.000
    C167     C        0.85890    0.67680    0.97720    1.000
    H123     H        0.88380    0.68290    0.02160    1.000
    C168     C        0.87000    0.62350    0.91440    1.000
    C169     C        0.83350    0.61770    0.85060    1.000
    H124     H        0.84020    0.58310    0.80610    1.000
    C170     C        0.78680    0.66140    0.84940    1.000
    H125     H        0.76160    0.65490    0.80550    1.000
    C171     C        0.77810    0.71540    0.91480    1.000
    C172     C        0.58120    0.87340    0.92920    1.000
    C173     C        0.64360    0.78060    0.86220    1.000
    H126     H        0.61750    0.76950    0.82050    1.000
    C174     C        0.63380    0.83370    0.92540    1.000
    C175     C        0.67470    0.85510    0.98000    1.000
    H127     H        0.67040    0.89770    0.02070    1.000
    C176     C        0.72160    0.81690    0.97770    1.000
    H128     H        0.74920    0.83190    0.01620    1.000
    C177     C        0.72680    0.75730    0.91850    1.000
    C178     C        0.99280    0.17170    0.88590    1.000
    H129     H        0.01040    0.14140    0.84650    1.000
    H130     H        0.99300    0.13030    0.93120    1.000
    H131     H        0.95800    0.18470    0.86330    1.000
    H132     H        0.50640    0.58220    0.77200    1.000
    H133     H        0.50730    0.64320    0.85000    1.000
    H134     H        0.45510    0.62170    0.79670    1.000
    Eu8      Eu       0.49758    0.02452    0.53638    1.000
    C179     C        0.49080    0.63470    0.79620    1.000
    N35      N        0.21920    0.24190    0.81240    1.000
    N36      N        0.29660    0.15070    0.70180    1.000
    O55      O        0.43240    0.01310    0.70510    1.000
    O56      O        0.45590    0.03780    0.83330    1.000
    C180     C        0.17240    0.28200    0.82080    1.000
    H135     H        0.16210    0.28130    0.87140    1.000
    C181     C        0.15930    0.32000    0.68600    1.000
    H136     H        0.13790    0.33990    0.64080    1.000
    C182     C        0.20680    0.28880    0.67780    1.000
    H137     H        0.21990    0.29100    0.62930    1.000
    C183     C        0.42670    0.04700    0.76510    1.000
    C184     C        0.34150    0.10480    0.70350    1.000
    H138     H        0.34670    0.06770    0.65970    1.000
    C185     C        0.37940    0.11000    0.76530    1.000
    C186     C        0.36760    0.16420    0.83270    1.000
    H139     H        0.39110    0.16560    0.87910    1.000
    C187     C        0.32320    0.21310    0.83030    1.000
    H140     H        0.31680    0.25200    0.87250    1.000
    C188     C        0.28700    0.20300    0.76200    1.000
    Eu9      Eu       0.50000    0.11263    0.25000    1.000
    N37      N        0.50000    0.28190    0.25000    1.000
    Eu10     Eu       0.50000    0.88737    0.75000    1.000
    N38      N        0.50000    0.71810    0.75000    1.000
    O57      O        0.00000    0.49080    0.25000    1.000
    O58      O        0.00000    0.50920    0.75000    1.000
