# CIF file generated by openbabel 3.1.0, see https://openbabel.org
data_I
_chemical_name_common 'image0'
_cell_length_a 15.3248
_cell_length_b 32.715
_cell_length_c 10.0565
_cell_angle_alpha 90
_cell_angle_beta 107.143
_cell_angle_gamma 90
_space_group_name_H-M_alt 'P 1'
_space_group_name_Hall 'P 1'
loop_
    _symmetry_equiv_pos_as_xyz
    x,y,z
loop_
    _atom_site_label
    _atom_site_type_symbol
    _atom_site_fract_x
    _atom_site_fract_y
    _atom_site_fract_z
    _atom_site_occupancy
    Cu1      Cu       0.83487    0.77455    0.53219    1.000
    Cu2      Cu       0.98277    0.71722    0.51079    1.000
    Cu3      Cu       0.90931    0.71617    0.76875    1.000
    O1       O        0.87250    0.71822    0.56800    1.000
    H1       H        0.83240    0.70070    0.52790    1.000
    O2       O        0.95850    0.65696    0.76070    1.000
    O3       O        0.01920    0.66232    0.58140    1.000
    O4       O        0.78410    0.72738    0.78040    1.000
    O5       O        0.72650    0.76667    0.59130    1.000
    O6       O        0.94510    0.72493    0.96640    1.000
    H2       H        0.98520    0.70800    0.01060    1.000
    O7       O        0.46680    0.84700    0.62300    1.000
    O8       O        0.34380    0.80730    0.58990    1.000
    O9       O        0.48730    0.81100    0.96770    1.000
    O10      O        0.37900    0.84230    0.01300    1.000
    O11      O        0.26030    0.50700    0.70530    1.000
    O12      O        0.19150    0.54080    0.50760    1.000
    O13      O        0.23240    0.51200    0.98400    1.000
    O14      O        0.17820    0.47180    0.12740    1.000
    O15      O        0.08870    0.77835    0.94720    1.000
    O16      O        0.03520    0.73946    0.75890    1.000
    O17      O        0.10760    0.31916    0.73700    1.000
    O18      O        0.17430    0.33264    0.95870    1.000
    C1       C        0.99950    0.64353    0.67800    1.000
    C2       C        0.02940    0.59980    0.69800    1.000
    C3       C        0.98450    0.57260    0.76050    1.000
    H3       H        0.93560    0.58150    0.79000    1.000
    C4       C        0.01230    0.53240    0.77920    1.000
    H4       H        0.98020    0.51430    0.81860    1.000
    C5       C        0.08670    0.51800    0.74090    1.000
    C6       C        0.12800    0.54520    0.67770    1.000
    C7       C        0.10010    0.58530    0.65370    1.000
    H5       H        0.12930    0.60270    0.60730    1.000
    C8       C        0.10960    0.47350    0.76500    1.000
    C9       C        0.15250    0.45670    0.89350    1.000
    C10      C        0.16430    0.41520    0.91670    1.000
    H6       H        0.19450    0.40530    0.00500    1.000
    C11      C        0.13130    0.38910    0.80910    1.000
    C12      C        0.08550    0.40420    0.68200    1.000
    H7       H        0.06000    0.38640    0.60880    1.000
    C13      C        0.07640    0.44610    0.66070    1.000
    H8       H        0.04670    0.45580    0.57190    1.000
    C14      C        0.13750    0.34360    0.83210    1.000
    C15      C        0.71990    0.74722    0.69520    1.000
    C16      C        0.62940    0.74780    0.72220    1.000
    C17      C        0.57090    0.78000    0.66920    1.000
    H9       H        0.58880    0.80070    0.61920    1.000
    C18      C        0.48570    0.78150    0.69070    1.000
    C19      C        0.45770    0.75210    0.77010    1.000
    C20      C        0.51790    0.71930    0.81910    1.000
    H10      H        0.50110    0.69860    0.86990    1.000
    C21      C        0.60080    0.71720    0.79370    1.000
    H11      H        0.63840    0.69470    0.82530    1.000
    C22      C        0.36800    0.75320    0.80260    1.000
    C23      C        0.30640    0.72300    0.75070    1.000
    H12      H        0.32380    0.70090    0.70590    1.000
    C24      C        0.21790    0.72390    0.76240    1.000
    H13      H        0.17640    0.70350    0.72120    1.000
    C25      C        0.19230    0.75490    0.83460    1.000
    C26      C        0.25550    0.78460    0.89620    1.000
    H14      H        0.23970    0.80520    0.94850    1.000
    C27      C        0.34260    0.78380    0.88020    1.000
    C28      C        0.09780    0.75778    0.84720    1.000
    N1       N        0.21100    0.53320    0.63210    1.000
    N2       N        0.42590    0.81510    0.62480    1.000
    N3       N        0.40610    0.81500    0.95320    1.000
    N4       N        0.18900    0.48420    0.01840    1.000
    O19      O        0.44840    0.83830    0.54560    1.000
    O20      O        0.36630    0.83010    0.66670    1.000
    O21      O        0.22830    0.49700    0.62200    1.000
    O22      O        0.25260    0.55990    0.59000    1.000
    O23      O        0.19750    0.52090    0.00400    1.000
    O24      O        0.23840    0.46860    0.12460    1.000
    Cu4      Cu       0.16513    0.27455    0.96781    1.000
    Cu5      Cu       0.01723    0.21722    0.98921    1.000
    Cu6      Cu       0.09069    0.21617    0.73125    1.000
    O25      O        0.12750    0.21822    0.93200    1.000
    H15      H        0.16760    0.20070    0.97210    1.000
    O26      O        0.04150    0.15696    0.73930    1.000
    O27      O        0.98080    0.16232    0.91860    1.000
    O28      O        0.21590    0.22738    0.71960    1.000
    O29      O        0.27350    0.26667    0.90870    1.000
    O30      O        0.05490    0.22493    0.53360    1.000
    H16      H        0.01480    0.20800    0.48940    1.000
    O31      O        0.53320    0.34700    0.87700    1.000
    O32      O        0.65620    0.30730    0.91010    1.000
    O33      O        0.51270    0.31100    0.53230    1.000
    O34      O        0.62100    0.34230    0.48700    1.000
    O35      O        0.73970    0.00700    0.79470    1.000
    O36      O        0.80850    0.04080    0.99240    1.000
    O37      O        0.76760    0.01200    0.51600    1.000
    O38      O        0.82180    0.97180    0.37260    1.000
    O39      O        0.91130    0.27835    0.55280    1.000
    O40      O        0.96480    0.23946    0.74110    1.000
    O41      O        0.89240    0.81916    0.76300    1.000
    O42      O        0.82570    0.83264    0.54130    1.000
    C29      C        0.00050    0.14353    0.82200    1.000
    C30      C        0.97060    0.09980    0.80200    1.000
    C31      C        0.01550    0.07260    0.73950    1.000
    H17      H        0.06440    0.08150    0.71000    1.000
    C32      C        0.98770    0.03240    0.72080    1.000
    H18      H        0.01980    0.01430    0.68140    1.000
    C33      C        0.91330    0.01800    0.75910    1.000
    C34      C        0.87200    0.04520    0.82230    1.000
    C35      C        0.89990    0.08530    0.84630    1.000
    H19      H        0.87070    0.10270    0.89270    1.000
    C36      C        0.89040    0.97350    0.73500    1.000
    C37      C        0.84750    0.95670    0.60650    1.000
    C38      C        0.83570    0.91520    0.58330    1.000
    H20      H        0.80550    0.90530    0.49500    1.000
    C39      C        0.86870    0.88910    0.69090    1.000
    C40      C        0.91450    0.90420    0.81800    1.000
    H21      H        0.94000    0.88640    0.89120    1.000
    C41      C        0.92360    0.94610    0.83930    1.000
    H22      H        0.95330    0.95580    0.92810    1.000
    C42      C        0.86250    0.84360    0.66790    1.000
    C43      C        0.28010    0.24722    0.80480    1.000
    C44      C        0.37060    0.24780    0.77780    1.000
    C45      C        0.42910    0.28000    0.83080    1.000
    H23      H        0.41120    0.30070    0.88080    1.000
    C46      C        0.51430    0.28150    0.80930    1.000
    C47      C        0.54230    0.25210    0.72990    1.000
    C48      C        0.48210    0.21930    0.68090    1.000
    H24      H        0.49890    0.19860    0.63010    1.000
    C49      C        0.39920    0.21720    0.70630    1.000
    H25      H        0.36160    0.19470    0.67470    1.000
    C50      C        0.63200    0.25320    0.69740    1.000
    C51      C        0.69360    0.22300    0.74930    1.000
    H26      H        0.67620    0.20090    0.79410    1.000
    C52      C        0.78210    0.22390    0.73760    1.000
    H27      H        0.82360    0.20350    0.77880    1.000
    C53      C        0.80770    0.25490    0.66540    1.000
    C54      C        0.74450    0.28460    0.60380    1.000
    H28      H        0.76030    0.30520    0.55150    1.000
    C55      C        0.65740    0.28380    0.61980    1.000
    C56      C        0.90220    0.25778    0.65280    1.000
    N5       N        0.78900    0.03320    0.86790    1.000
    N6       N        0.57410    0.31510    0.87520    1.000
    N7       N        0.59390    0.31500    0.54680    1.000
    N8       N        0.81100    0.98420    0.48160    1.000
    O43      O        0.55160    0.33830    0.95440    1.000
    O44      O        0.63370    0.33010    0.83330    1.000
    O45      O        0.77170    0.99700    0.87800    1.000
    O46      O        0.74740    0.05990    0.91000    1.000
    O47      O        0.80250    0.02090    0.49600    1.000
    O48      O        0.76160    0.96860    0.37540    1.000
    Cu7      Cu       0.16513    0.22545    0.46781    1.000
    Cu8      Cu       0.01723    0.28278    0.48921    1.000
    Cu9      Cu       0.09069    0.28383    0.23125    1.000
    O49      O        0.12750    0.28178    0.43200    1.000
    H29      H        0.16760    0.29930    0.47210    1.000
    O50      O        0.04150    0.34304    0.23930    1.000
    O51      O        0.98080    0.33768    0.41860    1.000
    O52      O        0.21590    0.27262    0.21960    1.000
    O53      O        0.27350    0.23333    0.40870    1.000
    O54      O        0.05490    0.27507    0.03360    1.000
    H30      H        0.01480    0.29200    0.98940    1.000
    O55      O        0.53320    0.15300    0.37700    1.000
    O56      O        0.65620    0.19270    0.41010    1.000
    O57      O        0.51270    0.18900    0.03230    1.000
    O58      O        0.62100    0.15770    0.98700    1.000
    O59      O        0.73970    0.49300    0.29470    1.000
    O60      O        0.80850    0.45920    0.49240    1.000
    O61      O        0.76760    0.48800    0.01600    1.000
    O62      O        0.82180    0.52820    0.87260    1.000
    O63      O        0.91130    0.22165    0.05280    1.000
    O64      O        0.96480    0.26054    0.24110    1.000
    O65      O        0.89240    0.68084    0.26300    1.000
    O66      O        0.82570    0.66736    0.04130    1.000
    C57      C        0.00050    0.35647    0.32200    1.000
    C58      C        0.97060    0.40020    0.30200    1.000
    C59      C        0.01550    0.42740    0.23950    1.000
    H31      H        0.06440    0.41850    0.21000    1.000
    C60      C        0.98770    0.46760    0.22080    1.000
    H32      H        0.01980    0.48570    0.18140    1.000
    C61      C        0.91330    0.48200    0.25910    1.000
    C62      C        0.87200    0.45480    0.32230    1.000
    C63      C        0.89990    0.41470    0.34630    1.000
    H33      H        0.87070    0.39730    0.39270    1.000
    C64      C        0.89040    0.52650    0.23500    1.000
    C65      C        0.84750    0.54330    0.10650    1.000
    C66      C        0.83570    0.58480    0.08330    1.000
    H34      H        0.80550    0.59470    0.99500    1.000
    C67      C        0.86870    0.61090    0.19090    1.000
    C68      C        0.91450    0.59580    0.31800    1.000
    H35      H        0.94000    0.61360    0.39120    1.000
    C69      C        0.92360    0.55390    0.33930    1.000
    H36      H        0.95330    0.54420    0.42810    1.000
    C70      C        0.86250    0.65640    0.16790    1.000
    C71      C        0.28010    0.25278    0.30480    1.000
    C72      C        0.37060    0.25220    0.27780    1.000
    C73      C        0.42910    0.22000    0.33080    1.000
    H37      H        0.41120    0.19930    0.38080    1.000
    C74      C        0.51430    0.21850    0.30930    1.000
    C75      C        0.54230    0.24790    0.22990    1.000
    C76      C        0.48210    0.28070    0.18090    1.000
    H38      H        0.49890    0.30140    0.13010    1.000
    C77      C        0.39920    0.28280    0.20630    1.000
    H39      H        0.36160    0.30530    0.17470    1.000
    C78      C        0.63200    0.24680    0.19740    1.000
    C79      C        0.69360    0.27700    0.24930    1.000
    H40      H        0.67620    0.29910    0.29410    1.000
    C80      C        0.78210    0.27610    0.23760    1.000
    H41      H        0.82360    0.29650    0.27880    1.000
    C81      C        0.80770    0.24510    0.16540    1.000
    C82      C        0.74450    0.21540    0.10380    1.000
    H42      H        0.76030    0.19480    0.05150    1.000
    C83      C        0.65740    0.21620    0.11980    1.000
    C84      C        0.90220    0.24222    0.15280    1.000
    N9       N        0.78900    0.46680    0.36790    1.000
    N10      N        0.57410    0.18490    0.37520    1.000
    N11      N        0.59390    0.18500    0.04680    1.000
    N12      N        0.81100    0.51580    0.98160    1.000
    O67      O        0.55160    0.16170    0.45440    1.000
    O68      O        0.63370    0.16990    0.33330    1.000
    O69      O        0.77170    0.50300    0.37800    1.000
    O70      O        0.74740    0.44010    0.41000    1.000
    O71      O        0.80250    0.47910    0.99600    1.000
    O72      O        0.76160    0.53140    0.87540    1.000
    Cu10     Cu       0.83487    0.72545    0.03219    1.000
    Cu11     Cu       0.98277    0.78278    0.01079    1.000
    Cu12     Cu       0.90931    0.78383    0.26875    1.000
    O73      O        0.87250    0.78178    0.06800    1.000
    H43      H        0.83240    0.79930    0.02790    1.000
    O74      O        0.95850    0.84304    0.26070    1.000
    O75      O        0.01920    0.83768    0.08140    1.000
    O76      O        0.78410    0.77262    0.28040    1.000
    O77      O        0.72650    0.73333    0.09130    1.000
    O78      O        0.94510    0.77507    0.46640    1.000
    H44      H        0.98520    0.79200    0.51060    1.000
    O79      O        0.46680    0.65300    0.12300    1.000
    O80      O        0.34380    0.69270    0.08990    1.000
    O81      O        0.48730    0.68900    0.46770    1.000
    O82      O        0.37900    0.65770    0.51300    1.000
    O83      O        0.26030    0.99300    0.20530    1.000
    O84      O        0.19150    0.95920    0.00760    1.000
    O85      O        0.23240    0.98800    0.48400    1.000
    O86      O        0.17820    0.02820    0.62740    1.000
    O87      O        0.08870    0.72165    0.44720    1.000
    O88      O        0.03520    0.76054    0.25890    1.000
    O89      O        0.10760    0.18084    0.23700    1.000
    O90      O        0.17430    0.16736    0.45870    1.000
    C85      C        0.99950    0.85647    0.17800    1.000
    C86      C        0.02940    0.90020    0.19800    1.000
    C87      C        0.98450    0.92740    0.26050    1.000
    H45      H        0.93560    0.91850    0.29000    1.000
    C88      C        0.01230    0.96760    0.27920    1.000
    H46      H        0.98020    0.98570    0.31860    1.000
    C89      C        0.08670    0.98200    0.24090    1.000
    C90      C        0.12800    0.95480    0.17770    1.000
    C91      C        0.10010    0.91470    0.15370    1.000
    H47      H        0.12930    0.89730    0.10730    1.000
    C92      C        0.10960    0.02650    0.26500    1.000
    C93      C        0.15250    0.04330    0.39350    1.000
    C94      C        0.16430    0.08480    0.41670    1.000
    H48      H        0.19450    0.09470    0.50500    1.000
    C95      C        0.13130    0.11090    0.30910    1.000
    C96      C        0.08550    0.09580    0.18200    1.000
    H49      H        0.06000    0.11360    0.10880    1.000
    C97      C        0.07640    0.05390    0.16070    1.000
    H50      H        0.04670    0.04420    0.07190    1.000
    C98      C        0.13750    0.15640    0.33210    1.000
    C99      C        0.71990    0.75278    0.19520    1.000
    C100     C        0.62940    0.75220    0.22220    1.000
    C101     C        0.57090    0.72000    0.16920    1.000
    H51      H        0.58880    0.69930    0.11920    1.000
    C102     C        0.48570    0.71850    0.19070    1.000
    C103     C        0.45770    0.74790    0.27010    1.000
    C104     C        0.51790    0.78070    0.31910    1.000
    H52      H        0.50110    0.80140    0.36990    1.000
    C105     C        0.60080    0.78280    0.29370    1.000
    H53      H        0.63840    0.80530    0.32530    1.000
    C106     C        0.36800    0.74680    0.30260    1.000
    C107     C        0.30640    0.77700    0.25070    1.000
    H54      H        0.32380    0.79910    0.20590    1.000
    C108     C        0.21790    0.77610    0.26240    1.000
    H55      H        0.17640    0.79650    0.22120    1.000
    C109     C        0.19230    0.74510    0.33460    1.000
    C110     C        0.25550    0.71540    0.39620    1.000
    H56      H        0.23970    0.69480    0.44850    1.000
    C111     C        0.34260    0.71620    0.38020    1.000
    C112     C        0.09780    0.74222    0.34720    1.000
    N13      N        0.21100    0.96680    0.13210    1.000
    N14      N        0.42590    0.68490    0.12480    1.000
    N15      N        0.40610    0.68500    0.45320    1.000
    N16      N        0.18900    0.01580    0.51840    1.000
    O91      O        0.44840    0.66170    0.04560    1.000
    O92      O        0.36630    0.66990    0.16670    1.000
    O93      O        0.22830    0.00300    0.12200    1.000
    O94      O        0.25260    0.94010    0.09000    1.000
    O95      O        0.19750    0.97910    0.50400    1.000
    O96      O        0.23840    0.03140    0.62460    1.000
