# CIF file generated by openbabel 3.1.0, see https://openbabel.org
data_I
_chemical_name_common 'image0'
_cell_length_a 29.0553
_cell_length_b 14.1152
_cell_length_c 13.4991
_cell_angle_alpha 90
_cell_angle_beta 97.912
_cell_angle_gamma 90
_space_group_name_H-M_alt 'P 1'
_space_group_name_Hall 'P 1'
loop_
    _symmetry_equiv_pos_as_xyz
    x,y,z
loop_
    _atom_site_label
    _atom_site_type_symbol
    _atom_site_fract_x
    _atom_site_fract_y
    _atom_site_fract_z
    _atom_site_occupancy
    Eu1      Eu       0.18434    0.70591    0.46130    1.000
    C1       C        0.09840    0.75220    0.52600    1.000
    C2       C        0.05400    0.77680    0.56520    1.000
    C3       C        0.03820    0.87040    0.56430    1.000
    H1       H        0.05690    0.91830    0.54460    1.000
    C4       C        0.99710    0.89310    0.59080    1.000
    H2       H        0.98680    0.95550    0.58660    1.000
    C5       C        0.96950    0.82200    0.62510    1.000
    C6       C        0.98460    0.73250    0.62890    1.000
    H3       H        0.96650    0.68560    0.65260    1.000
    C7       C        0.02750    0.70720    0.59780    1.000
    H4       H        0.03740    0.64440    0.59960    1.000
    C8       C        0.92180    0.83920    0.65080    1.000
    C9       C        0.75370    0.07960    0.57480    1.000
    C10      C        0.78380    0.00820    0.62840    1.000
    C11      C        0.83040    0.00020    0.61850    1.000
    H5       H        0.84330    0.04250    0.57730    1.000
    C12      C        0.85780    0.93230    0.66720    1.000
    C13      C        0.83970    0.87440    0.73940    1.000
    H6       H        0.85870    0.83140    0.77800    1.000
    C14      C        0.79380    0.88350    0.75060    1.000
    C15      C        0.76550    0.94970    0.69660    1.000
    H7       H        0.73450    0.95520    0.70570    1.000
    C16      C        0.77380    0.82340    0.82720    1.000
    N1       N        0.90470    0.92200    0.64710    1.000
    O1       O        0.11360    0.66890    0.54110    1.000
    O2       O        0.12020    0.81370    0.48600    1.000
    O3       O        0.71070    0.06480    0.55360    1.000
    O4       O        0.77120    0.15560    0.54550    1.000
    O5       O        0.73270    0.84090    0.84280    1.000
    O6       O        0.80030    0.76160    0.87290    1.000
    Eu2      Eu       0.68434    0.20591    0.46130    1.000
    C17      C        0.59840    0.25220    0.52600    1.000
    C18      C        0.55400    0.27680    0.56520    1.000
    C19      C        0.53820    0.37040    0.56430    1.000
    H8       H        0.55690    0.41830    0.54460    1.000
    C20      C        0.49710    0.39310    0.59080    1.000
    H9       H        0.48680    0.45550    0.58660    1.000
    C21      C        0.46950    0.32200    0.62510    1.000
    C22      C        0.48460    0.23250    0.62890    1.000
    H10      H        0.46650    0.18560    0.65260    1.000
    C23      C        0.52750    0.20720    0.59780    1.000
    H11      H        0.53740    0.14440    0.59960    1.000
    C24      C        0.42180    0.33920    0.65080    1.000
    C25      C        0.25370    0.57960    0.57480    1.000
    C26      C        0.28380    0.50820    0.62840    1.000
    C27      C        0.33040    0.50020    0.61850    1.000
    H12      H        0.34330    0.54250    0.57730    1.000
    C28      C        0.35780    0.43230    0.66720    1.000
    C29      C        0.33970    0.37440    0.73940    1.000
    H13      H        0.35870    0.33140    0.77800    1.000
    C30      C        0.29380    0.38350    0.75060    1.000
    C31      C        0.26550    0.44970    0.69660    1.000
    H14      H        0.23450    0.45520    0.70570    1.000
    C32      C        0.27380    0.32340    0.82720    1.000
    N2       N        0.40470    0.42200    0.64710    1.000
    O7       O        0.61360    0.16890    0.54110    1.000
    O8       O        0.62020    0.31370    0.48600    1.000
    O9       O        0.21070    0.56480    0.55360    1.000
    O10      O        0.27120    0.65560    0.54550    1.000
    O11      O        0.23270    0.34090    0.84280    1.000
    O12      O        0.30030    0.26160    0.87290    1.000
    Eu3      Eu       0.81566    0.70591    0.03870    1.000
    C33      C        0.90160    0.75220    0.97400    1.000
    C34      C        0.94600    0.77680    0.93480    1.000
    C35      C        0.96180    0.87040    0.93570    1.000
    H15      H        0.94310    0.91830    0.95540    1.000
    C36      C        0.00290    0.89310    0.90920    1.000
    H16      H        0.01320    0.95550    0.91340    1.000
    C37      C        0.03050    0.82200    0.87490    1.000
    C38      C        0.01540    0.73250    0.87110    1.000
    H17      H        0.03350    0.68560    0.84740    1.000
    C39      C        0.97250    0.70720    0.90220    1.000
    H18      H        0.96260    0.64440    0.90040    1.000
    C40      C        0.07820    0.83920    0.84920    1.000
    C41      C        0.24630    0.07960    0.92520    1.000
    C42      C        0.21620    0.00820    0.87160    1.000
    C43      C        0.16960    0.00020    0.88150    1.000
    H19      H        0.15670    0.04250    0.92270    1.000
    C44      C        0.14220    0.93230    0.83280    1.000
    C45      C        0.16030    0.87440    0.76060    1.000
    H20      H        0.14130    0.83140    0.72200    1.000
    C46      C        0.20620    0.88350    0.74940    1.000
    C47      C        0.23450    0.94970    0.80340    1.000
    H21      H        0.26550    0.95520    0.79430    1.000
    C48      C        0.22620    0.82340    0.67280    1.000
    N3       N        0.09530    0.92200    0.85290    1.000
    O13      O        0.88640    0.66890    0.95890    1.000
    O14      O        0.87980    0.81370    0.01400    1.000
    O15      O        0.28930    0.06480    0.94640    1.000
    O16      O        0.22880    0.15560    0.95450    1.000
    O17      O        0.26730    0.84090    0.65720    1.000
    O18      O        0.19970    0.76160    0.62710    1.000
    Eu4      Eu       0.31566    0.20591    0.03870    1.000
    C49      C        0.40160    0.25220    0.97400    1.000
    C50      C        0.44600    0.27680    0.93480    1.000
    C51      C        0.46180    0.37040    0.93570    1.000
    H22      H        0.44310    0.41830    0.95540    1.000
    C52      C        0.50290    0.39310    0.90920    1.000
    H23      H        0.51320    0.45550    0.91340    1.000
    C53      C        0.53050    0.32200    0.87490    1.000
    C54      C        0.51540    0.23250    0.87110    1.000
    H24      H        0.53350    0.18560    0.84740    1.000
    C55      C        0.47250    0.20720    0.90220    1.000
    H25      H        0.46260    0.14440    0.90040    1.000
    C56      C        0.57820    0.33920    0.84920    1.000
    C57      C        0.74630    0.57960    0.92520    1.000
    C58      C        0.71620    0.50820    0.87160    1.000
    C59      C        0.66960    0.50020    0.88150    1.000
    H26      H        0.65670    0.54250    0.92270    1.000
    C60      C        0.64220    0.43230    0.83280    1.000
    C61      C        0.66030    0.37440    0.76060    1.000
    H27      H        0.64130    0.33140    0.72200    1.000
    C62      C        0.70620    0.38350    0.74940    1.000
    C63      C        0.73450    0.44970    0.80340    1.000
    H28      H        0.76550    0.45520    0.79430    1.000
    C64      C        0.72620    0.32340    0.67280    1.000
    N4       N        0.59530    0.42200    0.85290    1.000
    O19      O        0.38640    0.16890    0.95890    1.000
    O20      O        0.37980    0.31370    0.01400    1.000
    O21      O        0.78930    0.56480    0.94640    1.000
    O22      O        0.72880    0.65560    0.95450    1.000
    O23      O        0.76730    0.34090    0.65720    1.000
    O24      O        0.69970    0.26160    0.62710    1.000
    Eu5      Eu       0.81566    0.29409    0.53870    1.000
    C65      C        0.90160    0.24780    0.47400    1.000
    C66      C        0.94600    0.22320    0.43480    1.000
    C67      C        0.96180    0.12960    0.43570    1.000
    H29      H        0.94310    0.08170    0.45540    1.000
    C68      C        0.00290    0.10690    0.40920    1.000
    H30      H        0.01320    0.04450    0.41340    1.000
    C69      C        0.03050    0.17800    0.37490    1.000
    C70      C        0.01540    0.26750    0.37110    1.000
    H31      H        0.03350    0.31440    0.34740    1.000
    C71      C        0.97250    0.29280    0.40220    1.000
    H32      H        0.96260    0.35560    0.40040    1.000
    C72      C        0.07820    0.16080    0.34920    1.000
    C73      C        0.24630    0.92040    0.42520    1.000
    C74      C        0.21620    0.99180    0.37160    1.000
    C75      C        0.16960    0.99980    0.38150    1.000
    H33      H        0.15670    0.95750    0.42270    1.000
    C76      C        0.14220    0.06770    0.33280    1.000
    C77      C        0.16030    0.12560    0.26060    1.000
    H34      H        0.14130    0.16860    0.22200    1.000
    C78      C        0.20620    0.11650    0.24940    1.000
    C79      C        0.23450    0.05030    0.30340    1.000
    H35      H        0.26550    0.04480    0.29430    1.000
    C80      C        0.22620    0.17660    0.17280    1.000
    N5       N        0.09530    0.07800    0.35290    1.000
    O25      O        0.88640    0.33110    0.45890    1.000
    O26      O        0.87980    0.18630    0.51400    1.000
    O27      O        0.28930    0.93520    0.44640    1.000
    O28      O        0.22880    0.84440    0.45450    1.000
    O29      O        0.26730    0.15910    0.15720    1.000
    O30      O        0.19970    0.23840    0.12710    1.000
    Eu6      Eu       0.31566    0.79409    0.53870    1.000
    C81      C        0.40160    0.74780    0.47400    1.000
    C82      C        0.44600    0.72320    0.43480    1.000
    C83      C        0.46180    0.62960    0.43570    1.000
    H36      H        0.44310    0.58170    0.45540    1.000
    C84      C        0.50290    0.60690    0.40920    1.000
    H37      H        0.51320    0.54450    0.41340    1.000
    C85      C        0.53050    0.67800    0.37490    1.000
    C86      C        0.51540    0.76750    0.37110    1.000
    H38      H        0.53350    0.81440    0.34740    1.000
    C87      C        0.47250    0.79280    0.40220    1.000
    H39      H        0.46260    0.85560    0.40040    1.000
    C88      C        0.57820    0.66080    0.34920    1.000
    C89      C        0.74630    0.42040    0.42520    1.000
    C90      C        0.71620    0.49180    0.37160    1.000
    C91      C        0.66960    0.49980    0.38150    1.000
    H40      H        0.65670    0.45750    0.42270    1.000
    C92      C        0.64220    0.56770    0.33280    1.000
    C93      C        0.66030    0.62560    0.26060    1.000
    H41      H        0.64130    0.66860    0.22200    1.000
    C94      C        0.70620    0.61650    0.24940    1.000
    C95      C        0.73450    0.55030    0.30340    1.000
    H42      H        0.76550    0.54480    0.29430    1.000
    C96      C        0.72620    0.67660    0.17280    1.000
    N6       N        0.59530    0.57800    0.35290    1.000
    O31      O        0.38640    0.83110    0.45890    1.000
    O32      O        0.37980    0.68630    0.51400    1.000
    O33      O        0.78930    0.43520    0.44640    1.000
    O34      O        0.72880    0.34440    0.45450    1.000
    O35      O        0.76730    0.65910    0.15720    1.000
    O36      O        0.69970    0.73840    0.12710    1.000
    Eu7      Eu       0.18434    0.29409    0.96130    1.000
    C97      C        0.09840    0.24780    0.02600    1.000
    C98      C        0.05400    0.22320    0.06520    1.000
    C99      C        0.03820    0.12960    0.06430    1.000
    H43      H        0.05690    0.08170    0.04460    1.000
    C100     C        0.99710    0.10690    0.09080    1.000
    H44      H        0.98680    0.04450    0.08660    1.000
    C101     C        0.96950    0.17800    0.12510    1.000
    C102     C        0.98460    0.26750    0.12890    1.000
    H45      H        0.96650    0.31440    0.15260    1.000
    C103     C        0.02750    0.29280    0.09780    1.000
    H46      H        0.03740    0.35560    0.09960    1.000
    C104     C        0.92180    0.16080    0.15080    1.000
    C105     C        0.75370    0.92040    0.07480    1.000
    C106     C        0.78380    0.99180    0.12840    1.000
    C107     C        0.83040    0.99980    0.11850    1.000
    H47      H        0.84330    0.95750    0.07730    1.000
    C108     C        0.85780    0.06770    0.16720    1.000
    C109     C        0.83970    0.12560    0.23940    1.000
    H48      H        0.85870    0.16860    0.27800    1.000
    C110     C        0.79380    0.11650    0.25060    1.000
    C111     C        0.76550    0.05030    0.19660    1.000
    H49      H        0.73450    0.04480    0.20570    1.000
    C112     C        0.77380    0.17660    0.32720    1.000
    N7       N        0.90470    0.07800    0.14710    1.000
    O37      O        0.11360    0.33110    0.04110    1.000
    O38      O        0.12020    0.18630    0.98600    1.000
    O39      O        0.71070    0.93520    0.05360    1.000
    O40      O        0.77120    0.84440    0.04550    1.000
    O41      O        0.73270    0.15910    0.34280    1.000
    O42      O        0.80030    0.23840    0.37290    1.000
    Eu8      Eu       0.68434    0.79409    0.96130    1.000
    C113     C        0.59840    0.74780    0.02600    1.000
    C114     C        0.55400    0.72320    0.06520    1.000
    C115     C        0.53820    0.62960    0.06430    1.000
    H50      H        0.55690    0.58170    0.04460    1.000
    C116     C        0.49710    0.60690    0.09080    1.000
    H51      H        0.48680    0.54450    0.08660    1.000
    C117     C        0.46950    0.67800    0.12510    1.000
    C118     C        0.48460    0.76750    0.12890    1.000
    H52      H        0.46650    0.81440    0.15260    1.000
    C119     C        0.52750    0.79280    0.09780    1.000
    H53      H        0.53740    0.85560    0.09960    1.000
    C120     C        0.42180    0.66080    0.15080    1.000
    C121     C        0.25370    0.42040    0.07480    1.000
    C122     C        0.28380    0.49180    0.12840    1.000
    C123     C        0.33040    0.49980    0.11850    1.000
    H54      H        0.34330    0.45750    0.07730    1.000
    C124     C        0.35780    0.56770    0.16720    1.000
    C125     C        0.33970    0.62560    0.23940    1.000
    H55      H        0.35870    0.66860    0.27800    1.000
    C126     C        0.29380    0.61650    0.25060    1.000
    C127     C        0.26550    0.55030    0.19660    1.000
    H56      H        0.23450    0.54480    0.20570    1.000
    C128     C        0.27380    0.67660    0.32720    1.000
    N8       N        0.40470    0.57800    0.14710    1.000
    O43      O        0.61360    0.83110    0.04110    1.000
    O44      O        0.62020    0.68630    0.98600    1.000
    O45      O        0.21070    0.43520    0.05360    1.000
    O46      O        0.27120    0.34440    0.04550    1.000
    O47      O        0.23270    0.65910    0.34280    1.000
    O48      O        0.30030    0.73840    0.37290    1.000
