# CIF file generated by openbabel 3.1.0, see https://openbabel.org
data_I
_chemical_name_common 'GUNFAW01_neutral'
_cell_length_a 15.4901
_cell_length_b 15.4901
_cell_length_c 15.4901
_cell_angle_alpha 90
_cell_angle_beta 90
_cell_angle_gamma 90
_space_group_name_H-M_alt 'P 1'
_space_group_name_Hall 'P 1'
loop_
    _symmetry_equiv_pos_as_xyz
    x,y,z
loop_
    _atom_site_label
    _atom_site_type_symbol
    _atom_site_fract_x
    _atom_site_fract_y
    _atom_site_fract_z
    _atom_site_occupancy
    Mn1      Mn       0.85350    0.35350    0.14650    1.000
    Mn2      Mn       0.64650    0.64650    0.64650    1.000
    Mn3      Mn       0.14650    0.85350    0.35350    1.000
    Mn4      Mn       0.35350    0.14650    0.85350    1.000
    Cr1      Cr       0.59730    0.40270    0.90270    1.000
    Cr2      Cr       0.90270    0.59730    0.40270    1.000
    Cr3      Cr       0.40270    0.90270    0.59730    1.000
    Cr4      Cr       0.09730    0.09730    0.09730    1.000
    C1       C        0.76300    0.37800    0.99300    1.000
    C2       C        0.69500    0.37500    0.06600    1.000
    C3       C        0.73700    0.62200    0.49300    1.000
    C4       C        0.80500    0.62500    0.56600    1.000
    C5       C        0.23700    0.87800    0.50700    1.000
    C6       C        0.30500    0.87500    0.43400    1.000
    C7       C        0.26300    0.12200    0.00700    1.000
    C8       C        0.19500    0.12500    0.93400    1.000
    C9       C        0.99300    0.76300    0.37800    1.000
    C10      C        0.06600    0.69500    0.37500    1.000
    C11      C        0.49300    0.73700    0.62200    1.000
    C12      C        0.56600    0.80500    0.62500    1.000
    C13      C        0.50700    0.23700    0.87800    1.000
    C14      C        0.43400    0.30500    0.87500    1.000
    C15      C        0.00700    0.26300    0.12200    1.000
    C16      C        0.93400    0.19500    0.12500    1.000
    C17      C        0.37800    0.99300    0.76300    1.000
    C18      C        0.37500    0.06600    0.69500    1.000
    C19      C        0.62200    0.49300    0.73700    1.000
    C20      C        0.62500    0.56600    0.80500    1.000
    C21      C        0.87800    0.50700    0.23700    1.000
    C22      C        0.87500    0.43400    0.30500    1.000
    C23      C        0.12200    0.00700    0.26300    1.000
    C24      C        0.12500    0.93400    0.19500    1.000
    O1       O        0.84210    0.36580    0.02030    1.000
    O2       O        0.72600    0.35930    0.14330    1.000
    O3       O        0.74000    0.38730    0.91980    1.000
    O4       O        0.61800    0.38960    0.04740    1.000
    O5       O        0.65790    0.63420    0.52030    1.000
    O6       O        0.77400    0.64070    0.64330    1.000
    O7       O        0.76000    0.61270    0.41980    1.000
    O8       O        0.88200    0.61040    0.54740    1.000
    O9       O        0.15790    0.86580    0.47970    1.000
    O10      O        0.27400    0.85930    0.35670    1.000
    O11      O        0.26000    0.88730    0.58020    1.000
    O12      O        0.38200    0.88960    0.45260    1.000
    O13      O        0.34210    0.13420    0.97970    1.000
    O14      O        0.22600    0.14070    0.85670    1.000
    O15      O        0.24000    0.11270    0.08020    1.000
    O16      O        0.11800    0.11040    0.95260    1.000
    O17      O        0.02030    0.84210    0.36580    1.000
    O18      O        0.14330    0.72600    0.35930    1.000
    O19      O        0.91980    0.74000    0.38730    1.000
    O20      O        0.04740    0.61800    0.38960    1.000
    O21      O        0.52030    0.65790    0.63420    1.000
    O22      O        0.64330    0.77400    0.64070    1.000
    O23      O        0.41980    0.76000    0.61270    1.000
    O24      O        0.54740    0.88200    0.61040    1.000
    O25      O        0.47970    0.15790    0.86580    1.000
    O26      O        0.35670    0.27400    0.85930    1.000
    O27      O        0.58020    0.26000    0.88730    1.000
    O28      O        0.45260    0.38200    0.88960    1.000
    O29      O        0.97970    0.34210    0.13420    1.000
    O30      O        0.85670    0.22600    0.14070    1.000
    O31      O        0.08020    0.24000    0.11270    1.000
    O32      O        0.95260    0.11800    0.11040    1.000
    O33      O        0.36580    0.02030    0.84210    1.000
    O34      O        0.35930    0.14330    0.72600    1.000
    O35      O        0.38730    0.91980    0.74000    1.000
    O36      O        0.38960    0.04740    0.61800    1.000
    O37      O        0.63420    0.52030    0.65790    1.000
    O38      O        0.64070    0.64330    0.77400    1.000
    O39      O        0.61270    0.41980    0.76000    1.000
    O40      O        0.61040    0.54740    0.88200    1.000
    O41      O        0.86580    0.47970    0.15790    1.000
    O42      O        0.85930    0.35670    0.27400    1.000
    O43      O        0.88730    0.58020    0.26000    1.000
    O44      O        0.88960    0.45260    0.38200    1.000
    O45      O        0.13420    0.97970    0.34210    1.000
    O46      O        0.14070    0.85670    0.22600    1.000
    O47      O        0.11270    0.08020    0.24000    1.000
    O48      O        0.11040    0.95260    0.11800    1.000
