data_functionalizedCrystal
_audit_creation_method	'EQeq! by Chris Wilmer'
_symmetry_space_group_name_H-M	'P1'
_symmetry_Int_Tables_number	1
_symmetry_cell_setting	triclinic
loop_
_symmetry_equiv_pos_as_xyz
  x,y,z
_cell_length_a	9.7554
_cell_length_b	13.243
_cell_length_c	13.5956
_cell_angle_alpha	118.303
_cell_angle_beta	90
_cell_angle_gamma	111.612
loop_
_atom_site_label
_atom_site_type_symbol
_atom_site_fract_x
_atom_site_fract_y
_atom_site_fract_z
_atom_site_charge
Mof_Cd	Cd	0.32318	0.51296	0.85645	0.415
Mof_Cd	Cd	0.81897	0.49182	0.60272	0.446
Mof_Cd	Cd	0.81022	0.48704	0.14355	0.408
Mof_Cd	Cd	0.32715	0.50818	0.39728	0.452
Mof_H 	H 	0.404	0.806	0.0029	0.018
Mof_H 	H 	0.5966	0.0022	0.1117	0.089
Mof_H 	H 	0.8907	0.8412	0.0592	0.072
Mof_H 	H 	0.6826	0.644	0.9572	0.031
Mof_H 	H 	0.77	0.1772	0.2053	0.087
Mof_H 	H 	0.9708	0.3736	0.2975	0.042
Mof_H 	H 	0.2596	0.22	0.2392	0.036
Mof_H 	H 	0.0662	0.0182	0.1368	0.069
Mof_H 	H 	0.9534	0.374	0.785	0.039
Mof_H 	H 	0.7557	0.1776	0.6951	0.084
Mof_H 	H 	0.0589	0.0222	0.6358	0.072
Mof_H 	H 	0.2478	0.224	0.7215	0.039
Mof_H 	H 	0.6901	0.6484	0.4599	0.031
Mof_H 	H 	0.8897	0.8486	0.5482	0.075
Mof_H 	H 	0.5831	0.9968	0.6403	0.088
Mof_H 	H 	0.3927	0.7928	0.5499	0.04
Mof_H 	H 	0.598	0.194	0.9971	0.017
Mof_H 	H 	0.5944	0.9978	0.8883	0.087
Mof_H 	H 	0.0495	0.1588	0.9408	0.08
Mof_H 	H 	0.0386	0.356	0.0428	0.045
Mof_H 	H 	0.5928	0.8228	0.7947	0.093
Mof_H 	H 	0.5972	0.6264	0.7025	0.038
Mof_H 	H 	0.0396	0.78	0.7608	0.042
Mof_H 	H 	0.048	0.9818	0.8632	0.082
Mof_H 	H 	0.5794	0.626	0.215	0.036
Mof_H 	H 	0.5781	0.8224	0.3049	0.089
Mof_H 	H 	0.0367	0.9778	0.3642	0.087
Mof_H 	H 	0.0238	0.776	0.2785	0.047
Mof_H 	H 	0.0417	0.3516	0.5401	0.042
Mof_H 	H 	0.0411	0.1514	0.4518	0.085
Mof_H 	H 	0.5863	0.0032	0.3597	0.086
Mof_H 	H 	0.5999	0.2072	0.4501	0.041
Mof_C 	C 	0.5032	0.8124	0.0146	0.082
Mof_C 	C 	0.6194	0.931	0.0793	-0.132
Mof_C 	C 	0.7649	0.9452	0.0983	0.065
Mof_C 	C 	0.7907	0.8368	0.0496	-0.113
Mof_C 	C 	0.6662	0.7184	0.9875	0.068
Mof_C 	C 	0.8926	0.0748	0.1611	0.031
Mof_C 	C 	0.8693	0.1832	0.2101	-0.104
Mof_C 	C 	0.9904	0.3004	0.267	0.056
Mof_C 	C 	0.1581	0.2108	0.2315	0.058
Mof_C 	C 	0.044	0.0904	0.1711	-0.09
Mof_C 	C 	0.9749	0.3018	0.7533	0.045
Mof_C 	C 	0.8561	0.1844	0.7021	-0.096
Mof_C 	C 	0.8833	0.0762	0.6599	0.03
Mof_C 	C 	0.0346	0.093	0.6665	-0.093
Mof_C 	C 	0.1461	0.2142	0.7177	0.057
Mof_C 	C 	0.6682	0.7202	0.4968	0.074
Mof_C 	C 	0.7879	0.84	0.5499	-0.113
Mof_C 	C 	0.7578	0.947	0.6044	0.061
Mof_C 	C 	0.6088	0.9272	0.604	-0.121
Mof_C 	C 	0.4946	0.8042	0.5493	0.077
Mof_C 	C 	0.6908	0.1876	0.9854	0.08
Mof_C 	C 	0.6884	0.069	0.9207	-0.127
Mof_C 	C 	0.8197	0.0548	0.9017	0.057
Mof_C 	C 	0.9539	0.1632	0.9504	-0.115
Mof_C 	C 	0.9478	0.2816	0.0125	0.049
Mof_C 	C 	0.8178	0.9252	0.8389	0.055
Mof_C 	C 	0.6861	0.8168	0.7899	-0.121
Mof_C 	C 	0.69	0.6996	0.733	0.077
Mof_C 	C 	0.9473	0.7892	0.7685	0.056
Mof_C 	C 	0.9536	0.9096	0.8289	-0.126
Mof_C 	C 	0.6731	0.6982	0.2467	0.063
Mof_C 	C 	0.6717	0.8156	0.2979	-0.111
Mof_C 	C 	0.8071	0.9238	0.3401	0.052
Mof_C 	C 	0.9416	0.907	0.3335	-0.128
Mof_C 	C 	0.9319	0.7858	0.2823	0.053
Mof_C 	C 	0.948	0.2798	0.5032	0.06
Mof_C 	C 	0.9479	0.16	0.4501	-0.121
Mof_C 	C 	0.8108	0.053	0.3956	0.055
Mof_C 	C 	0.6816	0.0728	0.396	-0.117
Mof_C 	C 	0.6904	0.1958	0.4507	0.076
Mof_S 	S 	0.22268	0.61696	0.6884	0.634
Mof_S 	S 	0.57714	0.37088	0.7232	0.68
Mof_S 	S 	0.60572	0.38304	0.3116	0.635
Mof_S 	S 	0.20626	0.62912	0.2768	0.678
Mof_N 	N 	0.525	0.7068	0.9688	-0.149
Mof_N 	N 	0.1335	0.3154	0.2802	-0.135
Mof_N 	N 	0.1221	0.319	0.7619	-0.138
Mof_N 	N 	0.5241	0.7014	0.4955	-0.144
Mof_N 	N 	0.8182	0.2932	0.0312	-0.147
Mof_N 	N 	0.8181	0.6846	0.7198	-0.144
Mof_N 	N 	0.8031	0.681	0.2381	-0.145
Mof_N 	N 	0.8227	0.2986	0.5045	-0.142
Mof_O 	O 	0.2983	0.5448	0.7051	-0.297
Mof_O 	O 	0.3064	0.7516	0.7662	-0.285
Mof_O 	O 	0.0674	0.5732	0.71	-0.294
Mof_O 	O 	0.2113	0.5856	0.5689	-0.289
Mof_O 	O 	0.5738	0.401	0.6315	-0.289
Mof_O 	O 	0.5089	0.2346	0.6708	-0.286
Mof_O 	O 	0.7357	0.4292	0.7762	-0.3
Mof_O 	O 	0.4953	0.428	0.8054	-0.323
Mof_O 	O 	0.7535	0.4552	0.2949	-0.299
Mof_O 	O 	0.5548	0.2484	0.2338	-0.285
Mof_O 	O 	0.4942	0.4268	0.29	-0.299
Mof_O 	O 	0.6257	0.4144	0.4311	-0.291
Mof_O 	O 	0.1728	0.599	0.3685	-0.286
Mof_O 	O 	0.2743	0.7654	0.3292	-0.285
Mof_O 	O 	0.3065	0.5708	0.2238	-0.297
Mof_O 	O 	0.0673	0.572	0.1946	-0.317
_end
