data_functionalizedCrystal
_audit_creation_method	'EQeq! by Chris Wilmer'
_symmetry_space_group_name_H-M	'P1'
_symmetry_Int_Tables_number	1
_symmetry_cell_setting	triclinic
loop_
_symmetry_equiv_pos_as_xyz
  x,y,z
_cell_length_a	8.522
_cell_length_b	9.054
_cell_length_c	11.9877
_cell_angle_alpha	90
_cell_angle_beta	90
_cell_angle_gamma	90
loop_
_atom_site_label
_atom_site_type_symbol
_atom_site_fract_x
_atom_site_fract_y
_atom_site_fract_z
_atom_site_charge
Mof_Mn	Mn	0.24866	0.25	0.75	1.066
Mof_Mn	Mn	0.75134	0.75	0.25	1.057
Mof_Mn	Mn	0.25134	0.25	0.25	1.056
Mof_Mn	Mn	0.74866	0.75	0.75	1.065
Mof_H 	H 	0.5828	0.0643	0.268	-0.117
Mof_H 	H 	0.4172	0.5643	0.768	-0.111
Mof_H 	H 	0.4172	0.9357	0.732	-0.113
Mof_H 	H 	0.9172	0.0643	0.732	-0.106
Mof_H 	H 	0.5828	0.4357	0.232	-0.121
Mof_H 	H 	0.25	0.2074	-0	-0.09
Mof_H 	H 	0.25	0.2926	0.5	-0.107
Mof_H 	H 	0.0828	0.9357	0.268	-0.111
Mof_H 	H 	0.75	0.7926	-0	-0.091
Mof_H 	H 	0.75	0.7074	0.5	-0.107
Mof_H 	H 	0.9172	0.4357	0.768	-0.111
Mof_H 	H 	0.0828	0.5643	0.232	-0.121
Mof_C 	C 	0.75	0.6899	-0	0.39
Mof_C 	C 	0.25	0.3101	-0	0.385
Mof_C 	C 	0.01933	0.98457	0.21679	0.488
Mof_C 	C 	0.48067	0.51543	0.71679	0.512
Mof_C 	C 	0.51933	0.01543	0.21679	0.51
Mof_C 	C 	0.48067	0.98457	0.78321	0.508
Mof_C 	C 	0.98067	0.48457	0.71679	0.507
Mof_C 	C 	0.51933	0.48457	0.28321	0.511
Mof_C 	C 	0.01933	0.51543	0.28321	0.509
Mof_C 	C 	0.75	0.8101	0.5	0.497
Mof_C 	C 	0.25	0.1899	0.5	0.497
Mof_C 	C 	0.98067	0.01543	0.78321	0.484
Mof_O 	O 	0.244	0.37113	0.90761	-0.302
Mof_O 	O 	0.90415	0.58391	0.32009	-0.383
Mof_O 	O 	0.256	0.12887	0.40761	-0.372
Mof_O 	O 	0.09585	0.08391	0.82009	-0.357
Mof_O 	O 	0.256	0.37113	0.09239	-0.356
Mof_O 	O 	0.09585	0.41609	0.67991	-0.38
Mof_O 	O 	0.756	0.62887	0.09239	-0.357
Mof_O 	O 	0.55691	0.61228	0.30868	-0.369
Mof_O 	O 	0.756	0.87113	0.40761	-0.371
Mof_O 	O 	0.90415	0.91609	0.17991	-0.381
Mof_O 	O 	0.44309	0.11228	0.80868	-0.353
Mof_O 	O 	0.744	0.87113	0.59239	-0.373
Mof_O 	O 	0.40415	0.41609	0.32009	-0.385
Mof_O 	O 	0.44309	0.38772	0.69132	-0.365
Mof_O 	O 	0.55691	0.88772	0.19132	-0.374
Mof_O 	O 	0.59585	0.58391	0.67991	-0.383
Mof_O 	O 	0.94309	0.88772	0.80868	-0.344
Mof_O 	O 	0.744	0.62887	0.90761	-0.305
Mof_O 	O 	0.244	0.12887	0.59239	-0.372
Mof_O 	O 	0.59585	0.91609	0.82009	-0.368
Mof_O 	O 	0.94309	0.61228	0.69132	-0.364
Mof_O 	O 	0.05691	0.38772	0.30868	-0.367
Mof_O 	O 	0.40415	0.08391	0.17991	-0.391
Mof_O 	O 	0.05691	0.11228	0.19132	-0.364
_end
