data_functionalizedCrystal
_audit_creation_method	'EQeq! by Chris Wilmer'
_symmetry_space_group_name_H-M	'P1'
_symmetry_Int_Tables_number	1
_symmetry_cell_setting	triclinic
loop_
_symmetry_equiv_pos_as_xyz
  x,y,z
_cell_length_a	27.657
_cell_length_b	19.775
_cell_length_c	9.508
_cell_angle_alpha	90
_cell_angle_beta	90
_cell_angle_gamma	90
loop_
_atom_site_label
_atom_site_type_symbol
_atom_site_fract_x
_atom_site_fract_y
_atom_site_fract_z
_atom_site_charge
Mof_La	La	0.1326	0.36204	0.74817	2.578
Mof_S 	S 	0.12997	0.25521	0.48922	0.829
Mof_O 	O 	0.21722	0.41869	0.6616	-0.384
Mof_O 	O 	0.21821	0.33567	0.84	-0.42
Mof_O 	O 	0.17151	0.28833	0.5577	-0.473
Mof_O 	O 	0.04296	0.3498	0.7764	-0.838
Mof_O 	O 	0.13234	0.2632	0.3356	-0.489
Mof_O 	O 	0.08711	0.2887	0.548	-0.715
Mof_O 	O 	0.13648	0.4615	0.9018	-0.532
Mof_O 	O 	0.12893	0.18237	0.5151	-0.476
Mof_O 	O 	0.07591	0.45246	0.0799	-0.602
Mof_O 	O 	0.88232	0.4483	0.5647	-0.627
Mof_O 	O 	0.94279	0.4691	0.3933	-0.545
Mof_O 	O 	0.05551	0.3313	0.228	-0.572
Mof_La	La	0.6326	0.86204	0.74817	2.602
Mof_S 	S 	0.62997	0.75521	0.48922	0.858
Mof_O 	O 	0.71722	0.91869	0.6616	-0.36
Mof_O 	O 	0.71821	0.83567	0.84	-0.419
Mof_O 	O 	0.67151	0.78833	0.5577	-0.48
Mof_O 	O 	0.54296	0.8498	0.7764	-0.949
Mof_O 	O 	0.63234	0.7632	0.3356	-0.51
Mof_O 	O 	0.58711	0.7887	0.548	-0.782
Mof_O 	O 	0.63648	0.9615	0.9018	-0.405
Mof_O 	O 	0.62893	0.68237	0.5151	-0.498
Mof_O 	O 	0.57591	0.95246	0.0799	-0.523
Mof_O 	O 	0.38232	0.9483	0.5647	-0.517
Mof_O 	O 	0.44279	0.9691	0.3933	-0.574
Mof_O 	O 	0.55551	0.8313	0.228	-0.666
Mof_La	La	0.8674	0.13796	0.24817	2.503
Mof_S 	S 	0.87003	0.24479	0.98922	1.044
Mof_O 	O 	0.78278	0.08131	0.1616	-0.433
Mof_O 	O 	0.78179	0.16433	0.34	-0.439
Mof_O 	O 	0.82849	0.21167	0.0577	-0.553
Mof_O 	O 	0.95704	0.1502	0.2764	-0.647
Mof_O 	O 	0.86766	0.2368	0.8356	-0.521
Mof_O 	O 	0.91289	0.2113	0.048	-0.719
Mof_O 	O 	0.86352	0.0385	0.4018	-0.561
Mof_O 	O 	0.87107	0.31763	0.0151	-0.563
Mof_O 	O 	0.92409	0.04754	0.5799	-0.472
Mof_O 	O 	0.11768	0.0517	0.0647	-0.581
Mof_O 	O 	0.05721	0.0309	0.8933	-0.57
Mof_O 	O 	0.94449	0.1687	0.728	-0.415
Mof_La	La	0.3674	0.63796	0.24817	2.574
Mof_S 	S 	0.37003	0.74479	0.98922	1.079
Mof_O 	O 	0.28278	0.58131	0.1616	-0.402
Mof_O 	O 	0.28179	0.66433	0.34	-0.435
Mof_O 	O 	0.32849	0.71167	0.0577	-0.559
Mof_O 	O 	0.45704	0.6502	0.2764	-0.965
Mof_O 	O 	0.36766	0.7368	0.8356	-0.543
Mof_O 	O 	0.41289	0.7113	0.048	-0.856
Mof_O 	O 	0.36352	0.5385	0.4018	-0.621
Mof_O 	O 	0.37107	0.81763	0.0151	-0.588
Mof_O 	O 	0.42409	0.54754	0.5799	-0.686
Mof_O 	O 	0.61768	0.5517	0.0647	-0.653
Mof_O 	O 	0.55721	0.5309	0.8933	-0.671
Mof_O 	O 	0.44449	0.6687	0.728	-0.661
Mof_La	La	0.8674	0.86204	0.75183	2.562
Mof_S 	S 	0.87003	0.75521	0.01078	0.593
Mof_O 	O 	0.78278	0.91869	0.8384	-0.348
Mof_O 	O 	0.78179	0.83567	0.66	-0.431
Mof_O 	O 	0.82849	0.78833	0.9423	-0.39
Mof_O 	O 	0.95704	0.8498	0.7236	-0.641
Mof_O 	O 	0.86766	0.7632	0.1644	-0.448
Mof_O 	O 	0.91289	0.7887	0.952	-0.571
Mof_O 	O 	0.86352	0.9615	0.5982	-0.439
Mof_O 	O 	0.87107	0.68237	0.9849	-0.374
Mof_O 	O 	0.92409	0.95246	0.4201	-0.381
Mof_O 	O 	0.11768	0.9483	0.9353	-0.42
Mof_O 	O 	0.05721	0.9691	0.1067	-0.509
Mof_O 	O 	0.94449	0.8313	0.272	-0.443
Mof_La	La	0.3674	0.36204	0.75183	2.58
Mof_S 	S 	0.37003	0.25521	0.01078	0.627
Mof_O 	O 	0.28278	0.41869	0.8384	-0.376
Mof_O 	O 	0.28179	0.33567	0.66	-0.439
Mof_O 	O 	0.32849	0.28833	0.9423	-0.401
Mof_O 	O 	0.45704	0.3498	0.7236	-0.975
Mof_O 	O 	0.36766	0.2632	0.1644	-0.473
Mof_O 	O 	0.41289	0.2887	0.952	-0.705
Mof_O 	O 	0.36352	0.4615	0.5982	-0.619
Mof_O 	O 	0.37107	0.18237	0.9849	-0.404
Mof_O 	O 	0.42409	0.45246	0.4201	-0.688
Mof_O 	O 	0.61768	0.4483	0.9353	-0.595
Mof_O 	O 	0.55721	0.4691	0.1067	-0.721
Mof_O 	O 	0.44449	0.3313	0.272	-0.671
Mof_La	La	0.1326	0.63796	0.25183	2.497
Mof_S 	S 	0.12997	0.74479	0.51078	0.823
Mof_O 	O 	0.21722	0.58131	0.3384	-0.385
Mof_O 	O 	0.21821	0.66433	0.16	-0.445
Mof_O 	O 	0.17151	0.71167	0.4423	-0.465
Mof_O 	O 	0.04296	0.6502	0.2236	-0.847
Mof_O 	O 	0.13234	0.7368	0.6644	-0.489
Mof_O 	O 	0.08711	0.7113	0.452	-0.709
Mof_O 	O 	0.13648	0.5385	0.0982	-0.584
Mof_O 	O 	0.12893	0.81763	0.4849	-0.474
Mof_O 	O 	0.07591	0.54754	0.9201	-0.551
Mof_O 	O 	0.88232	0.5517	0.4353	-0.619
Mof_O 	O 	0.94279	0.5309	0.6067	-0.552
Mof_O 	O 	0.05551	0.6687	0.772	-0.582
Mof_La	La	0.6326	0.13796	0.25183	2.47
Mof_S 	S 	0.62997	0.24479	0.51078	0.854
Mof_O 	O 	0.71722	0.08131	0.3384	-0.42
Mof_O 	O 	0.71821	0.16433	0.16	-0.454
Mof_O 	O 	0.67151	0.21167	0.4423	-0.478
Mof_O 	O 	0.54296	0.1502	0.2236	-0.972
Mof_O 	O 	0.63234	0.2368	0.6644	-0.514
Mof_O 	O 	0.58711	0.2113	0.452	-0.774
Mof_O 	O 	0.63648	0.0385	0.0982	-0.575
Mof_O 	O 	0.62893	0.31763	0.4849	-0.503
Mof_O 	O 	0.57591	0.04754	0.9201	-0.564
Mof_O 	O 	0.38232	0.0517	0.4353	-0.616
Mof_O 	O 	0.44279	0.0309	0.6067	-0.692
Mof_O 	O 	0.55551	0.1687	0.772	-0.659
Mof_La	La	0.8674	0.63796	0.25183	2.536
Mof_S 	S 	0.87003	0.74479	0.51078	0.814
Mof_O 	O 	0.78278	0.58131	0.3384	-0.39
Mof_O 	O 	0.78179	0.66433	0.16	-0.451
Mof_O 	O 	0.82849	0.71167	0.4423	-0.468
Mof_O 	O 	0.95704	0.6502	0.2236	-0.656
Mof_O 	O 	0.86766	0.7368	0.6644	-0.481
Mof_O 	O 	0.91289	0.7113	0.452	-0.643
Mof_O 	O 	0.86352	0.5385	0.0982	-0.579
Mof_O 	O 	0.87107	0.81763	0.4849	-0.463
Mof_O 	O 	0.92409	0.54754	0.9201	-0.461
Mof_O 	O 	0.11768	0.5517	0.4353	-0.637
Mof_O 	O 	0.05721	0.5309	0.6067	-0.693
Mof_O 	O 	0.94449	0.6687	0.772	-0.438
Mof_La	La	0.3674	0.13796	0.25183	2.472
Mof_S 	S 	0.37003	0.24479	0.51078	0.854
Mof_O 	O 	0.28278	0.08131	0.3384	-0.419
Mof_O 	O 	0.28179	0.16433	0.16	-0.453
Mof_O 	O 	0.32849	0.21167	0.4423	-0.477
Mof_O 	O 	0.45704	0.1502	0.2236	-0.972
Mof_O 	O 	0.36766	0.2368	0.6644	-0.513
Mof_O 	O 	0.41289	0.2113	0.452	-0.774
Mof_O 	O 	0.36352	0.0385	0.0982	-0.575
Mof_O 	O 	0.37107	0.31763	0.4849	-0.502
Mof_O 	O 	0.42409	0.04754	0.9201	-0.564
Mof_O 	O 	0.61768	0.0517	0.4353	-0.616
Mof_O 	O 	0.55721	0.0309	0.6067	-0.692
Mof_O 	O 	0.44449	0.1687	0.772	-0.658
Mof_La	La	0.1326	0.86204	0.75183	2.524
Mof_S 	S 	0.12997	0.75521	0.01078	0.604
Mof_O 	O 	0.21722	0.91869	0.8384	-0.342
Mof_O 	O 	0.21821	0.83567	0.66	-0.425
Mof_O 	O 	0.17151	0.78833	0.9423	-0.386
Mof_O 	O 	0.04296	0.8498	0.7236	-0.831
Mof_O 	O 	0.13234	0.7632	0.1644	-0.456
Mof_O 	O 	0.08711	0.7887	0.952	-0.636
Mof_O 	O 	0.13648	0.9615	0.5982	-0.444
Mof_O 	O 	0.12893	0.68237	0.9849	-0.385
Mof_O 	O 	0.07591	0.95246	0.4201	-0.471
Mof_O 	O 	0.88232	0.9483	0.9353	-0.402
Mof_O 	O 	0.94279	0.9691	0.1067	-0.37
Mof_O 	O 	0.05551	0.8313	0.272	-0.586
Mof_La	La	0.6326	0.36204	0.75183	2.579
Mof_S 	S 	0.62997	0.25521	0.01078	0.626
Mof_O 	O 	0.71722	0.41869	0.8384	-0.377
Mof_O 	O 	0.71821	0.33567	0.66	-0.44
Mof_O 	O 	0.67151	0.28833	0.9423	-0.402
Mof_O 	O 	0.54296	0.3498	0.7236	-0.975
Mof_O 	O 	0.63234	0.2632	0.1644	-0.474
Mof_O 	O 	0.58711	0.2887	0.952	-0.705
Mof_O 	O 	0.63648	0.4615	0.5982	-0.62
Mof_O 	O 	0.62893	0.18237	0.9849	-0.405
Mof_O 	O 	0.57591	0.45246	0.4201	-0.688
Mof_O 	O 	0.38232	0.4483	0.9353	-0.594
Mof_O 	O 	0.44279	0.4691	0.1067	-0.721
Mof_O 	O 	0.55551	0.3313	0.272	-0.671
Mof_La	La	0.1326	0.13796	0.24817	2.466
Mof_S 	S 	0.12997	0.24479	0.98922	1.053
Mof_O 	O 	0.21722	0.08131	0.1616	-0.428
Mof_O 	O 	0.21821	0.16433	0.34	-0.434
Mof_O 	O 	0.17151	0.21167	0.0577	-0.549
Mof_O 	O 	0.04296	0.1502	0.2764	-0.836
Mof_O 	O 	0.13234	0.2368	0.8356	-0.529
Mof_O 	O 	0.08711	0.2113	0.048	-0.784
Mof_O 	O 	0.13648	0.0385	0.4018	-0.565
Mof_O 	O 	0.12893	0.31763	0.0151	-0.573
Mof_O 	O 	0.07591	0.04754	0.5799	-0.561
Mof_O 	O 	0.88232	0.0517	0.0647	-0.564
Mof_O 	O 	0.94279	0.0309	0.8933	-0.432
Mof_O 	O 	0.05551	0.1687	0.728	-0.558
Mof_La	La	0.6326	0.63796	0.24817	2.572
Mof_S 	S 	0.62997	0.74479	0.98922	1.079
Mof_O 	O 	0.71722	0.58131	0.1616	-0.403
Mof_O 	O 	0.71821	0.66433	0.34	-0.437
Mof_O 	O 	0.67151	0.71167	0.0577	-0.56
Mof_O 	O 	0.54296	0.6502	0.2764	-0.965
Mof_O 	O 	0.63234	0.7368	0.8356	-0.543
Mof_O 	O 	0.58711	0.7113	0.048	-0.856
Mof_O 	O 	0.63648	0.5385	0.4018	-0.622
Mof_O 	O 	0.62893	0.81763	0.0151	-0.588
Mof_O 	O 	0.57591	0.54754	0.5799	-0.686
Mof_O 	O 	0.38232	0.5517	0.0647	-0.653
Mof_O 	O 	0.44279	0.5309	0.8933	-0.671
Mof_O 	O 	0.55551	0.6687	0.728	-0.661
Mof_La	La	0.8674	0.36204	0.74817	2.616
Mof_S 	S 	0.87003	0.25521	0.48922	0.819
Mof_O 	O 	0.78278	0.41869	0.6616	-0.39
Mof_O 	O 	0.78179	0.33567	0.84	-0.426
Mof_O 	O 	0.82849	0.28833	0.5577	-0.477
Mof_O 	O 	0.95704	0.3498	0.7764	-0.648
Mof_O 	O 	0.86766	0.2632	0.3356	-0.481
Mof_O 	O 	0.91289	0.2887	0.548	-0.65
Mof_O 	O 	0.86352	0.4615	0.9018	-0.527
Mof_O 	O 	0.87107	0.18237	0.5151	-0.465
Mof_O 	O 	0.92409	0.45246	0.0799	-0.512
Mof_O 	O 	0.11768	0.4483	0.5647	-0.645
Mof_O 	O 	0.05721	0.4691	0.3933	-0.686
Mof_O 	O 	0.94449	0.3313	0.228	-0.428
Mof_La	La	0.3674	0.86204	0.74817	2.604
Mof_S 	S 	0.37003	0.75521	0.48922	0.859
Mof_O 	O 	0.28278	0.91869	0.6616	-0.358
Mof_O 	O 	0.28179	0.83567	0.84	-0.417
Mof_O 	O 	0.32849	0.78833	0.5577	-0.479
Mof_O 	O 	0.45704	0.8498	0.7764	-0.949
Mof_O 	O 	0.36766	0.7632	0.3356	-0.509
Mof_O 	O 	0.41289	0.7887	0.548	-0.782
Mof_O 	O 	0.36352	0.9615	0.9018	-0.405
Mof_O 	O 	0.37107	0.68237	0.5151	-0.498
Mof_O 	O 	0.42409	0.95246	0.0799	-0.523
Mof_O 	O 	0.61768	0.9483	0.5647	-0.517
Mof_O 	O 	0.55721	0.9691	0.3933	-0.574
Mof_O 	O 	0.44449	0.8313	0.228	-0.666
Mof_La	La	1.48874e-33	0.43257	0.21345	2.332
Mof_S 	S 	8.37575e-33	0.37545	0.8488	0.927
Mof_Na	Na	2.27656e-33	0.24225	0.1185	2.349
Mof_O 	O 	1.28279e-33	0.3524	0.9952	-0.851
Mof_O 	O 	3.51834e-33	0.4482	0.8465	-0.741
Mof_O 	O 	3.03304e-33	0.3611	0.47	-0.645
Mof_La	La	0.5	0.93257	0.21345	2.938
Mof_S 	S 	0.5	0.87545	0.8488	1.286
Mof_Na	Na	0.5	0.74225	0.1185	2.991
Mof_O 	O 	0.5	0.8524	0.9952	-0.959
Mof_O 	O 	0.5	0.9482	0.8465	-0.72
Mof_O 	O 	0.5	0.8611	0.47	-0.629
Mof_La	La	3.34685e-33	0.06743	0.71345	2.152
Mof_S 	S 	1.66321e-33	0.12455	0.3488	0.934
Mof_Na	Na	3.22446e-33	0.25775	0.6185	2.491
Mof_O 	O 	1.85191e-33	0.1476	0.4952	-0.897
Mof_O 	O 	-7.6698e-34	0.0518	0.3465	-0.808
Mof_O 	O 	-1.17691e-33	0.1389	0.97	-0.59
Mof_La	La	0.5	0.56743	0.71345	2.94
Mof_S 	S 	0.5	0.62455	0.3488	1.316
Mof_Na	Na	0.5	0.75775	0.6185	3.125
Mof_O 	O 	0.5	0.6476	0.4952	-1.018
Mof_O 	O 	0.5	0.5518	0.3465	-0.822
Mof_O 	O 	0.5	0.6389	0.97	-0.586
Mof_La	La	1.00782e-32	0.93257	0.28655	2.4
Mof_S 	S 	8.39383e-34	0.87545	0.6512	0.906
Mof_Na	Na	2.91897e-33	0.74225	0.3815	2.438
Mof_O 	O 	-2.99016e-33	0.8524	0.5048	-0.901
Mof_O 	O 	8.42348e-34	0.9482	0.6535	-0.662
Mof_O 	O 	-1.09909e-33	0.8611	0.03	-0.685
Mof_La	La	0.5	0.43257	0.28655	2.927
Mof_S 	S 	0.5	0.37545	0.6512	1.319
Mof_Na	Na	0.5	0.24225	0.3815	3.074
Mof_O 	O 	0.5	0.3524	0.5048	-1.014
Mof_O 	O 	0.5	0.4482	0.6535	-0.818
Mof_O 	O 	0.5	0.3611	0.03	-0.684
Mof_La	La	1.01385e-33	0.56743	0.78655	2.408
Mof_S 	S 	8.01699e-34	0.62455	0.1512	0.935
Mof_Na	Na	8.4179e-33	0.75775	0.8815	2.567
Mof_O 	O 	1.18187e-33	0.6476	0.0048	-0.962
Mof_O 	O 	3.23189e-33	0.5518	0.1535	-0.762
Mof_O 	O 	5.5376e-33	0.6389	0.53	-0.645
Mof_La	La	0.5	0.06743	0.78655	2.752
Mof_S 	S 	0.5	0.12455	0.1512	1.323
Mof_Na	Na	0.5	0.25775	0.8815	3.22
Mof_O 	O 	0.5	0.1476	0.0048	-1.062
Mof_O 	O 	0.5	0.0518	0.1535	-0.885
Mof_O 	O 	0.5	0.1389	0.53	-0.63
Mof_S 	S 	0.10522	0.5	-0	0.942
Mof_S 	S 	0.60522	0	-0	0.656
Mof_S 	S 	0.89478	-2.42722e-33	0.5	0.735
Mof_S 	S 	0.39478	0.5	0.5	1.152
Mof_S 	S 	0.89478	0.5	-0	0.926
Mof_S 	S 	0.39478	0	-0	0.657
Mof_S 	S 	0.10522	-2.42722e-33	0.5	0.752
Mof_S 	S 	0.60522	0.5	0.5	1.152
Mof_S 	S 	0.25	0.37681	0.75	0.669
Mof_S 	S 	0.75	0.12319	0.25	0.679
Mof_S 	S 	0.75	0.87681	0.75	0.664
Mof_S 	S 	0.25	0.62319	0.25	0.675
Mof_S 	S 	0.75	0.62319	0.25	0.676
Mof_S 	S 	0.25	0.12319	0.25	0.679
Mof_S 	S 	0.25	0.87681	0.75	0.664
Mof_S 	S 	0.75	0.37681	0.75	0.669
Mof_S 	S 	0.91273	0.5	0.5	1.219
Mof_S 	S 	0.41273	-2.42722e-33	0.5	0.958
Mof_S 	S 	0.08727	0	-0	0.735
Mof_S 	S 	0.58727	0.5	-0	1.159
Mof_S 	S 	0.08727	0.5	0.5	1.251
Mof_S 	S 	0.58727	-2.42722e-33	0.5	0.957
Mof_S 	S 	0.91273	0	-0	0.696
Mof_S 	S 	0.41273	0.5	-0	1.16
_end
