# CIF file generated by openbabel 3.1.0, see https://openbabel.org
data_I
_chemical_name_common 'image0'
_cell_length_a 18.326
_cell_length_b 19.033
_cell_length_c 12.529
_cell_angle_alpha 90
_cell_angle_beta 90
_cell_angle_gamma 90
_space_group_name_H-M_alt 'P 1'
_space_group_name_Hall 'P 1'
loop_
    _symmetry_equiv_pos_as_xyz
    x,y,z
loop_
    _atom_site_label
    _atom_site_type_symbol
    _atom_site_fract_x
    _atom_site_fract_y
    _atom_site_fract_z
    _atom_site_occupancy
    Cd1      Cd       0.72880    0.74842    0.38038    1.000
    Cd2      Cd       0.82596    0.66327    0.55800    1.000
    O1       O        0.72610    0.63732    0.33030    1.000
    O2       O        0.79157    0.57585    0.44950    1.000
    O3       O        0.62750    0.73900    0.47860    1.000
    O4       O        0.70040    0.67360    0.58050    1.000
    O5       O        0.66600    0.26909    0.37090    1.000
    O6       O        0.73350    0.32543    0.49520    1.000
    O7       O        0.37390    0.78400    0.59310    1.000
    O8       O        0.32490    0.71620    0.71610    1.000
    O9       O        0.58440    0.45370    0.12490    1.000
    O10      O        0.54040    0.58000    0.86600    1.000
    C1       C        0.63960    0.70190    0.55960    1.000
    C2       C        0.57770    0.68780    0.63370    1.000
    C3       C        0.58590    0.64200    0.71930    1.000
    H1       H        0.63190    0.62060    0.73200    1.000
    C4       C        0.52860    0.62740    0.78540    1.000
    C5       C        0.46120    0.66120    0.77110    1.000
    H2       H        0.42210    0.65290    0.81910    1.000
    C6       C        0.45240    0.70760    0.68470    1.000
    C7       C        0.51090    0.72040    0.61580    1.000
    H3       H        0.50500    0.75140    0.55700    1.000
    C8       C        0.48050    0.56350    0.93300    1.000
    H4       H        0.43850    0.55320    0.89000    1.000
    H5       H        0.46900    0.60270    0.97820    1.000
    C9       C        0.37850    0.73910    0.66360    1.000
    C10      C        0.74640    0.58110    0.37410    1.000
    C11      C        0.71150    0.51470    0.33390    1.000
    C12      C        0.72220    0.45170    0.38680    1.000
    H6       H        0.75330    0.44990    0.44740    1.000
    C13      C        0.68760    0.39110    0.35090    1.000
    C14      C        0.64330    0.39380    0.26160    1.000
    H7       H        0.61990    0.35250    0.23640    1.000
    C15      C        0.63330    0.45700    0.20960    1.000
    C16      C        0.66590    0.51840    0.24410    1.000
    H8       H        0.65780    0.56170    0.20820    1.000
    C17      C        0.69660    0.32270    0.41220    1.000
    C18      C        0.56640    0.51800    0.07120    1.000
    H9       H        0.60760    0.53410    0.02620    1.000
    H10      H        0.55440    0.55540    0.12330    1.000
    Cd3      Cd       0.27120    0.25158    0.38038    1.000
    Cd4      Cd       0.17404    0.33673    0.55800    1.000
    O11      O        0.27390    0.36268    0.33030    1.000
    O12      O        0.20843    0.42415    0.44950    1.000
    O13      O        0.37250    0.26100    0.47860    1.000
    O14      O        0.29960    0.32640    0.58050    1.000
    O15      O        0.33400    0.73091    0.37090    1.000
    O16      O        0.26650    0.67457    0.49520    1.000
    O17      O        0.62610    0.21600    0.59310    1.000
    O18      O        0.67510    0.28380    0.71610    1.000
    O19      O        0.41560    0.54630    0.12490    1.000
    O20      O        0.45960    0.42000    0.86600    1.000
    C19      C        0.36040    0.29810    0.55960    1.000
    C20      C        0.42230    0.31220    0.63370    1.000
    C21      C        0.41410    0.35800    0.71930    1.000
    H11      H        0.36810    0.37940    0.73200    1.000
    C22      C        0.47140    0.37260    0.78540    1.000
    C23      C        0.53880    0.33880    0.77110    1.000
    H12      H        0.57790    0.34710    0.81910    1.000
    C24      C        0.54760    0.29240    0.68470    1.000
    C25      C        0.48910    0.27960    0.61580    1.000
    H13      H        0.49500    0.24860    0.55700    1.000
    C26      C        0.51950    0.43650    0.93300    1.000
    H14      H        0.56150    0.44680    0.89000    1.000
    H15      H        0.53100    0.39730    0.97820    1.000
    C27      C        0.62150    0.26090    0.66360    1.000
    C28      C        0.25360    0.41890    0.37410    1.000
    C29      C        0.28850    0.48530    0.33390    1.000
    C30      C        0.27780    0.54830    0.38680    1.000
    H16      H        0.24670    0.55010    0.44740    1.000
    C31      C        0.31240    0.60890    0.35090    1.000
    C32      C        0.35670    0.60620    0.26160    1.000
    H17      H        0.38010    0.64750    0.23640    1.000
    C33      C        0.36670    0.54300    0.20960    1.000
    C34      C        0.33410    0.48160    0.24410    1.000
    H18      H        0.34220    0.43830    0.20820    1.000
    C35      C        0.30340    0.67730    0.41220    1.000
    C36      C        0.43360    0.48200    0.07120    1.000
    H19      H        0.39240    0.46590    0.02620    1.000
    H20      H        0.44560    0.44460    0.12330    1.000
    Cd5      Cd       0.77120    0.24842    0.61962    1.000
    Cd6      Cd       0.67404    0.16327    0.44200    1.000
    O21      O        0.77390    0.13732    0.66970    1.000
    O22      O        0.70843    0.07585    0.55050    1.000
    O23      O        0.87250    0.23900    0.52140    1.000
    O24      O        0.79960    0.17360    0.41950    1.000
    O25      O        0.83400    0.76909    0.62910    1.000
    O26      O        0.76650    0.82543    0.50480    1.000
    O27      O        0.12610    0.28400    0.40690    1.000
    O28      O        0.17510    0.21620    0.28390    1.000
    O29      O        0.91560    0.95370    0.87510    1.000
    O30      O        0.95960    0.08000    0.13400    1.000
    C37      C        0.86040    0.20190    0.44040    1.000
    C38      C        0.92230    0.18780    0.36630    1.000
    C39      C        0.91410    0.14200    0.28070    1.000
    H21      H        0.86810    0.12060    0.26800    1.000
    C40      C        0.97140    0.12740    0.21460    1.000
    C41      C        0.03880    0.16120    0.22890    1.000
    H22      H        0.07790    0.15290    0.18090    1.000
    C42      C        0.04760    0.20760    0.31530    1.000
    C43      C        0.98910    0.22040    0.38420    1.000
    H23      H        0.99500    0.25140    0.44300    1.000
    C44      C        0.01950    0.06350    0.06700    1.000
    H24      H        0.06150    0.05320    0.11000    1.000
    H25      H        0.03100    0.10270    0.02180    1.000
    C45      C        0.12150    0.23910    0.33640    1.000
    C46      C        0.75360    0.08110    0.62590    1.000
    C47      C        0.78850    0.01470    0.66610    1.000
    C48      C        0.77780    0.95170    0.61320    1.000
    H26      H        0.74670    0.94990    0.55260    1.000
    C49      C        0.81240    0.89110    0.64910    1.000
    C50      C        0.85670    0.89380    0.73840    1.000
    H27      H        0.88010    0.85250    0.76360    1.000
    C51      C        0.86670    0.95700    0.79040    1.000
    C52      C        0.83410    0.01840    0.75590    1.000
    H28      H        0.84220    0.06170    0.79180    1.000
    C53      C        0.80340    0.82270    0.58780    1.000
    C54      C        0.93360    0.01800    0.92880    1.000
    H29      H        0.89240    0.03410    0.97380    1.000
    H30      H        0.94560    0.05540    0.87670    1.000
    Cd7      Cd       0.22880    0.75158    0.61962    1.000
    Cd8      Cd       0.32596    0.83673    0.44200    1.000
    O31      O        0.22610    0.86268    0.66970    1.000
    O32      O        0.29157    0.92415    0.55050    1.000
    O33      O        0.12750    0.76100    0.52140    1.000
    O34      O        0.20040    0.82640    0.41950    1.000
    O35      O        0.16600    0.23091    0.62910    1.000
    O36      O        0.23350    0.17457    0.50480    1.000
    O37      O        0.87390    0.71600    0.40690    1.000
    O38      O        0.82490    0.78380    0.28390    1.000
    O39      O        0.08440    0.04630    0.87510    1.000
    O40      O        0.04040    0.92000    0.13400    1.000
    C55      C        0.13960    0.79810    0.44040    1.000
    C56      C        0.07770    0.81220    0.36630    1.000
    C57      C        0.08590    0.85800    0.28070    1.000
    H31      H        0.13190    0.87940    0.26800    1.000
    C58      C        0.02860    0.87260    0.21460    1.000
    C59      C        0.96120    0.83880    0.22890    1.000
    H32      H        0.92210    0.84710    0.18090    1.000
    C60      C        0.95240    0.79240    0.31530    1.000
    C61      C        0.01090    0.77960    0.38420    1.000
    H33      H        0.00500    0.74860    0.44300    1.000
    C62      C        0.98050    0.93650    0.06700    1.000
    H34      H        0.93850    0.94680    0.11000    1.000
    H35      H        0.96900    0.89730    0.02180    1.000
    C63      C        0.87850    0.76090    0.33640    1.000
    C64      C        0.24640    0.91890    0.62590    1.000
    C65      C        0.21150    0.98530    0.66610    1.000
    C66      C        0.22220    0.04830    0.61320    1.000
    H36      H        0.25330    0.05010    0.55260    1.000
    C67      C        0.18760    0.10890    0.64910    1.000
    C68      C        0.14330    0.10620    0.73840    1.000
    H37      H        0.11990    0.14750    0.76360    1.000
    C69      C        0.13330    0.04300    0.79040    1.000
    C70      C        0.16590    0.98160    0.75590    1.000
    H38      H        0.15780    0.93830    0.79180    1.000
    C71      C        0.19660    0.17730    0.58780    1.000
    C72      C        0.06640    0.98200    0.92880    1.000
    H39      H        0.10760    0.96590    0.97380    1.000
    H40      H        0.05440    0.94460    0.87670    1.000
    C73      C        0.50000    0.50000    0.00250    1.000
    C74      C        0.00000    0.00000    0.99750    1.000
