# CIF file generated by openbabel 3.1.0, see https://openbabel.org
data_I
_chemical_name_common 'image0'
_cell_length_a 28.642
_cell_length_b 13.1862
_cell_length_c 8.5395
_cell_angle_alpha 90
_cell_angle_beta 91.66
_cell_angle_gamma 90
_space_group_name_H-M_alt 'P 1'
_space_group_name_Hall 'P 1'
loop_
    _symmetry_equiv_pos_as_xyz
    x,y,z
loop_
    _atom_site_label
    _atom_site_type_symbol
    _atom_site_fract_x
    _atom_site_fract_y
    _atom_site_fract_z
    _atom_site_occupancy
    C1       C        0.34606    0.97380    0.33930    1.000
    H1       H        0.32330    0.00990    0.39140    1.000
    C2       C        0.38013    0.02720    0.26300    1.000
    H2       H        0.38000    0.09770    0.26390    1.000
    C3       C        0.41442    0.97530    0.18520    1.000
    C4       C        0.41183    0.87080    0.18410    1.000
    H3       H        0.43390    0.83280    0.13180    1.000
    C5       C        0.37645    0.82310    0.26100    1.000
    H4       H        0.37480    0.75270    0.25690    1.000
    C6       C        0.45244    0.03040    0.10320    1.000
    C7       C        0.45207    0.14250    0.10800    1.000
    H5       H        0.47810    0.16820    0.05180    1.000
    H6       H        0.45440    0.16490    0.21490    1.000
    H7       H        0.42350    0.16710    0.06050    1.000
    C8       C        0.21016    0.76540    0.23180    1.000
    C9       C        0.18721    0.78890    0.07440    1.000
    H8       H        0.15360    0.79110    0.08530    1.000
    H9       H        0.19420    0.73490    0.00150    1.000
    C10      C        0.20374    0.89010    0.00760    1.000
    H10      H        0.23690    0.88600    0.98820    1.000
    H11      H        0.18750    0.90270    0.90830    1.000
    C11      C        0.19484    0.97830    0.11960    1.000
    H12      H        0.16140    0.98500    0.13120    1.000
    H13      H        0.20840    0.96140    0.22160    1.000
    C12      C        0.21414    0.08030    0.06960    1.000
    N1       N        0.34433    0.87310    0.34160    1.000
    N2       N        0.48203    0.97350    0.03690    1.000
    O1       O        0.18559    0.72190    0.33290    1.000
    O2       O        0.18905    0.15620    0.09020    1.000
    O3       O        0.25200    0.79160    0.25270    1.000
    O4       O        0.25419    0.08120    0.01390    1.000
    Cu1      Cu       0.28809    0.79465    0.45252    1.000
    C13      C        0.84606    0.47380    0.33930    1.000
    H14      H        0.82330    0.50990    0.39140    1.000
    C14      C        0.88013    0.52720    0.26300    1.000
    H15      H        0.88000    0.59770    0.26390    1.000
    C15      C        0.91442    0.47530    0.18520    1.000
    C16      C        0.91183    0.37080    0.18410    1.000
    H16      H        0.93390    0.33280    0.13180    1.000
    C17      C        0.87645    0.32310    0.26100    1.000
    H17      H        0.87480    0.25270    0.25690    1.000
    C18      C        0.95244    0.53040    0.10320    1.000
    C19      C        0.95207    0.64250    0.10800    1.000
    H18      H        0.97810    0.66820    0.05180    1.000
    H19      H        0.95440    0.66490    0.21490    1.000
    H20      H        0.92350    0.66710    0.06050    1.000
    C20      C        0.71016    0.26540    0.23180    1.000
    C21      C        0.68721    0.28890    0.07440    1.000
    H21      H        0.65360    0.29110    0.08530    1.000
    H22      H        0.69420    0.23490    0.00150    1.000
    C22      C        0.70374    0.39010    0.00760    1.000
    H23      H        0.73690    0.38600    0.98820    1.000
    H24      H        0.68750    0.40270    0.90830    1.000
    C23      C        0.69484    0.47830    0.11960    1.000
    H25      H        0.66140    0.48500    0.13120    1.000
    H26      H        0.70840    0.46140    0.22160    1.000
    C24      C        0.71414    0.58030    0.06960    1.000
    N3       N        0.84433    0.37310    0.34160    1.000
    N4       N        0.98203    0.47350    0.03690    1.000
    O5       O        0.68559    0.22190    0.33290    1.000
    O6       O        0.68905    0.65620    0.09020    1.000
    O7       O        0.75200    0.29160    0.25270    1.000
    O8       O        0.75419    0.58120    0.01390    1.000
    Cu2      Cu       0.78809    0.29465    0.45252    1.000
    C25      C        0.65394    0.97380    0.16070    1.000
    H27      H        0.67670    0.00990    0.10860    1.000
    C26      C        0.61987    0.02720    0.23700    1.000
    H28      H        0.62000    0.09770    0.23610    1.000
    C27      C        0.58558    0.97530    0.31480    1.000
    C28      C        0.58817    0.87080    0.31590    1.000
    H29      H        0.56610    0.83280    0.36820    1.000
    C29      C        0.62355    0.82310    0.23900    1.000
    H30      H        0.62520    0.75270    0.24310    1.000
    C30      C        0.54756    0.03040    0.39680    1.000
    C31      C        0.54793    0.14250    0.39200    1.000
    H31      H        0.52190    0.16820    0.44820    1.000
    H32      H        0.54560    0.16490    0.28510    1.000
    H33      H        0.57650    0.16710    0.43950    1.000
    C32      C        0.78984    0.76540    0.26820    1.000
    C33      C        0.81279    0.78890    0.42560    1.000
    H34      H        0.84640    0.79110    0.41470    1.000
    H35      H        0.80580    0.73490    0.49850    1.000
    C34      C        0.79626    0.89010    0.49240    1.000
    H36      H        0.76310    0.88600    0.51180    1.000
    H37      H        0.81250    0.90270    0.59170    1.000
    C35      C        0.80516    0.97830    0.38040    1.000
    H38      H        0.83860    0.98500    0.36880    1.000
    H39      H        0.79160    0.96140    0.27840    1.000
    C36      C        0.78586    0.08030    0.43040    1.000
    N5       N        0.65567    0.87310    0.15840    1.000
    N6       N        0.51797    0.97350    0.46310    1.000
    O9       O        0.81441    0.72190    0.16710    1.000
    O10      O        0.81095    0.15620    0.40980    1.000
    O11      O        0.74800    0.79160    0.24730    1.000
    O12      O        0.74581    0.08120    0.48610    1.000
    Cu3      Cu       0.71191    0.79465    0.04748    1.000
    C37      C        0.15394    0.47380    0.16070    1.000
    H40      H        0.17670    0.50990    0.10860    1.000
    C38      C        0.11987    0.52720    0.23700    1.000
    H41      H        0.12000    0.59770    0.23610    1.000
    C39      C        0.08558    0.47530    0.31480    1.000
    C40      C        0.08817    0.37080    0.31590    1.000
    H42      H        0.06610    0.33280    0.36820    1.000
    C41      C        0.12355    0.32310    0.23900    1.000
    H43      H        0.12520    0.25270    0.24310    1.000
    C42      C        0.04756    0.53040    0.39680    1.000
    C43      C        0.04793    0.64250    0.39200    1.000
    H44      H        0.02190    0.66820    0.44820    1.000
    H45      H        0.04560    0.66490    0.28510    1.000
    H46      H        0.07650    0.66710    0.43950    1.000
    C44      C        0.28984    0.26540    0.26820    1.000
    C45      C        0.31279    0.28890    0.42560    1.000
    H47      H        0.34640    0.29110    0.41470    1.000
    H48      H        0.30580    0.23490    0.49850    1.000
    C46      C        0.29626    0.39010    0.49240    1.000
    H49      H        0.26310    0.38600    0.51180    1.000
    H50      H        0.31250    0.40270    0.59170    1.000
    C47      C        0.30516    0.47830    0.38040    1.000
    H51      H        0.33860    0.48500    0.36880    1.000
    H52      H        0.29160    0.46140    0.27840    1.000
    C48      C        0.28586    0.58030    0.43040    1.000
    N7       N        0.15567    0.37310    0.15840    1.000
    N8       N        0.01797    0.47350    0.46310    1.000
    O13      O        0.31441    0.22190    0.16710    1.000
    O14      O        0.31095    0.65620    0.40980    1.000
    O15      O        0.24800    0.29160    0.24730    1.000
    O16      O        0.24581    0.58120    0.48610    1.000
    Cu4      Cu       0.21191    0.29465    0.04748    1.000
    C49      C        0.65394    0.02620    0.66070    1.000
    H53      H        0.67670    0.99010    0.60860    1.000
    C50      C        0.61987    0.97280    0.73700    1.000
    H54      H        0.62000    0.90230    0.73610    1.000
    C51      C        0.58558    0.02470    0.81480    1.000
    C52      C        0.58817    0.12920    0.81590    1.000
    H55      H        0.56610    0.16720    0.86820    1.000
    C53      C        0.62355    0.17690    0.73900    1.000
    H56      H        0.62520    0.24730    0.74310    1.000
    C54      C        0.54756    0.96960    0.89680    1.000
    C55      C        0.54793    0.85750    0.89200    1.000
    H57      H        0.52190    0.83180    0.94820    1.000
    H58      H        0.54560    0.83510    0.78510    1.000
    H59      H        0.57650    0.83290    0.93950    1.000
    C56      C        0.78984    0.23460    0.76820    1.000
    C57      C        0.81279    0.21110    0.92560    1.000
    H60      H        0.84640    0.20890    0.91470    1.000
    H61      H        0.80580    0.26510    0.99850    1.000
    C58      C        0.79626    0.10990    0.99240    1.000
    H62      H        0.76310    0.11400    0.01180    1.000
    H63      H        0.81250    0.09730    0.09170    1.000
    C59      C        0.80516    0.02170    0.88040    1.000
    H64      H        0.83860    0.01500    0.86880    1.000
    H65      H        0.79160    0.03860    0.77840    1.000
    C60      C        0.78586    0.91970    0.93040    1.000
    N9       N        0.65567    0.12690    0.65840    1.000
    N10      N        0.51797    0.02650    0.96310    1.000
    O17      O        0.81441    0.27810    0.66710    1.000
    O18      O        0.81095    0.84380    0.90980    1.000
    O19      O        0.74800    0.20840    0.74730    1.000
    O20      O        0.74581    0.91880    0.98610    1.000
    Cu5      Cu       0.71191    0.20535    0.54748    1.000
    C61      C        0.15394    0.52620    0.66070    1.000
    H66      H        0.17670    0.49010    0.60860    1.000
    C62      C        0.11987    0.47280    0.73700    1.000
    H67      H        0.12000    0.40230    0.73610    1.000
    C63      C        0.08558    0.52470    0.81480    1.000
    C64      C        0.08817    0.62920    0.81590    1.000
    H68      H        0.06610    0.66720    0.86820    1.000
    C65      C        0.12355    0.67690    0.73900    1.000
    H69      H        0.12520    0.74730    0.74310    1.000
    C66      C        0.04756    0.46960    0.89680    1.000
    C67      C        0.04793    0.35750    0.89200    1.000
    H70      H        0.02190    0.33180    0.94820    1.000
    H71      H        0.04560    0.33510    0.78510    1.000
    H72      H        0.07650    0.33290    0.93950    1.000
    C68      C        0.28984    0.73460    0.76820    1.000
    C69      C        0.31279    0.71110    0.92560    1.000
    H73      H        0.34640    0.70890    0.91470    1.000
    H74      H        0.30580    0.76510    0.99850    1.000
    C70      C        0.29626    0.60990    0.99240    1.000
    H75      H        0.26310    0.61400    0.01180    1.000
    H76      H        0.31250    0.59730    0.09170    1.000
    C71      C        0.30516    0.52170    0.88040    1.000
    H77      H        0.33860    0.51500    0.86880    1.000
    H78      H        0.29160    0.53860    0.77840    1.000
    C72      C        0.28586    0.41970    0.93040    1.000
    N11      N        0.15567    0.62690    0.65840    1.000
    N12      N        0.01797    0.52650    0.96310    1.000
    O21      O        0.31441    0.77810    0.66710    1.000
    O22      O        0.31095    0.34380    0.90980    1.000
    O23      O        0.24800    0.70840    0.74730    1.000
    O24      O        0.24581    0.41880    0.98610    1.000
    Cu6      Cu       0.21191    0.70535    0.54748    1.000
    C73      C        0.34606    0.02620    0.83930    1.000
    H79      H        0.32330    0.99010    0.89140    1.000
    C74      C        0.38013    0.97280    0.76300    1.000
    H80      H        0.38000    0.90230    0.76390    1.000
    C75      C        0.41442    0.02470    0.68520    1.000
    C76      C        0.41183    0.12920    0.68410    1.000
    H81      H        0.43390    0.16720    0.63180    1.000
    C77      C        0.37645    0.17690    0.76100    1.000
    H82      H        0.37480    0.24730    0.75690    1.000
    C78      C        0.45244    0.96960    0.60320    1.000
    C79      C        0.45207    0.85750    0.60800    1.000
    H83      H        0.47810    0.83180    0.55180    1.000
    H84      H        0.45440    0.83510    0.71490    1.000
    H85      H        0.42350    0.83290    0.56050    1.000
    C80      C        0.21016    0.23460    0.73180    1.000
    C81      C        0.18721    0.21110    0.57440    1.000
    H86      H        0.15360    0.20890    0.58530    1.000
    H87      H        0.19420    0.26510    0.50150    1.000
    C82      C        0.20374    0.10990    0.50760    1.000
    H88      H        0.23690    0.11400    0.48820    1.000
    H89      H        0.18750    0.09730    0.40830    1.000
    C83      C        0.19484    0.02170    0.61960    1.000
    H90      H        0.16140    0.01500    0.63120    1.000
    H91      H        0.20840    0.03860    0.72160    1.000
    C84      C        0.21414    0.91970    0.56960    1.000
    N13      N        0.34433    0.12690    0.84160    1.000
    N14      N        0.48203    0.02650    0.53690    1.000
    O25      O        0.18559    0.27810    0.83290    1.000
    O26      O        0.18905    0.84380    0.59020    1.000
    O27      O        0.25200    0.20840    0.75270    1.000
    O28      O        0.25419    0.91880    0.51390    1.000
    Cu7      Cu       0.28809    0.20535    0.95252    1.000
    C85      C        0.84606    0.52620    0.83930    1.000
    H92      H        0.82330    0.49010    0.89140    1.000
    C86      C        0.88013    0.47280    0.76300    1.000
    H93      H        0.88000    0.40230    0.76390    1.000
    C87      C        0.91442    0.52470    0.68520    1.000
    C88      C        0.91183    0.62920    0.68410    1.000
    H94      H        0.93390    0.66720    0.63180    1.000
    C89      C        0.87645    0.67690    0.76100    1.000
    H95      H        0.87480    0.74730    0.75690    1.000
    C90      C        0.95244    0.46960    0.60320    1.000
    C91      C        0.95207    0.35750    0.60800    1.000
    H96      H        0.97810    0.33180    0.55180    1.000
    H97      H        0.95440    0.33510    0.71490    1.000
    H98      H        0.92350    0.33290    0.56050    1.000
    C92      C        0.71016    0.73460    0.73180    1.000
    C93      C        0.68721    0.71110    0.57440    1.000
    H99      H        0.65360    0.70890    0.58530    1.000
    H100     H        0.69420    0.76510    0.50150    1.000
    C94      C        0.70374    0.60990    0.50760    1.000
    H101     H        0.73690    0.61400    0.48820    1.000
    H102     H        0.68750    0.59730    0.40830    1.000
    C95      C        0.69484    0.52170    0.61960    1.000
    H103     H        0.66140    0.51500    0.63120    1.000
    H104     H        0.70840    0.53860    0.72160    1.000
    C96      C        0.71414    0.41970    0.56960    1.000
    N15      N        0.84433    0.62690    0.84160    1.000
    N16      N        0.98203    0.52650    0.53690    1.000
    O29      O        0.68559    0.77810    0.83290    1.000
    O30      O        0.68905    0.34380    0.59020    1.000
    O31      O        0.75200    0.70840    0.75270    1.000
    O32      O        0.75419    0.41880    0.51390    1.000
    Cu8      Cu       0.78809    0.70535    0.95252    1.000
