data_functionalizedCrystal
_audit_creation_method	'EQeq! by Chris Wilmer'
_symmetry_space_group_name_H-M	'P1'
_symmetry_Int_Tables_number	1
_symmetry_cell_setting	triclinic
loop_
_symmetry_equiv_pos_as_xyz
  x,y,z
_cell_length_a	21.4169
_cell_length_b	21.4169
_cell_length_c	32.5729
_cell_angle_alpha	109.193
_cell_angle_beta	109.193
_cell_angle_gamma	90.0001
loop_
_atom_site_label
_atom_site_type_symbol
_atom_site_fract_x
_atom_site_fract_y
_atom_site_fract_z
_atom_site_charge
Mof_Cu	Cu	0.84169	0.42698	0.78242	0.903
Mof_Cu	Cu	0.94073	0.35544	0.78242	0.903
Mof_Cu	Cu	0.67698	0.69073	0.28242	0.903
Mof_Cu	Cu	0.60544	0.59169	0.28242	0.903
Mof_Cu	Cu	0.30927	0.32302	0.71758	0.904
Mof_Cu	Cu	0.40831	0.39456	0.71758	0.904
Mof_Cu	Cu	0.64456	0.05927	0.21758	0.904
Mof_Cu	Cu	0.57302	0.15831	0.21758	0.904
Mof_H 	H 	0.0801	0.6541	0.9566	0.096
Mof_H 	H 	0.3421	0.6967	0.9618	0.063
Mof_H 	H 	0.3659	0.6205	0.902	0.041
Mof_H 	H 	0.1786	0.5252	0.8568	0.053
Mof_H 	H 	0.0955	0.5101	0.8736	0.038
Mof_H 	H 	0.0021	0.5927	0.8896	0.112
Mof_H 	H 	0.2511	0.4771	0.8168	0.026
Mof_H 	H 	0.3677	0.5481	0.8342	0.133
Mof_H 	H 	0.0663	0.7704	0.9908	-0.129
Mof_H 	H 	0.0742	0.7303	0.0252	-0.127
Mof_H 	H 	0.1434	0.8508	0.0728	0.317
Mof_H 	H 	0.0831	0.82	0.0808	0.302
Mof_H 	H 	0.0694	0.859	0.0456	0.3
Mof_H 	H 	0.8765	0.3025	0.9566	0.097
Mof_H 	H 	0.6197	0.2651	0.9618	0.063
Mof_H 	H 	0.5361	0.2815	0.902	0.041
Mof_H 	H 	0.6782	0.3316	0.8568	0.053
Mof_H 	H 	0.7781	0.3635	0.8736	0.039
Mof_H 	H 	0.8875	0.2969	0.8896	0.112
Mof_H 	H 	0.5657	0.3397	0.8168	0.026
Mof_H 	H 	0.4665	0.2861	0.8342	0.133
Mof_H 	H 	0.9245	0.2204	0.9908	-0.129
Mof_H 	H 	0.951	0.2949	0.0252	-0.127
Mof_H 	H 	0.9294	0.222	0.0728	0.319
Mof_H 	H 	0.9977	0.2608	0.0808	0.304
Mof_H 	H 	0.9762	0.1866	0.0456	0.302
Mof_H 	H 	0.9041	0.6265	0.4566	0.097
Mof_H 	H 	0.9467	0.3697	0.4618	0.063
Mof_H 	H 	0.8705	0.2861	0.402	0.042
Mof_H 	H 	0.7752	0.4282	0.3568	0.053
Mof_H 	H 	0.7601	0.5281	0.3736	0.039
Mof_H 	H 	0.8427	0.6375	0.3896	0.112
Mof_H 	H 	0.7271	0.3157	0.3168	0.026
Mof_H 	H 	0.7981	0.2165	0.3342	0.133
Mof_H 	H 	0.0204	0.6745	0.4908	-0.128
Mof_H 	H 	0.9803	0.701	0.5252	-0.124
Mof_H 	H 	0.1008	0.6794	0.5728	0.316
Mof_H 	H 	0.07	0.7477	0.5808	0.301
Mof_H 	H 	0.109	0.7262	0.5456	0.299
Mof_H 	H 	0.5525	0.8301	0.4566	0.096
Mof_H 	H 	0.5151	0.0921	0.4618	0.061
Mof_H 	H 	0.5315	0.1159	0.402	0.043
Mof_H 	H 	0.5816	0.9286	0.3568	0.054
Mof_H 	H 	0.6135	0.8455	0.3736	0.039
Mof_H 	H 	0.5469	0.7521	0.3896	0.112
Mof_H 	H 	0.5897	0.0011	0.3168	0.028
Mof_H 	H 	0.5361	0.1177	0.3342	0.132
Mof_H 	H 	0.4704	0.8163	0.4908	-0.129
Mof_H 	H 	0.5449	0.8242	0.5252	-0.127
Mof_H 	H 	0.472	0.8934	0.5728	0.318
Mof_H 	H 	0.5108	0.8331	0.5808	0.303
Mof_H 	H 	0.4366	0.8194	0.5456	0.301
Mof_H 	H 	0.3735	0.0959	0.5434	0.097
Mof_H 	H 	0.6303	0.0533	0.5382	0.063
Mof_H 	H 	0.7139	0.1295	0.598	0.042
Mof_H 	H 	0.5718	0.2248	0.6432	0.053
Mof_H 	H 	0.4719	0.2399	0.6264	0.039
Mof_H 	H 	0.3625	0.1573	0.6104	0.112
Mof_H 	H 	0.6843	0.2729	0.6832	0.026
Mof_H 	H 	0.7835	0.2019	0.6658	0.133
Mof_H 	H 	0.3255	0.9796	0.5092	-0.128
Mof_H 	H 	0.299	0.0197	0.4748	-0.124
Mof_H 	H 	0.3206	0.8992	0.4272	0.316
Mof_H 	H 	0.2523	0.93	0.4192	0.301
Mof_H 	H 	0.2738	0.891	0.4544	0.299
Mof_H 	H 	0.1699	0.4475	0.5434	0.096
Mof_H 	H 	0.9079	0.4849	0.5382	0.061
Mof_H 	H 	0.8841	0.4685	0.598	0.043
Mof_H 	H 	0.0714	0.4184	0.6432	0.054
Mof_H 	H 	0.1545	0.3865	0.6264	0.039
Mof_H 	H 	0.2479	0.4531	0.6104	0.112
Mof_H 	H 	0.9989	0.4103	0.6832	0.028
Mof_H 	H 	0.8823	0.4639	0.6658	0.132
Mof_H 	H 	0.1837	0.5296	0.5092	-0.129
Mof_H 	H 	0.1758	0.4551	0.4748	-0.127
Mof_H 	H 	0.1066	0.528	0.4272	0.318
Mof_H 	H 	0.1669	0.4892	0.4192	0.303
Mof_H 	H 	0.1806	0.5634	0.4544	0.301
Mof_H 	H 	0.6975	0.1235	0.0434	0.097
Mof_H 	H 	0.7349	0.3803	0.0382	0.063
Mof_H 	H 	0.7185	0.4639	0.098	0.041
Mof_H 	H 	0.6684	0.3218	0.1432	0.053
Mof_H 	H 	0.6365	0.2219	0.1264	0.039
Mof_H 	H 	0.7031	0.1125	0.1104	0.112
Mof_H 	H 	0.6603	0.4343	0.1832	0.026
Mof_H 	H 	0.7139	0.5335	0.1658	0.133
Mof_H 	H 	0.7796	0.0755	0.0092	-0.129
Mof_H 	H 	0.7051	0.049	0.9748	-0.127
Mof_H 	H 	0.778	0.0706	0.9272	0.319
Mof_H 	H 	0.7392	0.0023	0.9192	0.304
Mof_H 	H 	0.8134	0.0238	0.9544	0.302
Mof_H 	H 	0.3459	0.9199	0.0434	0.096
Mof_H 	H 	0.3033	0.6579	0.0382	0.063
Mof_H 	H 	0.3795	0.6341	0.098	0.041
Mof_H 	H 	0.4748	0.8214	0.1432	0.053
Mof_H 	H 	0.4899	0.9045	0.1264	0.038
Mof_H 	H 	0.4073	0.9979	0.1104	0.112
Mof_H 	H 	0.5229	0.7489	0.1832	0.026
Mof_H 	H 	0.4519	0.6323	0.1658	0.133
Mof_H 	H 	0.2296	0.9337	0.0092	-0.129
Mof_H 	H 	0.2697	0.9258	0.9748	-0.127
Mof_H 	H 	0.1492	0.8566	0.9272	0.317
Mof_H 	H 	0.18	0.9169	0.9192	0.302
Mof_H 	H 	0.141	0.9306	0.9544	0.3
Mof_C 	C 	0.2336	0.71121	0.98048	-0.051
Mof_C 	C 	0.17133	0.70817	0.9848	0.198
Mof_C 	C 	0.12222	0.65615	0.95364	-0.18
Mof_C 	C 	0.13538	0.60718	0.91816	0.039
Mof_C 	C 	0.19765	0.61022	0.91384	-0.018
Mof_C 	C 	0.24676	0.66224	0.945	0.043
Mof_C 	C 	0.30836	0.66276	0.93972	-0.071
Mof_C 	C 	0.3237	0.6174	0.9046	-0.034
Mof_C 	C 	0.27257	0.56557	0.87254	-0.005
Mof_C 	C 	0.21127	0.56107	0.87754	-0.06
Mof_C 	C 	0.08188	0.55128	0.88716	0.022
Mof_C 	C 	0.01896	0.55336	0.87692	-0.209
Mof_C 	C 	0.97138	0.48968	0.84316	0.396
Mof_C 	C 	0.2845	0.5137	0.8334	0.068
Mof_C 	C 	0.33416	0.51166	0.81892	-0.265
Mof_C 	C 	0.34185	0.45775	0.7811	0.411
Mof_C 	C 	0.09406	0.76766	0.02072	0.521
Mof_C 	C 	0.0977	0.8295	0.058	-0.954
Mof_C 	C 	0.74688	0.26927	0.98048	-0.052
Mof_C 	C 	0.81347	0.27663	0.9848	0.199
Mof_C 	C 	0.83142	0.29749	0.95364	-0.18
Mof_C 	C 	0.78278	0.31098	0.91816	0.04
Mof_C 	C 	0.71619	0.30362	0.91384	-0.019
Mof_C 	C 	0.69824	0.28276	0.945	0.043
Mof_C 	C 	0.63136	0.27696	0.93972	-0.071
Mof_C 	C 	0.5809	0.2872	0.9046	-0.034
Mof_C 	C 	0.59997	0.30697	0.87254	-0.005
Mof_C 	C 	0.66627	0.31647	0.87754	-0.06
Mof_C 	C 	0.80528	0.33588	0.88716	0.02
Mof_C 	C 	0.85796	0.32356	0.87692	-0.206
Mof_C 	C 	0.87178	0.35348	0.84316	0.394
Mof_C 	C 	0.5489	0.3197	0.8334	0.068
Mof_C 	C 	0.48476	0.30726	0.81892	-0.265
Mof_C 	C 	0.43925	0.32335	0.7811	0.411
Mof_C 	C 	0.92666	0.25306	0.02072	0.523
Mof_C 	C 	0.9603	0.2285	0.058	-0.957
Mof_C 	C 	0.96121	0.49688	0.48048	-0.051
Mof_C 	C 	0.95817	0.56347	0.4848	0.2
Mof_C 	C 	0.90615	0.58142	0.45364	-0.181
Mof_C 	C 	0.85718	0.53278	0.41816	0.04
Mof_C 	C 	0.86022	0.46619	0.41384	-0.019
Mof_C 	C 	0.91224	0.44824	0.445	0.043
Mof_C 	C 	0.91276	0.38136	0.43972	-0.071
Mof_C 	C 	0.8674	0.3309	0.4046	-0.034
Mof_C 	C 	0.81557	0.34997	0.37254	-0.005
Mof_C 	C 	0.81107	0.41627	0.37754	-0.06
Mof_C 	C 	0.80128	0.55528	0.38716	0.02
Mof_C 	C 	0.80336	0.60796	0.37692	-0.206
Mof_C 	C 	0.73968	0.62178	0.34316	0.394
Mof_C 	C 	0.7637	0.2989	0.3334	0.068
Mof_C 	C 	0.76166	0.23476	0.31892	-0.265
Mof_C 	C 	0.70775	0.18925	0.2811	0.411
Mof_C 	C 	0.01766	0.67666	0.52072	0.516
Mof_C 	C 	0.0795	0.7103	0.558	-0.949
Mof_C 	C 	0.51927	0.9836	0.48048	-0.051
Mof_C 	C 	0.52663	0.92133	0.4848	0.198
Mof_C 	C 	0.54749	0.87222	0.45364	-0.179
Mof_C 	C 	0.56098	0.88538	0.41816	0.038
Mof_C 	C 	0.55362	0.94765	0.41384	-0.016
Mof_C 	C 	0.53276	0.99676	0.445	0.039
Mof_C 	C 	0.52696	0.05836	0.43972	-0.066
Mof_C 	C 	0.5372	0.0737	0.4046	-0.038
Mof_C 	C 	0.55697	0.02257	0.37254	-0.001
Mof_C 	C 	0.56647	0.96127	0.37754	-0.064
Mof_C 	C 	0.58588	0.83188	0.38716	0.021
Mof_C 	C 	0.57356	0.76896	0.37692	-0.207
Mof_C 	C 	0.60348	0.72138	0.34316	0.395
Mof_C 	C 	0.5697	0.0345	0.3334	0.065
Mof_C 	C 	0.55726	0.08416	0.31892	-0.263
Mof_C 	C 	0.57335	0.09185	0.2811	0.41
Mof_C 	C 	0.50306	0.84406	0.52072	0.522
Mof_C 	C 	0.4785	0.8477	0.558	-0.955
Mof_C 	C 	0.50312	0.03879	0.51952	-0.051
Mof_C 	C 	0.43653	0.04183	0.5152	0.2
Mof_C 	C 	0.41858	0.09385	0.54636	-0.181
Mof_C 	C 	0.46722	0.14282	0.58184	0.04
Mof_C 	C 	0.53381	0.13978	0.58616	-0.019
Mof_C 	C 	0.55176	0.08776	0.555	0.043
Mof_C 	C 	0.61864	0.08724	0.56028	-0.071
Mof_C 	C 	0.6691	0.1326	0.5954	-0.034
Mof_C 	C 	0.65003	0.18443	0.62746	-0.005
Mof_C 	C 	0.58373	0.18893	0.62246	-0.06
Mof_C 	C 	0.44472	0.19872	0.61284	0.02
Mof_C 	C 	0.39204	0.19664	0.62308	-0.206
Mof_C 	C 	0.37822	0.26032	0.65684	0.394
Mof_C 	C 	0.7011	0.2363	0.6666	0.068
Mof_C 	C 	0.76524	0.23834	0.68108	-0.265
Mof_C 	C 	0.81075	0.29225	0.7189	0.411
Mof_C 	C 	0.32334	0.98234	0.47928	0.516
Mof_C 	C 	0.2897	0.9205	0.442	-0.949
Mof_C 	C 	0.0164	0.48073	0.51952	-0.051
Mof_C 	C 	0.07867	0.47337	0.5152	0.198
Mof_C 	C 	0.12778	0.45251	0.54636	-0.179
Mof_C 	C 	0.11462	0.43902	0.58184	0.038
Mof_C 	C 	0.05235	0.44638	0.58616	-0.016
Mof_C 	C 	0.00324	0.46724	0.555	0.039
Mof_C 	C 	0.94164	0.47304	0.56028	-0.066
Mof_C 	C 	0.9263	0.4628	0.5954	-0.038
Mof_C 	C 	0.97743	0.44303	0.62746	-0.001
Mof_C 	C 	0.03873	0.43353	0.62246	-0.064
Mof_C 	C 	0.16812	0.41412	0.61284	0.021
Mof_C 	C 	0.23104	0.42644	0.62308	-0.207
Mof_C 	C 	0.27862	0.39652	0.65684	0.395
Mof_C 	C 	0.9655	0.4303	0.6666	0.065
Mof_C 	C 	0.91584	0.44274	0.68108	-0.263
Mof_C 	C 	0.90815	0.42665	0.7189	0.41
Mof_C 	C 	0.15594	0.49694	0.47928	0.522
Mof_C 	C 	0.1523	0.5215	0.442	-0.955
Mof_C 	C 	0.73073	0.25312	0.01952	-0.052
Mof_C 	C 	0.72337	0.18653	0.0152	0.199
Mof_C 	C 	0.70251	0.16858	0.04636	-0.18
Mof_C 	C 	0.68902	0.21722	0.08184	0.04
Mof_C 	C 	0.69638	0.28381	0.08616	-0.019
Mof_C 	C 	0.71724	0.30176	0.055	0.043
Mof_C 	C 	0.72304	0.36864	0.06028	-0.071
Mof_C 	C 	0.7128	0.4191	0.0954	-0.034
Mof_C 	C 	0.69303	0.40003	0.12746	-0.005
Mof_C 	C 	0.68353	0.33373	0.12246	-0.06
Mof_C 	C 	0.66412	0.19472	0.11284	0.02
Mof_C 	C 	0.67644	0.14204	0.12308	-0.206
Mof_C 	C 	0.64652	0.12822	0.15684	0.394
Mof_C 	C 	0.6803	0.4511	0.1666	0.068
Mof_C 	C 	0.69274	0.51524	0.18108	-0.265
Mof_C 	C 	0.67665	0.56075	0.2189	0.411
Mof_C 	C 	0.74694	0.07334	0.97928	0.523
Mof_C 	C 	0.7715	0.0397	0.942	-0.957
Mof_C 	C 	0.28879	0.7664	0.01952	-0.051
Mof_C 	C 	0.29183	0.82867	0.0152	0.198
Mof_C 	C 	0.34385	0.87778	0.04636	-0.18
Mof_C 	C 	0.39282	0.86462	0.08184	0.039
Mof_C 	C 	0.38978	0.80235	0.08616	-0.018
Mof_C 	C 	0.33776	0.75324	0.055	0.043
Mof_C 	C 	0.33724	0.69164	0.06028	-0.071
Mof_C 	C 	0.3826	0.6763	0.0954	-0.034
Mof_C 	C 	0.43443	0.72743	0.12746	-0.005
Mof_C 	C 	0.43893	0.78873	0.12246	-0.06
Mof_C 	C 	0.44872	0.91812	0.11284	0.022
Mof_C 	C 	0.44664	0.98104	0.12308	-0.209
Mof_C 	C 	0.51032	0.02862	0.15684	0.396
Mof_C 	C 	0.4863	0.7155	0.1666	0.068
Mof_C 	C 	0.48834	0.66584	0.18108	-0.265
Mof_C 	C 	0.54225	0.65815	0.2189	0.411
Mof_C 	C 	0.23234	0.90594	0.97928	0.521
Mof_C 	C 	0.1705	0.9023	0.942	-0.954
Mof_O 	O 	0.91092	0.50003	0.8273	-0.412
Mof_O 	O 	0.99281	0.43541	0.83248	-0.426
Mof_O 	O 	0.39147	0.4629	0.76872	-0.42
Mof_O 	O 	0.29885	0.40602	0.76284	-0.412
Mof_O 	O 	0.16169	0.7578	0.02136	-0.313
Mof_O 	O 	0.91638	0.32727	0.8273	-0.412
Mof_O 	O 	0.83967	0.39707	0.83248	-0.426
Mof_O 	O 	0.37725	0.30582	0.76872	-0.42
Mof_O 	O 	0.46399	0.35682	0.76284	-0.412
Mof_O 	O 	0.85967	0.26356	0.02136	-0.313
Mof_O 	O 	0.75003	0.66638	0.3273	-0.412
Mof_O 	O 	0.68541	0.58967	0.33248	-0.426
Mof_O 	O 	0.7129	0.12725	0.26872	-0.42
Mof_O 	O 	0.65602	0.21399	0.26284	-0.412
Mof_O 	O 	0.0078	0.60967	0.52136	-0.313
Mof_O 	O 	0.57727	0.66092	0.3273	-0.412
Mof_O 	O 	0.64707	0.74281	0.33248	-0.426
Mof_O 	O 	0.55582	0.14147	0.26872	-0.42
Mof_O 	O 	0.60682	0.04885	0.26284	-0.411
Mof_O 	O 	0.51356	0.91169	0.52136	-0.313
Mof_O 	O 	0.33362	0.24997	0.6727	-0.412
Mof_O 	O 	0.41033	0.31459	0.66752	-0.426
Mof_O 	O 	0.87275	0.2871	0.73128	-0.42
Mof_O 	O 	0.78601	0.34398	0.73716	-0.412
Mof_O 	O 	0.39033	0.9922	0.47864	-0.313
Mof_O 	O 	0.33908	0.42273	0.6727	-0.412
Mof_O 	O 	0.25719	0.35293	0.66752	-0.426
Mof_O 	O 	0.85853	0.44418	0.73128	-0.42
Mof_O 	O 	0.95115	0.39318	0.73716	-0.411
Mof_O 	O 	0.08831	0.48644	0.47864	-0.313
Mof_O 	O 	0.67273	0.08362	0.1727	-0.412
Mof_O 	O 	0.60293	0.16033	0.16752	-0.426
Mof_O 	O 	0.69418	0.62275	0.23128	-0.42
Mof_O 	O 	0.64318	0.53601	0.23716	-0.412
Mof_O 	O 	0.73644	0.14033	0.97864	-0.313
Mof_O 	O 	0.49997	0.08908	0.1727	-0.412
Mof_O 	O 	0.56459	0.00719	0.16752	-0.426
Mof_O 	O 	0.5371	0.60853	0.23128	-0.42
Mof_O 	O 	0.59398	0.70115	0.23716	-0.412
Mof_O 	O 	0.2422	0.83831	0.97864	-0.313
_end
