# CIF file generated by openbabel 3.1.0, see https://openbabel.org
data_I
_chemical_name_common 'image0'
_cell_length_a 14.0845
_cell_length_b 14.0845
_cell_length_c 44.2036
_cell_angle_alpha 90
_cell_angle_beta 90
_cell_angle_gamma 90
_space_group_name_H-M_alt 'P 1'
_space_group_name_Hall 'P 1'
loop_
    _symmetry_equiv_pos_as_xyz
    x,y,z
loop_
    _atom_site_label
    _atom_site_type_symbol
    _atom_site_fract_x
    _atom_site_fract_y
    _atom_site_fract_z
    _atom_site_occupancy
    N1       N        0.61789    0.40450    0.24249    1.000
    N2       N        0.69881    0.37295    0.22902    1.000
    N3       N        0.57102    0.32172    0.20410    1.000
    N4       N        0.63184    0.61952    0.34950    1.000
    N5       N        0.71271    0.64707    0.36414    1.000
    N6       N        0.58262    0.69003    0.39003    1.000
    C1       C        0.66684    0.32415    0.20596    1.000
    H1       H        0.70640    0.29390    0.19210    1.000
    C2       C        0.54273    0.37301    0.22747    1.000
    H2       H        0.47980    0.38510    0.23260    1.000
    C3       C        0.62215    0.46067    0.26965    1.000
    C4       C        0.62450    0.55967    0.26704    1.000
    C5       C        0.62099    0.60843    0.23881    1.000
    H3       H        0.61780    0.57400    0.22090    1.000
    C6       C        0.62230    0.70483    0.23790    1.000
    H4       H        0.61980    0.73580    0.21930    1.000
    C7       C        0.62730    0.75895    0.26501    1.000
    H5       H        0.62800    0.82490    0.26400    1.000
    C8       C        0.63100    0.71560    0.29235    1.000
    H6       H        0.63450    0.75190    0.30990    1.000
    C9       C        0.62961    0.61448    0.29437    1.000
    C10      C        0.63318    0.56576    0.32178    1.000
    C11      C        0.63318    0.46694    0.32431    1.000
    C12      C        0.63944    0.41883    0.35256    1.000
    H7       H        0.64620    0.45370    0.37030    1.000
    C13      C        0.63560    0.32250    0.35385    1.000
    H8       H        0.64040    0.29200    0.37240    1.000
    C14      C        0.62430    0.26821    0.32715    1.000
    H9       H        0.61940    0.20250    0.32850    1.000
    C15      C        0.62053    0.31100    0.29966    1.000
    H10      H        0.61450    0.27420    0.28230    1.000
    C16      C        0.62579    0.41206    0.29717    1.000
    C17      C        0.67945    0.68918    0.38835    1.000
    H11      H        0.71830    0.71610    0.40310    1.000
    C18      C        0.55556    0.64521    0.36512    1.000
    H12      H        0.49300    0.63360    0.35950    1.000
    N7       N        0.11789    0.90450    0.74249    1.000
    N8       N        0.19881    0.87295    0.72902    1.000
    N9       N        0.07102    0.82172    0.70410    1.000
    N10      N        0.13184    0.11952    0.84950    1.000
    N11      N        0.21271    0.14707    0.86414    1.000
    N12      N        0.08262    0.19003    0.89003    1.000
    C19      C        0.16684    0.82415    0.70596    1.000
    H13      H        0.20640    0.79390    0.69210    1.000
    C20      C        0.04273    0.87301    0.72747    1.000
    H14      H        0.97980    0.88510    0.73260    1.000
    C21      C        0.12215    0.96067    0.76965    1.000
    C22      C        0.12450    0.05967    0.76704    1.000
    C23      C        0.12099    0.10843    0.73881    1.000
    H15      H        0.11780    0.07400    0.72090    1.000
    C24      C        0.12230    0.20483    0.73790    1.000
    H16      H        0.11980    0.23580    0.71930    1.000
    C25      C        0.12730    0.25895    0.76501    1.000
    H17      H        0.12800    0.32490    0.76400    1.000
    C26      C        0.13100    0.21560    0.79235    1.000
    H18      H        0.13450    0.25190    0.80990    1.000
    C27      C        0.12961    0.11448    0.79437    1.000
    C28      C        0.13318    0.06576    0.82178    1.000
    C29      C        0.13318    0.96694    0.82431    1.000
    C30      C        0.13944    0.91883    0.85256    1.000
    H19      H        0.14620    0.95370    0.87030    1.000
    C31      C        0.13560    0.82250    0.85385    1.000
    H20      H        0.14040    0.79200    0.87240    1.000
    C32      C        0.12430    0.76821    0.82715    1.000
    H21      H        0.11940    0.70250    0.82850    1.000
    C33      C        0.12053    0.81100    0.79966    1.000
    H22      H        0.11450    0.77420    0.78230    1.000
    C34      C        0.12579    0.91206    0.79717    1.000
    C35      C        0.17945    0.18918    0.88835    1.000
    H23      H        0.21830    0.21610    0.90310    1.000
    C36      C        0.05556    0.14521    0.86512    1.000
    H24      H        0.99300    0.13360    0.85950    1.000
    N13      N        0.88211    0.59550    0.74249    1.000
    N14      N        0.80119    0.62705    0.72902    1.000
    N15      N        0.92898    0.67828    0.70410    1.000
    N16      N        0.86816    0.38048    0.84950    1.000
    N17      N        0.78729    0.35293    0.86414    1.000
    N18      N        0.91738    0.30997    0.89003    1.000
    C37      C        0.83316    0.67585    0.70596    1.000
    H25      H        0.79360    0.70610    0.69210    1.000
    C38      C        0.95727    0.62699    0.72747    1.000
    H26      H        0.02020    0.61490    0.73260    1.000
    C39      C        0.87785    0.53933    0.76965    1.000
    C40      C        0.87550    0.44033    0.76704    1.000
    C41      C        0.87901    0.39157    0.73881    1.000
    H27      H        0.88220    0.42600    0.72090    1.000
    C42      C        0.87770    0.29517    0.73790    1.000
    H28      H        0.88020    0.26420    0.71930    1.000
    C43      C        0.87270    0.24105    0.76501    1.000
    H29      H        0.87200    0.17510    0.76400    1.000
    C44      C        0.86900    0.28440    0.79235    1.000
    H30      H        0.86550    0.24810    0.80990    1.000
    C45      C        0.87039    0.38552    0.79437    1.000
    C46      C        0.86682    0.43424    0.82178    1.000
    C47      C        0.86682    0.53306    0.82431    1.000
    C48      C        0.86056    0.58117    0.85256    1.000
    H31      H        0.85380    0.54630    0.87030    1.000
    C49      C        0.86440    0.67750    0.85385    1.000
    H32      H        0.85960    0.70800    0.87240    1.000
    C50      C        0.87570    0.73179    0.82715    1.000
    H33      H        0.88060    0.79750    0.82850    1.000
    C51      C        0.87947    0.68900    0.79966    1.000
    H34      H        0.88550    0.72580    0.78230    1.000
    C52      C        0.87421    0.58794    0.79717    1.000
    C53      C        0.82055    0.31082    0.88835    1.000
    H35      H        0.78170    0.28390    0.90310    1.000
    C54      C        0.94444    0.35479    0.86512    1.000
    H36      H        0.00700    0.36640    0.85950    1.000
    N19      N        0.38211    0.09550    0.24249    1.000
    N20      N        0.30119    0.12705    0.22902    1.000
    N21      N        0.42898    0.17828    0.20410    1.000
    N22      N        0.36816    0.88048    0.34950    1.000
    N23      N        0.28729    0.85293    0.36414    1.000
    N24      N        0.41738    0.80997    0.39003    1.000
    C55      C        0.33316    0.17585    0.20596    1.000
    H37      H        0.29360    0.20610    0.19210    1.000
    C56      C        0.45727    0.12699    0.22747    1.000
    H38      H        0.52020    0.11490    0.23260    1.000
    C57      C        0.37785    0.03933    0.26965    1.000
    C58      C        0.37550    0.94033    0.26704    1.000
    C59      C        0.37901    0.89157    0.23881    1.000
    H39      H        0.38220    0.92600    0.22090    1.000
    C60      C        0.37770    0.79517    0.23790    1.000
    H40      H        0.38020    0.76420    0.21930    1.000
    C61      C        0.37270    0.74105    0.26501    1.000
    H41      H        0.37200    0.67510    0.26400    1.000
    C62      C        0.36900    0.78440    0.29235    1.000
    H42      H        0.36550    0.74810    0.30990    1.000
    C63      C        0.37039    0.88552    0.29437    1.000
    C64      C        0.36682    0.93424    0.32178    1.000
    C65      C        0.36682    0.03306    0.32431    1.000
    C66      C        0.36056    0.08117    0.35256    1.000
    H43      H        0.35380    0.04630    0.37030    1.000
    C67      C        0.36440    0.17750    0.35385    1.000
    H44      H        0.35960    0.20800    0.37240    1.000
    C68      C        0.37570    0.23179    0.32715    1.000
    H45      H        0.38060    0.29750    0.32850    1.000
    C69      C        0.37947    0.18900    0.29966    1.000
    H46      H        0.38550    0.22580    0.28230    1.000
    C70      C        0.37421    0.08794    0.29717    1.000
    C71      C        0.32055    0.81082    0.38835    1.000
    H47      H        0.28170    0.78390    0.40310    1.000
    C72      C        0.44444    0.85479    0.36512    1.000
    H48      H        0.50700    0.86640    0.35950    1.000
    N25      N        0.34550    0.86789    0.49249    1.000
    N26      N        0.37705    0.94881    0.47902    1.000
    N27      N        0.42828    0.82102    0.45410    1.000
    N28      N        0.13048    0.88184    0.59950    1.000
    N29      N        0.10293    0.96271    0.61414    1.000
    N30      N        0.05997    0.83262    0.64003    1.000
    C73      C        0.42585    0.91684    0.45596    1.000
    H49      H        0.45610    0.95640    0.44210    1.000
    C74      C        0.37699    0.79273    0.47747    1.000
    H50      H        0.36490    0.72980    0.48260    1.000
    C75      C        0.28933    0.87215    0.51965    1.000
    C76      C        0.19033    0.87450    0.51704    1.000
    C77      C        0.14157    0.87099    0.48881    1.000
    H51      H        0.17600    0.86780    0.47090    1.000
    C78      C        0.04517    0.87230    0.48790    1.000
    H52      H        0.01420    0.86980    0.46930    1.000
    C79      C        0.99105    0.87730    0.51501    1.000
    H53      H        0.92510    0.87800    0.51400    1.000
    C80      C        0.03440    0.88100    0.54235    1.000
    H54      H        0.99810    0.88450    0.55990    1.000
    C81      C        0.13552    0.87961    0.54437    1.000
    C82      C        0.18424    0.88318    0.57178    1.000
    C83      C        0.28306    0.88318    0.57431    1.000
    C84      C        0.33117    0.88944    0.60256    1.000
    H55      H        0.29630    0.89620    0.62030    1.000
    C85      C        0.42750    0.88560    0.60385    1.000
    H56      H        0.45800    0.89040    0.62240    1.000
    C86      C        0.48179    0.87430    0.57715    1.000
    H57      H        0.54750    0.86940    0.57850    1.000
    C87      C        0.43900    0.87053    0.54966    1.000
    H58      H        0.47580    0.86450    0.53230    1.000
    C88      C        0.33794    0.87579    0.54717    1.000
    C89      C        0.06082    0.92945    0.63835    1.000
    H59      H        0.03390    0.96830    0.65310    1.000
    C90      C        0.10479    0.80556    0.61512    1.000
    H60      H        0.11640    0.74300    0.60950    1.000
    N31      N        0.84550    0.36789    0.99249    1.000
    N32      N        0.87705    0.44881    0.97902    1.000
    N33      N        0.92828    0.32102    0.95410    1.000
    N34      N        0.63048    0.38184    0.09950    1.000
    N35      N        0.60293    0.46271    0.11414    1.000
    N36      N        0.55997    0.33262    0.14003    1.000
    C91      C        0.92585    0.41684    0.95596    1.000
    H61      H        0.95610    0.45640    0.94210    1.000
    C92      C        0.87699    0.29273    0.97747    1.000
    H62      H        0.86490    0.22980    0.98260    1.000
    C93      C        0.78933    0.37215    0.01965    1.000
    C94      C        0.69033    0.37450    0.01704    1.000
    C95      C        0.64157    0.37099    0.98881    1.000
    H63      H        0.67600    0.36780    0.97090    1.000
    C96      C        0.54517    0.37230    0.98790    1.000
    H64      H        0.51420    0.36980    0.96930    1.000
    C97      C        0.49105    0.37730    0.01501    1.000
    H65      H        0.42510    0.37800    0.01400    1.000
    C98      C        0.53440    0.38100    0.04235    1.000
    H66      H        0.49810    0.38450    0.05990    1.000
    C99      C        0.63552    0.37961    0.04437    1.000
    C100     C        0.68424    0.38318    0.07178    1.000
    C101     C        0.78306    0.38318    0.07431    1.000
    C102     C        0.83117    0.38944    0.10256    1.000
    H67      H        0.79630    0.39620    0.12030    1.000
    C103     C        0.92750    0.38560    0.10385    1.000
    H68      H        0.95800    0.39040    0.12240    1.000
    C104     C        0.98179    0.37430    0.07715    1.000
    H69      H        0.04750    0.36940    0.07850    1.000
    C105     C        0.93900    0.37053    0.04966    1.000
    H70      H        0.97580    0.36450    0.03230    1.000
    C106     C        0.83794    0.37579    0.04717    1.000
    C107     C        0.56082    0.42945    0.13835    1.000
    H71      H        0.53390    0.46830    0.15310    1.000
    C108     C        0.60479    0.30556    0.11512    1.000
    H72      H        0.61640    0.24300    0.10950    1.000
    N37      N        0.15450    0.13211    0.99249    1.000
    N38      N        0.12295    0.05119    0.97902    1.000
    N39      N        0.07172    0.17898    0.95410    1.000
    N40      N        0.36952    0.11816    0.09950    1.000
    N41      N        0.39707    0.03729    0.11414    1.000
    N42      N        0.44003    0.16738    0.14003    1.000
    C109     C        0.07415    0.08316    0.95596    1.000
    H73      H        0.04390    0.04360    0.94210    1.000
    C110     C        0.12301    0.20727    0.97747    1.000
    H74      H        0.13510    0.27020    0.98260    1.000
    C111     C        0.21067    0.12785    0.01965    1.000
    C112     C        0.30967    0.12550    0.01704    1.000
    C113     C        0.35843    0.12901    0.98881    1.000
    H75      H        0.32400    0.13220    0.97090    1.000
    C114     C        0.45483    0.12770    0.98790    1.000
    H76      H        0.48580    0.13020    0.96930    1.000
    C115     C        0.50895    0.12270    0.01501    1.000
    H77      H        0.57490    0.12200    0.01400    1.000
    C116     C        0.46560    0.11900    0.04235    1.000
    H78      H        0.50190    0.11550    0.05990    1.000
    C117     C        0.36448    0.12039    0.04437    1.000
    C118     C        0.31576    0.11682    0.07178    1.000
    C119     C        0.21694    0.11682    0.07431    1.000
    C120     C        0.16883    0.11056    0.10256    1.000
    H79      H        0.20370    0.10380    0.12030    1.000
    C121     C        0.07250    0.11440    0.10385    1.000
    H80      H        0.04200    0.10960    0.12240    1.000
    C122     C        0.01821    0.12570    0.07715    1.000
    H81      H        0.95250    0.13060    0.07850    1.000
    C123     C        0.06100    0.12947    0.04966    1.000
    H82      H        0.02420    0.13550    0.03230    1.000
    C124     C        0.16206    0.12421    0.04717    1.000
    C125     C        0.43918    0.07055    0.13835    1.000
    H83      H        0.46610    0.03170    0.15310    1.000
    C126     C        0.39521    0.19444    0.11512    1.000
    H84      H        0.38360    0.25700    0.10950    1.000
    N43      N        0.65450    0.63211    0.49249    1.000
    N44      N        0.62295    0.55119    0.47902    1.000
    N45      N        0.57172    0.67898    0.45410    1.000
    N46      N        0.86952    0.61816    0.59950    1.000
    N47      N        0.89707    0.53729    0.61414    1.000
    N48      N        0.94003    0.66738    0.64003    1.000
    C127     C        0.57415    0.58316    0.45596    1.000
    H85      H        0.54390    0.54360    0.44210    1.000
    C128     C        0.62301    0.70727    0.47747    1.000
    H86      H        0.63510    0.77020    0.48260    1.000
    C129     C        0.71067    0.62785    0.51965    1.000
    C130     C        0.80967    0.62550    0.51704    1.000
    C131     C        0.85843    0.62901    0.48881    1.000
    H87      H        0.82400    0.63220    0.47090    1.000
    C132     C        0.95483    0.62770    0.48790    1.000
    H88      H        0.98580    0.63020    0.46930    1.000
    C133     C        0.00895    0.62270    0.51501    1.000
    H89      H        0.07490    0.62200    0.51400    1.000
    C134     C        0.96560    0.61900    0.54235    1.000
    H90      H        0.00190    0.61550    0.55990    1.000
    C135     C        0.86448    0.62039    0.54437    1.000
    C136     C        0.81576    0.61682    0.57178    1.000
    C137     C        0.71694    0.61682    0.57431    1.000
    C138     C        0.66883    0.61056    0.60256    1.000
    H91      H        0.70370    0.60380    0.62030    1.000
    C139     C        0.57250    0.61440    0.60385    1.000
    H92      H        0.54200    0.60960    0.62240    1.000
    C140     C        0.51821    0.62570    0.57715    1.000
    H93      H        0.45250    0.63060    0.57850    1.000
    C141     C        0.56100    0.62947    0.54966    1.000
    H94      H        0.52420    0.63550    0.53230    1.000
    C142     C        0.66206    0.62421    0.54717    1.000
    C143     C        0.93918    0.57055    0.63835    1.000
    H95      H        0.96610    0.53170    0.65310    1.000
    C144     C        0.89521    0.69444    0.61512    1.000
    H96      H        0.88360    0.75700    0.60950    1.000
    Cu1      Cu       0.50000    0.25000    0.17191    1.000
    Cu2      Cu       0.00000    0.75000    0.67191    1.000
    Cu3      Cu       0.50000    0.75000    0.42191    1.000
    Cu4      Cu       0.00000    0.25000    0.92191    1.000
    N49      N        0.38211    0.59550    0.75751    1.000
    N50      N        0.30119    0.62705    0.77098    1.000
    N51      N        0.42898    0.67828    0.79590    1.000
    N52      N        0.36816    0.38048    0.65050    1.000
    N53      N        0.28729    0.35293    0.63586    1.000
    N54      N        0.41738    0.30997    0.60997    1.000
    C145     C        0.33316    0.67585    0.79404    1.000
    H97      H        0.29360    0.70610    0.80790    1.000
    C146     C        0.45727    0.62699    0.77253    1.000
    H98      H        0.52020    0.61490    0.76740    1.000
    C147     C        0.37785    0.53933    0.73035    1.000
    C148     C        0.37550    0.44033    0.73296    1.000
    C149     C        0.37901    0.39157    0.76119    1.000
    H99      H        0.38220    0.42600    0.77910    1.000
    C150     C        0.37770    0.29517    0.76210    1.000
    H100     H        0.38020    0.26420    0.78070    1.000
    C151     C        0.37270    0.24105    0.73499    1.000
    H101     H        0.37200    0.17510    0.73600    1.000
    C152     C        0.36900    0.28440    0.70765    1.000
    H102     H        0.36550    0.24810    0.69010    1.000
    C153     C        0.37039    0.38552    0.70563    1.000
    C154     C        0.36682    0.43424    0.67822    1.000
    C155     C        0.36682    0.53306    0.67569    1.000
    C156     C        0.36056    0.58117    0.64744    1.000
    H103     H        0.35380    0.54630    0.62970    1.000
    C157     C        0.36440    0.67750    0.64615    1.000
    H104     H        0.35960    0.70800    0.62760    1.000
    C158     C        0.37570    0.73179    0.67285    1.000
    H105     H        0.38060    0.79750    0.67150    1.000
    C159     C        0.37947    0.68900    0.70034    1.000
    H106     H        0.38550    0.72580    0.71770    1.000
    C160     C        0.37421    0.58794    0.70283    1.000
    C161     C        0.32055    0.31082    0.61165    1.000
    H107     H        0.28170    0.28390    0.59690    1.000
    C162     C        0.44444    0.35479    0.63488    1.000
    H108     H        0.50700    0.36640    0.64050    1.000
    N55      N        0.88211    0.09550    0.25751    1.000
    N56      N        0.80119    0.12705    0.27098    1.000
    N57      N        0.92898    0.17828    0.29590    1.000
    N58      N        0.86816    0.88048    0.15050    1.000
    N59      N        0.78729    0.85293    0.13586    1.000
    N60      N        0.91738    0.80997    0.10997    1.000
    C163     C        0.83316    0.17585    0.29404    1.000
    H109     H        0.79360    0.20610    0.30790    1.000
    C164     C        0.95727    0.12699    0.27253    1.000
    H110     H        0.02020    0.11490    0.26740    1.000
    C165     C        0.87785    0.03933    0.23035    1.000
    C166     C        0.87550    0.94033    0.23296    1.000
    C167     C        0.87901    0.89157    0.26119    1.000
    H111     H        0.88220    0.92600    0.27910    1.000
    C168     C        0.87770    0.79517    0.26210    1.000
    H112     H        0.88020    0.76420    0.28070    1.000
    C169     C        0.87270    0.74105    0.23499    1.000
    H113     H        0.87200    0.67510    0.23600    1.000
    C170     C        0.86900    0.78440    0.20765    1.000
    H114     H        0.86550    0.74810    0.19010    1.000
    C171     C        0.87039    0.88552    0.20563    1.000
    C172     C        0.86682    0.93424    0.17822    1.000
    C173     C        0.86682    0.03306    0.17569    1.000
    C174     C        0.86056    0.08117    0.14744    1.000
    H115     H        0.85380    0.04630    0.12970    1.000
    C175     C        0.86440    0.17750    0.14615    1.000
    H116     H        0.85960    0.20800    0.12760    1.000
    C176     C        0.87570    0.23179    0.17285    1.000
    H117     H        0.88060    0.29750    0.17150    1.000
    C177     C        0.87947    0.18900    0.20034    1.000
    H118     H        0.88550    0.22580    0.21770    1.000
    C178     C        0.87421    0.08794    0.20283    1.000
    C179     C        0.82055    0.81082    0.11165    1.000
    H119     H        0.78170    0.78390    0.09690    1.000
    C180     C        0.94444    0.85479    0.13488    1.000
    H120     H        0.00700    0.86640    0.14050    1.000
    N61      N        0.11789    0.40450    0.25751    1.000
    N62      N        0.19881    0.37295    0.27098    1.000
    N63      N        0.07102    0.32172    0.29590    1.000
    N64      N        0.13184    0.61952    0.15050    1.000
    N65      N        0.21271    0.64707    0.13586    1.000
    N66      N        0.08262    0.69003    0.10997    1.000
    C181     C        0.16684    0.32415    0.29404    1.000
    H121     H        0.20640    0.29390    0.30790    1.000
    C182     C        0.04273    0.37301    0.27253    1.000
    H122     H        0.97980    0.38510    0.26740    1.000
    C183     C        0.12215    0.46067    0.23035    1.000
    C184     C        0.12450    0.55967    0.23296    1.000
    C185     C        0.12099    0.60843    0.26119    1.000
    H123     H        0.11780    0.57400    0.27910    1.000
    C186     C        0.12230    0.70483    0.26210    1.000
    H124     H        0.11980    0.73580    0.28070    1.000
    C187     C        0.12730    0.75895    0.23499    1.000
    H125     H        0.12800    0.82490    0.23600    1.000
    C188     C        0.13100    0.71560    0.20765    1.000
    H126     H        0.13450    0.75190    0.19010    1.000
    C189     C        0.12961    0.61448    0.20563    1.000
    C190     C        0.13318    0.56576    0.17822    1.000
    C191     C        0.13318    0.46694    0.17569    1.000
    C192     C        0.13944    0.41883    0.14744    1.000
    H127     H        0.14620    0.45370    0.12970    1.000
    C193     C        0.13560    0.32250    0.14615    1.000
    H128     H        0.14040    0.29200    0.12760    1.000
    C194     C        0.12430    0.26821    0.17285    1.000
    H129     H        0.11940    0.20250    0.17150    1.000
    C195     C        0.12053    0.31100    0.20034    1.000
    H130     H        0.11450    0.27420    0.21770    1.000
    C196     C        0.12579    0.41206    0.20283    1.000
    C197     C        0.17945    0.68918    0.11165    1.000
    H131     H        0.21830    0.71610    0.09690    1.000
    C198     C        0.05556    0.64521    0.13488    1.000
    H132     H        0.99300    0.63360    0.14050    1.000
    N67      N        0.61789    0.90450    0.75751    1.000
    N68      N        0.69881    0.87295    0.77098    1.000
    N69      N        0.57102    0.82172    0.79590    1.000
    N70      N        0.63184    0.11952    0.65050    1.000
    N71      N        0.71271    0.14707    0.63586    1.000
    N72      N        0.58262    0.19003    0.60997    1.000
    C199     C        0.66684    0.82415    0.79404    1.000
    H133     H        0.70640    0.79390    0.80790    1.000
    C200     C        0.54273    0.87301    0.77253    1.000
    H134     H        0.47980    0.88510    0.76740    1.000
    C201     C        0.62215    0.96067    0.73035    1.000
    C202     C        0.62450    0.05967    0.73296    1.000
    C203     C        0.62099    0.10843    0.76119    1.000
    H135     H        0.61780    0.07400    0.77910    1.000
    C204     C        0.62230    0.20483    0.76210    1.000
    H136     H        0.61980    0.23580    0.78070    1.000
    C205     C        0.62730    0.25895    0.73499    1.000
    H137     H        0.62800    0.32490    0.73600    1.000
    C206     C        0.63100    0.21560    0.70765    1.000
    H138     H        0.63450    0.25190    0.69010    1.000
    C207     C        0.62961    0.11448    0.70563    1.000
    C208     C        0.63318    0.06576    0.67822    1.000
    C209     C        0.63318    0.96694    0.67569    1.000
    C210     C        0.63944    0.91883    0.64744    1.000
    H139     H        0.64620    0.95370    0.62970    1.000
    C211     C        0.63560    0.82250    0.64615    1.000
    H140     H        0.64040    0.79200    0.62760    1.000
    C212     C        0.62430    0.76821    0.67285    1.000
    H141     H        0.61940    0.70250    0.67150    1.000
    C213     C        0.62053    0.81100    0.70034    1.000
    H142     H        0.61450    0.77420    0.71770    1.000
    C214     C        0.62579    0.91206    0.70283    1.000
    C215     C        0.67945    0.18918    0.61165    1.000
    H143     H        0.71830    0.21610    0.59690    1.000
    C216     C        0.55556    0.14521    0.63488    1.000
    H144     H        0.49300    0.13360    0.64050    1.000
    N73      N        0.65450    0.13211    0.50751    1.000
    N74      N        0.62295    0.05119    0.52098    1.000
    N75      N        0.57172    0.17898    0.54590    1.000
    N76      N        0.86952    0.11816    0.40050    1.000
    N77      N        0.89707    0.03729    0.38586    1.000
    N78      N        0.94003    0.16738    0.35997    1.000
    C217     C        0.57415    0.08316    0.54404    1.000
    H145     H        0.54390    0.04360    0.55790    1.000
    C218     C        0.62301    0.20727    0.52253    1.000
    H146     H        0.63510    0.27020    0.51740    1.000
    C219     C        0.71067    0.12785    0.48035    1.000
    C220     C        0.80967    0.12550    0.48296    1.000
    C221     C        0.85843    0.12901    0.51119    1.000
    H147     H        0.82400    0.13220    0.52910    1.000
    C222     C        0.95483    0.12770    0.51210    1.000
    H148     H        0.98580    0.13020    0.53070    1.000
    C223     C        0.00895    0.12270    0.48499    1.000
    H149     H        0.07490    0.12200    0.48600    1.000
    C224     C        0.96560    0.11900    0.45765    1.000
    H150     H        0.00190    0.11550    0.44010    1.000
    C225     C        0.86448    0.12039    0.45563    1.000
    C226     C        0.81576    0.11682    0.42822    1.000
    C227     C        0.71694    0.11682    0.42569    1.000
    C228     C        0.66883    0.11056    0.39744    1.000
    H151     H        0.70370    0.10380    0.37970    1.000
    C229     C        0.57250    0.11440    0.39615    1.000
    H152     H        0.54200    0.10960    0.37760    1.000
    C230     C        0.51821    0.12570    0.42285    1.000
    H153     H        0.45250    0.13060    0.42150    1.000
    C231     C        0.56100    0.12947    0.45034    1.000
    H154     H        0.52420    0.13550    0.46770    1.000
    C232     C        0.66206    0.12421    0.45283    1.000
    C233     C        0.93918    0.07055    0.36165    1.000
    H155     H        0.96610    0.03170    0.34690    1.000
    C234     C        0.89521    0.19444    0.38488    1.000
    H156     H        0.88360    0.25700    0.39050    1.000
    N79      N        0.15450    0.63211    0.00751    1.000
    N80      N        0.12295    0.55119    0.02098    1.000
    N81      N        0.07172    0.67898    0.04590    1.000
    N82      N        0.36952    0.61816    0.90050    1.000
    N83      N        0.39707    0.53729    0.88586    1.000
    N84      N        0.44003    0.66738    0.85997    1.000
    C235     C        0.07415    0.58316    0.04404    1.000
    H157     H        0.04390    0.54360    0.05790    1.000
    C236     C        0.12301    0.70727    0.02253    1.000
    H158     H        0.13510    0.77020    0.01740    1.000
    C237     C        0.21067    0.62785    0.98035    1.000
    C238     C        0.30967    0.62550    0.98296    1.000
    C239     C        0.35843    0.62901    0.01119    1.000
    H159     H        0.32400    0.63220    0.02910    1.000
    C240     C        0.45483    0.62770    0.01210    1.000
    H160     H        0.48580    0.63020    0.03070    1.000
    C241     C        0.50895    0.62270    0.98499    1.000
    H161     H        0.57490    0.62200    0.98600    1.000
    C242     C        0.46560    0.61900    0.95765    1.000
    H162     H        0.50190    0.61550    0.94010    1.000
    C243     C        0.36448    0.62039    0.95563    1.000
    C244     C        0.31576    0.61682    0.92822    1.000
    C245     C        0.21694    0.61682    0.92569    1.000
    C246     C        0.16883    0.61056    0.89744    1.000
    H163     H        0.20370    0.60380    0.87970    1.000
    C247     C        0.07250    0.61440    0.89615    1.000
    H164     H        0.04200    0.60960    0.87760    1.000
    C248     C        0.01821    0.62570    0.92285    1.000
    H165     H        0.95250    0.63060    0.92150    1.000
    C249     C        0.06100    0.62947    0.95034    1.000
    H166     H        0.02420    0.63550    0.96770    1.000
    C250     C        0.16206    0.62421    0.95283    1.000
    C251     C        0.43918    0.57055    0.86165    1.000
    H167     H        0.46610    0.53170    0.84690    1.000
    C252     C        0.39521    0.69444    0.88488    1.000
    H168     H        0.38360    0.75700    0.89050    1.000
    N85      N        0.84550    0.86789    0.00751    1.000
    N86      N        0.87705    0.94881    0.02098    1.000
    N87      N        0.92828    0.82102    0.04590    1.000
    N88      N        0.63048    0.88184    0.90050    1.000
    N89      N        0.60293    0.96271    0.88586    1.000
    N90      N        0.55997    0.83262    0.85997    1.000
    C253     C        0.92585    0.91684    0.04404    1.000
    H169     H        0.95610    0.95640    0.05790    1.000
    C254     C        0.87699    0.79273    0.02253    1.000
    H170     H        0.86490    0.72980    0.01740    1.000
    C255     C        0.78933    0.87215    0.98035    1.000
    C256     C        0.69033    0.87450    0.98296    1.000
    C257     C        0.64157    0.87099    0.01119    1.000
    H171     H        0.67600    0.86780    0.02910    1.000
    C258     C        0.54517    0.87230    0.01210    1.000
    H172     H        0.51420    0.86980    0.03070    1.000
    C259     C        0.49105    0.87730    0.98499    1.000
    H173     H        0.42510    0.87800    0.98600    1.000
    C260     C        0.53440    0.88100    0.95765    1.000
    H174     H        0.49810    0.88450    0.94010    1.000
    C261     C        0.63552    0.87961    0.95563    1.000
    C262     C        0.68424    0.88318    0.92822    1.000
    C263     C        0.78306    0.88318    0.92569    1.000
    C264     C        0.83117    0.88944    0.89744    1.000
    H175     H        0.79630    0.89620    0.87970    1.000
    C265     C        0.92750    0.88560    0.89615    1.000
    H176     H        0.95800    0.89040    0.87760    1.000
    C266     C        0.98179    0.87430    0.92285    1.000
    H177     H        0.04750    0.86940    0.92150    1.000
    C267     C        0.93900    0.87053    0.95034    1.000
    H178     H        0.97580    0.86450    0.96770    1.000
    C268     C        0.83794    0.87579    0.95283    1.000
    C269     C        0.56082    0.92945    0.86165    1.000
    H179     H        0.53390    0.96830    0.84690    1.000
    C270     C        0.60479    0.80556    0.88488    1.000
    H180     H        0.61640    0.74300    0.89050    1.000
    N91      N        0.34550    0.36789    0.50751    1.000
    N92      N        0.37705    0.44881    0.52098    1.000
    N93      N        0.42828    0.32102    0.54590    1.000
    N94      N        0.13048    0.38184    0.40050    1.000
    N95      N        0.10293    0.46271    0.38586    1.000
    N96      N        0.05997    0.33262    0.35997    1.000
    C271     C        0.42585    0.41684    0.54404    1.000
    H181     H        0.45610    0.45640    0.55790    1.000
    C272     C        0.37699    0.29273    0.52253    1.000
    H182     H        0.36490    0.22980    0.51740    1.000
    C273     C        0.28933    0.37215    0.48035    1.000
    C274     C        0.19033    0.37450    0.48296    1.000
    C275     C        0.14157    0.37099    0.51119    1.000
    H183     H        0.17600    0.36780    0.52910    1.000
    C276     C        0.04517    0.37230    0.51210    1.000
    H184     H        0.01420    0.36980    0.53070    1.000
    C277     C        0.99105    0.37730    0.48499    1.000
    H185     H        0.92510    0.37800    0.48600    1.000
    C278     C        0.03440    0.38100    0.45765    1.000
    H186     H        0.99810    0.38450    0.44010    1.000
    C279     C        0.13552    0.37961    0.45563    1.000
    C280     C        0.18424    0.38318    0.42822    1.000
    C281     C        0.28306    0.38318    0.42569    1.000
    C282     C        0.33117    0.38944    0.39744    1.000
    H187     H        0.29630    0.39620    0.37970    1.000
    C283     C        0.42750    0.38560    0.39615    1.000
    H188     H        0.45800    0.39040    0.37760    1.000
    C284     C        0.48179    0.37430    0.42285    1.000
    H189     H        0.54750    0.36940    0.42150    1.000
    C285     C        0.43900    0.37053    0.45034    1.000
    H190     H        0.47580    0.36450    0.46770    1.000
    C286     C        0.33794    0.37579    0.45283    1.000
    C287     C        0.06082    0.42945    0.36165    1.000
    H191     H        0.03390    0.46830    0.34690    1.000
    C288     C        0.10479    0.30556    0.38488    1.000
    H192     H        0.11640    0.24300    0.39050    1.000
    Cu5      Cu       0.50000    0.75000    0.82809    1.000
    Cu6      Cu       0.00000    0.25000    0.32809    1.000
    Cu7      Cu       0.50000    0.25000    0.57809    1.000
    Cu8      Cu       0.00000    0.75000    0.07809    1.000
