# CIF file generated by openbabel 3.1.0, see https://openbabel.org
data_I
_chemical_name_common 'image0'
_cell_length_a 12.3829
_cell_length_b 8.597
_cell_length_c 12.6633
_cell_angle_alpha 90
_cell_angle_beta 109.984
_cell_angle_gamma 90
_space_group_name_H-M_alt 'P 1'
_space_group_name_Hall 'P 1'
loop_
    _symmetry_equiv_pos_as_xyz
    x,y,z
loop_
    _atom_site_label
    _atom_site_type_symbol
    _atom_site_fract_x
    _atom_site_fract_y
    _atom_site_fract_z
    _atom_site_occupancy
    Cu1      Cu       0.14800    0.20491    0.25965    1.000
    Cu2      Cu       0.40627    0.29567    0.66208    1.000
    C1       C        0.28240    0.23230    0.39960    1.000
    N1       N        0.33530    0.25230    0.49290    1.000
    C2       C        0.07190    0.00200    0.23550    1.000
    C3       C        0.52270    0.11430    0.71660    1.000
    C4       C        0.49990    0.49140    0.68840    1.000
    C5       C        0.05290    0.39640    0.21410    1.000
    C6       C        0.28530    0.29160    0.72980    1.000
    Cu3      Cu       0.35200    0.20491    0.24035    1.000
    Cu4      Cu       0.09373    0.29567    0.83792    1.000
    C7       C        0.21760    0.23230    0.10040    1.000
    N2       N        0.16470    0.25230    0.00710    1.000
    C8       C        0.42810    0.00200    0.26450    1.000
    C9       C        0.97730    0.11430    0.78340    1.000
    C10      C        0.00010    0.49140    0.81160    1.000
    C11      C        0.44710    0.39640    0.28590    1.000
    C12      C        0.21470    0.29160    0.77020    1.000
    Cu5      Cu       0.85200    0.79509    0.74035    1.000
    Cu6      Cu       0.59373    0.70433    0.33792    1.000
    C13      C        0.71760    0.76770    0.60040    1.000
    N3       N        0.66470    0.74770    0.50710    1.000
    C14      C        0.92810    0.99800    0.76450    1.000
    C15      C        0.47730    0.88570    0.28340    1.000
    C16      C        0.50010    0.50860    0.31160    1.000
    C17      C        0.94710    0.60360    0.78590    1.000
    C18      C        0.71470    0.70840    0.27020    1.000
    Cu7      Cu       0.64800    0.79509    0.75965    1.000
    Cu8      Cu       0.90627    0.70433    0.16208    1.000
    C19      C        0.78240    0.76770    0.89960    1.000
    N4       N        0.83530    0.74770    0.99290    1.000
    C20      C        0.57190    0.99800    0.73550    1.000
    C21      C        0.02270    0.88570    0.21660    1.000
    C22      C        0.99990    0.50860    0.18840    1.000
    C23      C        0.55290    0.60360    0.71410    1.000
    C24      C        0.78530    0.70840    0.22980    1.000
