# CIF file generated by openbabel 3.1.0, see https://openbabel.org
data_I
_chemical_name_common 'FAFMAC_clean'
_cell_length_a 6.3902
_cell_length_b 10.5428
_cell_length_c 31.1619
_cell_angle_alpha 90
_cell_angle_beta 90
_cell_angle_gamma 93.77
_space_group_name_H-M_alt 'P 1'
_space_group_name_Hall 'P 1'
loop_
    _symmetry_equiv_pos_as_xyz
    x,y,z
loop_
    _atom_site_label
    _atom_site_type_symbol
    _atom_site_fract_x
    _atom_site_fract_y
    _atom_site_fract_z
    _atom_site_occupancy
    Ag1      Ag       0.86412    0.58536    0.75167    1.000
    Ag2      Ag       0.36412    0.08536    0.74833    1.000
    H1       H        0.20300    0.24170    0.83560    1.000
    H2       H        0.45410    0.24850    0.83780    1.000
    H3       H        0.15110    0.56960    0.83490    1.000
    H4       H        0.02190    0.43430    0.83390    1.000
    H5       H        0.65030    0.45460    0.83880    1.000
    H6       H        0.52700    0.58200    0.83740    1.000
    H7       H        0.02760    0.30180    0.77090    1.000
    H8       H        0.15980    0.34840    0.72950    1.000
    H9       H        0.35970    0.55370    0.73040    1.000
    H10      H        0.35460    0.64250    0.77210    1.000
    H11      H        0.54400    0.36000    0.73250    1.000
    H12      H        0.65890    0.32000    0.77560    1.000
    H13      H        0.70300    0.74170    0.66440    1.000
    H14      H        0.95410    0.74850    0.66220    1.000
    H15      H        0.65110    0.06960    0.66510    1.000
    H16      H        0.52190    0.93430    0.66610    1.000
    H17      H        0.15030    0.95460    0.66120    1.000
    H18      H        0.02700    0.08200    0.66260    1.000
    H19      H        0.52760    0.80180    0.72910    1.000
    H20      H        0.65980    0.84840    0.77050    1.000
    H21      H        0.85970    0.05370    0.76960    1.000
    H22      H        0.85460    0.14250    0.72790    1.000
    H23      H        0.04400    0.86000    0.76750    1.000
    H24      H        0.15890    0.82000    0.72440    1.000
    C1       C        0.33230    0.28990    0.82583    1.000
    C2       C        0.15210    0.48150    0.82397    1.000
    C3       C        0.52630    0.49350    0.82675    1.000
    C4       C        0.15740    0.34990    0.76123    1.000
    C5       C        0.35350    0.55320    0.76219    1.000
    C6       C        0.53540    0.36090    0.76418    1.000
    C7       C        0.83230    0.78990    0.67417    1.000
    C8       C        0.65210    0.98150    0.67603    1.000
    C9       C        0.02630    0.99350    0.67325    1.000
    C10      C        0.65740    0.84990    0.73877    1.000
    C11      C        0.85350    0.05320    0.73781    1.000
    C12      C        0.03540    0.86090    0.73582    1.000
    N1       N        0.54080    0.49440    0.77936    1.000
    N2       N        0.33360    0.42160    0.84158    1.000
    N3       N        0.34220    0.28740    0.77795    1.000
    N4       N        0.15520    0.48370    0.77625    1.000
    N5       N        0.04080    0.99440    0.72064    1.000
    N6       N        0.83360    0.92160    0.65842    1.000
    N7       N        0.84220    0.78740    0.72205    1.000
    N8       N        0.65520    0.98370    0.72375    1.000
    Ag3      Ag       0.63588    0.91464    0.25167    1.000
    Ag4      Ag       0.13588    0.41464    0.24833    1.000
    H25      H        0.29700    0.25830    0.33560    1.000
    H26      H        0.04590    0.25150    0.33780    1.000
    H27      H        0.34890    0.93040    0.33490    1.000
    H28      H        0.47810    0.06570    0.33390    1.000
    H29      H        0.84970    0.04540    0.33880    1.000
    H30      H        0.97300    0.91800    0.33740    1.000
    H31      H        0.47240    0.19820    0.27090    1.000
    H32      H        0.34020    0.15160    0.22950    1.000
    H33      H        0.14030    0.94630    0.23040    1.000
    H34      H        0.14540    0.85750    0.27210    1.000
    H35      H        0.95600    0.14000    0.23250    1.000
    H36      H        0.84110    0.18000    0.27560    1.000
    H37      H        0.79700    0.75830    0.16440    1.000
    H38      H        0.54590    0.75150    0.16220    1.000
    H39      H        0.84890    0.43040    0.16510    1.000
    H40      H        0.97810    0.56570    0.16610    1.000
    H41      H        0.34970    0.54540    0.16120    1.000
    H42      H        0.47300    0.41800    0.16260    1.000
    H43      H        0.97240    0.69820    0.22910    1.000
    H44      H        0.84020    0.65160    0.27050    1.000
    H45      H        0.64030    0.44630    0.26960    1.000
    H46      H        0.64540    0.35750    0.22790    1.000
    H47      H        0.45600    0.64000    0.26750    1.000
    H48      H        0.34110    0.68000    0.22440    1.000
    C13      C        0.16770    0.21010    0.32583    1.000
    C14      C        0.34790    0.01850    0.32397    1.000
    C15      C        0.97370    0.00650    0.32675    1.000
    C16      C        0.34260    0.15010    0.26123    1.000
    C17      C        0.14650    0.94680    0.26219    1.000
    C18      C        0.96460    0.13910    0.26418    1.000
    C19      C        0.66770    0.71010    0.17417    1.000
    C20      C        0.84790    0.51850    0.17603    1.000
    C21      C        0.47370    0.50650    0.17325    1.000
    C22      C        0.84260    0.65010    0.23877    1.000
    C23      C        0.64650    0.44680    0.23781    1.000
    C24      C        0.46460    0.63910    0.23582    1.000
    N9       N        0.95920    0.00560    0.27936    1.000
    N10      N        0.16640    0.07840    0.34158    1.000
    N11      N        0.15780    0.21260    0.27795    1.000
    N12      N        0.34480    0.01630    0.27625    1.000
    N13      N        0.45920    0.50560    0.22064    1.000
    N14      N        0.66640    0.57840    0.15842    1.000
    N15      N        0.65780    0.71260    0.22205    1.000
    N16      N        0.84480    0.51630    0.22375    1.000
    H49      H        0.92860    0.54490    0.59230    1.000
    H50      H        0.92970    0.39890    0.57840    1.000
    H51      H        0.56420    0.37120    0.58680    1.000
    H52      H        0.55570    0.51130    0.60620    1.000
    H53      H        0.32660    0.58790    0.55720    1.000
    H54      H        0.29240    0.44560    0.53920    1.000
    H55      H        0.58620    0.33740    0.51270    1.000
    H56      H        0.81610    0.40810    0.51250    1.000
    H57      H        0.07140    0.45510    0.40770    1.000
    H58      H        0.07030    0.60110    0.42160    1.000
    H59      H        0.43580    0.62880    0.41320    1.000
    H60      H        0.44430    0.48870    0.39380    1.000
    H61      H        0.67340    0.41210    0.44280    1.000
    H62      H        0.70760    0.55440    0.46080    1.000
    H63      H        0.41380    0.66260    0.48730    1.000
    H64      H        0.18390    0.59190    0.48750    1.000
    C25      C        0.86070    0.45900    0.59726    1.000
    C26      C        0.62840    0.45910    0.58521    1.000
    C27      C        0.37450    0.52780    0.53541    1.000
    C28      C        0.66490    0.42080    0.50906    1.000
    C29      C        0.13930    0.54100    0.40274    1.000
    C30      C        0.37160    0.54090    0.41479    1.000
    C31      C        0.62550    0.47220    0.46459    1.000
    C32      C        0.33510    0.57920    0.49094    1.000
    S1       S        0.89875    0.41552    0.65135    1.000
    S2       S        0.10125    0.58448    0.34865    1.000
    N17      N        0.59860    0.50950    0.54206    1.000
    N18      N        0.40140    0.49050    0.45794    1.000
    O1       O        0.78170    0.50060    0.67774    1.000
    O2       O        0.82040    0.28320    0.65615    1.000
    O3       O        0.12640    0.43230    0.65814    1.000
    O4       O        0.21830    0.49940    0.32226    1.000
    O5       O        0.17960    0.71680    0.34385    1.000
    O6       O        0.87360    0.56770    0.34186    1.000
    H65      H        0.57140    0.95510    0.09230    1.000
    H66      H        0.57030    0.10110    0.07840    1.000
    H67      H        0.93580    0.12880    0.08680    1.000
    H68      H        0.94430    0.98870    0.10620    1.000
    H69      H        0.17340    0.91210    0.05720    1.000
    H70      H        0.20760    0.05440    0.03920    1.000
    H71      H        0.91380    0.16260    0.01270    1.000
    H72      H        0.68390    0.09190    0.01250    1.000
    H73      H        0.42860    0.04490    0.90770    1.000
    H74      H        0.42970    0.89890    0.92160    1.000
    H75      H        0.06420    0.87120    0.91320    1.000
    H76      H        0.05570    0.01130    0.89380    1.000
    H77      H        0.82660    0.08790    0.94280    1.000
    H78      H        0.79240    0.94560    0.96080    1.000
    H79      H        0.08620    0.83740    0.98730    1.000
    H80      H        0.31610    0.90810    0.98750    1.000
    C33      C        0.63930    0.04100    0.09726    1.000
    C34      C        0.87160    0.04090    0.08521    1.000
    C35      C        0.12550    0.97220    0.03541    1.000
    C36      C        0.83510    0.07920    0.00906    1.000
    C37      C        0.36070    0.95900    0.90274    1.000
    C38      C        0.12840    0.95910    0.91479    1.000
    C39      C        0.87450    0.02780    0.96459    1.000
    C40      C        0.16490    0.92080    0.99094    1.000
    S3       S        0.60125    0.08448    0.15135    1.000
    S4       S        0.39875    0.91552    0.84865    1.000
    N19      N        0.90140    0.99050    0.04206    1.000
    N20      N        0.09860    0.00950    0.95794    1.000
    O7       O        0.71830    0.99940    0.17774    1.000
    O8       O        0.67960    0.21680    0.15615    1.000
    O9       O        0.37360    0.06770    0.15814    1.000
    O10      O        0.28170    0.00060    0.82226    1.000
    O11      O        0.32040    0.78320    0.84385    1.000
    O12      O        0.62640    0.93230    0.84186    1.000
