data_functionalizedCrystal
_audit_creation_method	'EQeq! by Chris Wilmer'
_symmetry_space_group_name_H-M	'P1'
_symmetry_Int_Tables_number	1
_symmetry_cell_setting	triclinic
loop_
_symmetry_equiv_pos_as_xyz
  x,y,z
_cell_length_a	7.62
_cell_length_b	20.963
_cell_length_c	9.876
_cell_angle_alpha	90
_cell_angle_beta	90
_cell_angle_gamma	90
loop_
_atom_site_label
_atom_site_type_symbol
_atom_site_fract_x
_atom_site_fract_y
_atom_site_fract_z
_atom_site_charge
Mof_N 	N 	0.5903	0.1713	0.1362	-0.108
Mof_C 	C 	0.6407	0.1208	0.0691	0.105
Mof_H 	H 	0.7566	0.109	0.0532	0.005
Mof_H 	H 	0.3968	0.0244	0.8933	0.065
Mof_N 	N 	0.0903	0.6713	0.6362	-0.088
Mof_C 	C 	0.1407	0.6208	0.5691	0.114
Mof_H 	H 	0.2566	0.609	0.5532	0.013
Mof_H 	H 	0.8968	0.5244	0.3933	0.008
Mof_N 	N 	0.4097	0.3287	0.1362	-0.106
Mof_C 	C 	0.3593	0.3792	0.0691	0.104
Mof_H 	H 	0.2434	0.391	0.0532	0.023
Mof_H 	H 	0.6032	0.4756	0.8933	0.056
Mof_N 	N 	0.9097	0.8287	0.6362	-0.121
Mof_C 	C 	0.8593	0.8792	0.5691	0.053
Mof_H 	H 	0.7434	0.891	0.5532	0.028
Mof_H 	H 	0.1032	0.9756	0.3933	0.046
Mof_N 	N 	0.4097	0.6713	0.8638	-0.106
Mof_C 	C 	0.3593	0.6208	0.9309	0.104
Mof_H 	H 	0.2434	0.609	0.9468	0.023
Mof_H 	H 	0.6032	0.5244	0.1067	0.056
Mof_N 	N 	0.9097	0.1713	0.3638	-0.121
Mof_C 	C 	0.8593	0.1208	0.4309	0.053
Mof_H 	H 	0.7434	0.109	0.4468	0.028
Mof_H 	H 	0.1032	0.0244	0.6067	0.046
Mof_N 	N 	0.5903	0.8287	0.8638	-0.109
Mof_C 	C 	0.6407	0.8792	0.9309	0.104
Mof_H 	H 	0.7566	0.891	0.9468	0.004
Mof_H 	H 	0.3968	0.9756	0.1067	0.064
Mof_N 	N 	0.0903	0.3287	0.3638	-0.088
Mof_C 	C 	0.1407	0.3792	0.4309	0.114
Mof_H 	H 	0.2566	0.391	0.4468	0.013
Mof_H 	H 	0.8968	0.4756	0.6067	0.008
Mof_N 	N 	0.4097	0.8287	0.8638	-0.106
Mof_C 	C 	0.3593	0.8792	0.9309	0.104
Mof_H 	H 	0.2434	0.891	0.9468	0.023
Mof_H 	H 	0.6032	0.9756	0.1067	0.056
Mof_N 	N 	0.9097	0.3287	0.3638	-0.121
Mof_C 	C 	0.8593	0.3792	0.4309	0.053
Mof_H 	H 	0.7434	0.391	0.4468	0.028
Mof_H 	H 	0.1032	0.4756	0.6067	0.046
Mof_N 	N 	0.5903	0.6713	0.8638	-0.109
Mof_C 	C 	0.6407	0.6208	0.9309	0.104
Mof_H 	H 	0.7566	0.609	0.9468	0.004
Mof_H 	H 	0.3968	0.5244	0.1067	0.063
Mof_N 	N 	0.0903	0.1713	0.3638	-0.088
Mof_C 	C 	0.1407	0.1208	0.4309	0.114
Mof_H 	H 	0.2566	0.109	0.4468	0.013
Mof_H 	H 	0.8968	0.0244	0.6067	0.008
Mof_N 	N 	0.5903	0.3287	0.1362	-0.109
Mof_C 	C 	0.6407	0.3792	0.0691	0.104
Mof_H 	H 	0.7566	0.391	0.0532	0.004
Mof_H 	H 	0.3968	0.4756	0.8933	0.063
Mof_N 	N 	0.0903	0.8287	0.6362	-0.088
Mof_C 	C 	0.1407	0.8792	0.5691	0.114
Mof_H 	H 	0.2566	0.891	0.5532	0.013
Mof_H 	H 	0.8968	0.9756	0.3933	0.008
Mof_N 	N 	0.4097	0.1713	0.1362	-0.106
Mof_C 	C 	0.3593	0.1208	0.0691	0.104
Mof_H 	H 	0.2434	0.109	0.0532	0.023
Mof_H 	H 	0.6032	0.0244	0.8933	0.056
Mof_N 	N 	0.9097	0.6713	0.6362	-0.121
Mof_C 	C 	0.8593	0.6208	0.5691	0.053
Mof_H 	H 	0.7434	0.609	0.5532	0.028
Mof_H 	H 	0.1032	0.5244	0.3933	0.046
Mof_Cd	Cd	0.75	0.25	0.25	0.434
Mof_Cd	Cd	0.25	0.25	0.25	0.464
Mof_Cd	Cd	0.25	0.75	0.75	0.464
Mof_Cd	Cd	0.75	0.75	0.75	0.434
Mof_Cl	Cl	-5.65943e-33	0.25	0.0702	-0.329
Mof_Cl	Cl	0.5	0.75	0.5702	-0.369
Mof_Cl	Cl	4.51832e-33	0.75	0.9298	-0.329
Mof_Cl	Cl	0.5	0.25	0.4298	-0.369
Mof_N 	N 	0.5	0.0889	0.0275	-0.132
Mof_C 	C 	0.5	0.0269	0.9505	-0.061
Mof_N 	N 	-1.34381e-32	0.5889	0.5275	-0.108
Mof_C 	C 	1.41903e-32	0.5269	0.4505	0.008
Mof_N 	N 	0.5	0.4111	0.0275	-0.132
Mof_C 	C 	0.5	0.4731	0.9505	-0.061
Mof_N 	N 	-1.34381e-32	0.9111	0.5275	-0.108
Mof_C 	C 	1.41903e-32	0.9731	0.4505	0.007
Mof_N 	N 	0.5	0.5889	0.9725	-0.132
Mof_C 	C 	0.5	0.5269	0.0495	-0.061
Mof_N 	N 	-5.70466e-33	0.0889	0.4725	-0.108
Mof_C 	C 	-5.33048e-33	0.0269	0.5495	0.007
Mof_N 	N 	0.5	0.9111	0.9725	-0.132
Mof_C 	C 	0.5	0.9731	0.0495	-0.061
Mof_N 	N 	-1.37054e-32	0.4111	0.4725	-0.108
Mof_C 	C 	2.67027e-33	0.4731	0.5495	0.008
_end
