data_functionalizedCrystal
_audit_creation_method	'EQeq! by Chris Wilmer'
_symmetry_space_group_name_H-M	'P1'
_symmetry_Int_Tables_number	1
_symmetry_cell_setting	triclinic
loop_
_symmetry_equiv_pos_as_xyz
  x,y,z
_cell_length_a	30.418
_cell_length_b	16.302
_cell_length_c	21.78
_cell_angle_alpha	90
_cell_angle_beta	133.83
_cell_angle_gamma	90
loop_
_atom_site_label
_atom_site_type_symbol
_atom_site_fract_x
_atom_site_fract_y
_atom_site_fract_z
_atom_site_charge
Mof_C 	C 	0.3111	0.9328	0.8824	-0.092
Mof_C 	C 	0.2819	0.8617	0.8703	0.015
Mof_H 	H 	0.2724	0.822	0.8319	0.01
Mof_C 	C 	0.2673	0.8512	0.9175	-0.108
Mof_H 	H 	0.2485	0.8031	0.9123	0.044
Mof_C 	C 	0.2808	0.913	0.973	0.025
Mof_H 	H 	0.269	0.9087	0.0024	0.001
Mof_C 	C 	0.3122	0.9804	0.9824	-0.105
Mof_C 	C 	0.3302	0.9545	0.8371	0.409
Mof_C 	C 	0.3363	0.0505	0.0453	0.451
Mof_C 	C 	0.0685	0.242	0.6307	-0.109
Mof_C 	C 	0.0475	0.1768	0.5745	0.017
Mof_H 	H 	0.0075	0.1738	0.522	0.001
Mof_C 	C 	0.0908	0.1159	0.6021	-0.093
Mof_H 	H 	0.0797	0.0727	0.5658	0.043
Mof_C 	C 	0.1496	0.1188	0.6821	0.003
Mof_H 	H 	0.177	0.0762	0.7015	0.018
Mof_C 	C 	0.1664	0.1867	0.7323	-0.069
Mof_C 	C 	0.0297	0.315	0.6063	0.449
Mof_C 	C 	0.2323	0.2011	0.8186	0.427
Mof_N 	N 	0.3261	0.9921	0.9362	-0.197
Mof_N 	N 	0.1266	0.246	0.708	-0.182
Mof_O 	O 	0.0487	0.3725	0.6594	-0.299
Mof_O 	O 	0.4422	0.878	0.8587	-0.246
Mof_O 	O 	0.2396	0.2669	0.8538	-0.497
Mof_O 	O 	0.3607	0.1082	0.0439	-0.541
Mof_O 	O 	0.3574	0.0201	0.8535	-0.552
Mof_O 	O 	0.2718	0.1495	0.8431	-0.516
Mof_O 	O 	0.9737	0.3097	0.5448	-0.574
Mof_O 	O 	0.3249	0.0461	0.0906	-0.532
Mof_O 	O 	0.3169	0.9024	0.7822	-0.511
Mof_O 	O 	0.1714	0.2768	0.8949	-0.208
Mof_O 	O 	0.371	0.216	0.146	-0.236
Mof_Eu	Eu	0.37898	0.11961	0.95473	1.824
Mof_Eu	Eu	0.15985	0.37126	0.8011	1.928
Mof_C 	C 	0.8111	0.4328	0.8824	-0.089
Mof_C 	C 	0.7819	0.3617	0.8703	0.013
Mof_H 	H 	0.7724	0.322	0.8319	0.012
Mof_C 	C 	0.7673	0.3512	0.9175	-0.102
Mof_H 	H 	0.7485	0.3031	0.9123	0.042
Mof_C 	C 	0.7808	0.413	0.973	0.016
Mof_H 	H 	0.769	0.4087	0.0024	0.006
Mof_C 	C 	0.8122	0.4804	0.9824	-0.104
Mof_C 	C 	0.8302	0.4545	0.8371	0.407
Mof_C 	C 	0.8363	0.5505	0.0453	0.452
Mof_C 	C 	0.5685	0.742	0.6307	-0.109
Mof_C 	C 	0.5475	0.6768	0.5745	0.017
Mof_H 	H 	0.5075	0.6738	0.522	0.001
Mof_C 	C 	0.5908	0.6159	0.6021	-0.093
Mof_H 	H 	0.5797	0.5727	0.5658	0.043
Mof_C 	C 	0.6496	0.6188	0.6821	0.003
Mof_H 	H 	0.677	0.5762	0.7015	0.018
Mof_C 	C 	0.6664	0.6867	0.7323	-0.069
Mof_C 	C 	0.5297	0.815	0.6063	0.449
Mof_C 	C 	0.7323	0.7011	0.8186	0.427
Mof_N 	N 	0.8261	0.4921	0.9362	-0.198
Mof_N 	N 	0.6266	0.746	0.708	-0.182
Mof_O 	O 	0.5487	0.8725	0.6594	-0.299
Mof_O 	O 	0.9422	0.378	0.8587	-0.244
Mof_O 	O 	0.7396	0.7669	0.8538	-0.497
Mof_O 	O 	0.8607	0.6082	0.0439	-0.54
Mof_O 	O 	0.8574	0.5201	0.8535	-0.551
Mof_O 	O 	0.7718	0.6495	0.8431	-0.516
Mof_O 	O 	0.4737	0.8097	0.5448	-0.573
Mof_O 	O 	0.8249	0.5461	0.0906	-0.532
Mof_O 	O 	0.8169	0.4024	0.7822	-0.511
Mof_O 	O 	0.6714	0.7768	0.8949	-0.209
Mof_O 	O 	0.871	0.716	0.146	-0.236
Mof_Eu	Eu	0.87898	0.61961	0.95473	1.822
Mof_Eu	Eu	0.65985	0.87126	0.8011	1.928
Mof_C 	C 	0.6889	0.9328	0.6176	-0.09
Mof_C 	C 	0.7181	0.8617	0.6297	0.014
Mof_H 	H 	0.7276	0.822	0.6681	0.011
Mof_C 	C 	0.7327	0.8512	0.5825	-0.104
Mof_H 	H 	0.7515	0.8031	0.5877	0.043
Mof_C 	C 	0.7192	0.913	0.527	0.02
Mof_H 	H 	0.731	0.9087	0.4976	0.003
Mof_C 	C 	0.6878	0.9804	0.5176	-0.104
Mof_C 	C 	0.6698	0.9545	0.6629	0.408
Mof_C 	C 	0.6637	0.0505	0.4547	0.451
Mof_C 	C 	0.9315	0.242	0.8693	-0.109
Mof_C 	C 	0.9525	0.1768	0.9255	0.016
Mof_H 	H 	0.9925	0.1738	0.978	0.001
Mof_C 	C 	0.9092	0.1159	0.8979	-0.093
Mof_H 	H 	0.9203	0.0727	0.9342	0.042
Mof_C 	C 	0.8504	0.1188	0.8179	0.003
Mof_H 	H 	0.823	0.0762	0.7985	0.018
Mof_C 	C 	0.8336	0.1867	0.7677	-0.069
Mof_C 	C 	0.9703	0.315	0.8937	0.445
Mof_C 	C 	0.7677	0.2011	0.6814	0.427
Mof_N 	N 	0.6739	0.9921	0.5638	-0.198
Mof_N 	N 	0.8734	0.246	0.792	-0.182
Mof_O 	O 	0.9513	0.3725	0.8406	-0.3
Mof_O 	O 	0.5578	0.878	0.6413	-0.246
Mof_O 	O 	0.7604	0.2669	0.6462	-0.497
Mof_O 	O 	0.6393	0.1082	0.4561	-0.541
Mof_O 	O 	0.6426	0.0201	0.6465	-0.552
Mof_O 	O 	0.7282	0.1495	0.6569	-0.516
Mof_O 	O 	0.0263	0.3097	0.9552	-0.57
Mof_O 	O 	0.6751	0.0461	0.4094	-0.532
Mof_O 	O 	0.6831	0.9024	0.7178	-0.511
Mof_O 	O 	0.8286	0.2768	0.6051	-0.208
Mof_O 	O 	0.629	0.216	0.354	-0.236
Mof_Eu	Eu	0.62102	0.11961	0.54527	1.824
Mof_Eu	Eu	0.84015	0.37126	0.6989	1.927
Mof_C 	C 	0.1889	0.4328	0.6176	-0.09
Mof_C 	C 	0.2181	0.3617	0.6297	0.014
Mof_H 	H 	0.2276	0.322	0.6681	0.011
Mof_C 	C 	0.2327	0.3512	0.5825	-0.104
Mof_H 	H 	0.2515	0.3031	0.5877	0.043
Mof_C 	C 	0.2192	0.413	0.527	0.02
Mof_H 	H 	0.231	0.4087	0.4976	0.004
Mof_C 	C 	0.1878	0.4804	0.5176	-0.104
Mof_C 	C 	0.1698	0.4545	0.6629	0.407
Mof_C 	C 	0.1637	0.5505	0.4547	0.451
Mof_C 	C 	0.4315	0.742	0.8693	-0.109
Mof_C 	C 	0.4525	0.6768	0.9255	0.017
Mof_H 	H 	0.4925	0.6738	0.978	0.002
Mof_C 	C 	0.4092	0.6159	0.8979	-0.093
Mof_H 	H 	0.4203	0.5727	0.9342	0.043
Mof_C 	C 	0.3504	0.6188	0.8179	0.003
Mof_H 	H 	0.323	0.5762	0.7985	0.019
Mof_C 	C 	0.3336	0.6867	0.7677	-0.069
Mof_C 	C 	0.4703	0.815	0.8937	0.449
Mof_C 	C 	0.2677	0.7011	0.6814	0.427
Mof_N 	N 	0.1739	0.4921	0.5638	-0.198
Mof_N 	N 	0.3734	0.746	0.792	-0.182
Mof_O 	O 	0.4513	0.8725	0.8406	-0.299
Mof_O 	O 	0.0578	0.378	0.6413	-0.246
Mof_O 	O 	0.2604	0.7669	0.6462	-0.497
Mof_O 	O 	0.1393	0.6082	0.4561	-0.541
Mof_O 	O 	0.1426	0.5201	0.6465	-0.551
Mof_O 	O 	0.2282	0.6495	0.6569	-0.516
Mof_O 	O 	0.5263	0.8097	0.9552	-0.572
Mof_O 	O 	0.1751	0.5461	0.4094	-0.532
Mof_O 	O 	0.1831	0.4024	0.7178	-0.511
Mof_O 	O 	0.3286	0.7768	0.6051	-0.209
Mof_O 	O 	0.129	0.716	0.354	-0.236
Mof_Eu	Eu	0.12102	0.61961	0.54527	1.824
Mof_Eu	Eu	0.34015	0.87126	0.6989	1.928
Mof_C 	C 	0.6889	0.0672	0.1176	-0.091
Mof_C 	C 	0.7181	0.1383	0.1297	0.016
Mof_H 	H 	0.7276	0.178	0.1681	0.011
Mof_C 	C 	0.7327	0.1488	0.0825	-0.107
Mof_H 	H 	0.7515	0.1969	0.0877	0.044
Mof_C 	C 	0.7192	0.087	0.027	0.025
Mof_H 	H 	0.731	0.0913	0.9976	0.001
Mof_C 	C 	0.6878	0.0196	0.0176	-0.105
Mof_C 	C 	0.6698	0.0455	0.1629	0.409
Mof_C 	C 	0.6637	0.9495	0.9547	0.451
Mof_C 	C 	0.9315	0.758	0.3693	-0.109
Mof_C 	C 	0.9525	0.8232	0.4255	0.017
Mof_H 	H 	0.9925	0.8262	0.478	0.001
Mof_C 	C 	0.9092	0.8841	0.3979	-0.093
Mof_H 	H 	0.9203	0.9273	0.4342	0.043
Mof_C 	C 	0.8504	0.8812	0.3179	0.003
Mof_H 	H 	0.823	0.9238	0.2985	0.018
Mof_C 	C 	0.8336	0.8133	0.2677	-0.069
Mof_C 	C 	0.9703	0.685	0.3937	0.449
Mof_C 	C 	0.7677	0.7989	0.1814	0.427
Mof_N 	N 	0.6739	0.0079	0.0638	-0.197
Mof_N 	N 	0.8734	0.754	0.292	-0.182
Mof_O 	O 	0.9513	0.6275	0.3406	-0.299
Mof_O 	O 	0.5578	0.122	0.1413	-0.246
Mof_O 	O 	0.7604	0.7331	0.1462	-0.497
Mof_O 	O 	0.6393	0.8918	0.9561	-0.541
Mof_O 	O 	0.6426	0.9799	0.1465	-0.552
Mof_O 	O 	0.7282	0.8505	0.1569	-0.516
Mof_O 	O 	0.0263	0.6903	0.4552	-0.574
Mof_O 	O 	0.6751	0.9539	0.9094	-0.532
Mof_O 	O 	0.6831	0.0976	0.2178	-0.511
Mof_O 	O 	0.8286	0.7232	0.1051	-0.208
Mof_O 	O 	0.629	0.784	0.854	-0.236
Mof_Eu	Eu	0.62102	0.88039	0.04527	1.824
Mof_Eu	Eu	0.84015	0.62874	0.1989	1.928
Mof_C 	C 	0.1889	0.5672	0.1176	-0.089
Mof_C 	C 	0.2181	0.6383	0.1297	0.013
Mof_H 	H 	0.2276	0.678	0.1681	0.012
Mof_C 	C 	0.2327	0.6488	0.0825	-0.102
Mof_H 	H 	0.2515	0.6969	0.0877	0.042
Mof_C 	C 	0.2192	0.587	0.027	0.016
Mof_H 	H 	0.231	0.5913	0.9976	0.006
Mof_C 	C 	0.1878	0.5196	0.0176	-0.104
Mof_C 	C 	0.1698	0.5455	0.1629	0.407
Mof_C 	C 	0.1637	0.4495	0.9547	0.452
Mof_C 	C 	0.4315	0.258	0.3693	-0.109
Mof_C 	C 	0.4525	0.3232	0.4255	0.017
Mof_H 	H 	0.4925	0.3262	0.478	0.001
Mof_C 	C 	0.4092	0.3841	0.3979	-0.093
Mof_H 	H 	0.4203	0.4273	0.4342	0.043
Mof_C 	C 	0.3504	0.3812	0.3179	0.003
Mof_H 	H 	0.323	0.4238	0.2985	0.018
Mof_C 	C 	0.3336	0.3133	0.2677	-0.069
Mof_C 	C 	0.4703	0.185	0.3937	0.449
Mof_C 	C 	0.2677	0.2989	0.1814	0.427
Mof_N 	N 	0.1739	0.5079	0.0638	-0.198
Mof_N 	N 	0.3734	0.254	0.292	-0.182
Mof_O 	O 	0.4513	0.1275	0.3406	-0.299
Mof_O 	O 	0.0578	0.622	0.1413	-0.244
Mof_O 	O 	0.2604	0.2331	0.1462	-0.497
Mof_O 	O 	0.1393	0.3918	0.9561	-0.54
Mof_O 	O 	0.1426	0.4799	0.1465	-0.551
Mof_O 	O 	0.2282	0.3505	0.1569	-0.516
Mof_O 	O 	0.5263	0.1903	0.4552	-0.573
Mof_O 	O 	0.1751	0.4539	0.9094	-0.532
Mof_O 	O 	0.1831	0.5976	0.2178	-0.511
Mof_O 	O 	0.3286	0.2232	0.1051	-0.209
Mof_O 	O 	0.129	0.284	0.854	-0.236
Mof_Eu	Eu	0.12102	0.38039	0.04527	1.822
Mof_Eu	Eu	0.34015	0.12874	0.1989	1.928
Mof_C 	C 	0.3111	0.0672	0.3824	-0.09
Mof_C 	C 	0.2819	0.1383	0.3703	0.014
Mof_H 	H 	0.2724	0.178	0.3319	0.011
Mof_C 	C 	0.2673	0.1488	0.4175	-0.104
Mof_H 	H 	0.2485	0.1969	0.4123	0.043
Mof_C 	C 	0.2808	0.087	0.473	0.02
Mof_H 	H 	0.269	0.0913	0.5024	0.003
Mof_C 	C 	0.3122	0.0196	0.4824	-0.104
Mof_C 	C 	0.3302	0.0455	0.3371	0.408
Mof_C 	C 	0.3363	0.9495	0.5453	0.451
Mof_C 	C 	0.0685	0.758	0.1307	-0.109
Mof_C 	C 	0.0475	0.8232	0.0745	0.016
Mof_H 	H 	0.0075	0.8262	0.022	0.001
Mof_C 	C 	0.0908	0.8841	0.1021	-0.093
Mof_H 	H 	0.0797	0.9273	0.0658	0.042
Mof_C 	C 	0.1496	0.8812	0.1821	0.003
Mof_H 	H 	0.177	0.9238	0.2015	0.018
Mof_C 	C 	0.1664	0.8133	0.2323	-0.069
Mof_C 	C 	0.0297	0.685	0.1063	0.445
Mof_C 	C 	0.2323	0.7989	0.3186	0.427
Mof_N 	N 	0.3261	0.0079	0.4362	-0.198
Mof_N 	N 	0.1266	0.754	0.208	-0.182
Mof_O 	O 	0.0487	0.6275	0.1594	-0.3
Mof_O 	O 	0.4422	0.122	0.3587	-0.246
Mof_O 	O 	0.2396	0.7331	0.3538	-0.497
Mof_O 	O 	0.3607	0.8918	0.5439	-0.541
Mof_O 	O 	0.3574	0.9799	0.3535	-0.552
Mof_O 	O 	0.2718	0.8505	0.3431	-0.516
Mof_O 	O 	0.9737	0.6903	0.0448	-0.57
Mof_O 	O 	0.3249	0.9539	0.5906	-0.532
Mof_O 	O 	0.3169	0.0976	0.2822	-0.511
Mof_O 	O 	0.1714	0.7232	0.3949	-0.208
Mof_O 	O 	0.371	0.784	0.646	-0.236
Mof_Eu	Eu	0.37898	0.88039	0.45473	1.824
Mof_Eu	Eu	0.15985	0.62874	0.3011	1.927
Mof_C 	C 	0.8111	0.5672	0.3824	-0.09
Mof_C 	C 	0.7819	0.6383	0.3703	0.014
Mof_H 	H 	0.7724	0.678	0.3319	0.011
Mof_C 	C 	0.7673	0.6488	0.4175	-0.104
Mof_H 	H 	0.7485	0.6969	0.4123	0.043
Mof_C 	C 	0.7808	0.587	0.473	0.02
Mof_H 	H 	0.769	0.5913	0.5024	0.004
Mof_C 	C 	0.8122	0.5196	0.4824	-0.104
Mof_C 	C 	0.8302	0.5455	0.3371	0.407
Mof_C 	C 	0.8363	0.4495	0.5453	0.451
Mof_C 	C 	0.5685	0.258	0.1307	-0.109
Mof_C 	C 	0.5475	0.3232	0.0745	0.017
Mof_H 	H 	0.5075	0.3262	0.022	0.002
Mof_C 	C 	0.5908	0.3841	0.1021	-0.093
Mof_H 	H 	0.5797	0.4273	0.0658	0.043
Mof_C 	C 	0.6496	0.3812	0.1821	0.003
Mof_H 	H 	0.677	0.4238	0.2015	0.019
Mof_C 	C 	0.6664	0.3133	0.2323	-0.069
Mof_C 	C 	0.5297	0.185	0.1063	0.449
Mof_C 	C 	0.7323	0.2989	0.3186	0.427
Mof_N 	N 	0.8261	0.5079	0.4362	-0.198
Mof_N 	N 	0.6266	0.254	0.208	-0.182
Mof_O 	O 	0.5487	0.1275	0.1594	-0.299
Mof_O 	O 	0.9422	0.622	0.3587	-0.246
Mof_O 	O 	0.7396	0.2331	0.3538	-0.497
Mof_O 	O 	0.8607	0.3918	0.5439	-0.541
Mof_O 	O 	0.8574	0.4799	0.3535	-0.551
Mof_O 	O 	0.7718	0.3505	0.3431	-0.516
Mof_O 	O 	0.4737	0.1903	0.0448	-0.572
Mof_O 	O 	0.8249	0.4539	0.5906	-0.532
Mof_O 	O 	0.8169	0.5976	0.2822	-0.511
Mof_O 	O 	0.6714	0.2232	0.3949	-0.209
Mof_O 	O 	0.871	0.284	0.646	-0.236
Mof_Eu	Eu	0.87898	0.38039	0.45473	1.824
Mof_Eu	Eu	0.65985	0.12874	0.3011	1.928
_end
