# CIF file generated by openbabel 3.1.0, see https://openbabel.org
data_I
_chemical_name_common 'image0'
_cell_length_a 19.791
_cell_length_b 22.674
_cell_length_c 12.877
_cell_angle_alpha 90
_cell_angle_beta 113.271
_cell_angle_gamma 90
_space_group_name_H-M_alt 'P 1'
_space_group_name_Hall 'P 1'
loop_
    _symmetry_equiv_pos_as_xyz
    x,y,z
loop_
    _atom_site_label
    _atom_site_type_symbol
    _atom_site_fract_x
    _atom_site_fract_y
    _atom_site_fract_z
    _atom_site_occupancy
    Cu1      Cu       0.49556    0.76115    0.54798    1.000
    O1       O        0.57769    0.74239    0.68852    1.000
    O2       O        0.57671    0.80480    0.82350    1.000
    O3       O        0.51219    0.84678    0.55999    1.000
    O4       O        0.62719    0.84826    0.56720    1.000
    N1       N        0.40429    0.76683    0.40790    1.000
    N2       N        0.46563    0.67583    0.53259    1.000
    N3       N        0.57098    0.92887    0.79993    1.000
    C1       C        0.37500    0.81625    0.35090    1.000
    H1       H        0.39680    0.85270    0.38020    1.000
    C2       C        0.31381    0.81520    0.25040    1.000
    H2       H        0.29370    0.85060    0.21290    1.000
    C3       C        0.28300    0.76290    0.20630    1.000
    H3       H        0.24190    0.76140    0.13710    1.000
    C4       C        0.31250    0.71170    0.26380    1.000
    H4       H        0.29170    0.67500    0.23400    1.000
    C5       C        0.37286    0.71451    0.36560    1.000
    C6       C        0.40732    0.66316    0.43630    1.000
    C7       C        0.38350    0.60575    0.40970    1.000
    H5       H        0.34300    0.59740    0.34210    1.000
    C8       C        0.41920    0.56084    0.48260    1.000
    H6       H        0.40330    0.52160    0.46570    1.000
    C9       C        0.47840    0.57399    0.58030    1.000
    H7       H        0.50360    0.54400    0.63130    1.000
    C10      C        0.50056    0.63184    0.60270    1.000
    H8       H        0.54150    0.64080    0.66930    1.000
    C11      C        0.64426    0.92379    0.84830    1.000
    H9       H        0.66540    0.88600    0.86520    1.000
    C12      C        0.68973    0.97286    0.87410    1.000
    H10      H        0.74110    0.96840    0.90790    1.000
    C13      C        0.65910    0.02738    0.85010    1.000
    H11      H        0.68930    0.06100    0.86720    1.000
    C14      C        0.58340    0.03325    0.80030    1.000
    H12      H        0.56160    0.07080    0.78290    1.000
    C15      C        0.54023    0.98282    0.77640    1.000
    C16      C        0.60351    0.76330    0.78590    1.000
    C17      C        0.67324    0.73675    0.86550    1.000
    H13      H        0.68840    0.70050    0.84640    1.000
    C18      C        0.71499    0.76198    0.96220    1.000
    H14      H        0.69840    0.79720    0.98290    1.000
    C19      C        0.56920    0.87300    0.55880    1.000
    C20      C        0.56483    0.93821    0.54630    1.000
    H15      H        0.60900    0.95940    0.56680    1.000
    C21      C        0.50203    0.96830    0.50780    1.000
    H16      H        0.45790    0.94730    0.48980    1.000
    Cu2      Cu       0.99556    0.26115    0.54798    1.000
    O5       O        0.07769    0.24239    0.68852    1.000
    O6       O        0.07671    0.30480    0.82350    1.000
    O7       O        0.01219    0.34678    0.55999    1.000
    O8       O        0.12719    0.34826    0.56720    1.000
    N4       N        0.90429    0.26683    0.40790    1.000
    N5       N        0.96563    0.17583    0.53259    1.000
    N6       N        0.07098    0.42887    0.79993    1.000
    C22      C        0.87500    0.31625    0.35090    1.000
    H17      H        0.89680    0.35270    0.38020    1.000
    C23      C        0.81381    0.31520    0.25040    1.000
    H18      H        0.79370    0.35060    0.21290    1.000
    C24      C        0.78300    0.26290    0.20630    1.000
    H19      H        0.74190    0.26140    0.13710    1.000
    C25      C        0.81250    0.21170    0.26380    1.000
    H20      H        0.79170    0.17500    0.23400    1.000
    C26      C        0.87286    0.21451    0.36560    1.000
    C27      C        0.90732    0.16316    0.43630    1.000
    C28      C        0.88350    0.10575    0.40970    1.000
    H21      H        0.84300    0.09740    0.34210    1.000
    C29      C        0.91920    0.06084    0.48260    1.000
    H22      H        0.90330    0.02160    0.46570    1.000
    C30      C        0.97840    0.07399    0.58030    1.000
    H23      H        0.00360    0.04400    0.63130    1.000
    C31      C        0.00056    0.13184    0.60270    1.000
    H24      H        0.04150    0.14080    0.66930    1.000
    C32      C        0.14426    0.42379    0.84830    1.000
    H25      H        0.16540    0.38600    0.86520    1.000
    C33      C        0.18973    0.47286    0.87410    1.000
    H26      H        0.24110    0.46840    0.90790    1.000
    C34      C        0.15910    0.52738    0.85010    1.000
    H27      H        0.18930    0.56100    0.86720    1.000
    C35      C        0.08340    0.53325    0.80030    1.000
    H28      H        0.06160    0.57080    0.78290    1.000
    C36      C        0.04023    0.48282    0.77640    1.000
    C37      C        0.10351    0.26330    0.78590    1.000
    C38      C        0.17324    0.23675    0.86550    1.000
    H29      H        0.18840    0.20050    0.84640    1.000
    C39      C        0.21499    0.26198    0.96220    1.000
    H30      H        0.19840    0.29720    0.98290    1.000
    C40      C        0.06920    0.37300    0.55880    1.000
    C41      C        0.06483    0.43821    0.54630    1.000
    H31      H        0.10900    0.45940    0.56680    1.000
    C42      C        0.00203    0.46830    0.50780    1.000
    H32      H        0.95790    0.44730    0.48980    1.000
    Cu3      Cu       0.50444    0.76115    0.95202    1.000
    O9       O        0.42231    0.74239    0.81148    1.000
    O10      O        0.42329    0.80480    0.67650    1.000
    O11      O        0.48781    0.84678    0.94001    1.000
    O12      O        0.37281    0.84826    0.93280    1.000
    N7       N        0.59571    0.76683    0.09210    1.000
    N8       N        0.53437    0.67583    0.96741    1.000
    N9       N        0.42902    0.92887    0.70007    1.000
    C43      C        0.62500    0.81625    0.14910    1.000
    H33      H        0.60320    0.85270    0.11980    1.000
    C44      C        0.68619    0.81520    0.24960    1.000
    H34      H        0.70630    0.85060    0.28710    1.000
    C45      C        0.71700    0.76290    0.29370    1.000
    H35      H        0.75810    0.76140    0.36290    1.000
    C46      C        0.68750    0.71170    0.23620    1.000
    H36      H        0.70830    0.67500    0.26600    1.000
    C47      C        0.62714    0.71451    0.13440    1.000
    C48      C        0.59268    0.66316    0.06370    1.000
    C49      C        0.61650    0.60575    0.09030    1.000
    H37      H        0.65700    0.59740    0.15790    1.000
    C50      C        0.58080    0.56084    0.01740    1.000
    H38      H        0.59670    0.52160    0.03430    1.000
    C51      C        0.52160    0.57399    0.91970    1.000
    H39      H        0.49640    0.54400    0.86870    1.000
    C52      C        0.49944    0.63184    0.89730    1.000
    H40      H        0.45850    0.64080    0.83070    1.000
    C53      C        0.35574    0.92379    0.65170    1.000
    H41      H        0.33460    0.88600    0.63480    1.000
    C54      C        0.31027    0.97286    0.62590    1.000
    H42      H        0.25890    0.96840    0.59210    1.000
    C55      C        0.34090    0.02738    0.64990    1.000
    H43      H        0.31070    0.06100    0.63280    1.000
    C56      C        0.41660    0.03325    0.69970    1.000
    H44      H        0.43840    0.07080    0.71710    1.000
    C57      C        0.45977    0.98282    0.72360    1.000
    C58      C        0.39649    0.76330    0.71410    1.000
    C59      C        0.32676    0.73675    0.63450    1.000
    H45      H        0.31160    0.70050    0.65360    1.000
    C60      C        0.28501    0.76198    0.53780    1.000
    H46      H        0.30160    0.79720    0.51710    1.000
    C61      C        0.43080    0.87300    0.94120    1.000
    C62      C        0.43517    0.93821    0.95370    1.000
    H47      H        0.39100    0.95940    0.93320    1.000
    C63      C        0.49797    0.96830    0.99220    1.000
    H48      H        0.54210    0.94730    0.01020    1.000
    Cu4      Cu       0.00444    0.26115    0.95202    1.000
    O13      O        0.92231    0.24239    0.81148    1.000
    O14      O        0.92329    0.30480    0.67650    1.000
    O15      O        0.98781    0.34678    0.94001    1.000
    O16      O        0.87281    0.34826    0.93280    1.000
    N10      N        0.09571    0.26683    0.09210    1.000
    N11      N        0.03437    0.17583    0.96741    1.000
    N12      N        0.92902    0.42887    0.70007    1.000
    C64      C        0.12500    0.31625    0.14910    1.000
    H49      H        0.10320    0.35270    0.11980    1.000
    C65      C        0.18619    0.31520    0.24960    1.000
    H50      H        0.20630    0.35060    0.28710    1.000
    C66      C        0.21700    0.26290    0.29370    1.000
    H51      H        0.25810    0.26140    0.36290    1.000
    C67      C        0.18750    0.21170    0.23620    1.000
    H52      H        0.20830    0.17500    0.26600    1.000
    C68      C        0.12714    0.21451    0.13440    1.000
    C69      C        0.09268    0.16316    0.06370    1.000
    C70      C        0.11650    0.10575    0.09030    1.000
    H53      H        0.15700    0.09740    0.15790    1.000
    C71      C        0.08080    0.06084    0.01740    1.000
    H54      H        0.09670    0.02160    0.03430    1.000
    C72      C        0.02160    0.07399    0.91970    1.000
    H55      H        0.99640    0.04400    0.86870    1.000
    C73      C        0.99944    0.13184    0.89730    1.000
    H56      H        0.95850    0.14080    0.83070    1.000
    C74      C        0.85574    0.42379    0.65170    1.000
    H57      H        0.83460    0.38600    0.63480    1.000
    C75      C        0.81027    0.47286    0.62590    1.000
    H58      H        0.75890    0.46840    0.59210    1.000
    C76      C        0.84090    0.52738    0.64990    1.000
    H59      H        0.81070    0.56100    0.63280    1.000
    C77      C        0.91660    0.53325    0.69970    1.000
    H60      H        0.93840    0.57080    0.71710    1.000
    C78      C        0.95977    0.48282    0.72360    1.000
    C79      C        0.89649    0.26330    0.71410    1.000
    C80      C        0.82676    0.23675    0.63450    1.000
    H61      H        0.81160    0.20050    0.65360    1.000
    C81      C        0.78501    0.26198    0.53780    1.000
    H62      H        0.80160    0.29720    0.51710    1.000
    C82      C        0.93080    0.37300    0.94120    1.000
    C83      C        0.93517    0.43821    0.95370    1.000
    H63      H        0.89100    0.45940    0.93320    1.000
    C84      C        0.99797    0.46830    0.99220    1.000
    H64      H        0.04210    0.44730    0.01020    1.000
    Cu5      Cu       0.50444    0.23885    0.45202    1.000
    O17      O        0.42231    0.25761    0.31148    1.000
    O18      O        0.42329    0.19520    0.17650    1.000
    O19      O        0.48781    0.15322    0.44001    1.000
    O20      O        0.37281    0.15174    0.43280    1.000
    N13      N        0.59571    0.23317    0.59210    1.000
    N14      N        0.53437    0.32417    0.46741    1.000
    N15      N        0.42902    0.07113    0.20007    1.000
    C85      C        0.62500    0.18375    0.64910    1.000
    H65      H        0.60320    0.14730    0.61980    1.000
    C86      C        0.68619    0.18480    0.74960    1.000
    H66      H        0.70630    0.14940    0.78710    1.000
    C87      C        0.71700    0.23710    0.79370    1.000
    H67      H        0.75810    0.23860    0.86290    1.000
    C88      C        0.68750    0.28830    0.73620    1.000
    H68      H        0.70830    0.32500    0.76600    1.000
    C89      C        0.62714    0.28549    0.63440    1.000
    C90      C        0.59268    0.33684    0.56370    1.000
    C91      C        0.61650    0.39425    0.59030    1.000
    H69      H        0.65700    0.40260    0.65790    1.000
    C92      C        0.58080    0.43916    0.51740    1.000
    H70      H        0.59670    0.47840    0.53430    1.000
    C93      C        0.52160    0.42601    0.41970    1.000
    H71      H        0.49640    0.45600    0.36870    1.000
    C94      C        0.49944    0.36816    0.39730    1.000
    H72      H        0.45850    0.35920    0.33070    1.000
    C95      C        0.35574    0.07621    0.15170    1.000
    H73      H        0.33460    0.11400    0.13480    1.000
    C96      C        0.31027    0.02714    0.12590    1.000
    H74      H        0.25890    0.03160    0.09210    1.000
    C97      C        0.34090    0.97262    0.14990    1.000
    H75      H        0.31070    0.93900    0.13280    1.000
    C98      C        0.41660    0.96675    0.19970    1.000
    H76      H        0.43840    0.92920    0.21710    1.000
    C99      C        0.45977    0.01718    0.22360    1.000
    C100     C        0.39649    0.23670    0.21410    1.000
    C101     C        0.32676    0.26325    0.13450    1.000
    H77      H        0.31160    0.29950    0.15360    1.000
    C102     C        0.28501    0.23802    0.03780    1.000
    H78      H        0.30160    0.20280    0.01710    1.000
    C103     C        0.43080    0.12700    0.44120    1.000
    C104     C        0.43517    0.06179    0.45370    1.000
    H79      H        0.39100    0.04060    0.43320    1.000
    C105     C        0.49797    0.03170    0.49220    1.000
    H80      H        0.54210    0.05270    0.51020    1.000
    Cu6      Cu       0.00444    0.73885    0.45202    1.000
    O21      O        0.92231    0.75761    0.31148    1.000
    O22      O        0.92329    0.69520    0.17650    1.000
    O23      O        0.98781    0.65322    0.44001    1.000
    O24      O        0.87281    0.65174    0.43280    1.000
    N16      N        0.09571    0.73317    0.59210    1.000
    N17      N        0.03437    0.82417    0.46741    1.000
    N18      N        0.92902    0.57113    0.20007    1.000
    C106     C        0.12500    0.68375    0.64910    1.000
    H81      H        0.10320    0.64730    0.61980    1.000
    C107     C        0.18619    0.68480    0.74960    1.000
    H82      H        0.20630    0.64940    0.78710    1.000
    C108     C        0.21700    0.73710    0.79370    1.000
    H83      H        0.25810    0.73860    0.86290    1.000
    C109     C        0.18750    0.78830    0.73620    1.000
    H84      H        0.20830    0.82500    0.76600    1.000
    C110     C        0.12714    0.78549    0.63440    1.000
    C111     C        0.09268    0.83684    0.56370    1.000
    C112     C        0.11650    0.89425    0.59030    1.000
    H85      H        0.15700    0.90260    0.65790    1.000
    C113     C        0.08080    0.93916    0.51740    1.000
    H86      H        0.09670    0.97840    0.53430    1.000
    C114     C        0.02160    0.92601    0.41970    1.000
    H87      H        0.99640    0.95600    0.36870    1.000
    C115     C        0.99944    0.86816    0.39730    1.000
    H88      H        0.95850    0.85920    0.33070    1.000
    C116     C        0.85574    0.57621    0.15170    1.000
    H89      H        0.83460    0.61400    0.13480    1.000
    C117     C        0.81027    0.52714    0.12590    1.000
    H90      H        0.75890    0.53160    0.09210    1.000
    C118     C        0.84090    0.47262    0.14990    1.000
    H91      H        0.81070    0.43900    0.13280    1.000
    C119     C        0.91660    0.46675    0.19970    1.000
    H92      H        0.93840    0.42920    0.21710    1.000
    C120     C        0.95977    0.51718    0.22360    1.000
    C121     C        0.89649    0.73670    0.21410    1.000
    C122     C        0.82676    0.76325    0.13450    1.000
    H93      H        0.81160    0.79950    0.15360    1.000
    C123     C        0.78501    0.73802    0.03780    1.000
    H94      H        0.80160    0.70280    0.01710    1.000
    C124     C        0.93080    0.62700    0.44120    1.000
    C125     C        0.93517    0.56179    0.45370    1.000
    H95      H        0.89100    0.54060    0.43320    1.000
    C126     C        0.99797    0.53170    0.49220    1.000
    H96      H        0.04210    0.55270    0.51020    1.000
    Cu7      Cu       0.49556    0.23885    0.04798    1.000
    O25      O        0.57769    0.25761    0.18852    1.000
    O26      O        0.57671    0.19520    0.32350    1.000
    O27      O        0.51219    0.15322    0.05999    1.000
    O28      O        0.62719    0.15174    0.06720    1.000
    N19      N        0.40429    0.23317    0.90790    1.000
    N20      N        0.46563    0.32417    0.03259    1.000
    N21      N        0.57098    0.07113    0.29993    1.000
    C127     C        0.37500    0.18375    0.85090    1.000
    H97      H        0.39680    0.14730    0.88020    1.000
    C128     C        0.31381    0.18480    0.75040    1.000
    H98      H        0.29370    0.14940    0.71290    1.000
    C129     C        0.28300    0.23710    0.70630    1.000
    H99      H        0.24190    0.23860    0.63710    1.000
    C130     C        0.31250    0.28830    0.76380    1.000
    H100     H        0.29170    0.32500    0.73400    1.000
    C131     C        0.37286    0.28549    0.86560    1.000
    C132     C        0.40732    0.33684    0.93630    1.000
    C133     C        0.38350    0.39425    0.90970    1.000
    H101     H        0.34300    0.40260    0.84210    1.000
    C134     C        0.41920    0.43916    0.98260    1.000
    H102     H        0.40330    0.47840    0.96570    1.000
    C135     C        0.47840    0.42601    0.08030    1.000
    H103     H        0.50360    0.45600    0.13130    1.000
    C136     C        0.50056    0.36816    0.10270    1.000
    H104     H        0.54150    0.35920    0.16930    1.000
    C137     C        0.64426    0.07621    0.34830    1.000
    H105     H        0.66540    0.11400    0.36520    1.000
    C138     C        0.68973    0.02714    0.37410    1.000
    H106     H        0.74110    0.03160    0.40790    1.000
    C139     C        0.65910    0.97262    0.35010    1.000
    H107     H        0.68930    0.93900    0.36720    1.000
    C140     C        0.58340    0.96675    0.30030    1.000
    H108     H        0.56160    0.92920    0.28290    1.000
    C141     C        0.54023    0.01718    0.27640    1.000
    C142     C        0.60351    0.23670    0.28590    1.000
    C143     C        0.67324    0.26325    0.36550    1.000
    H109     H        0.68840    0.29950    0.34640    1.000
    C144     C        0.71499    0.23802    0.46220    1.000
    H110     H        0.69840    0.20280    0.48290    1.000
    C145     C        0.56920    0.12700    0.05880    1.000
    C146     C        0.56483    0.06179    0.04630    1.000
    H111     H        0.60900    0.04060    0.06680    1.000
    C147     C        0.50203    0.03170    0.00780    1.000
    H112     H        0.45790    0.05270    0.98980    1.000
    Cu8      Cu       0.99556    0.73885    0.04798    1.000
    O29      O        0.07769    0.75761    0.18852    1.000
    O30      O        0.07671    0.69520    0.32350    1.000
    O31      O        0.01219    0.65322    0.05999    1.000
    O32      O        0.12719    0.65174    0.06720    1.000
    N22      N        0.90429    0.73317    0.90790    1.000
    N23      N        0.96563    0.82417    0.03259    1.000
    N24      N        0.07098    0.57113    0.29993    1.000
    C148     C        0.87500    0.68375    0.85090    1.000
    H113     H        0.89680    0.64730    0.88020    1.000
    C149     C        0.81381    0.68480    0.75040    1.000
    H114     H        0.79370    0.64940    0.71290    1.000
    C150     C        0.78300    0.73710    0.70630    1.000
    H115     H        0.74190    0.73860    0.63710    1.000
    C151     C        0.81250    0.78830    0.76380    1.000
    H116     H        0.79170    0.82500    0.73400    1.000
    C152     C        0.87286    0.78549    0.86560    1.000
    C153     C        0.90732    0.83684    0.93630    1.000
    C154     C        0.88350    0.89425    0.90970    1.000
    H117     H        0.84300    0.90260    0.84210    1.000
    C155     C        0.91920    0.93916    0.98260    1.000
    H118     H        0.90330    0.97840    0.96570    1.000
    C156     C        0.97840    0.92601    0.08030    1.000
    H119     H        0.00360    0.95600    0.13130    1.000
    C157     C        0.00056    0.86816    0.10270    1.000
    H120     H        0.04150    0.85920    0.16930    1.000
    C158     C        0.14426    0.57621    0.34830    1.000
    H121     H        0.16540    0.61400    0.36520    1.000
    C159     C        0.18973    0.52714    0.37410    1.000
    H122     H        0.24110    0.53160    0.40790    1.000
    C160     C        0.15910    0.47262    0.35010    1.000
    H123     H        0.18930    0.43900    0.36720    1.000
    C161     C        0.08340    0.46675    0.30030    1.000
    H124     H        0.06160    0.42920    0.28290    1.000
    C162     C        0.04023    0.51718    0.27640    1.000
    C163     C        0.10351    0.73670    0.28590    1.000
    C164     C        0.17324    0.76325    0.36550    1.000
    H125     H        0.18840    0.79950    0.34640    1.000
    C165     C        0.21499    0.73802    0.46220    1.000
    H126     H        0.19840    0.70280    0.48290    1.000
    C166     C        0.06920    0.62700    0.05880    1.000
    C167     C        0.06483    0.56179    0.04630    1.000
    H127     H        0.10900    0.54060    0.06680    1.000
    C168     C        0.00203    0.53170    0.00780    1.000
    H128     H        0.95790    0.55270    0.98980    1.000
    Cu9      Cu       0.50000    0.86212    0.75000    1.000
    Cu10     Cu       0.00000    0.36212    0.75000    1.000
    Cu11     Cu       0.50000    0.13788    0.25000    1.000
    Cu12     Cu       0.00000    0.63788    0.25000    1.000
