# CIF file generated by openbabel 3.1.0, see https://openbabel.org
data_I
_chemical_name_common 'image0'
_cell_length_a 9.3128
_cell_length_b 9.3227
_cell_length_c 9.3497
_cell_angle_alpha 103.17
_cell_angle_beta 93.6
_cell_angle_gamma 90.14
_space_group_name_H-M_alt 'P 1'
_space_group_name_Hall 'P 1'
loop_
    _symmetry_equiv_pos_as_xyz
    x,y,z
loop_
    _atom_site_label
    _atom_site_type_symbol
    _atom_site_fract_x
    _atom_site_fract_y
    _atom_site_fract_z
    _atom_site_occupancy
    Ga1      Ga       0.43464    0.13698    0.58999    1.000
    Ga2      Ga       0.84181    0.37514    0.57661    1.000
    Ga3      Ga       0.61302    0.39625    0.16493    1.000
    P1       P        0.35546    0.83302    0.64834    1.000
    P2       P        0.18078    0.37569    0.59385    1.000
    P3       P        0.62255    0.37697    0.82798    1.000
    O1       O        0.38770    0.78460    0.79470    1.000
    O2       O        0.46330    0.76470    0.53690    1.000
    O3       O        0.20370    0.76980    0.58620    1.000
    O4       O        0.34960    0.99960    0.68840    1.000
    O5       O        0.25950    0.23310    0.56380    1.000
    O6       O        0.17520    0.44090    0.45640    1.000
    O7       O        0.02730    0.34340    0.62890    1.000
    O8       O        0.24590    0.48820    0.72700    1.000
    O9       O        0.50340    0.26550    0.77070    1.000
    O10      O        0.75450    0.35360    0.73740    1.000
    O11      O        0.56700    0.53260    0.83550    1.000
    O12      O        0.67870    0.36410    0.98140    1.000
    F1       F        0.39000    0.98300    0.40930    1.000
    Ga4      Ga       0.56536    0.86302    0.41001    1.000
    Ga5      Ga       0.15819    0.62486    0.42339    1.000
    Ga6      Ga       0.38698    0.60375    0.83507    1.000
    P4       P        0.64454    0.16698    0.35166    1.000
    P5       P        0.81922    0.62431    0.40615    1.000
    P6       P        0.37745    0.62303    0.17202    1.000
    O13      O        0.61230    0.21540    0.20530    1.000
    O14      O        0.53670    0.23530    0.46310    1.000
    O15      O        0.79630    0.23020    0.41380    1.000
    O16      O        0.65040    0.00040    0.31160    1.000
    O17      O        0.74050    0.76690    0.43620    1.000
    O18      O        0.82480    0.55910    0.54360    1.000
    O19      O        0.97270    0.65660    0.37110    1.000
    O20      O        0.75410    0.51180    0.27300    1.000
    O21      O        0.49660    0.73450    0.22930    1.000
    O22      O        0.24550    0.64640    0.26260    1.000
    O23      O        0.43300    0.46740    0.16450    1.000
    O24      O        0.32130    0.63590    0.01860    1.000
    F2       F        0.61000    0.01700    0.59070    1.000
