# CIF file generated by openbabel 3.1.0, see https://openbabel.org
data_I
_chemical_name_common 'image0'
_cell_length_a 8.4321
_cell_length_b 13.1871
_cell_length_c 9.5505
_cell_angle_alpha 90
_cell_angle_beta 94.385
_cell_angle_gamma 90
_space_group_name_H-M_alt 'P 1'
_space_group_name_Hall 'P 1'
loop_
    _symmetry_equiv_pos_as_xyz
    x,y,z
loop_
    _atom_site_label
    _atom_site_type_symbol
    _atom_site_fract_x
    _atom_site_fract_y
    _atom_site_fract_z
    _atom_site_occupancy
    Tb1      Tb       0.53853    0.27011    0.48942    1.000
    C1       C        0.53520    0.38870    0.74230    1.000
    C2       C        0.52080    0.45080    0.87270    1.000
    C3       C        0.61810    0.42470    0.99440    1.000
    C4       C        0.40470    0.52680    0.87690    1.000
    C5       C        0.75260    0.35140    0.98480    1.000
    C6       C        0.29570    0.55220    0.74540    1.000
    O1       O        0.54350    0.43220    0.62290    1.000
    O2       O        0.53390    0.29270    0.75040    1.000
    O3       O        0.78320    0.28570    0.08140    1.000
    O4       O        0.83860    0.35750    0.88270    1.000
    O5       O        0.34440    0.61340    0.65710    1.000
    O6       O        0.15870    0.51300    0.73850    1.000
    Tb2      Tb       0.96147    0.77011    0.01058    1.000
    C7       C        0.96480    0.88870    0.75770    1.000
    C8       C        0.97920    0.95080    0.62730    1.000
    C9       C        0.88190    0.92470    0.50560    1.000
    C10      C        0.09530    0.02680    0.62310    1.000
    C11      C        0.74740    0.85140    0.51520    1.000
    C12      C        0.20430    0.05220    0.75460    1.000
    O7       O        0.95650    0.93220    0.87710    1.000
    O8       O        0.96610    0.79270    0.74960    1.000
    O9       O        0.71680    0.78570    0.41860    1.000
    O10      O        0.66140    0.85750    0.61730    1.000
    O11      O        0.15560    0.11340    0.84290    1.000
    O12      O        0.34130    0.01300    0.76150    1.000
    Tb3      Tb       0.46147    0.72989    0.51058    1.000
    C13      C        0.46480    0.61130    0.25770    1.000
    C14      C        0.47920    0.54920    0.12730    1.000
    C15      C        0.38190    0.57530    0.00560    1.000
    C16      C        0.59530    0.47320    0.12310    1.000
    C17      C        0.24740    0.64860    0.01520    1.000
    C18      C        0.70430    0.44780    0.25460    1.000
    O13      O        0.45650    0.56780    0.37710    1.000
    O14      O        0.46610    0.70730    0.24960    1.000
    O15      O        0.21680    0.71430    0.91860    1.000
    O16      O        0.16140    0.64250    0.11730    1.000
    O17      O        0.65560    0.38660    0.34290    1.000
    O18      O        0.84130    0.48700    0.26150    1.000
    Tb4      Tb       0.03853    0.22989    0.98942    1.000
    C19      C        0.03520    0.11130    0.24230    1.000
    C20      C        0.02080    0.04920    0.37270    1.000
    C21      C        0.11810    0.07530    0.49440    1.000
    C22      C        0.90470    0.97320    0.37690    1.000
    C23      C        0.25260    0.14860    0.48480    1.000
    C24      C        0.79570    0.94780    0.24540    1.000
    O19      O        0.04350    0.06780    0.12290    1.000
    O20      O        0.03390    0.20730    0.25040    1.000
    O21      O        0.28320    0.21430    0.58140    1.000
    O22      O        0.33860    0.14250    0.38270    1.000
    O23      O        0.84440    0.88660    0.15710    1.000
    O24      O        0.65870    0.98700    0.23850    1.000
