# CIF file generated by openbabel 3.1.0, see https://openbabel.org
data_I
_chemical_name_common 'ZNGLUD01_clean'
_cell_length_a 7.177
_cell_length_b 10.396
_cell_length_c 11.121
_cell_angle_alpha 90
_cell_angle_beta 90
_cell_angle_gamma 90
_space_group_name_H-M_alt 'P 1'
_space_group_name_Hall 'P 1'
loop_
    _symmetry_equiv_pos_as_xyz
    x,y,z
loop_
    _atom_site_label
    _atom_site_type_symbol
    _atom_site_fract_x
    _atom_site_fract_y
    _atom_site_fract_z
    _atom_site_occupancy
    Zn1      Zn       0.37744    0.07091    0.04091    1.000
    Zn2      Zn       0.12256    0.92909    0.54091    1.000
    Zn3      Zn       0.62256    0.57091    0.45909    1.000
    Zn4      Zn       0.87744    0.42909    0.95909    1.000
    H1       H        0.78790    0.12360    0.81940    1.000
    H2       H        0.65190    0.00320    0.80200    1.000
    H3       H        0.62030    0.24030    0.67430    1.000
    H4       H        0.48770    0.11920    0.65130    1.000
    H5       H        0.34160    0.27710    0.77230    1.000
    H6       H        0.31300    0.04100    0.81600    1.000
    H7       H        0.19900    0.12900    0.86600    1.000
    H8       H        0.71210    0.87640    0.31940    1.000
    H9       H        0.84810    0.99680    0.30200    1.000
    H10      H        0.87970    0.75970    0.17430    1.000
    H11      H        0.01230    0.88080    0.15130    1.000
    H12      H        0.15840    0.72290    0.27230    1.000
    H13      H        0.18700    0.95900    0.31600    1.000
    H14      H        0.30100    0.87100    0.36600    1.000
    H15      H        0.21210    0.62360    0.68060    1.000
    H16      H        0.34810    0.50320    0.69800    1.000
    H17      H        0.37970    0.74030    0.82570    1.000
    H18      H        0.51230    0.61920    0.84870    1.000
    H19      H        0.65840    0.77710    0.72770    1.000
    H20      H        0.68700    0.54100    0.68400    1.000
    H21      H        0.80100    0.62900    0.63400    1.000
    H22      H        0.28790    0.37640    0.18060    1.000
    H23      H        0.15190    0.49680    0.19800    1.000
    H24      H        0.12030    0.25970    0.32570    1.000
    H25      H        0.98770    0.38080    0.34870    1.000
    H26      H        0.84160    0.22290    0.22770    1.000
    H27      H        0.81300    0.45900    0.18400    1.000
    H28      H        0.69900    0.37100    0.13400    1.000
    C1       C        0.83780    0.02460    0.66171    1.000
    C2       C        0.71120    0.07650    0.75991    1.000
    C3       C        0.56060    0.16520    0.71338    1.000
    C4       C        0.53650    0.28260    0.90942    1.000
    C5       C        0.42800    0.21340    0.81014    1.000
    C6       C        0.66220    0.97540    0.16171    1.000
    C7       C        0.78880    0.92350    0.25991    1.000
    C8       C        0.93940    0.83480    0.21338    1.000
    C9       C        0.96350    0.71740    0.40942    1.000
    C10      C        0.07200    0.78660    0.31014    1.000
    C11      C        0.16220    0.52460    0.83829    1.000
    C12      C        0.28880    0.57650    0.74009    1.000
    C13      C        0.43940    0.66520    0.78662    1.000
    C14      C        0.46350    0.78260    0.59058    1.000
    C15      C        0.57200    0.71340    0.68986    1.000
    C16      C        0.33780    0.47540    0.33829    1.000
    C17      C        0.21120    0.42350    0.24009    1.000
    C18      C        0.06060    0.33480    0.28662    1.000
    C19      C        0.03650    0.21740    0.09058    1.000
    C20      C        0.92800    0.28660    0.18986    1.000
    N1       N        0.31440    0.10852    0.86095    1.000
    N2       N        0.18560    0.89148    0.36095    1.000
    N3       N        0.68560    0.60852    0.63905    1.000
    N4       N        0.81440    0.39148    0.13905    1.000
    O1       O        0.98390    0.96448    0.69676    1.000
    O2       O        0.80240    0.03898    0.55321    1.000
    O3       O        0.52040    0.24491    0.01569    1.000
    O4       O        0.64000    0.37300    0.87486    1.000
    O5       O        0.51610    0.03552    0.19676    1.000
    O6       O        0.69760    0.96102    0.05321    1.000
    O7       O        0.97960    0.75509    0.51569    1.000
    O8       O        0.86000    0.62700    0.37486    1.000
    O9       O        0.01610    0.46448    0.80324    1.000
    O10      O        0.19760    0.53898    0.94679    1.000
    O11      O        0.47960    0.74491    0.48431    1.000
    O12      O        0.36000    0.87300    0.62514    1.000
    O13      O        0.48390    0.53552    0.30324    1.000
    O14      O        0.30240    0.46102    0.44679    1.000
    O15      O        0.02040    0.25509    0.98431    1.000
    O16      O        0.14000    0.12700    0.12514    1.000
