data_functionalizedCrystal
_audit_creation_method	'EQeq! by Chris Wilmer'
_symmetry_space_group_name_H-M	'P1'
_symmetry_Int_Tables_number	1
_symmetry_cell_setting	triclinic
loop_
_symmetry_equiv_pos_as_xyz
  x,y,z
_cell_length_a	25.4614
_cell_length_b	25.4614
_cell_length_c	14.2628
_cell_angle_alpha	90
_cell_angle_beta	90
_cell_angle_gamma	120
loop_
_atom_site_label
_atom_site_type_symbol
_atom_site_fract_x
_atom_site_fract_y
_atom_site_fract_z
_atom_site_charge
Mof_Mn	Mn	0.08062	0.40207	0.18801	0.745
Mof_O 	O 	0.06808	0.41727	0.33383	-0.352
Mof_N 	N 	0.09096	0.49346	0.1908	-0.169
Mof_O 	O 	0.0591	0.47636	0.4368	-0.369
Mof_C 	C 	0.0947	0.53713	0.1332	0.064
Mof_C 	C 	0.1144	0.54213	0.0345	0.132
Mof_C 	C 	0.0655	0.464	0.3542	0.336
Mof_C 	C 	0.07294	0.50515	0.2755	-0.044
Mof_C 	C 	0.1508	0.5477	0.8493	-0.362
Mof_H 	H 	0.1634	0.5503	0.7874	0.153
Mof_C 	C 	0.0868	0.5575	0.9634	-0.313
Mof_H 	H 	0.0564	0.5662	0.9781	0.143
Mof_C 	C 	0.1047	0.5599	0.8715	0.385
Mof_C 	C 	0.1773	0.532	0.9178	0.21
Mof_H 	H 	0.2077	0.5233	0.9027	-0.042
Mof_C 	C 	0.1591	0.5289	0.0115	-0.231
Mof_H 	H 	0.1773	0.5179	0.0582	0.106
Mof_C 	C 	0.06606	0.55569	0.2651	-0.053
Mof_O 	O 	0.0322	0.57486	0.4108	-0.379
Mof_C 	C 	0.0477	0.58981	0.3279	0.333
Mof_O 	O 	0.081	0.5752	0.8	-0.476
Mof_H 	H 	0.0794	0.5557	0.7533	0.249
Mof_O 	O 	0.04729	0.63524	0.2916	-0.358
Mof_N 	N 	0.0801	0.57557	0.1739	-0.173
Mof_Mn	Mn	0.74729	0.7354	0.52134	0.75
Mof_O 	O 	0.73475	0.7506	0.66716	-0.351
Mof_N 	N 	0.75763	0.82679	0.52413	-0.169
Mof_O 	O 	0.72577	0.80969	0.77013	-0.369
Mof_C 	C 	0.76137	0.87046	0.46653	0.066
Mof_C 	C 	0.78107	0.87546	0.36783	0.134
Mof_C 	C 	0.73217	0.79733	0.68753	0.337
Mof_C 	C 	0.73961	0.83848	0.60883	-0.042
Mof_C 	C 	0.81747	0.88103	0.18263	-0.36
Mof_H 	H 	0.83007	0.88363	0.12073	0.155
Mof_C 	C 	0.75347	0.89083	0.29673	-0.314
Mof_H 	H 	0.72307	0.89953	0.31143	0.147
Mof_C 	C 	0.77137	0.89323	0.20483	0.387
Mof_C 	C 	0.84397	0.86533	0.25113	0.21
Mof_H 	H 	0.87437	0.85663	0.23603	-0.04
Mof_C 	C 	0.82577	0.86223	0.34483	-0.228
Mof_H 	H 	0.84397	0.85123	0.39153	0.107
Mof_C 	C 	0.73273	0.88902	0.59843	-0.05
Mof_O 	O 	0.69887	0.90819	0.74413	-0.376
Mof_C 	C 	0.71437	0.92314	0.66123	0.335
Mof_O 	O 	0.74767	0.90853	0.13333	-0.471
Mof_H 	H 	0.74607	0.88903	0.08663	0.251
Mof_O 	O 	0.71396	0.96857	0.62493	-0.351
Mof_N 	N 	0.74677	0.9089	0.50723	-0.173
Mof_Mn	Mn	0.41395	0.06874	0.85468	0.743
Mof_O 	O 	0.40141	0.08394	0.0005	-0.353
Mof_N 	N 	0.42429	0.16013	0.85747	-0.169
Mof_O 	O 	0.39243	0.14303	0.10347	-0.37
Mof_C 	C 	0.42803	0.2038	0.79987	0.064
Mof_C 	C 	0.44773	0.2088	0.70117	0.133
Mof_C 	C 	0.39883	0.13067	0.02087	0.338
Mof_C 	C 	0.40627	0.17182	0.94217	-0.044
Mof_C 	C 	0.48413	0.21437	0.51597	-0.361
Mof_H 	H 	0.49673	0.21697	0.45407	0.153
Mof_C 	C 	0.42013	0.22417	0.63007	-0.315
Mof_H 	H 	0.38973	0.23287	0.64477	0.146
Mof_C 	C 	0.43803	0.22657	0.53817	0.386
Mof_C 	C 	0.51063	0.19867	0.58447	0.209
Mof_H 	H 	0.54103	0.18997	0.56937	-0.042
Mof_C 	C 	0.49243	0.19557	0.67817	-0.23
Mof_H 	H 	0.51063	0.18457	0.72487	0.106
Mof_C 	C 	0.39939	0.22236	0.93177	-0.051
Mof_O 	O 	0.36553	0.24153	0.07747	-0.378
Mof_C 	C 	0.38103	0.25648	0.99457	0.333
Mof_O 	O 	0.41433	0.24187	0.46667	-0.474
Mof_H 	H 	0.41273	0.22237	0.41997	0.25
Mof_O 	O 	0.38062	0.30191	0.95827	-0.355
Mof_N 	N 	0.41343	0.24224	0.84057	-0.173
Mof_Mn	Mn	0.59793	0.67855	0.18801	0.75
Mof_O 	O 	0.58273	0.65081	0.33383	-0.351
Mof_N 	N 	0.50654	0.5975	0.1908	-0.169
Mof_O 	O 	0.52364	0.58274	0.4368	-0.369
Mof_C 	C 	0.46287	0.55757	0.1332	0.064
Mof_C 	C 	0.45787	0.57227	0.0345	0.133
Mof_C 	C 	0.536	0.6015	0.3542	0.337
Mof_C 	C 	0.49485	0.56779	0.2755	-0.043
Mof_C 	C 	0.4523	0.6031	0.8493	-0.362
Mof_H 	H 	0.4497	0.6131	0.7874	0.153
Mof_C 	C 	0.4425	0.5293	0.9634	-0.315
Mof_H 	H 	0.4338	0.4902	0.9781	0.146
Mof_C 	C 	0.4401	0.5448	0.8715	0.387
Mof_C 	C 	0.468	0.6453	0.9178	0.21
Mof_H 	H 	0.4767	0.6844	0.9027	-0.042
Mof_C 	C 	0.4711	0.6302	0.0115	-0.231
Mof_H 	H 	0.4821	0.6594	0.0582	0.106
Mof_C 	C 	0.44431	0.51037	0.2651	-0.051
Mof_O 	O 	0.42514	0.45734	0.4108	-0.378
Mof_C 	C 	0.41019	0.45789	0.3279	0.334
Mof_O 	O 	0.4248	0.5058	0.8	-0.474
Mof_H 	H 	0.4443	0.5237	0.7533	0.25
Mof_O 	O 	0.36476	0.41205	0.2916	-0.355
Mof_N 	N 	0.42443	0.50453	0.1739	-0.173
Mof_Mn	Mn	0.2646	0.01188	0.52134	0.733
Mof_O 	O 	0.2494	0.98414	0.66716	-0.34
Mof_N 	N 	0.17321	0.93083	0.52413	-0.165
Mof_O 	O 	0.19031	0.91607	0.77013	-0.366
Mof_C 	C 	0.12954	0.8909	0.46653	0.058
Mof_C 	C 	0.12454	0.9056	0.36783	0.151
Mof_C 	C 	0.20267	0.93483	0.68753	0.335
Mof_C 	C 	0.16152	0.90112	0.60883	-0.04
Mof_C 	C 	0.11897	0.93643	0.18263	-0.395
Mof_H 	H 	0.11637	0.94643	0.12073	0.166
Mof_C 	C 	0.10917	0.86263	0.29673	-0.333
Mof_H 	H 	0.10047	0.82353	0.31143	0.151
Mof_C 	C 	0.10677	0.87813	0.20483	0.405
Mof_C 	C 	0.13467	0.97863	0.25113	0.261
Mof_H 	H 	0.14337	0.01773	0.23603	-0.07
Mof_C 	C 	0.13777	0.96353	0.34483	-0.261
Mof_H 	H 	0.14877	0.99273	0.39153	0.121
Mof_C 	C 	0.11098	0.8437	0.59843	-0.053
Mof_O 	O 	0.09181	0.79067	0.74413	-0.38
Mof_C 	C 	0.07686	0.79122	0.66123	0.334
Mof_O 	O 	0.09147	0.83913	0.13333	-0.484
Mof_H 	H 	0.11097	0.85703	0.08663	0.253
Mof_O 	O 	0.03143	0.74538	0.62493	-0.359
Mof_N 	N 	0.0911	0.83786	0.50723	-0.172
Mof_Mn	Mn	0.93126	0.34522	0.85468	0.754
Mof_O 	O 	0.91606	0.31748	0.0005	-0.348
Mof_N 	N 	0.83987	0.26417	0.85747	-0.169
Mof_O 	O 	0.85697	0.24941	0.10347	-0.368
Mof_C 	C 	0.7962	0.22424	0.79987	0.064
Mof_C 	C 	0.7912	0.23894	0.70117	0.133
Mof_C 	C 	0.86933	0.26817	0.02087	0.339
Mof_C 	C 	0.82818	0.23446	0.94217	-0.045
Mof_C 	C 	0.78563	0.26977	0.51597	-0.361
Mof_H 	H 	0.78303	0.27977	0.45407	0.153
Mof_C 	C 	0.77583	0.19597	0.63007	-0.314
Mof_H 	H 	0.76713	0.15687	0.64477	0.145
Mof_C 	C 	0.77343	0.21147	0.53817	0.386
Mof_C 	C 	0.80133	0.31197	0.58447	0.209
Mof_H 	H 	0.81003	0.35107	0.56937	-0.041
Mof_C 	C 	0.80443	0.29687	0.67817	-0.229
Mof_H 	H 	0.81543	0.32607	0.72487	0.105
Mof_C 	C 	0.77764	0.17704	0.93177	-0.051
Mof_O 	O 	0.75847	0.12401	0.07747	-0.378
Mof_C 	C 	0.74352	0.12456	0.99457	0.332
Mof_O 	O 	0.75813	0.17247	0.46667	-0.476
Mof_H 	H 	0.77763	0.19037	0.41997	0.251
Mof_O 	O 	0.69809	0.07872	0.95827	-0.358
Mof_N 	N 	0.75776	0.1712	0.84057	-0.173
Mof_Mn	Mn	0.32145	0.91938	0.18801	0.755
Mof_O 	O 	0.34919	0.93192	0.33383	-0.347
Mof_N 	N 	0.4025	0.90904	0.1908	-0.169
Mof_O 	O 	0.41726	0.9409	0.4368	-0.361
Mof_C 	C 	0.44243	0.9053	0.1332	0.066
Mof_C 	C 	0.42773	0.8856	0.0345	0.134
Mof_C 	C 	0.3985	0.9345	0.3542	0.336
Mof_C 	C 	0.43221	0.92706	0.2755	-0.041
Mof_C 	C 	0.3969	0.8492	0.8493	-0.363
Mof_H 	H 	0.3869	0.8366	0.7874	0.155
Mof_C 	C 	0.4707	0.9132	0.9634	-0.313
Mof_H 	H 	0.5098	0.9436	0.9781	0.149
Mof_C 	C 	0.4552	0.8953	0.8715	0.389
Mof_C 	C 	0.3547	0.8227	0.9178	0.214
Mof_H 	H 	0.3156	0.7923	0.9027	-0.043
Mof_C 	C 	0.3698	0.8409	0.0115	-0.233
Mof_H 	H 	0.3406	0.8227	0.0582	0.106
Mof_C 	C 	0.48963	0.93394	0.2651	-0.049
Mof_O 	O 	0.54266	0.9678	0.4108	-0.37
Mof_C 	C 	0.54211	0.9523	0.3279	0.333
Mof_O 	O 	0.4942	0.919	0.8	-0.472
Mof_H 	H 	0.4763	0.9206	0.7533	0.253
Mof_O 	O 	0.58795	0.95271	0.2916	-0.352
Mof_N 	N 	0.49547	0.9199	0.1739	-0.173
Mof_Mn	Mn	0.98812	0.25271	0.52134	0.767
Mof_O 	O 	0.01586	0.26525	0.66716	-0.36
Mof_N 	N 	0.06917	0.24237	0.52413	-0.174
Mof_O 	O 	0.08393	0.27423	0.77013	-0.372
Mof_C 	C 	0.1091	0.23863	0.46653	0.07
Mof_C 	C 	0.0944	0.21893	0.36783	0.111
Mof_C 	C 	0.06517	0.26783	0.68753	0.337
Mof_C 	C 	0.09888	0.26039	0.60883	-0.045
Mof_C 	C 	0.06357	0.18253	0.18263	-0.324
Mof_H 	H 	0.05357	0.16993	0.12073	0.136
Mof_C 	C 	0.13737	0.24653	0.29673	-0.295
Mof_H 	H 	0.17647	0.27693	0.31143	0.139
Mof_C 	C 	0.12187	0.22863	0.20483	0.364
Mof_C 	C 	0.02137	0.15603	0.25113	0.148
Mof_H 	H 	0.98227	0.12563	0.23603	-0.012
Mof_C 	C 	0.03647	0.17423	0.34483	-0.196
Mof_H 	H 	0.00727	0.15603	0.39153	0.087
Mof_C 	C 	0.1563	0.26727	0.59843	-0.051
Mof_O 	O 	0.20933	0.30113	0.74413	-0.378
Mof_C 	C 	0.20878	0.28563	0.66123	0.334
Mof_O 	O 	0.16087	0.25233	0.13333	-0.467
Mof_H 	H 	0.14297	0.25393	0.08663	0.247
Mof_O 	O 	0.25462	0.28604	0.62493	-0.355
Mof_N 	N 	0.16214	0.25323	0.50723	-0.174
Mof_Mn	Mn	0.65478	0.58605	0.85468	0.75
Mof_O 	O 	0.68252	0.59859	0.0005	-0.351
Mof_N 	N 	0.73583	0.57571	0.85747	-0.169
Mof_O 	O 	0.75059	0.60757	0.10347	-0.369
Mof_C 	C 	0.77576	0.57197	0.79987	0.064
Mof_C 	C 	0.76106	0.55227	0.70117	0.133
Mof_C 	C 	0.73183	0.60117	0.02087	0.337
Mof_C 	C 	0.76554	0.59373	0.94217	-0.044
Mof_C 	C 	0.73023	0.51587	0.51597	-0.361
Mof_H 	H 	0.72023	0.50327	0.45407	0.153
Mof_C 	C 	0.80403	0.57987	0.63007	-0.315
Mof_H 	H 	0.84313	0.61027	0.64477	0.147
Mof_C 	C 	0.78853	0.56197	0.53817	0.386
Mof_C 	C 	0.68803	0.48937	0.58447	0.209
Mof_H 	H 	0.64893	0.45897	0.56937	-0.042
Mof_C 	C 	0.70313	0.50757	0.67817	-0.23
Mof_H 	H 	0.67393	0.48937	0.72487	0.106
Mof_C 	C 	0.82296	0.60061	0.93177	-0.051
Mof_O 	O 	0.87599	0.63447	0.07747	-0.375
Mof_C 	C 	0.87544	0.61897	0.99457	0.333
Mof_O 	O 	0.82753	0.58567	0.46667	-0.473
Mof_H 	H 	0.80963	0.58727	0.41997	0.25
Mof_O 	O 	0.92128	0.61938	0.95827	-0.352
Mof_N 	N 	0.8288	0.58657	0.84057	-0.173
Mof_Mn	Mn	0.91938	0.59793	0.81199	0.755
Mof_O 	O 	0.93192	0.58273	0.66617	-0.347
Mof_N 	N 	0.90904	0.50654	0.8092	-0.169
Mof_O 	O 	0.9409	0.52364	0.5632	-0.361
Mof_C 	C 	0.9053	0.46287	0.8668	0.066
Mof_C 	C 	0.8856	0.45787	0.9655	0.133
Mof_C 	C 	0.9345	0.536	0.6458	0.336
Mof_C 	C 	0.92706	0.49485	0.7245	-0.041
Mof_C 	C 	0.8492	0.4523	0.1507	-0.362
Mof_H 	H 	0.8366	0.4497	0.2126	0.154
Mof_C 	C 	0.9132	0.4425	0.0366	-0.313
Mof_H 	H 	0.9436	0.4338	0.0219	0.149
Mof_C 	C 	0.8953	0.4401	0.1285	0.389
Mof_C 	C 	0.8227	0.468	0.0822	0.212
Mof_H 	H 	0.7923	0.4767	0.0973	-0.043
Mof_C 	C 	0.8409	0.4711	0.9885	-0.232
Mof_H 	H 	0.8227	0.4821	0.9418	0.106
Mof_C 	C 	0.93394	0.44431	0.7349	-0.049
Mof_O 	O 	0.9678	0.42514	0.5892	-0.37
Mof_C 	C 	0.9523	0.41019	0.6721	0.333
Mof_O 	O 	0.919	0.4248	0.2	-0.472
Mof_H 	H 	0.9206	0.4443	0.2467	0.253
Mof_O 	O 	0.95271	0.36476	0.7084	-0.352
Mof_N 	N 	0.9199	0.42443	0.8261	-0.173
Mof_Mn	Mn	0.58605	0.93126	0.14532	0.755
Mof_O 	O 	0.59859	0.91606	0.9995	-0.348
Mof_N 	N 	0.57571	0.83987	0.14253	-0.17
Mof_O 	O 	0.60757	0.85697	0.89653	-0.368
Mof_C 	C 	0.57197	0.7962	0.20013	0.065
Mof_C 	C 	0.55227	0.7912	0.29883	0.133
Mof_C 	C 	0.60117	0.86933	0.97913	0.337
Mof_C 	C 	0.59373	0.82818	0.05783	-0.044
Mof_C 	C 	0.51587	0.78563	0.48403	-0.361
Mof_H 	H 	0.50327	0.78303	0.54593	0.153
Mof_C 	C 	0.57987	0.77583	0.36993	-0.315
Mof_H 	H 	0.61027	0.76713	0.35523	0.146
Mof_C 	C 	0.56197	0.77343	0.46183	0.386
Mof_C 	C 	0.48937	0.80133	0.41553	0.209
Mof_H 	H 	0.45897	0.81003	0.43063	-0.041
Mof_C 	C 	0.50757	0.80443	0.32183	-0.229
Mof_H 	H 	0.48937	0.81543	0.27513	0.105
Mof_C 	C 	0.60061	0.77764	0.06823	-0.051
Mof_O 	O 	0.63447	0.75847	0.92253	-0.378
Mof_C 	C 	0.61897	0.74352	0.00543	0.334
Mof_O 	O 	0.58567	0.75813	0.53333	-0.474
Mof_H 	H 	0.58727	0.77763	0.58003	0.25
Mof_O 	O 	0.61938	0.69809	0.04173	-0.355
Mof_N 	N 	0.58657	0.75776	0.15943	-0.173
Mof_Mn	Mn	0.25271	0.2646	0.47866	0.75
Mof_O 	O 	0.26525	0.2494	0.33284	-0.351
Mof_N 	N 	0.24237	0.17321	0.47587	-0.169
Mof_O 	O 	0.27423	0.19031	0.22987	-0.37
Mof_C 	C 	0.23863	0.12954	0.53347	0.063
Mof_C 	C 	0.21893	0.12454	0.63217	0.132
Mof_C 	C 	0.26783	0.20267	0.31247	0.336
Mof_C 	C 	0.26039	0.16152	0.39117	-0.043
Mof_C 	C 	0.18253	0.11897	0.81737	-0.362
Mof_H 	H 	0.16993	0.11637	0.87927	0.151
Mof_C 	C 	0.24653	0.10917	0.70327	-0.316
Mof_H 	H 	0.27693	0.10047	0.68857	0.145
Mof_C 	C 	0.22863	0.10677	0.79517	0.385
Mof_C 	C 	0.15603	0.13467	0.74887	0.208
Mof_H 	H 	0.12563	0.14337	0.76397	-0.044
Mof_C 	C 	0.17423	0.13777	0.65517	-0.231
Mof_H 	H 	0.15603	0.14877	0.60847	0.104
Mof_C 	C 	0.26727	0.11098	0.40157	-0.053
Mof_O 	O 	0.30113	0.09181	0.25587	-0.38
Mof_C 	C 	0.28563	0.07686	0.33877	0.334
Mof_O 	O 	0.25233	0.09147	0.86667	-0.477
Mof_H 	H 	0.25393	0.11097	0.91337	0.25
Mof_O 	O 	0.28604	0.03143	0.37507	-0.358
Mof_N 	N 	0.25323	0.0911	0.49277	-0.173
Mof_Mn	Mn	0.40207	0.32145	0.81199	0.75
Mof_O 	O 	0.41727	0.34919	0.66617	-0.351
Mof_N 	N 	0.49346	0.4025	0.8092	-0.169
Mof_O 	O 	0.47636	0.41726	0.5632	-0.369
Mof_C 	C 	0.53713	0.44243	0.8668	0.064
Mof_C 	C 	0.54213	0.42773	0.9655	0.133
Mof_C 	C 	0.464	0.3985	0.6458	0.337
Mof_C 	C 	0.50515	0.43221	0.7245	-0.043
Mof_C 	C 	0.5477	0.3969	0.1507	-0.362
Mof_H 	H 	0.5503	0.3869	0.2126	0.153
Mof_C 	C 	0.5575	0.4707	0.0366	-0.315
Mof_H 	H 	0.5662	0.5098	0.0219	0.146
Mof_C 	C 	0.5599	0.4552	0.1285	0.387
Mof_C 	C 	0.532	0.3547	0.0822	0.21
Mof_H 	H 	0.5233	0.3156	0.0973	-0.042
Mof_C 	C 	0.5289	0.3698	0.9885	-0.231
Mof_H 	H 	0.5179	0.3406	0.9418	0.106
Mof_C 	C 	0.55569	0.48963	0.7349	-0.051
Mof_O 	O 	0.57486	0.54266	0.5892	-0.378
Mof_C 	C 	0.58981	0.54211	0.6721	0.334
Mof_O 	O 	0.5752	0.4942	0.2	-0.474
Mof_H 	H 	0.5557	0.4763	0.2467	0.25
Mof_O 	O 	0.63524	0.58795	0.7084	-0.355
Mof_N 	N 	0.57557	0.49547	0.8261	-0.173
Mof_Mn	Mn	0.06874	0.65478	0.14532	0.743
Mof_O 	O 	0.08394	0.68252	0.9995	-0.352
Mof_N 	N 	0.16013	0.73583	0.14253	-0.169
Mof_O 	O 	0.14303	0.75059	0.89653	-0.37
Mof_C 	C 	0.2038	0.77576	0.20013	0.064
Mof_C 	C 	0.2088	0.76106	0.29883	0.133
Mof_C 	C 	0.13067	0.73183	0.97913	0.339
Mof_C 	C 	0.17182	0.76554	0.05783	-0.046
Mof_C 	C 	0.21437	0.73023	0.48403	-0.361
Mof_H 	H 	0.21697	0.72023	0.54593	0.153
Mof_C 	C 	0.22417	0.80403	0.36993	-0.315
Mof_H 	H 	0.23287	0.84313	0.35523	0.147
Mof_C 	C 	0.22657	0.78853	0.46183	0.386
Mof_C 	C 	0.19867	0.68803	0.41553	0.209
Mof_H 	H 	0.18997	0.64893	0.43063	-0.042
Mof_C 	C 	0.19557	0.70313	0.32183	-0.23
Mof_H 	H 	0.18457	0.67393	0.27513	0.106
Mof_C 	C 	0.22236	0.82296	0.06823	-0.05
Mof_O 	O 	0.24153	0.87599	0.92253	-0.374
Mof_C 	C 	0.25648	0.87544	0.00543	0.331
Mof_O 	O 	0.24187	0.82753	0.53333	-0.473
Mof_H 	H 	0.22237	0.80963	0.58003	0.25
Mof_O 	O 	0.30191	0.92128	0.04173	-0.352
Mof_N 	N 	0.24224	0.8288	0.15943	-0.174
Mof_Mn	Mn	0.7354	0.98812	0.47866	0.767
Mof_O 	O 	0.7506	0.01586	0.33284	-0.36
Mof_N 	N 	0.82679	0.06917	0.47587	-0.174
Mof_O 	O 	0.80969	0.08393	0.22987	-0.371
Mof_C 	C 	0.87046	0.1091	0.53347	0.071
Mof_C 	C 	0.87546	0.0944	0.63217	0.113
Mof_C 	C 	0.79733	0.06517	0.31247	0.338
Mof_C 	C 	0.83848	0.09888	0.39117	-0.045
Mof_C 	C 	0.88103	0.06357	0.81737	-0.323
Mof_H 	H 	0.88363	0.05357	0.87927	0.137
Mof_C 	C 	0.89083	0.13737	0.70327	-0.294
Mof_H 	H 	0.89953	0.17647	0.68857	0.14
Mof_C 	C 	0.89323	0.12187	0.79517	0.365
Mof_C 	C 	0.86533	0.02137	0.74887	0.15
Mof_H 	H 	0.85663	0.98227	0.76397	-0.01
Mof_C 	C 	0.86223	0.03647	0.65517	-0.195
Mof_H 	H 	0.85123	0.00727	0.60847	0.089
Mof_C 	C 	0.88902	0.1563	0.40157	-0.05
Mof_O 	O 	0.90819	0.20933	0.25587	-0.375
Mof_C 	C 	0.92314	0.20878	0.33877	0.335
Mof_O 	O 	0.90853	0.16087	0.86667	-0.464
Mof_H 	H 	0.88903	0.14297	0.91337	0.247
Mof_O 	O 	0.96857	0.25462	0.37507	-0.351
Mof_N 	N 	0.9089	0.16214	0.49277	-0.174
Mof_Mn	Mn	0.67855	0.08062	0.81199	0.744
Mof_O 	O 	0.65081	0.06808	0.66617	-0.353
Mof_N 	N 	0.5975	0.09096	0.8092	-0.17
Mof_O 	O 	0.58274	0.0591	0.5632	-0.37
Mof_C 	C 	0.55757	0.0947	0.8668	0.063
Mof_C 	C 	0.57227	0.1144	0.9655	0.131
Mof_C 	C 	0.6015	0.0655	0.6458	0.335
Mof_C 	C 	0.56779	0.07294	0.7245	-0.044
Mof_C 	C 	0.6031	0.1508	0.1507	-0.362
Mof_H 	H 	0.6131	0.1634	0.2126	0.153
Mof_C 	C 	0.5293	0.0868	0.0366	-0.313
Mof_H 	H 	0.4902	0.0564	0.0219	0.143
Mof_C 	C 	0.5448	0.1047	0.1285	0.385
Mof_C 	C 	0.6453	0.1773	0.0822	0.211
Mof_H 	H 	0.6844	0.2077	0.0973	-0.042
Mof_C 	C 	0.6302	0.1591	0.9885	-0.233
Mof_H 	H 	0.6594	0.1773	0.9418	0.106
Mof_C 	C 	0.51037	0.06606	0.7349	-0.053
Mof_O 	O 	0.45734	0.0322	0.5892	-0.379
Mof_C 	C 	0.45789	0.0477	0.6721	0.333
Mof_O 	O 	0.5058	0.081	0.2	-0.476
Mof_H 	H 	0.5237	0.0794	0.2467	0.249
Mof_O 	O 	0.41205	0.04729	0.7084	-0.358
Mof_N 	N 	0.50453	0.0801	0.8261	-0.173
Mof_Mn	Mn	0.34522	0.41395	0.14532	0.75
Mof_O 	O 	0.31748	0.40141	0.9995	-0.351
Mof_N 	N 	0.26417	0.42429	0.14253	-0.169
Mof_O 	O 	0.24941	0.39243	0.89653	-0.369
Mof_C 	C 	0.22424	0.42803	0.20013	0.064
Mof_C 	C 	0.23894	0.44773	0.29883	0.133
Mof_C 	C 	0.26817	0.39883	0.97913	0.337
Mof_C 	C 	0.23446	0.40627	0.05783	-0.044
Mof_C 	C 	0.26977	0.48413	0.48403	-0.361
Mof_H 	H 	0.27977	0.49673	0.54593	0.153
Mof_C 	C 	0.19597	0.42013	0.36993	-0.315
Mof_H 	H 	0.15687	0.38973	0.35523	0.145
Mof_C 	C 	0.21147	0.43803	0.46183	0.386
Mof_C 	C 	0.31197	0.51063	0.41553	0.209
Mof_H 	H 	0.35107	0.54103	0.43063	-0.042
Mof_C 	C 	0.29687	0.49243	0.32183	-0.23
Mof_H 	H 	0.32607	0.51063	0.27513	0.106
Mof_C 	C 	0.17704	0.39939	0.06823	-0.051
Mof_O 	O 	0.12401	0.36553	0.92253	-0.379
Mof_C 	C 	0.12456	0.38103	0.00543	0.334
Mof_O 	O 	0.17247	0.41433	0.53333	-0.476
Mof_H 	H 	0.19037	0.41273	0.58003	0.25
Mof_O 	O 	0.07872	0.38062	0.04173	-0.358
Mof_N 	N 	0.1712	0.41343	0.15943	-0.173
Mof_Mn	Mn	0.01188	0.74729	0.47866	0.733
Mof_O 	O 	0.98414	0.73475	0.33284	-0.34
Mof_N 	N 	0.93083	0.75763	0.47587	-0.165
Mof_O 	O 	0.91607	0.72577	0.22987	-0.366
Mof_C 	C 	0.8909	0.76137	0.53347	0.06
Mof_C 	C 	0.9056	0.78107	0.63217	0.152
Mof_C 	C 	0.93483	0.73217	0.31247	0.336
Mof_C 	C 	0.90112	0.73961	0.39117	-0.04
Mof_C 	C 	0.93643	0.81747	0.81737	-0.393
Mof_H 	H 	0.94643	0.83007	0.87927	0.168
Mof_C 	C 	0.86263	0.75347	0.70327	-0.332
Mof_H 	H 	0.82353	0.72307	0.68857	0.152
Mof_C 	C 	0.87813	0.77137	0.79517	0.406
Mof_C 	C 	0.97863	0.84397	0.74887	0.261
Mof_H 	H 	0.01773	0.87437	0.76397	-0.067
Mof_C 	C 	0.96353	0.82577	0.65517	-0.259
Mof_H 	H 	0.99273	0.84397	0.60847	0.122
Mof_C 	C 	0.8437	0.73273	0.40157	-0.052
Mof_O 	O 	0.79067	0.69887	0.25587	-0.378
Mof_C 	C 	0.79122	0.71437	0.33877	0.335
Mof_O 	O 	0.83913	0.74767	0.86667	-0.48
Mof_H 	H 	0.85703	0.74607	0.91337	0.253
Mof_O 	O 	0.74538	0.71396	0.37507	-0.355
Mof_N 	N 	0.83786	0.74677	0.49277	-0.172
Mof_Mn	Mn	-3.43007e-17	0.5	0.5	0.867
Mof_Mn	Mn	0.66667	0.83333	0.83333	0.887
Mof_Mn	Mn	0.33333	0.16667	0.16667	0.884
Mof_Mn	Mn	0.5	0.5	0.5	0.885
Mof_Mn	Mn	0.16667	0.83333	0.83333	0.886
Mof_Mn	Mn	0.83333	0.16667	0.16667	0.886
Mof_Mn	Mn	0.5	0	0.5	0.867
Mof_Mn	Mn	0.16667	0.33333	0.83333	0.884
Mof_Mn	Mn	0.83333	0.66667	0.16667	0.887
_end
