data_functionalizedCrystal
_audit_creation_method	'EQeq! by Chris Wilmer'
_symmetry_space_group_name_H-M	'P1'
_symmetry_Int_Tables_number	1
_symmetry_cell_setting	triclinic
loop_
_symmetry_equiv_pos_as_xyz
  x,y,z
_cell_length_a	9.5237
_cell_length_b	17.6727
_cell_length_c	17.6727
_cell_angle_alpha	103.472
_cell_angle_beta	103.799
_cell_angle_gamma	76.2008
loop_
_atom_site_label
_atom_site_type_symbol
_atom_site_fract_x
_atom_site_fract_y
_atom_site_fract_z
_atom_site_charge
Mof_Mn	Mn	0.93578	0.6777	0.18726	0.974
Mof_Mn	Mn	-0	0.5	-0	0.747
Mof_Mn	Mn	0.43578	0.81274	0.3223	0.965
Mof_Mn	Mn	0.5	0	0.5	0.763
Mof_Mn	Mn	0.56422	0.18726	0.6777	0.964
Mof_Mn	Mn	0.06422	0.3223	0.81274	0.959
Mof_H 	H 	0.9393	0.3391	0.1287	0.15
Mof_H 	H 	0.031	0.9791	0.2145	0.044
Mof_H 	H 	0.1881	0.2179	0.2969	0.12
Mof_H 	H 	0.6752	0.8918	0.6518	-0.036
Mof_H 	H 	0.4158	0.6829	0.4855	0.155
Mof_H 	H 	0.8248	0.6518	0.8918	-0.024
Mof_H 	H 	0.1818	0.3523	0.4361	0.186
Mof_H 	H 	0.6881	0.7031	0.7821	0.15
Mof_H 	H 	0.8119	0.7821	0.7031	0.163
Mof_H 	H 	0.0694	0.7082	0.662	0.191
Mof_H 	H 	0.6818	0.5639	0.6477	0.172
Mof_H 	H 	0.969	0.0209	0.7855	-0.066
Mof_H 	H 	0.6984	0.7198	0.4674	-0.043
Mof_H 	H 	0.8861	0.0906	0.17	0.11
Mof_H 	H 	0.6139	0.17	0.0906	0.14
Mof_H 	H 	0.0842	0.4855	0.6829	0.153
Mof_H 	H 	0.3861	0.83	0.9094	0.178
Mof_H 	H 	0.3016	0.2802	0.5326	-0.07
Mof_H 	H 	0.3223	0.4663	0.5835	0.195
Mof_H 	H 	0.5842	0.3171	0.5145	0.154
Mof_H 	H 	0.1139	0.9094	0.83	0.197
Mof_H 	H 	0.0607	0.6609	0.8713	0.158
Mof_H 	H 	0.9306	0.2918	0.338	0.193
Mof_H 	H 	0.4393	0.8713	0.6609	0.159
Mof_H 	H 	0.5563	0.6322	0.3458	-0.059
Mof_H 	H 	0.1752	0.3482	0.1082	-0.033
Mof_H 	H 	0.8223	0.4165	0.5337	0.21
Mof_H 	H 	0.469	0.2145	0.9791	0.022
Mof_H 	H 	0.4306	0.662	0.7082	0.193
Mof_H 	H 	0.1984	0.5326	0.2802	-0.06
Mof_H 	H 	0.5694	0.338	0.2918	0.19
Mof_H 	H 	0.4437	0.3678	0.6542	-0.056
Mof_H 	H 	0.3119	0.2969	0.2179	0.14
Mof_H 	H 	0.5607	0.1287	0.3391	0.148
Mof_H 	H 	0.3182	0.4361	0.3523	0.171
Mof_H 	H 	0.6777	0.5337	0.4165	0.197
Mof_H 	H 	0.1777	0.5835	0.4663	0.183
Mof_H 	H 	0.8016	0.4674	0.7198	-0.052
Mof_H 	H 	0.9158	0.5145	0.3171	0.156
Mof_H 	H 	0.9437	0.3458	0.6322	-0.071
Mof_H 	H 	0.3248	0.1082	0.3482	-0.014
Mof_H 	H 	0.531	0.7855	0.0209	-0.056
Mof_H 	H 	0.0563	0.6542	0.3678	-0.045
Mof_H 	H 	0.8182	0.6477	0.5639	0.157
Mof_C 	C 	0.634	0.52447	0.64973	-0.398
Mof_C 	C 	0.4187	0.46608	0.61092	-0.386
Mof_C 	C 	0.2059	0.30821	0.53339	0.311
Mof_C 	C 	0.7832	0.73643	0.33997	0.495
Mof_C 	C 	0.5749	0.34111	0.40749	0.357
Mof_C 	C 	0.0091	0.61033	0.52507	0.357
Mof_C 	C 	0.5083	0.59268	0.34732	0.273
Mof_C 	C 	0.7133	0.04193	0.68627	0.362
Mof_C 	C 	0.4757	0.79521	0.90639	-0.344
Mof_C 	C 	0.07	0.67195	0.69265	-0.425
Mof_C 	C 	0.5738	0.16602	0.49538	0.316
Mof_C 	C 	0.8637	0.69281	0.40579	-0.277
Mof_C 	C 	0.7168	0.33997	0.73643	0.505
Mof_C 	C 	0.4251	0.65889	0.59251	0.361
Mof_C 	C 	0.0243	0.90639	0.79521	-0.4
Mof_C 	C 	0.2941	0.53339	0.30821	0.275
Mof_C 	C 	0.1363	0.30719	0.59421	-0.354
Mof_C 	C 	0.5747	0.21518	0.43582	0.106
Mof_C 	C 	0.434	0.77144	0.69636	0.358
Mof_C 	C 	0.9909	0.38967	0.47493	0.435
Mof_C 	C 	0.9187	0.38908	0.53392	-0.426
Mof_C 	C 	0.93	0.32805	0.30735	-0.416
Mof_C 	C 	0.866	0.64973	0.52447	-0.354
Mof_C 	C 	0.4909	0.52507	0.61033	0.393
Mof_C 	C 	0.9253	0.43582	0.21518	0.109
Mof_C 	C 	0.4759	0.22934	0.16426	0.314
Mof_C 	C 	0.8446	0.82989	0.71831	-0.366
Mof_C 	C 	0.566	0.22856	0.30364	0.351
Mof_C 	C 	0.6363	0.40579	0.69281	-0.311
Mof_C 	C 	0.4253	0.78482	0.56418	0.113
Mof_C 	C 	0.9338	0.35673	0.18187	-0.28
Mof_C 	C 	0.934	0.30364	0.22856	0.348
Mof_C 	C 	0.2867	0.95807	0.31373	0.373
Mof_C 	C 	0.5091	0.47493	0.38967	0.396
Mof_C 	C 	0.1554	0.17011	0.28169	-0.258
Mof_C 	C 	0.5243	0.20479	0.09361	-0.276
Mof_C 	C 	0.1928	0.03139	0.28681	-0.186
Mof_C 	C 	0.066	0.69636	0.77144	0.359
Mof_C 	C 	0.0083	0.65268	0.40732	0.225
Mof_C 	C 	0.4917	0.40732	0.65268	0.269
Mof_C 	C 	0.9757	0.09361	0.20479	-0.184
Mof_C 	C 	0.9759	0.83574	0.77066	0.396
Mof_C 	C 	0.3637	0.59421	0.30719	-0.318
Mof_C 	C 	0.5813	0.53392	0.38908	-0.39
Mof_C 	C 	0.2133	0.31373	0.95807	0.388
Mof_C 	C 	0.4212	0.70533	0.53887	-0.292
Mof_C 	C 	0.5662	0.18187	0.35673	-0.282
Mof_C 	C 	0.7622	0.89606	0.68874	0.225
Mof_C 	C 	0.5788	0.29467	0.46113	-0.287
Mof_C 	C 	0.0738	0.50462	0.83398	0.311
Mof_C 	C 	0.2832	0.66003	0.26357	0.508
Mof_C 	C 	0.3072	0.28681	0.03139	-0.228
Mof_C 	C 	0.2622	0.31126	0.10394	0.178
Mof_C 	C 	0.0747	0.56418	0.78482	0.112
Mof_C 	C 	0.134	0.35027	0.47553	-0.45
Mof_C 	C 	0.0241	0.16426	0.22934	0.244
Mof_C 	C 	0.9262	0.49538	0.16602	0.316
Mof_C 	C 	0.2168	0.26357	0.66003	0.519
Mof_C 	C 	0.0813	0.61092	0.46608	-0.353
Mof_C 	C 	0.3446	0.28169	0.17011	-0.313
Mof_C 	C 	0.4262	0.83398	0.50462	0.312
Mof_C 	C 	0.8072	0.96861	0.71319	-0.245
Mof_C 	C 	0.9917	0.34732	0.59268	0.319
Mof_C 	C 	0.57	0.30735	0.32805	-0.418
Mof_C 	C 	0.9251	0.40749	0.34111	0.362
Mof_C 	C 	0.2378	0.10394	0.31126	0.131
Mof_C 	C 	0.6554	0.71831	0.82989	-0.332
Mof_C 	C 	0.0749	0.59251	0.65889	0.357
Mof_C 	C 	0.9384	0.97255	0.76745	0.297
Mof_C 	C 	0.7941	0.69179	0.46661	0.238
Mof_C 	C 	0.5241	0.77066	0.83574	0.351
Mof_C 	C 	0.0616	0.02745	0.23255	0.047
Mof_C 	C 	0.0788	0.53887	0.70533	-0.291
Mof_C 	C 	0.7378	0.68874	0.89606	0.196
Mof_C 	C 	0.9212	0.46113	0.29467	-0.288
Mof_C 	C 	0.43	0.69265	0.67195	-0.424
Mof_C 	C 	0.7867	0.68627	0.04193	0.351
Mof_C 	C 	0.366	0.47553	0.35027	-0.402
Mof_C 	C 	0.7059	0.46661	0.69179	0.271
Mof_C 	C 	0.4384	0.23255	0.02745	0.122
Mof_C 	C 	0.0662	0.64327	0.81813	-0.29
Mof_C 	C 	0.5616	0.76745	0.97255	0.255
Mof_C 	C 	0.6928	0.71319	0.96861	-0.22
Mof_C 	C 	0.4338	0.81813	0.64327	-0.289
Mof_O 	O 	0.4117	0.8002	0.43368	-0.373
Mof_O 	O 	0.0947	0.3646	0.95954	-0.391
Mof_O 	O 	0.4053	0.95954	0.3646	-0.386
Mof_O 	O 	0.9165	0.4363	0.41936	-0.355
Mof_O 	O 	0.4396	0.90445	0.53155	-0.358
Mof_O 	O 	0.8453	0.3447	0.77158	-0.442
Mof_O 	O 	0.7439	0.71778	0.10638	-0.375
Mof_O 	O 	0.5604	0.09555	0.46845	-0.375
Mof_O 	O 	0.4357	0.80839	0.77525	-0.329
Mof_O 	O 	0.8447	0.73805	0.28603	-0.42
Mof_O 	O 	0.4165	0.58064	0.5637	-0.348
Mof_O 	O 	0.0883	0.43368	0.8002	-0.373
Mof_O 	O 	0.1547	0.6553	0.22842	-0.458
Mof_O 	O 	0.0643	0.77525	0.80839	-0.343
Mof_O 	O 	0.2439	0.89362	0.28222	-0.376
Mof_O 	O 	0.5643	0.19161	0.22475	-0.326
Mof_O 	O 	0.3447	0.71397	0.26195	-0.429
Mof_O 	O 	0.7561	0.10638	0.71778	-0.376
Mof_O 	O 	0.0835	0.5637	0.58064	-0.342
Mof_O 	O 	0.2561	0.28222	0.89362	-0.377
Mof_O 	O 	0.9357	0.22475	0.19161	-0.303
Mof_O 	O 	0.6553	0.28603	0.73805	-0.423
Mof_O 	O 	0.9117	0.56632	0.1998	-0.374
Mof_O 	O 	0.3453	0.22842	0.6553	-0.455
Mof_O 	O 	0.9053	0.6354	0.04046	-0.397
Mof_O 	O 	0.6547	0.77158	0.3447	-0.445
Mof_O 	O 	0.0604	0.53155	0.90445	-0.357
Mof_O 	O 	0.5835	0.41936	0.4363	-0.349
Mof_O 	O 	0.5947	0.04046	0.6354	-0.406
Mof_O 	O 	0.9396	0.46845	0.09555	-0.367
Mof_O 	O 	0.5883	0.1998	0.56632	-0.375
Mof_O 	O 	0.1553	0.26195	0.71397	-0.433
_end
