data_functionalizedCrystal
_audit_creation_method	'EQeq! by Chris Wilmer'
_symmetry_space_group_name_H-M	'P1'
_symmetry_Int_Tables_number	1
_symmetry_cell_setting	triclinic
loop_
_symmetry_equiv_pos_as_xyz
  x,y,z
_cell_length_a	7.051
_cell_length_b	14.5981
_cell_length_c	10.6214
_cell_angle_alpha	90
_cell_angle_beta	108.046
_cell_angle_gamma	90
loop_
_atom_site_label
_atom_site_type_symbol
_atom_site_fract_x
_atom_site_fract_y
_atom_site_fract_z
_atom_site_charge
Mof_La	La	0.72435	0.61146	0.49874	1.829
Mof_O 	O 	0.3942	0.55791	0.5432	-0.605
Mof_O 	O 	0.0863	0.59213	0.536	-0.602
Mof_O 	O 	0.5209	0.72487	0.5883	-0.29
Mof_O 	O 	0.9149	0.85192	0.8048	-0.496
Mof_O 	O 	0.9069	0.7196	0.6961	-0.491
Mof_C 	C 	0.2619	0.6139	0.5506	0.462
Mof_C 	C 	0.3163	0.7131	0.574	-0.193
Mof_H 	H 	0.2364	0.7494	0.4999	0.047
Mof_H 	H 	0.2891	0.734	0.6534	0.047
Mof_C 	C 	0.6067	0.8048	0.6613	-0.173
Mof_H 	H 	0.5438	0.8171	0.7289	0.039
Mof_H 	H 	0.5849	0.8572	0.6025	0.04
Mof_C 	C 	0.8265	0.7899	0.7249	0.391
Mof_La	La	0.77565	0.11146	0.00126	1.767
Mof_O 	O 	0.1058	0.05791	0.9568	-0.585
Mof_O 	O 	0.4137	0.09213	0.964	-0.581
Mof_O 	O 	0.9791	0.22487	0.9117	-0.282
Mof_O 	O 	0.5851	0.35192	0.6952	-0.502
Mof_O 	O 	0.5931	0.2196	0.8039	-0.485
Mof_C 	C 	0.2381	0.1139	0.9494	0.455
Mof_C 	C 	0.1837	0.2131	0.926	-0.182
Mof_H 	H 	0.2636	0.2494	0.0001	0.043
Mof_H 	H 	0.2109	0.234	0.8466	0.046
Mof_C 	C 	0.8933	0.3048	0.8387	-0.175
Mof_H 	H 	0.9562	0.3171	0.7711	0.04
Mof_H 	H 	0.9151	0.3572	0.8975	0.043
Mof_C 	C 	0.6735	0.2899	0.7751	0.393
Mof_La	La	0.27565	0.38854	0.50126	1.829
Mof_O 	O 	0.6058	0.44209	0.4568	-0.605
Mof_O 	O 	0.9137	0.40787	0.464	-0.602
Mof_O 	O 	0.4791	0.27513	0.4117	-0.29
Mof_O 	O 	0.0851	0.14808	0.1952	-0.496
Mof_O 	O 	0.0931	0.2804	0.3039	-0.491
Mof_C 	C 	0.7381	0.3861	0.4494	0.462
Mof_C 	C 	0.6837	0.2869	0.426	-0.193
Mof_H 	H 	0.7636	0.2506	0.5001	0.047
Mof_H 	H 	0.7109	0.266	0.3466	0.047
Mof_C 	C 	0.3933	0.1952	0.3387	-0.173
Mof_H 	H 	0.4562	0.1829	0.2711	0.039
Mof_H 	H 	0.4151	0.1428	0.3975	0.04
Mof_C 	C 	0.1735	0.2101	0.2751	0.391
Mof_La	La	0.22435	0.88853	0.99874	1.767
Mof_O 	O 	0.8942	0.94209	0.0432	-0.585
Mof_O 	O 	0.5863	0.90787	0.036	-0.581
Mof_O 	O 	0.0209	0.77513	0.0883	-0.282
Mof_O 	O 	0.4149	0.64808	0.3048	-0.502
Mof_O 	O 	0.4069	0.7804	0.1961	-0.485
Mof_C 	C 	0.7619	0.8861	0.0506	0.455
Mof_C 	C 	0.8163	0.7869	0.074	-0.182
Mof_H 	H 	0.7364	0.7506	0.9999	0.043
Mof_H 	H 	0.7891	0.766	0.1534	0.046
Mof_C 	C 	0.1067	0.6952	0.1613	-0.175
Mof_H 	H 	0.0438	0.6829	0.2289	0.04
Mof_H 	H 	0.0849	0.6428	0.1025	0.043
Mof_C 	C 	0.3265	0.7101	0.2249	0.393
_end
