# CIF file generated by openbabel 3.1.0, see https://openbabel.org
data_I
_chemical_name_common 'image0'
_cell_length_a 9.189
_cell_length_b 14.1036
_cell_length_c 18.3518
_cell_angle_alpha 90
_cell_angle_beta 117.157
_cell_angle_gamma 90
_space_group_name_H-M_alt 'P 1'
_space_group_name_Hall 'P 1'
loop_
    _symmetry_equiv_pos_as_xyz
    x,y,z
loop_
    _atom_site_label
    _atom_site_type_symbol
    _atom_site_fract_x
    _atom_site_fract_y
    _atom_site_fract_z
    _atom_site_occupancy
    Hg1      Hg       0.56352    0.79810    0.58086    1.000
    Fe1      Fe       0.23151    0.65150    0.75298    1.000
    S1       S        0.71129    0.77187    0.73255    1.000
    S2       S        0.27126    0.84379    0.53880    1.000
    S3       S        0.72010    0.91503    0.53963    1.000
    S4       S        0.55848    0.65272    0.49424    1.000
    N1       N        0.38940    0.75300    0.34780    1.000
    N2       N        0.75170    0.05550    0.65290    1.000
    N3       N        0.23390    0.74160    0.66020    1.000
    N4       N        0.01550    0.71760    0.74660    1.000
    C1       C        0.46010    0.71200    0.40800    1.000
    C2       C        0.25130    0.78310    0.61090    1.000
    C3       C        0.73680    0.99860    0.60710    1.000
    C4       C        0.89120    0.74090    0.73900    1.000
    Hg2      Hg       0.43648    0.29810    0.91914    1.000
    Fe2      Fe       0.76849    0.15150    0.74702    1.000
    S5       S        0.28871    0.27187    0.76745    1.000
    S6       S        0.72874    0.34379    0.96120    1.000
    S7       S        0.27990    0.41503    0.96037    1.000
    S8       S        0.44152    0.15272    0.00576    1.000
    N5       N        0.61060    0.25300    0.15220    1.000
    N6       N        0.24830    0.55550    0.84710    1.000
    N7       N        0.76610    0.24160    0.83980    1.000
    N8       N        0.98450    0.21760    0.75340    1.000
    C5       C        0.53990    0.21200    0.09200    1.000
    C6       C        0.74870    0.28310    0.88910    1.000
    C7       C        0.26320    0.49860    0.89290    1.000
    C8       C        0.10880    0.24090    0.76100    1.000
    Hg3      Hg       0.43648    0.20190    0.41914    1.000
    Fe3      Fe       0.76849    0.34850    0.24702    1.000
    S9       S        0.28871    0.22813    0.26745    1.000
    S10      S        0.72874    0.15621    0.46120    1.000
    S11      S        0.27990    0.08497    0.46037    1.000
    S12      S        0.44152    0.34728    0.50576    1.000
    N9       N        0.61060    0.24700    0.65220    1.000
    N10      N        0.24830    0.94450    0.34710    1.000
    N11      N        0.76610    0.25840    0.33980    1.000
    N12      N        0.98450    0.28240    0.25340    1.000
    C9       C        0.53990    0.28800    0.59200    1.000
    C10      C        0.74870    0.21690    0.38910    1.000
    C11      C        0.26320    0.00140    0.39290    1.000
    C12      C        0.10880    0.25910    0.26100    1.000
    Hg4      Hg       0.56352    0.70190    0.08086    1.000
    Fe4      Fe       0.23151    0.84850    0.25298    1.000
    S13      S        0.71129    0.72813    0.23255    1.000
    S14      S        0.27126    0.65621    0.03880    1.000
    S15      S        0.72010    0.58497    0.03963    1.000
    S16      S        0.55848    0.84728    0.99424    1.000
    N13      N        0.38940    0.74700    0.84780    1.000
    N14      N        0.75170    0.44450    0.15290    1.000
    N15      N        0.23390    0.75840    0.16020    1.000
    N16      N        0.01550    0.78240    0.24660    1.000
    C13      C        0.46010    0.78800    0.90800    1.000
    C14      C        0.25130    0.71690    0.11090    1.000
    C15      C        0.73680    0.50140    0.10710    1.000
    C16      C        0.89120    0.75910    0.23900    1.000
