data_functionalizedCrystal
_audit_creation_method	'EQeq! by Chris Wilmer'
_symmetry_space_group_name_H-M	'P1'
_symmetry_Int_Tables_number	1
_symmetry_cell_setting	triclinic
loop_
_symmetry_equiv_pos_as_xyz
  x,y,z
_cell_length_a	11.3729
_cell_length_b	9.9463
_cell_length_c	14.5118
_cell_angle_alpha	90
_cell_angle_beta	91.2783
_cell_angle_gamma	90
loop_
_atom_site_label
_atom_site_type_symbol
_atom_site_fract_x
_atom_site_fract_y
_atom_site_fract_z
_atom_site_charge
Mof_Co	Co	0.25477	0.42208	0.13353	1.186
Mof_Co	Co	0.23921	0.61426	0.30919	1.198
Mof_O 	O 	0.34805	0.58268	0.19574	-0.564
Mof_O 	O 	0.50984	0.6221	0.11547	-0.455
Mof_C 	C 	0.44456	0.64291	0.18049	0.494
Mof_H 	H 	0.4684	0.7103	0.2234	-0.102
Mof_O 	O 	0.18492	0.52599	0.02297	-0.664
Mof_O 	O 	0.34905	0.60206	0.95788	-0.43
Mof_C 	C 	0.24098	0.59905	0.96605	0.649
Mof_H 	H 	0.1956	0.656	0.9266	-0.124
Mof_O 	O 	0.15736	0.24471	0.10835	-0.537
Mof_O 	O 	0.02093	0.29386	0.9994	-0.317
Mof_C 	C 	0.078	0.2142	0.04833	0.302
Mof_H 	H 	0.0611	0.1213	0.0404	-0.118
Mof_O 	O 	0.30439	0.30342	0.24837	-0.55
Mof_O 	O 	0.30354	0.44243	0.37011	-0.431
Mof_C 	C 	0.31797	0.33055	0.33401	0.47
Mof_H 	H 	0.3412	0.2588	0.3736	-0.104
Mof_O 	O 	0.40133	0.34919	0.06636	-0.577
Mof_O 	O 	0.39561	0.12863	0.09992	-0.482
Mof_C 	C 	0.43797	0.228	0.06123	0.481
Mof_H 	H 	0.5043	0.2125	0.024	-0.137
Mof_O 	O 	0.12868	0.50825	0.21747	-0.499
Mof_O 	O 	0.95728	0.50074	0.13917	-0.313
Mof_C 	C 	0.01732	0.51772	0.2101	0.224
Mof_H 	H 	0.9765	0.54	0.2644	0.036
Mof_Co	Co	0.24523	0.92208	0.36647	1.243
Mof_Co	Co	0.26079	0.11426	0.19081	1.179
Mof_O 	O 	0.15195	0.08268	0.30426	-0.58
Mof_O 	O 	0.99016	0.1221	0.38453	-0.368
Mof_C 	C 	0.05544	0.14291	0.31951	0.379
Mof_H 	H 	0.0316	0.2103	0.2766	-0.107
Mof_O 	O 	0.31508	0.02599	0.47703	-0.604
Mof_O 	O 	0.15095	0.10206	0.54212	-0.477
Mof_C 	C 	0.25902	0.09905	0.53395	0.485
Mof_H 	H 	0.3044	0.156	0.5734	-0.115
Mof_O 	O 	0.34264	0.74471	0.39165	-0.531
Mof_O 	O 	0.47907	0.79386	0.5006	-0.398
Mof_C 	C 	0.422	0.7142	0.45167	0.478
Mof_H 	H 	0.4389	0.6213	0.4596	-0.093
Mof_O 	O 	0.19561	0.80342	0.25163	-0.53
Mof_O 	O 	0.19646	0.94243	0.12989	-0.383
Mof_C 	C 	0.18203	0.83055	0.16599	0.462
Mof_H 	H 	0.1588	0.7588	0.1264	-0.117
Mof_O 	O 	0.09867	0.84919	0.43364	-0.479
Mof_O 	O 	0.10439	0.62863	0.40008	-0.407
Mof_C 	C 	0.06203	0.728	0.43877	0.325
Mof_H 	H 	0.9957	0.7125	0.476	0.008
Mof_O 	O 	0.37132	0.00825	0.28253	-0.61
Mof_O 	O 	0.54272	0.00074	0.36083	-0.485
Mof_C 	C 	0.48268	0.01772	0.2899	0.501
Mof_H 	H 	0.5235	0.04	0.2356	-0.127
Mof_Co	Co	0.74523	0.57792	0.86647	1.2
Mof_Co	Co	0.76079	0.38574	0.69081	1.206
Mof_O 	O 	0.65195	0.41732	0.80426	-0.55
Mof_O 	O 	0.49016	0.3779	0.88453	-0.4
Mof_C 	C 	0.55544	0.35709	0.81951	0.489
Mof_H 	H 	0.5316	0.2897	0.7766	-0.126
Mof_O 	O 	0.81508	0.47401	0.97703	-0.421
Mof_O 	O 	0.65095	0.39794	0.04212	-0.422
Mof_C 	C 	0.75902	0.40095	0.03395	0.313
Mof_H 	H 	0.8044	0.344	0.0734	-0.057
Mof_O 	O 	0.84264	0.75529	0.89165	-0.555
Mof_O 	O 	0.97907	0.70614	0.0006	-0.491
Mof_C 	C 	0.922	0.7858	0.95167	0.612
Mof_H 	H 	0.9389	0.8787	0.9596	-0.064
Mof_O 	O 	0.69561	0.69658	0.75163	-0.546
Mof_O 	O 	0.69646	0.55757	0.62989	-0.423
Mof_C 	C 	0.68203	0.66945	0.66599	0.47
Mof_H 	H 	0.6588	0.7412	0.6264	-0.101
Mof_O 	O 	0.59867	0.65081	0.93364	-0.502
Mof_O 	O 	0.60439	0.87137	0.90008	-0.371
Mof_C 	C 	0.56203	0.772	0.93877	0.445
Mof_H 	H 	0.4957	0.7875	0.976	-0.032
Mof_O 	O 	0.87132	0.49175	0.78253	-0.595
Mof_O 	O 	0.04272	0.49926	0.86083	-0.499
Mof_C 	C 	0.98268	0.48228	0.7899	0.691
Mof_H 	H 	0.0235	0.46	0.7356	-0.203
Mof_Co	Co	0.75477	0.07792	0.63353	1.146
Mof_Co	Co	0.73921	0.88574	0.80919	1.224
Mof_O 	O 	0.84805	0.91732	0.69574	-0.53
Mof_O 	O 	0.00984	0.8779	0.61547	-0.462
Mof_C 	C 	0.94456	0.85709	0.68049	0.582
Mof_H 	H 	0.9684	0.7897	0.7234	-0.118
Mof_O 	O 	0.68492	0.97401	0.52297	-0.473
Mof_O 	O 	0.84905	0.89794	0.45788	-0.362
Mof_C 	C 	0.74098	0.90095	0.46605	0.455
Mof_H 	H 	0.6956	0.844	0.4266	-0.063
Mof_O 	O 	0.65736	0.25529	0.60835	-0.569
Mof_O 	O 	0.52093	0.20614	0.4994	-0.445
Mof_C 	C 	0.578	0.2858	0.54833	0.474
Mof_H 	H 	0.5611	0.3787	0.5404	-0.094
Mof_O 	O 	0.80439	0.19658	0.74837	-0.565
Mof_O 	O 	0.80354	0.05757	0.87011	-0.47
Mof_C 	C 	0.81797	0.16945	0.83401	0.478
Mof_H 	H 	0.8412	0.2412	0.8736	-0.09
Mof_O 	O 	0.90133	0.15081	0.56636	-0.588
Mof_O 	O 	0.89561	0.37137	0.59992	-0.446
Mof_C 	C 	0.93797	0.272	0.56123	0.602
Mof_H 	H 	0.0043	0.2875	0.524	-0.177
Mof_O 	O 	0.62868	0.99175	0.71747	-0.496
Mof_O 	O 	0.45728	0.99926	0.63917	-0.356
Mof_C 	C 	0.51732	0.98228	0.7101	0.46
Mof_H 	H 	0.4765	0.96	0.7644	-0.059
Mof_Co	Co	0.5	0.5	-0	1.167
Mof_Co	Co	2.44548e-33	0	0.5	1.132
Mof_Co	Co	-0	0.5	-0	1.131
Mof_Co	Co	0.5	0	0.5	1.159
_end
