data_functionalizedCrystal
_audit_creation_method	'EQeq! by Chris Wilmer'
_symmetry_space_group_name_H-M	'P1'
_symmetry_Int_Tables_number	1
_symmetry_cell_setting	triclinic
loop_
_symmetry_equiv_pos_as_xyz
  x,y,z
_cell_length_a	9.7494
_cell_length_b	11.0484
_cell_length_c	20.4845
_cell_angle_alpha	90
_cell_angle_beta	90
_cell_angle_gamma	108.898
loop_
_atom_site_label
_atom_site_type_symbol
_atom_site_fract_x
_atom_site_fract_y
_atom_site_fract_z
_atom_site_charge
Mof_Er	Er	0.30016	0.31522	0.96534	1.641
Mof_Er	Er	0.19984	0.68478	0.46534	1.64
Mof_Er	Er	0.69984	0.68478	0.03466	1.641
Mof_Er	Er	0.80016	0.31522	0.53466	1.64
Mof_H 	H 	0.7504	0.6628	0.3431	0.292
Mof_H 	H 	0.1928	0.2936	0.1708	0.02
Mof_H 	H 	0.9929	0.1309	0.2077	0.045
Mof_H 	H 	0.3203	0.3668	0.3581	0.034
Mof_H 	H 	0.7714	0.9823	0.1858	0.073
Mof_H 	H 	0.5804	0.5512	0.2119	0.04
Mof_H 	H 	0.3894	0.7439	0.2489	0.077
Mof_H 	H 	0.6854	0.9479	0.3777	0.078
Mof_H 	H 	0.7496	0.3372	0.8431	0.293
Mof_H 	H 	0.3072	0.7064	0.6708	0.021
Mof_H 	H 	0.5071	0.8691	0.7077	0.044
Mof_H 	H 	0.1797	0.6332	0.8581	0.034
Mof_H 	H 	0.7286	0.0177	0.6858	0.072
Mof_H 	H 	0.9196	0.4488	0.7119	0.041
Mof_H 	H 	0.1106	0.2561	0.7489	0.077
Mof_H 	H 	0.8146	0.0521	0.8777	0.077
Mof_H 	H 	0.2496	0.3372	0.6569	0.293
Mof_H 	H 	0.8072	0.7064	0.8292	0.021
Mof_H 	H 	0.0071	0.8691	0.7923	0.045
Mof_H 	H 	0.6797	0.6332	0.6419	0.034
Mof_H 	H 	0.2286	0.0177	0.8142	0.073
Mof_H 	H 	0.4196	0.4488	0.7881	0.04
Mof_H 	H 	0.6106	0.2561	0.7511	0.077
Mof_H 	H 	0.3146	0.0521	0.6223	0.078
Mof_H 	H 	0.2504	0.6628	0.1569	0.293
Mof_H 	H 	0.6928	0.2936	0.3292	0.021
Mof_H 	H 	0.4929	0.1309	0.2923	0.044
Mof_H 	H 	0.8203	0.3668	0.1419	0.034
Mof_H 	H 	0.2714	0.9823	0.3142	0.072
Mof_H 	H 	0.0804	0.5512	0.2881	0.041
Mof_H 	H 	0.8894	0.7439	0.2511	0.077
Mof_H 	H 	0.1854	0.9479	0.1223	0.077
Mof_C 	C 	0.748	0.9827	0.2833	0.094
Mof_C 	C 	0.5231	0.8356	0.3216	-0.025
Mof_C 	C 	0.574	0.856	0.2065	-0.047
Mof_C 	C 	0.2608	0.3387	0.2014	0.053
Mof_C 	C 	0.9928	0.1425	0.2527	-0.024
Mof_C 	C 	0.3374	0.3827	0.3138	0.033
Mof_C 	C 	0.4206	0.7732	0.3755	0.299
Mof_C 	C 	0.2337	0.3168	0.268	-0.046
Mof_C 	C 	0.7082	0.9463	0.2198	-0.068
Mof_C 	C 	0.4198	0.4513	0.1091	0.498
Mof_C 	C 	0.5355	0.813	0.1368	0.363
Mof_C 	C 	0.4662	0.4724	0.2927	-0.126
Mof_C 	C 	0.3902	0.4283	0.1809	-0.161
Mof_C 	C 	0.493	0.4933	0.226	0.09
Mof_C 	C 	0.5741	0.5422	0.3416	0.4
Mof_C 	C 	0.0981	0.2251	0.289	0.078
Mof_C 	C 	0.4805	0.8022	0.2576	-0.021
Mof_C 	C 	0.6569	0.9258	0.3349	-0.08
Mof_C 	C 	0.752	0.0173	0.7833	0.092
Mof_C 	C 	0.9769	0.1644	0.8216	-0.026
Mof_C 	C 	0.926	0.144	0.7065	-0.048
Mof_C 	C 	0.2392	0.6613	0.7014	0.053
Mof_C 	C 	0.5072	0.8575	0.7527	-0.022
Mof_C 	C 	0.1626	0.6173	0.8138	0.033
Mof_C 	C 	0.0794	0.2268	0.8755	0.3
Mof_C 	C 	0.2663	0.6832	0.768	-0.046
Mof_C 	C 	0.7918	0.0537	0.7198	-0.067
Mof_C 	C 	0.0802	0.5487	0.6091	0.497
Mof_C 	C 	0.9645	0.187	0.6368	0.363
Mof_C 	C 	0.0338	0.5276	0.7927	-0.126
Mof_C 	C 	0.1098	0.5717	0.6809	-0.161
Mof_C 	C 	0.007	0.5067	0.726	0.089
Mof_C 	C 	0.9259	0.4578	0.8416	0.4
Mof_C 	C 	0.4019	0.7749	0.789	0.077
Mof_C 	C 	0.0195	0.1978	0.7576	-0.019
Mof_C 	C 	0.8431	0.0742	0.8349	-0.078
Mof_C 	C 	0.252	0.0173	0.7167	0.094
Mof_C 	C 	0.4769	0.1644	0.6784	-0.025
Mof_C 	C 	0.426	0.144	0.7935	-0.047
Mof_C 	C 	0.7392	0.6613	0.7986	0.053
Mof_C 	C 	0.0072	0.8575	0.7473	-0.024
Mof_C 	C 	0.6626	0.6173	0.6862	0.033
Mof_C 	C 	0.5794	0.2268	0.6245	0.299
Mof_C 	C 	0.7663	0.6832	0.732	-0.046
Mof_C 	C 	0.2918	0.0537	0.7802	-0.068
Mof_C 	C 	0.5802	0.5487	0.8909	0.498
Mof_C 	C 	0.4645	0.187	0.8632	0.363
Mof_C 	C 	0.5338	0.5276	0.7073	-0.126
Mof_C 	C 	0.6098	0.5717	0.8191	-0.161
Mof_C 	C 	0.507	0.5067	0.774	0.09
Mof_C 	C 	0.4259	0.4578	0.6584	0.4
Mof_C 	C 	0.9019	0.7749	0.711	0.078
Mof_C 	C 	0.5195	0.1978	0.7424	-0.021
Mof_C 	C 	0.3431	0.0742	0.6651	-0.08
Mof_C 	C 	0.248	0.9827	0.2167	0.092
Mof_C 	C 	0.0231	0.8356	0.1784	-0.026
Mof_C 	C 	0.074	0.856	0.2935	-0.048
Mof_C 	C 	0.7608	0.3387	0.2986	0.053
Mof_C 	C 	0.4928	0.1425	0.2473	-0.022
Mof_C 	C 	0.8374	0.3827	0.1862	0.033
Mof_C 	C 	0.9206	0.7732	0.1245	0.3
Mof_C 	C 	0.7337	0.3168	0.232	-0.046
Mof_C 	C 	0.2082	0.9463	0.2802	-0.067
Mof_C 	C 	0.9198	0.4513	0.3909	0.497
Mof_C 	C 	0.0355	0.813	0.3632	0.363
Mof_C 	C 	0.9662	0.4724	0.2073	-0.126
Mof_C 	C 	0.8902	0.4283	0.3191	-0.161
Mof_C 	C 	0.993	0.4933	0.274	0.089
Mof_C 	C 	0.0741	0.5422	0.1584	0.4
Mof_C 	C 	0.5981	0.2251	0.211	0.077
Mof_C 	C 	0.9805	0.8022	0.2424	-0.019
Mof_C 	C 	0.1569	0.9258	0.1651	-0.078
Mof_N 	N 	0.929	0.1256	0.3568	-0.062
Mof_N 	N 	0.0565	0.2136	0.3532	-0.094
Mof_N 	N 	0.8866	0.0797	0.2957	-0.088
Mof_N 	N 	0.571	0.8744	0.8568	-0.061
Mof_N 	N 	0.4435	0.7864	0.8532	-0.094
Mof_N 	N 	0.6134	0.9203	0.7957	-0.088
Mof_N 	N 	0.071	0.8744	0.6432	-0.062
Mof_N 	N 	0.9435	0.7864	0.6468	-0.094
Mof_N 	N 	0.1134	0.9203	0.7043	-0.088
Mof_N 	N 	0.429	0.1256	0.1432	-0.061
Mof_N 	N 	0.5565	0.2136	0.1468	-0.094
Mof_N 	N 	0.3866	0.0797	0.2043	-0.088
Mof_O 	O 	0.3216	0.3936	0.0701	-0.533
Mof_O 	O 	0.6895	0.6217	0.3142	-0.461
Mof_O 	O 	0.4063	0.7617	0.12	-0.311
Mof_O 	O 	0.4388	0.8205	0.4323	-0.402
Mof_O 	O 	0.316	0.6741	0.3631	-0.375
Mof_O 	O 	0.541	0.5257	0.0917	-0.531
Mof_O 	O 	0.6411	0.8322	0.0986	-0.453
Mof_O 	O 	0.5596	0.5301	0.4	-0.302
Mof_O 	O 	0.1784	0.6064	0.5701	-0.533
Mof_O 	O 	0.8105	0.3783	0.8142	-0.461
Mof_O 	O 	0.0937	0.2383	0.62	-0.31
Mof_O 	O 	0.0612	0.1795	0.9323	-0.402
Mof_O 	O 	0.184	0.3259	0.8631	-0.375
Mof_O 	O 	0.959	0.4743	0.5917	-0.531
Mof_O 	O 	0.8589	0.1678	0.5986	-0.453
Mof_O 	O 	0.9404	0.4699	0.9	-0.301
Mof_O 	O 	0.6784	0.6064	0.9299	-0.533
Mof_O 	O 	0.3105	0.3783	0.6858	-0.461
Mof_O 	O 	0.5937	0.2383	0.88	-0.311
Mof_O 	O 	0.5612	0.1795	0.5677	-0.402
Mof_O 	O 	0.684	0.3259	0.6369	-0.375
Mof_O 	O 	0.459	0.4743	0.9083	-0.531
Mof_O 	O 	0.3589	0.1678	0.9014	-0.453
Mof_O 	O 	0.4404	0.4699	0.6	-0.302
Mof_O 	O 	0.8216	0.3936	0.4299	-0.533
Mof_O 	O 	0.1895	0.6217	0.1858	-0.461
Mof_O 	O 	0.9063	0.7617	0.38	-0.31
Mof_O 	O 	0.9388	0.8205	0.0677	-0.402
Mof_O 	O 	0.816	0.6741	0.1369	-0.375
Mof_O 	O 	0.041	0.5257	0.4083	-0.531
Mof_O 	O 	0.1411	0.8322	0.4014	-0.453
Mof_O 	O 	0.0596	0.5301	0.1	-0.301
_end
