# CIF file generated by openbabel 3.1.0, see https://openbabel.org
data_I
_chemical_name_common 'image0'
_cell_length_a 9.2664
_cell_length_b 15.2043
_cell_length_c 11.984
_cell_angle_alpha 90
_cell_angle_beta 102.167
_cell_angle_gamma 90
_space_group_name_H-M_alt 'P 1'
_space_group_name_Hall 'P 1'
loop_
    _symmetry_equiv_pos_as_xyz
    x,y,z
loop_
    _atom_site_label
    _atom_site_type_symbol
    _atom_site_fract_x
    _atom_site_fract_y
    _atom_site_fract_z
    _atom_site_occupancy
    P1       P        0.89450    0.10800    0.89040    1.000
    P2       P        0.44920    0.00270    0.81630    1.000
    O1       O        0.51840    0.08380    0.77350    1.000
    O2       O        0.82090    0.10240    0.76450    1.000
    O3       O        0.59960    0.24540    0.69030    1.000
    O4       O        0.66630    0.99350    0.59830    1.000
    O5       O        0.73810    0.17050    0.54420    1.000
    O6       O        0.44380    0.10480    0.53380    1.000
    O7       O        0.81940    0.05230    0.96480    1.000
    O8       O        0.31600    0.03080    0.86320    1.000
    O9       O        0.55650    0.94800    0.90110    1.000
    O10      O        0.05470    0.08670    0.89830    1.000
    O11      O        0.79500    0.30340    0.48250    1.000
    O12      O        0.65900    0.37820    0.63320    1.000
    O13      O        0.88610    0.20380    0.93410    1.000
    H1       H        0.92250    0.23750    0.89420    1.000
    O14      O        0.38800    0.94520    0.70800    1.000
    H2       H        0.34570    0.90190    0.72650    1.000
    C1       C        0.56330    0.96890    0.51880    1.000
    C2       C        0.73820    0.25380    0.54440    1.000
    C3       C        0.65910    0.29670    0.63090    1.000
    Fe1      Fe       0.63200    0.11428    0.66520    1.000
    Fe2      Fe       0.75200    0.93836    0.99980    1.000
    P3       P        0.60550    0.60800    0.60960    1.000
    P4       P        0.05080    0.50270    0.68370    1.000
    O15      O        0.98160    0.58380    0.72650    1.000
    O16      O        0.67910    0.60240    0.73550    1.000
    O17      O        0.90040    0.74540    0.80970    1.000
    O18      O        0.83370    0.49350    0.90170    1.000
    O19      O        0.76190    0.67050    0.95580    1.000
    O20      O        0.05620    0.60480    0.96620    1.000
    O21      O        0.68060    0.55230    0.53520    1.000
    O22      O        0.18400    0.53080    0.63680    1.000
    O23      O        0.94350    0.44800    0.59890    1.000
    O24      O        0.44530    0.58670    0.60170    1.000
    O25      O        0.70500    0.80340    0.01750    1.000
    O26      O        0.84100    0.87820    0.86680    1.000
    O27      O        0.61390    0.70380    0.56590    1.000
    H3       H        0.57750    0.73750    0.60580    1.000
    O28      O        0.11200    0.44520    0.79200    1.000
    H4       H        0.15430    0.40190    0.77350    1.000
    C4       C        0.93670    0.46890    0.98120    1.000
    C5       C        0.76180    0.75380    0.95560    1.000
    C6       C        0.84090    0.79670    0.86910    1.000
    Fe3      Fe       0.86800    0.61428    0.83480    1.000
    Fe4      Fe       0.74800    0.43836    0.50020    1.000
    P5       P        0.10550    0.89200    0.10960    1.000
    P6       P        0.55080    0.99730    0.18370    1.000
    O29      O        0.48160    0.91620    0.22650    1.000
    O30      O        0.17910    0.89760    0.23550    1.000
    O31      O        0.40040    0.75460    0.30970    1.000
    O32      O        0.33370    0.00650    0.40170    1.000
    O33      O        0.26190    0.82950    0.45580    1.000
    O34      O        0.55620    0.89520    0.46620    1.000
    O35      O        0.18060    0.94770    0.03520    1.000
    O36      O        0.68400    0.96920    0.13680    1.000
    O37      O        0.44350    0.05200    0.09890    1.000
    O38      O        0.94530    0.91330    0.10170    1.000
    O39      O        0.20500    0.69660    0.51750    1.000
    O40      O        0.34100    0.62180    0.36680    1.000
    O41      O        0.11390    0.79620    0.06590    1.000
    H5       H        0.07750    0.76250    0.10580    1.000
    O42      O        0.61200    0.05480    0.29200    1.000
    H6       H        0.65430    0.09810    0.27350    1.000
    C7       C        0.43670    0.03110    0.48120    1.000
    C8       C        0.26180    0.74620    0.45560    1.000
    C9       C        0.34090    0.70330    0.36910    1.000
    Fe5      Fe       0.36800    0.88572    0.33480    1.000
    Fe6      Fe       0.24800    0.06164    0.00020    1.000
    P7       P        0.39450    0.39200    0.39040    1.000
    P8       P        0.94920    0.49730    0.31630    1.000
    O43      O        0.01840    0.41620    0.27350    1.000
    O44      O        0.32090    0.39760    0.26450    1.000
    O45      O        0.09960    0.25460    0.19030    1.000
    O46      O        0.16630    0.50650    0.09830    1.000
    O47      O        0.23810    0.32950    0.04420    1.000
    O48      O        0.94380    0.39520    0.03380    1.000
    O49      O        0.31940    0.44770    0.46480    1.000
    O50      O        0.81600    0.46920    0.36320    1.000
    O51      O        0.05650    0.55200    0.40110    1.000
    O52      O        0.55470    0.41330    0.39830    1.000
    O53      O        0.29500    0.19660    0.98250    1.000
    O54      O        0.15900    0.12180    0.13320    1.000
    O55      O        0.38610    0.29620    0.43410    1.000
    H7       H        0.42250    0.26250    0.39420    1.000
    O56      O        0.88800    0.55480    0.20800    1.000
    H8       H        0.84570    0.59810    0.22650    1.000
    C10      C        0.06330    0.53110    0.01880    1.000
    C11      C        0.23820    0.24620    0.04440    1.000
    C12      C        0.15910    0.20330    0.13090    1.000
    Fe7      Fe       0.13200    0.38572    0.16520    1.000
    Fe8      Fe       0.25200    0.56164    0.49980    1.000
