data_functionalizedCrystal
_audit_creation_method	'EQeq! by Chris Wilmer'
_symmetry_space_group_name_H-M	'P1'
_symmetry_Int_Tables_number	1
_symmetry_cell_setting	triclinic
loop_
_symmetry_equiv_pos_as_xyz
  x,y,z
_cell_length_a	15.041
_cell_length_b	23.862
_cell_length_c	28.479
_cell_angle_alpha	90
_cell_angle_beta	90
_cell_angle_gamma	90
loop_
_atom_site_label
_atom_site_type_symbol
_atom_site_fract_x
_atom_site_fract_y
_atom_site_fract_z
_atom_site_charge
Mof_Co	Co	0.59099	0.85527	0.97787	1.186
Mof_Co	Co	0.74635	0.79499	0.06315	1.097
Mof_Co	Co	0.09099	0.64473	0.02213	1.187
Mof_Co	Co	0.24635	0.70501	0.93685	1.098
Mof_Co	Co	0.40901	0.14473	0.47787	1.188
Mof_Co	Co	0.25365	0.20501	0.56315	1.098
Mof_Co	Co	0.90901	0.35527	0.52213	1.188
Mof_Co	Co	0.75365	0.29499	0.43685	1.098
Mof_Co	Co	0.40901	0.14473	0.02213	1.187
Mof_Co	Co	0.25365	0.20501	0.93685	1.098
Mof_Co	Co	0.90901	0.35527	0.97787	1.187
Mof_Co	Co	0.75365	0.29499	0.06315	1.098
Mof_Co	Co	0.59099	0.85527	0.52213	1.188
Mof_Co	Co	0.74635	0.79499	0.43685	1.098
Mof_Co	Co	0.09099	0.64473	0.47787	1.188
Mof_Co	Co	0.24635	0.70501	0.56315	1.098
Mof_Co	Co	0.10122	0.87783	0.75	1.179
Mof_Co	Co	0.88806	0.94376	0.75	1.094
Mof_Co	Co	0.60122	0.62217	0.25	1.179
Mof_Co	Co	0.38806	0.55624	0.25	1.095
Mof_Co	Co	0.89878	0.12217	0.25	1.179
Mof_Co	Co	0.11194	0.05624	0.25	1.094
Mof_Co	Co	0.39878	0.37783	0.75	1.179
Mof_Co	Co	0.61194	0.44376	0.75	1.095
Mof_H 	H 	0.0464	0.7827	0.8712	0.01
Mof_H 	H 	0.8744	0.7503	0.9763	-0.018
Mof_H 	H 	0.8044	0.853	0.87	0.015
Mof_H 	H 	0.2038	0.0414	0.8785	0.027
Mof_H 	H 	0.407	0.9903	0.9596	0.041
Mof_H 	H 	0.3062	0.8867	0.8617	0.024
Mof_H 	H 	0.5464	0.7173	0.1288	0.007
Mof_H 	H 	0.3744	0.7497	0.0237	-0.018
Mof_H 	H 	0.3044	0.647	0.13	0.014
Mof_H 	H 	0.7038	0.4586	0.1215	0.026
Mof_H 	H 	0.907	0.5097	0.0404	0.041
Mof_H 	H 	0.8062	0.6133	0.1383	0.024
Mof_H 	H 	0.9536	0.2173	0.3712	0.009
Mof_H 	H 	0.1256	0.2497	0.4763	-0.017
Mof_H 	H 	0.1956	0.147	0.37	0.015
Mof_H 	H 	0.7962	0.9586	0.3785	0.026
Mof_H 	H 	0.593	0.0097	0.4596	0.041
Mof_H 	H 	0.6938	0.1133	0.3617	0.024
Mof_H 	H 	0.4536	0.2827	0.6288	0.007
Mof_H 	H 	0.6256	0.2503	0.5237	-0.018
Mof_H 	H 	0.6956	0.353	0.63	0.014
Mof_H 	H 	0.2962	0.5414	0.6215	0.026
Mof_H 	H 	0.093	0.4903	0.5404	0.041
Mof_H 	H 	0.1938	0.3867	0.6383	0.024
Mof_H 	H 	0.9536	0.2173	0.1288	0.01
Mof_H 	H 	0.1256	0.2497	0.0237	-0.018
Mof_H 	H 	0.1956	0.147	0.13	0.015
Mof_H 	H 	0.7962	0.9586	0.1215	0.027
Mof_H 	H 	0.593	0.0097	0.0404	0.041
Mof_H 	H 	0.6938	0.1133	0.1383	0.024
Mof_H 	H 	0.4536	0.2827	0.8712	0.007
Mof_H 	H 	0.6256	0.2503	0.9763	-0.018
Mof_H 	H 	0.6956	0.353	0.87	0.014
Mof_H 	H 	0.2962	0.5414	0.8785	0.026
Mof_H 	H 	0.093	0.4903	0.9596	0.041
Mof_H 	H 	0.1938	0.3867	0.8617	0.024
Mof_H 	H 	0.0464	0.7827	0.6288	0.009
Mof_H 	H 	0.8744	0.7503	0.5237	-0.017
Mof_H 	H 	0.8044	0.853	0.63	0.015
Mof_H 	H 	0.2038	0.0414	0.6215	0.026
Mof_H 	H 	0.407	0.9903	0.5404	0.041
Mof_H 	H 	0.3062	0.8867	0.6383	0.024
Mof_H 	H 	0.5464	0.7173	0.3712	0.007
Mof_H 	H 	0.3744	0.7497	0.4763	-0.018
Mof_H 	H 	0.3044	0.647	0.37	0.014
Mof_H 	H 	0.7038	0.4586	0.3785	0.026
Mof_H 	H 	0.907	0.5097	0.4596	0.041
Mof_H 	H 	0.8062	0.6133	0.3617	0.024
Mof_C 	C 	0.9522	0.8532	0.8189	0.414
Mof_C 	C 	0.9287	0.8226	0.86368	-0.168
Mof_C 	C 	0.9909	0.7877	0.88499	0.094
Mof_C 	C 	0.9706	0.76011	0.92708	-0.175
Mof_C 	C 	0.888	0.76817	0.94817	0.101
Mof_C 	C 	0.826	0.80333	0.92666	-0.178
Mof_C 	C 	0.8464	0.83005	0.88435	0.099
Mof_C 	C 	0.7375	0.81441	0.94915	0.371
Mof_C 	C 	0.0395	0.72217	0.94872	0.408
Mof_C 	C 	0.1773	0.9516	0.82575	0.342
Mof_C 	C 	0.2439	0.9623	0.86438	-0.118
Mof_C 	C 	0.2444	0.01388	0.8872	0.06
Mof_C 	C 	0.3054	0.02453	0.92302	-0.139
Mof_C 	C 	0.3667	0.98337	0.9355	0.059
Mof_C 	C 	0.3681	0.93206	0.91235	-0.119
Mof_C 	C 	0.3062	0.92115	0.87692	0.049
Mof_C 	C 	0.3083	0.0809	0.94654	0.4
Mof_C 	C 	0.4372	0.88882	0.92582	0.334
Mof_C 	C 	0.4522	0.6468	0.1811	0.417
Mof_C 	C 	0.4287	0.6774	0.13632	-0.171
Mof_C 	C 	0.4909	0.7123	0.11501	0.099
Mof_C 	C 	0.4706	0.73989	0.07292	-0.175
Mof_C 	C 	0.388	0.73183	0.05183	0.102
Mof_C 	C 	0.326	0.69667	0.07334	-0.178
Mof_C 	C 	0.3464	0.66995	0.11565	0.101
Mof_C 	C 	0.2375	0.68559	0.05085	0.371
Mof_C 	C 	0.5395	0.77783	0.05128	0.406
Mof_C 	C 	0.6773	0.5484	0.17425	0.342
Mof_C 	C 	0.7439	0.5377	0.13562	-0.118
Mof_C 	C 	0.7444	0.48612	0.1128	0.061
Mof_C 	C 	0.8054	0.47547	0.07698	-0.139
Mof_C 	C 	0.8667	0.51663	0.0645	0.059
Mof_C 	C 	0.8681	0.56794	0.08765	-0.119
Mof_C 	C 	0.8062	0.57885	0.12308	0.049
Mof_C 	C 	0.8083	0.4191	0.05346	0.4
Mof_C 	C 	0.9372	0.61118	0.07418	0.334
Mof_C 	C 	0.0478	0.1468	0.3189	0.414
Mof_C 	C 	0.0713	0.1774	0.36368	-0.169
Mof_C 	C 	0.0091	0.2123	0.38499	0.095
Mof_C 	C 	0.0294	0.23989	0.42708	-0.174
Mof_C 	C 	0.112	0.23183	0.44817	0.101
Mof_C 	C 	0.174	0.19667	0.42666	-0.178
Mof_C 	C 	0.1536	0.16995	0.38435	0.099
Mof_C 	C 	0.2625	0.18559	0.44915	0.371
Mof_C 	C 	0.9605	0.27783	0.44872	0.407
Mof_C 	C 	0.8227	0.0484	0.32575	0.341
Mof_C 	C 	0.7561	0.0377	0.36438	-0.117
Mof_C 	C 	0.7556	0.98612	0.3872	0.059
Mof_C 	C 	0.6946	0.97547	0.42302	-0.139
Mof_C 	C 	0.6333	0.01663	0.4355	0.059
Mof_C 	C 	0.6319	0.06794	0.41235	-0.119
Mof_C 	C 	0.6938	0.07885	0.37692	0.049
Mof_C 	C 	0.6917	0.9191	0.44654	0.4
Mof_C 	C 	0.5628	0.11118	0.42582	0.334
Mof_C 	C 	0.5478	0.3532	0.6811	0.417
Mof_C 	C 	0.5713	0.3226	0.63632	-0.17
Mof_C 	C 	0.5091	0.2877	0.61501	0.099
Mof_C 	C 	0.5294	0.26011	0.57292	-0.175
Mof_C 	C 	0.612	0.26817	0.55183	0.102
Mof_C 	C 	0.674	0.30333	0.57334	-0.178
Mof_C 	C 	0.6536	0.33005	0.61565	0.101
Mof_C 	C 	0.7625	0.31441	0.55085	0.371
Mof_C 	C 	0.4605	0.22217	0.55128	0.406
Mof_C 	C 	0.3227	0.4516	0.67425	0.342
Mof_C 	C 	0.2561	0.4623	0.63562	-0.118
Mof_C 	C 	0.2556	0.51388	0.6128	0.061
Mof_C 	C 	0.1946	0.52453	0.57698	-0.139
Mof_C 	C 	0.1333	0.48337	0.5645	0.059
Mof_C 	C 	0.1319	0.43206	0.58765	-0.119
Mof_C 	C 	0.1938	0.42115	0.62308	0.049
Mof_C 	C 	0.1917	0.5809	0.55346	0.4
Mof_C 	C 	0.0628	0.38882	0.57418	0.334
Mof_C 	C 	0.0478	0.1468	0.1811	0.414
Mof_C 	C 	0.0713	0.1774	0.13632	-0.168
Mof_C 	C 	0.0091	0.2123	0.11501	0.094
Mof_C 	C 	0.0294	0.23989	0.07292	-0.175
Mof_C 	C 	0.112	0.23183	0.05183	0.101
Mof_C 	C 	0.174	0.19667	0.07334	-0.178
Mof_C 	C 	0.1536	0.16995	0.11565	0.099
Mof_C 	C 	0.2625	0.18559	0.05085	0.371
Mof_C 	C 	0.9605	0.27783	0.05128	0.408
Mof_C 	C 	0.8227	0.0484	0.17425	0.342
Mof_C 	C 	0.7561	0.0377	0.13562	-0.118
Mof_C 	C 	0.7556	0.98612	0.1128	0.06
Mof_C 	C 	0.6946	0.97547	0.07698	-0.139
Mof_C 	C 	0.6333	0.01663	0.0645	0.059
Mof_C 	C 	0.6319	0.06794	0.08765	-0.119
Mof_C 	C 	0.6938	0.07885	0.12308	0.049
Mof_C 	C 	0.6917	0.9191	0.05346	0.4
Mof_C 	C 	0.5628	0.11118	0.07418	0.334
Mof_C 	C 	0.5478	0.3532	0.8189	0.417
Mof_C 	C 	0.5713	0.3226	0.86368	-0.171
Mof_C 	C 	0.5091	0.2877	0.88499	0.099
Mof_C 	C 	0.5294	0.26011	0.92708	-0.175
Mof_C 	C 	0.612	0.26817	0.94817	0.102
Mof_C 	C 	0.674	0.30333	0.92666	-0.178
Mof_C 	C 	0.6536	0.33005	0.88435	0.101
Mof_C 	C 	0.7625	0.31441	0.94915	0.371
Mof_C 	C 	0.4605	0.22217	0.94872	0.406
Mof_C 	C 	0.3227	0.4516	0.82575	0.342
Mof_C 	C 	0.2561	0.4623	0.86438	-0.118
Mof_C 	C 	0.2556	0.51388	0.8872	0.061
Mof_C 	C 	0.1946	0.52453	0.92302	-0.139
Mof_C 	C 	0.1333	0.48337	0.9355	0.059
Mof_C 	C 	0.1319	0.43206	0.91235	-0.119
Mof_C 	C 	0.1938	0.42115	0.87692	0.049
Mof_C 	C 	0.1917	0.5809	0.94654	0.4
Mof_C 	C 	0.0628	0.38882	0.92582	0.334
Mof_C 	C 	0.9522	0.8532	0.6811	0.414
Mof_C 	C 	0.9287	0.8226	0.63632	-0.169
Mof_C 	C 	0.9909	0.7877	0.61501	0.095
Mof_C 	C 	0.9706	0.76011	0.57292	-0.174
Mof_C 	C 	0.888	0.76817	0.55183	0.101
Mof_C 	C 	0.826	0.80333	0.57334	-0.178
Mof_C 	C 	0.8464	0.83005	0.61565	0.099
Mof_C 	C 	0.7375	0.81441	0.55085	0.371
Mof_C 	C 	0.0395	0.72217	0.55128	0.407
Mof_C 	C 	0.1773	0.9516	0.67425	0.341
Mof_C 	C 	0.2439	0.9623	0.63562	-0.117
Mof_C 	C 	0.2444	0.01388	0.6128	0.059
Mof_C 	C 	0.3054	0.02453	0.57698	-0.139
Mof_C 	C 	0.3667	0.98337	0.5645	0.059
Mof_C 	C 	0.3681	0.93206	0.58765	-0.119
Mof_C 	C 	0.3062	0.92115	0.62308	0.049
Mof_C 	C 	0.3083	0.0809	0.55346	0.4
Mof_C 	C 	0.4372	0.88882	0.57418	0.334
Mof_C 	C 	0.4522	0.6468	0.3189	0.417
Mof_C 	C 	0.4287	0.6774	0.36368	-0.17
Mof_C 	C 	0.4909	0.7123	0.38499	0.099
Mof_C 	C 	0.4706	0.73989	0.42708	-0.175
Mof_C 	C 	0.388	0.73183	0.44817	0.102
Mof_C 	C 	0.326	0.69667	0.42666	-0.178
Mof_C 	C 	0.3464	0.66995	0.38435	0.101
Mof_C 	C 	0.2375	0.68559	0.44915	0.371
Mof_C 	C 	0.5395	0.77783	0.44872	0.406
Mof_C 	C 	0.6773	0.5484	0.32575	0.342
Mof_C 	C 	0.7439	0.5377	0.36438	-0.118
Mof_C 	C 	0.7444	0.48612	0.3872	0.061
Mof_C 	C 	0.8054	0.47547	0.42302	-0.139
Mof_C 	C 	0.8667	0.51663	0.4355	0.059
Mof_C 	C 	0.8681	0.56794	0.41235	-0.119
Mof_C 	C 	0.8062	0.57885	0.37692	0.049
Mof_C 	C 	0.8083	0.4191	0.44654	0.4
Mof_C 	C 	0.9372	0.61118	0.42582	0.334
Mof_O 	O 	0.0278	0.84268	0.80197	-0.454
Mof_O 	O 	0.8943	0.88599	0.80311	-0.478
Mof_O 	O 	0.6782	0.84033	0.92573	-0.428
Mof_O 	O 	0.7212	0.79918	0.99046	-0.524
Mof_O 	O 	0.0174	0.69767	0.98658	-0.464
Mof_O 	O 	0.1115	0.71654	0.92724	-0.482
Mof_O 	O 	0.116	0.987	0.82099	-0.271
Mof_O 	O 	0.1883	0.9084	0.80093	-0.399
Mof_O 	O 	0.2597	0.11893	0.93008	-0.471
Mof_O 	O 	0.3598	0.08465	0.98166	-0.45
Mof_O 	O 	0.4999	0.907	0.9519	-0.409
Mof_O 	O 	0.4302	0.83914	0.91246	-0.319
Mof_O 	O 	0.5278	0.65732	0.19803	-0.456
Mof_O 	O 	0.3943	0.61401	0.19689	-0.478
Mof_O 	O 	0.1782	0.65967	0.07427	-0.428
Mof_O 	O 	0.2212	0.70082	0.00954	-0.524
Mof_O 	O 	0.5174	0.80233	0.01342	-0.465
Mof_O 	O 	0.6115	0.78346	0.07276	-0.482
Mof_O 	O 	0.616	0.513	0.17901	-0.272
Mof_O 	O 	0.6883	0.5916	0.19907	-0.399
Mof_O 	O 	0.7597	0.38107	0.06992	-0.471
Mof_O 	O 	0.8598	0.41535	0.01834	-0.45
Mof_O 	O 	0.9999	0.593	0.0481	-0.408
Mof_O 	O 	0.9302	0.66086	0.08754	-0.319
Mof_O 	O 	0.9722	0.15732	0.30197	-0.455
Mof_O 	O 	0.1057	0.11401	0.30311	-0.478
Mof_O 	O 	0.3218	0.15967	0.42573	-0.428
Mof_O 	O 	0.2788	0.20082	0.49046	-0.524
Mof_O 	O 	0.9826	0.30233	0.48658	-0.465
Mof_O 	O 	0.8885	0.28346	0.42724	-0.482
Mof_O 	O 	0.884	0.013	0.32099	-0.271
Mof_O 	O 	0.8117	0.0916	0.30093	-0.399
Mof_O 	O 	0.7403	0.88107	0.43008	-0.472
Mof_O 	O 	0.6402	0.91535	0.48166	-0.45
Mof_O 	O 	0.5001	0.093	0.4519	-0.409
Mof_O 	O 	0.5698	0.16086	0.41246	-0.319
Mof_O 	O 	0.4722	0.34268	0.69803	-0.456
Mof_O 	O 	0.6057	0.38599	0.69689	-0.478
Mof_O 	O 	0.8218	0.34033	0.57427	-0.428
Mof_O 	O 	0.7788	0.29918	0.50954	-0.524
Mof_O 	O 	0.4826	0.19767	0.51342	-0.465
Mof_O 	O 	0.3885	0.21654	0.57276	-0.482
Mof_O 	O 	0.384	0.487	0.67901	-0.272
Mof_O 	O 	0.3117	0.4084	0.69907	-0.399
Mof_O 	O 	0.2403	0.61893	0.56992	-0.471
Mof_O 	O 	0.1402	0.58465	0.51834	-0.45
Mof_O 	O 	0.0001	0.407	0.5481	-0.409
Mof_O 	O 	0.0698	0.33914	0.58754	-0.319
Mof_O 	O 	0.9722	0.15732	0.19803	-0.454
Mof_O 	O 	0.1057	0.11401	0.19689	-0.478
Mof_O 	O 	0.3218	0.15967	0.07427	-0.428
Mof_O 	O 	0.2788	0.20082	0.00954	-0.524
Mof_O 	O 	0.9826	0.30233	0.01342	-0.464
Mof_O 	O 	0.8885	0.28346	0.07276	-0.482
Mof_O 	O 	0.884	0.013	0.17901	-0.271
Mof_O 	O 	0.8117	0.0916	0.19907	-0.399
Mof_O 	O 	0.7403	0.88107	0.06992	-0.471
Mof_O 	O 	0.6402	0.91535	0.01834	-0.45
Mof_O 	O 	0.5001	0.093	0.0481	-0.409
Mof_O 	O 	0.5698	0.16086	0.08754	-0.319
Mof_O 	O 	0.4722	0.34268	0.80197	-0.456
Mof_O 	O 	0.6057	0.38599	0.80311	-0.478
Mof_O 	O 	0.8218	0.34033	0.92573	-0.428
Mof_O 	O 	0.7788	0.29918	0.99046	-0.524
Mof_O 	O 	0.4826	0.19767	0.98658	-0.465
Mof_O 	O 	0.3885	0.21654	0.92724	-0.482
Mof_O 	O 	0.384	0.487	0.82099	-0.272
Mof_O 	O 	0.3117	0.4084	0.80093	-0.399
Mof_O 	O 	0.2403	0.61893	0.93008	-0.471
Mof_O 	O 	0.1402	0.58465	0.98166	-0.45
Mof_O 	O 	0.0001	0.407	0.9519	-0.408
Mof_O 	O 	0.0698	0.33914	0.91246	-0.319
Mof_O 	O 	0.0278	0.84268	0.69803	-0.455
Mof_O 	O 	0.8943	0.88599	0.69689	-0.478
Mof_O 	O 	0.6782	0.84033	0.57427	-0.428
Mof_O 	O 	0.7212	0.79918	0.50954	-0.524
Mof_O 	O 	0.0174	0.69767	0.51342	-0.465
Mof_O 	O 	0.1115	0.71654	0.57276	-0.482
Mof_O 	O 	0.116	0.987	0.67901	-0.271
Mof_O 	O 	0.1883	0.9084	0.69907	-0.399
Mof_O 	O 	0.2597	0.11893	0.56992	-0.472
Mof_O 	O 	0.3598	0.08465	0.51834	-0.45
Mof_O 	O 	0.4999	0.907	0.5481	-0.409
Mof_O 	O 	0.4302	0.83914	0.58754	-0.319
Mof_O 	O 	0.5278	0.65732	0.30197	-0.456
Mof_O 	O 	0.3943	0.61401	0.30311	-0.478
Mof_O 	O 	0.1782	0.65967	0.42573	-0.428
Mof_O 	O 	0.2212	0.70082	0.49046	-0.524
Mof_O 	O 	0.5174	0.80233	0.48658	-0.465
Mof_O 	O 	0.6115	0.78346	0.42724	-0.482
Mof_O 	O 	0.616	0.513	0.32099	-0.272
Mof_O 	O 	0.6883	0.5916	0.30093	-0.399
Mof_O 	O 	0.7597	0.38107	0.43008	-0.471
Mof_O 	O 	0.8598	0.41535	0.48166	-0.45
Mof_O 	O 	0.9999	0.593	0.4519	-0.409
Mof_O 	O 	0.9302	0.66086	0.41246	-0.319
Mof_O 	O 	0.026	0.95509	0.75	-0.408
Mof_O 	O 	0.526	0.54491	0.25	-0.409
Mof_O 	O 	0.974	0.04491	0.25	-0.408
Mof_O 	O 	0.474	0.45509	0.75	-0.409
_end
