# CIF file generated by openbabel 3.1.0, see https://openbabel.org
data_I
_chemical_name_common 'TEBCEK_clean'
_cell_length_a 9.141
_cell_length_b 9.667
_cell_length_c 13.855
_cell_angle_alpha 100.83
_cell_angle_beta 90.81
_cell_angle_gamma 100.94
_space_group_name_H-M_alt 'P 1'
_space_group_name_Hall 'P 1'
loop_
    _symmetry_equiv_pos_as_xyz
    x,y,z
loop_
    _atom_site_label
    _atom_site_type_symbol
    _atom_site_fract_x
    _atom_site_fract_y
    _atom_site_fract_z
    _atom_site_occupancy
    Co1      Co       0.84945    0.03944    0.26753    1.000
    Co2      Co       0.15055    0.96056    0.73247    1.000
    Co3      Co       0.00000    0.00000    0.50000    1.000
    H1       H        0.45960    0.20270    0.19700    1.000
    H2       H        0.58940    0.31620    0.16800    1.000
    H3       H        0.16310    0.06610    0.15160    1.000
    H4       H        0.20010    0.89940    0.00150    1.000
    H5       H        0.79910    0.76950    0.09630    1.000
    H6       H        0.73620    0.65690    0.93100    1.000
    H7       H        0.68270    0.44360    0.81590    1.000
    H8       H        0.11830    0.42860    0.81330    1.000
    H9       H        0.17120    0.63960    0.93050    1.000
    H10      H        0.65160    0.17880    0.76610    1.000
    H11      H        0.68330    0.98640    0.63110    1.000
    H12      H        0.04160    0.28630    0.65330    1.000
    H13      H        0.67470    0.78060    0.48600    1.000
    H14      H        0.53760    0.84240    0.45770    1.000
    H15      H        0.68710    0.54880    0.33140    1.000
    H16      H        0.31160    0.25930    0.31840    1.000
    H17      H        0.32660    0.66500    0.45100    1.000
    H18      H        0.12610    0.46370    0.48380    1.000
    H19      H        0.07480    0.47050    0.37680    1.000
    H20      H        0.54040    0.79730    0.80300    1.000
    H21      H        0.41060    0.68380    0.83200    1.000
    H22      H        0.83690    0.93390    0.84840    1.000
    H23      H        0.79990    0.10060    0.99850    1.000
    H24      H        0.20090    0.23050    0.90370    1.000
    H25      H        0.26380    0.34310    0.06900    1.000
    H26      H        0.31730    0.55640    0.18410    1.000
    H27      H        0.88170    0.57140    0.18670    1.000
    H28      H        0.82880    0.36040    0.06950    1.000
    H29      H        0.34840    0.82120    0.23390    1.000
    H30      H        0.31670    0.01360    0.36890    1.000
    H31      H        0.95840    0.71370    0.34670    1.000
    H32      H        0.32530    0.21940    0.51400    1.000
    H33      H        0.46240    0.15760    0.54230    1.000
    H34      H        0.31290    0.45120    0.66860    1.000
    H35      H        0.68840    0.74070    0.68160    1.000
    H36      H        0.67340    0.33500    0.54900    1.000
    H37      H        0.87390    0.53630    0.51620    1.000
    H38      H        0.92520    0.52950    0.62320    1.000
    C1       C        0.54780    0.27290    0.22100    1.000
    C2       C        0.09440    0.98500    0.12160    1.000
    C3       C        0.11580    0.89350    0.03860    1.000
    C4       C        0.89400    0.82270    0.09190    1.000
    C5       C        0.95730    0.66550    0.94300    1.000
    C6       C        0.81240    0.60970    0.90830    1.000
    C7       C        0.78060    0.48260    0.83920    1.000
    C8       C        0.89470    0.41440    0.80510    1.000
    C9       C        0.04160    0.47350    0.83800    1.000
    C10      C        0.07330    0.59960    0.90770    1.000
    C11      C        0.73380    0.17710    0.72740    1.000
    C12      C        0.75210    0.07130    0.65260    1.000
    C13      C        0.94860    0.23490    0.66430    1.000
    C14      C        0.69740    0.85390    0.35860    1.000
    C15      C        0.60750    0.78250    0.43170    1.000
    C16      C        0.52090    0.63260    0.39590    1.000
    C17      C        0.58720    0.52640    0.34570    1.000
    C18      C        0.51040    0.38860    0.31610    1.000
    C19      C        0.36370    0.35330    0.33800    1.000
    C20      C        0.29360    0.45590    0.38860    1.000
    C21      C        0.37370    0.59490    0.41680    1.000
    C22      C        0.13270    0.42320    0.41480    1.000
    C23      C        0.06400    0.26530    0.39680    1.000
    C24      C        0.66030    0.20200    0.26290    1.000
    C25      C        0.45220    0.72710    0.77900    1.000
    C26      C        0.90560    0.01500    0.87840    1.000
    C27      C        0.88420    0.10650    0.96140    1.000
    C28      C        0.10600    0.17730    0.90810    1.000
    C29      C        0.04270    0.33450    0.05700    1.000
    C30      C        0.18760    0.39030    0.09170    1.000
    C31      C        0.21940    0.51740    0.16080    1.000
    C32      C        0.10530    0.58560    0.19490    1.000
    C33      C        0.95840    0.52650    0.16200    1.000
    C34      C        0.92670    0.40040    0.09230    1.000
    C35      C        0.26620    0.82290    0.27260    1.000
    C36      C        0.24790    0.92870    0.34740    1.000
    C37      C        0.05140    0.76510    0.33570    1.000
    C38      C        0.30260    0.14610    0.64140    1.000
    C39      C        0.39250    0.21750    0.56830    1.000
    C40      C        0.47910    0.36740    0.60410    1.000
    C41      C        0.41280    0.47360    0.65430    1.000
    C42      C        0.48960    0.61140    0.68390    1.000
    C43      C        0.63630    0.64670    0.66200    1.000
    C44      C        0.70640    0.54410    0.61140    1.000
    C45      C        0.62630    0.40510    0.58320    1.000
    C46      C        0.86730    0.57680    0.58520    1.000
    C47      C        0.93600    0.73470    0.60320    1.000
    C48      C        0.33970    0.79800    0.73710    1.000
    N1       N        0.95510    0.93980    0.15480    1.000
    N2       N        0.98740    0.78980    0.02010    1.000
    N3       N        0.86020    0.28160    0.73530    1.000
    N4       N        0.88790    0.10810    0.61270    1.000
    N5       N        0.04490    0.06020    0.84520    1.000
    N6       N        0.01260    0.21020    0.97990    1.000
    N7       N        0.13980    0.71840    0.26470    1.000
    N8       N        0.11210    0.89190    0.38730    1.000
    O1       O        0.80600    0.95990    0.39200    1.000
    O2       O        0.66920    0.81900    0.26920    1.000
    O3       O        0.07460    0.19940    0.46500    1.000
    O4       O        0.00240    0.21150    0.31390    1.000
    O5       O        0.68900    0.09200    0.18190    1.000
    O6       O        0.70030    0.22530    0.34530    1.000
    O7       O        0.19400    0.04010    0.60800    1.000
    O8       O        0.33080    0.18100    0.73080    1.000
    O9       O        0.92540    0.80060    0.53500    1.000
    O10      O        0.99760    0.78850    0.68610    1.000
    O11      O        0.31100    0.90800    0.81810    1.000
    O12      O        0.29970    0.77470    0.65470    1.000
