# CIF file generated by openbabel 3.1.0, see https://openbabel.org
data_I
_chemical_name_common 'BETFAJ_clean'
_cell_length_a 13.5515
_cell_length_b 14.314
_cell_length_c 16.0843
_cell_angle_alpha 116.421
_cell_angle_beta 98.7464
_cell_angle_gamma 90
_space_group_name_H-M_alt 'P 1'
_space_group_name_Hall 'P 1'
loop_
    _symmetry_equiv_pos_as_xyz
    x,y,z
loop_
    _atom_site_label
    _atom_site_type_symbol
    _atom_site_fract_x
    _atom_site_fract_y
    _atom_site_fract_z
    _atom_site_occupancy
    Sm1      Sm       0.95794    0.89511    0.36508    1.000
    Sm2      Sm       0.54206    0.53003    0.63492    1.000
    Sm3      Sm       0.04206    0.10489    0.63492    1.000
    Sm4      Sm       0.45794    0.46997    0.36508    1.000
    H1       H        0.04940    0.97800    0.11060    1.000
    H2       H        0.09860    0.93960    0.96820    1.000
    H3       H        0.12930    0.64500    0.92260    1.000
    H4       H        0.08100    0.68470    0.06640    1.000
    H5       H        0.15600    0.68500    0.81200    1.000
    H6       H        0.19920    0.68160    0.45960    1.000
    H7       H        0.27250    0.68110    0.71100    1.000
    H8       H        0.07760    0.87990    0.68120    1.000
    H9       H        0.45060    0.86740    0.88940    1.000
    H10      H        0.40140    0.97140    0.03180    1.000
    H11      H        0.37070    0.72240    0.07740    1.000
    H12      H        0.41900    0.61830    0.93360    1.000
    H13      H        0.34400    0.87300    0.18800    1.000
    H14      H        0.30080    0.22200    0.54040    1.000
    H15      H        0.22750    0.97010    0.28900    1.000
    H16      H        0.42240    0.19870    0.31880    1.000
    H17      H        0.95060    0.02200    0.88940    1.000
    H18      H        0.90140    0.06040    0.03180    1.000
    H19      H        0.87070    0.35500    0.07740    1.000
    H20      H        0.91900    0.31530    0.93360    1.000
    H21      H        0.84400    0.31500    0.18800    1.000
    H22      H        0.80080    0.31840    0.54040    1.000
    H23      H        0.72750    0.31890    0.28900    1.000
    H24      H        0.92240    0.12010    0.31880    1.000
    H25      H        0.54940    0.13260    0.11060    1.000
    H26      H        0.59860    0.02860    0.96820    1.000
    H27      H        0.62930    0.27760    0.92260    1.000
    H28      H        0.58100    0.38170    0.06640    1.000
    H29      H        0.65600    0.12700    0.81200    1.000
    H30      H        0.69920    0.77800    0.45960    1.000
    H31      H        0.77250    0.02990    0.71100    1.000
    H32      H        0.57760    0.80130    0.68120    1.000
    C1       C        0.02100    0.85880    0.19300    1.000
    C2       C        0.05750    0.83560    0.10240    1.000
    C3       C        0.06490    0.91040    0.07300    1.000
    C4       C        0.09510    0.88800    0.98800    1.000
    C5       C        0.12020    0.78700    0.93260    1.000
    C6       C        0.11370    0.71250    0.96040    1.000
    C7       C        0.08360    0.73640    0.04660    1.000
    C8       C        0.14540    0.75810    0.83800    1.000
    C9       C        0.07130    0.83010    0.49940    1.000
    C10      C        0.12900    0.78700    0.56080    1.000
    C11      C        0.19330    0.70850    0.52280    1.000
    C12      C        0.24800    0.67080    0.57960    1.000
    C13      C        0.23600    0.70710    0.67300    1.000
    C14      C        0.16780    0.78380    0.70980    1.000
    C15      C        0.11840    0.82560    0.65540    1.000
    C16      C        0.32370    0.59180    0.54280    1.000
    C17      C        0.47900    0.66580    0.80700    1.000
    C18      C        0.44250    0.73320    0.89760    1.000
    C19      C        0.43510    0.83740    0.92700    1.000
    C20      C        0.40490    0.90000    0.01200    1.000
    C21      C        0.37980    0.85440    0.06740    1.000
    C22      C        0.38630    0.75210    0.03960    1.000
    C23      C        0.41640    0.68980    0.95340    1.000
    C24      C        0.35460    0.92010    0.16200    1.000
    C25      C        0.42870    0.33070    0.50060    1.000
    C26      C        0.37100    0.22620    0.43920    1.000
    C27      C        0.30670    0.18570    0.47720    1.000
    C28      C        0.25200    0.09120    0.42040    1.000
    C29      C        0.26400    0.03410    0.32700    1.000
    C30      C        0.33220    0.07400    0.29020    1.000
    C31      C        0.38160    0.17020    0.34460    1.000
    C32      C        0.17630    0.04900    0.45720    1.000
    C33      C        0.97900    0.14120    0.80700    1.000
    C34      C        0.94250    0.16440    0.89760    1.000
    C35      C        0.93510    0.08960    0.92700    1.000
    C36      C        0.90490    0.11200    0.01200    1.000
    C37      C        0.87980    0.21300    0.06740    1.000
    C38      C        0.88630    0.28750    0.03960    1.000
    C39      C        0.91640    0.26360    0.95340    1.000
    C40      C        0.85460    0.24190    0.16200    1.000
    C41      C        0.92870    0.16990    0.50060    1.000
    C42      C        0.87100    0.21300    0.43920    1.000
    C43      C        0.80670    0.29150    0.47720    1.000
    C44      C        0.75200    0.32920    0.42040    1.000
    C45      C        0.76400    0.29290    0.32700    1.000
    C46      C        0.83220    0.21620    0.29020    1.000
    C47      C        0.88160    0.17440    0.34460    1.000
    C48      C        0.67630    0.40820    0.45720    1.000
    C49      C        0.52100    0.33420    0.19300    1.000
    C50      C        0.55750    0.26680    0.10240    1.000
    C51      C        0.56490    0.16260    0.07300    1.000
    C52      C        0.59510    0.10000    0.98800    1.000
    C53      C        0.62020    0.14560    0.93260    1.000
    C54      C        0.61370    0.24790    0.96040    1.000
    C55      C        0.58360    0.31020    0.04660    1.000
    C56      C        0.64540    0.07990    0.83800    1.000
    C57      C        0.57130    0.66930    0.49940    1.000
    C58      C        0.62900    0.77380    0.56080    1.000
    C59      C        0.69330    0.81430    0.52280    1.000
    C60      C        0.74800    0.90880    0.57960    1.000
    C61      C        0.73600    0.96590    0.67300    1.000
    C62      C        0.66780    0.92600    0.70980    1.000
    C63      C        0.61840    0.82980    0.65540    1.000
    C64      C        0.82370    0.95100    0.54280    1.000
    N1       N        0.14870    0.82023    0.80306    1.000
    N2       N        0.35130    0.01717    0.19694    1.000
    N3       N        0.85130    0.17977    0.19694    1.000
    N4       N        0.64870    0.98283    0.80306    1.000
    O1       O        0.99370    0.94868    0.24096    1.000
    O2       O        0.01810    0.78803    0.21746    1.000
    O3       O        0.04060    0.92127    0.53714    1.000
    O4       O        0.05320    0.77474    0.41208    1.000
    O5       O        0.37100    0.56096    0.59792    1.000
    O6       O        0.33350    0.56161    0.45742    1.000
    O7       O        0.50630    0.70772    0.75904    1.000
    O8       O        0.48190    0.57057    0.78254    1.000
    O9       O        0.45940    0.38413    0.46286    1.000
    O10      O        0.44680    0.36266    0.58792    1.000
    O11      O        0.12900    0.96304    0.40208    1.000
    O12      O        0.16650    0.10419    0.54258    1.000
    O13      O        0.00630    0.05132    0.75904    1.000
    O14      O        0.98190    0.21197    0.78254    1.000
    O15      O        0.95940    0.07873    0.46286    1.000
    O16      O        0.94680    0.22526    0.58792    1.000
    O17      O        0.62900    0.43904    0.40208    1.000
    O18      O        0.66650    0.43839    0.54258    1.000
    O19      O        0.49370    0.29228    0.24096    1.000
    O20      O        0.51810    0.42943    0.21746    1.000
    O21      O        0.54060    0.61587    0.53714    1.000
    O22      O        0.55320    0.63734    0.41208    1.000
    O23      O        0.87100    0.03696    0.59792    1.000
    O24      O        0.83350    0.89581    0.45742    1.000
