# CIF file generated by openbabel 3.1.0, see https://openbabel.org
data_I
_chemical_name_common 'PITPEP_clean'
_cell_length_a 12.3981
_cell_length_b 20.7868
_cell_length_c 20.7868
_cell_angle_alpha 63.8508
_cell_angle_beta 78.5325
_cell_angle_gamma 101.468
_space_group_name_H-M_alt 'P 1'
_space_group_name_Hall 'P 1'
loop_
    _symmetry_equiv_pos_as_xyz
    x,y,z
loop_
    _atom_site_label
    _atom_site_type_symbol
    _atom_site_fract_x
    _atom_site_fract_y
    _atom_site_fract_z
    _atom_site_occupancy
    Al1      Al       0.94016    0.39426    0.33749    1.000
    Al2      Al       0.27765    0.33749    0.26825    1.000
    Al3      Al       0.45410    0.73175    0.60574    1.000
    Al4      Al       0.54590    0.26825    0.39426    1.000
    Al5      Al       0.72235    0.66251    0.73175    1.000
    Al6      Al       0.05984    0.60574    0.66251    1.000
    P1       P        0.86310    0.66314    0.58326    1.000
    P2       P        0.17225    0.47439    0.19416    1.000
    P3       P        0.99808    0.48214    0.60741    1.000
    P4       P        0.36641    0.19416    0.33145    1.000
    P5       P        0.00192    0.51786    0.39259    1.000
    P6       P        0.48406    0.08955    0.51786    1.000
    P7       P        0.82775    0.52561    0.80584    1.000
    P8       P        0.39451    0.39259    0.08955    1.000
    P9       P        0.30214    0.66855    0.52561    1.000
    P10      P        0.51594    0.91045    0.48214    1.000
    P11      P        0.19996    0.75360    0.66314    1.000
    P12      P        0.55364    0.41674    0.24640    1.000
    P13      P        0.60549    0.60741    0.91045    1.000
    P14      P        0.13690    0.33686    0.41674    1.000
    P15      P        0.44636    0.58326    0.75360    1.000
    P16      P        0.69786    0.33145    0.47439    1.000
    P17      P        0.80004    0.24640    0.33686    1.000
    P18      P        0.63359    0.80584    0.66855    1.000
    H1       H        0.89600    0.21640    0.48150    1.000
    H2       H        0.22900    0.57710    0.21170    1.000
    H3       H        0.42850    0.68180    0.95310    1.000
    H4       H        0.88270    0.36660    0.71060    1.000
    H5       H        0.32040    0.69790    0.78360    1.000
    H6       H        0.61800    0.26540    0.60550    1.000
    H7       H        0.83680    0.56840    0.57780    1.000
    H8       H        0.81740    0.03100    0.31280    1.000
    H9       H        0.42810    0.48340    0.73000    1.000
    H10      H        0.22490    0.46950    0.10020    1.000
    H11      H        0.63710    0.98910    0.70820    1.000
    H12      H        0.10400    0.78360    0.51850    1.000
    H13      H        0.76290    0.57840    0.10350    1.000
    H14      H        0.77740    0.02960    0.39000    1.000
    H15      H        0.18450    0.31810    0.57840    1.000
    H16      H        0.18260    0.96900    0.68720    1.000
    H17      H        0.38160    0.95310    0.36510    1.000
    H18      H        0.41310    0.71830    0.81900    1.000
    H19      H        0.65190    0.21120    0.57710    1.000
    H20      H        0.34530    0.70820    0.30270    1.000
    H21      H        0.25220    0.41960    0.97040    1.000
    H22      H        0.28360    0.71170    0.85200    1.000
    H23      H        0.26840    0.85380    0.56840    1.000
    H24      H        0.64380    0.94040    0.36860    1.000
    H25      H        0.13360    0.89650    0.68190    1.000
    H26      H        0.98760    0.63140    0.30900    1.000
    H27      H        0.59490    0.99130    0.49930    1.000
    H28      H        0.68960    0.36740    0.62020    1.000
    H29      H        0.38200    0.73460    0.39450    1.000
    H30      H        0.39640    0.49060    0.00870    1.000
    H31      H        0.59330    0.71060    0.92280    1.000
    H32      H        0.85050    0.74010    0.46570    1.000
    H33      H        0.62250    0.51850    0.69790    1.000
    H34      H        0.09420    0.49930    0.50940    1.000
    H35      H        0.94470    0.78660    0.48340    1.000
    H36      H        0.32510    0.10020    0.43030    1.000
    H37      H        0.35200    0.69730    0.01090    1.000
    H38      H        0.40670    0.28940    0.07720    1.000
    H39      H        0.84190    0.27000    0.21340    1.000
    H40      H        0.25330    0.63490    0.31820    1.000
    H41      H        0.23210    0.81900    0.46270    1.000
    H42      H        0.05530    0.21340    0.51660    1.000
    H43      H        0.01240    0.36860    0.69100    1.000
    H44      H        0.67780    0.98760    0.63260    1.000
    H45      H        0.36290    0.01090    0.29180    1.000
    H46      H        0.48390    0.07720    0.63340    1.000
    H47      H        0.51610    0.92280    0.36660    1.000
    H48      H        0.74670    0.36510    0.68180    1.000
    H49      H        0.23710    0.42160    0.89650    1.000
    H50      H        0.29660    0.30900    0.05960    1.000
    H51      H        0.13560    0.85200    0.43630    1.000
    H52      H        0.22260    0.97040    0.61000    1.000
    H53      H        0.30520    0.53730    0.28170    1.000
    H54      H        0.83260    0.61000    0.41960    1.000
    H55      H        0.31620    0.46570    0.79420    1.000
    H56      H        0.44070    0.21170    0.21120    1.000
    H57      H        0.67960    0.30210    0.21640    1.000
    H58      H        0.61840    0.04690    0.63490    1.000
    H59      H        0.55930    0.78830    0.78880    1.000
    H60      H        0.86980    0.68720    0.34380    1.000
    H61      H        0.42810    0.56370    0.28830    1.000
    H62      H        0.86640    0.10350    0.31810    1.000
    H63      H        0.88960    0.20580    0.25990    1.000
    H64      H        0.14950    0.25990    0.53430    1.000
    H65      H        0.15810    0.73000    0.78660    1.000
    H66      H        0.81550    0.68190    0.42160    1.000
    H67      H        0.86440    0.14800    0.56370    1.000
    H68      H        0.24460    0.56970    0.53050    1.000
    H69      H        0.57150    0.31820    0.04690    1.000
    H70      H        0.31040    0.63260    0.37980    1.000
    H71      H        0.90580    0.50070    0.49060    1.000
    H72      H        0.41460    0.57780    0.85380    1.000
    H73      H        0.65470    0.29180    0.69730    1.000
    H74      H        0.22350    0.60550    0.12910    1.000
    H75      H        0.73160    0.14620    0.43160    1.000
    H76      H        0.70340    0.69100    0.94040    1.000
    H77      H        0.69020    0.37980    0.98760    1.000
    H78      H        0.37750    0.48150    0.30210    1.000
    H79      H        0.34810    0.78880    0.42290    1.000
    H80      H        0.69480    0.46270    0.71830    1.000
    H81      H        0.58690    0.28170    0.18100    1.000
    H82      H        0.58540    0.42220    0.14620    1.000
    H83      H        0.74780    0.58040    0.02960    1.000
    H84      H        0.77100    0.42290    0.78830    1.000
    H85      H        0.21360    0.34380    0.96900    1.000
    H86      H        0.75540    0.43030    0.46950    1.000
    H87      H        0.77510    0.53050    0.89980    1.000
    H88      H        0.57190    0.51660    0.27000    1.000
    H89      H        0.64800    0.30270    0.98910    1.000
    H90      H        0.76790    0.18100    0.53730    1.000
    H91      H        0.11730    0.63340    0.28940    1.000
    H92      H        0.35620    0.05960    0.63140    1.000
    H93      H        0.11040    0.79420    0.74010    1.000
    H94      H        0.78640    0.65620    0.03100    1.000
    H95      H        0.32220    0.01240    0.36740    1.000
    H96      H        0.57190    0.43630    0.71170    1.000
    H97      H        0.71640    0.28830    0.14800    1.000
    H98      H        0.64740    0.87090    0.73460    1.000
    H99      H        0.30980    0.62020    0.01240    1.000
    H100     H        0.40510    0.00870    0.50070    1.000
    H101     H        0.68380    0.53430    0.20580    1.000
    H102     H        0.13020    0.31280    0.65620    1.000
    H103     H        0.60360    0.50940    0.99130    1.000
    H104     H        0.35260    0.12910    0.26540    1.000
    H105     H        0.67490    0.89980    0.56970    1.000
    H106     H        0.16320    0.43160    0.42220    1.000
    H107     H        0.16740    0.39000    0.58040    1.000
    H108     H        0.77650    0.39450    0.87090    1.000
    C1       C        0.58381    0.83215    0.73842    1.000
    C2       C        0.42925    0.05061    0.61866    1.000
    C3       C        0.28411    0.83554    0.72621    1.000
    C4       C        0.07410    0.66457    0.36947    1.000
    C5       C        0.34482    0.72691    0.80655    1.000
    C6       C        0.32223    0.73842    0.42943    1.000
    C7       C        0.79057    0.27338    0.58867    1.000
    C8       C        0.92590    0.33543    0.63053    1.000
    C9       C        0.38054    0.00389    0.33687    1.000
    C10      C        0.55143    0.56175    0.16446    1.000
    C11      C        0.73906    0.60378    0.06030    1.000
    C12      C        0.26094    0.39622    0.93970    1.000
    C13      C        0.28259    0.66313    0.34076    1.000
    C14      C        0.43802    0.56184    0.18978    1.000
    C15      C        0.57075    0.94939    0.38134    1.000
    C16      C        0.37864    0.33073    0.05061    1.000
    C17      C        0.75166    0.42943    0.83215    1.000
    C18      C        0.37924    0.58867    0.13795    1.000
    C19      C        0.98968    0.27379    0.56175    1.000
    C20      C        0.20943    0.72662    0.41133    1.000
    C21      C        0.91460    0.73845    0.48595    1.000
    C22      C        0.84863    0.19345    0.53346    1.000
    C23      C        0.56198    0.43816    0.81022    1.000
    C24      C        0.38209    0.53346    0.27309    1.000
    C25      C        0.65518    0.27309    0.19345    1.000
    C26      C        0.17615    0.77560    0.73845    1.000
    C27      C        0.48281    0.86205    0.72662    1.000
    C28      C        0.61946    0.99611    0.66313    1.000
    C29      C        0.56105    0.37499    0.94034    1.000
    C30      C        0.41619    0.16785    0.26158    1.000
    C31      C        0.71741    0.33687    0.65924    1.000
    C32      C        0.82385    0.22440    0.26155    1.000
    C33      C        0.51719    0.13795    0.27338    1.000
    C34      C        0.62136    0.66927    0.94939    1.000
    C35      C        0.98540    0.68468    0.40218    1.000
    C36      C        0.30072    0.91314    0.68468    1.000
    C37      C        0.50139    0.94034    0.68467    1.000
    C38      C        0.49861    0.05966    0.31533    1.000
    C39      C        0.59047    0.03404    0.33543    1.000
    C40      C        0.55643    0.63053    0.03404    1.000
    C41      C        0.01460    0.31532    0.59782    1.000
    C42      C        0.69928    0.08686    0.31532    1.000
    C43      C        0.87618    0.24838    0.56184    1.000
    C44      C        0.40953    0.96596    0.66457    1.000
    C45      C        0.71589    0.16446    0.27379    1.000
    C46      C        0.43895    0.62501    0.05966    1.000
    C47      C        0.04791    0.61866    0.33073    1.000
    C48      C        0.13528    0.33592    0.60378    1.000
    C49      C        0.24834    0.57057    0.16785    1.000
    C50      C        0.61242    0.59782    0.08686    1.000
    C51      C        0.37665    0.65924    0.00389    1.000
    C52      C        0.79936    0.06030    0.33592    1.000
    C53      C        0.67777    0.26158    0.57057    1.000
    C54      C        0.81394    0.31533    0.62501    1.000
    C55      C        0.59945    0.51405    0.22440    1.000
    C56      C        0.95209    0.38134    0.66927    1.000
    C57      C        0.37220    0.81022    0.75162    1.000
    C58      C        0.38758    0.40218    0.91314    1.000
    C59      C        0.86472    0.66408    0.39622    1.000
    C60      C        0.44357    0.36947    0.96596    1.000
    C61      C        0.61791    0.46654    0.72691    1.000
    C62      C        0.08540    0.26155    0.51405    1.000
    C63      C        0.62076    0.41133    0.86205    1.000
    C64      C        0.62335    0.34076    0.99611    1.000
    C65      C        0.12382    0.75162    0.43816    1.000
    C66      C        0.01032    0.72621    0.43825    1.000
    C67      C        0.20064    0.93970    0.66408    1.000
    C68      C        0.15137    0.80655    0.46654    1.000
    C69      C        0.62780    0.18978    0.24838    1.000
    C70      C        0.44857    0.43825    0.83554    1.000
    C71      C        0.40055    0.48595    0.77560    1.000
    C72      C        0.18606    0.68467    0.37499    1.000
    O1       O        0.57453    0.61310    0.73871    1.000
    O2       O        0.49704    0.17160    0.48048    1.000
    O3       O        0.37479    0.58017    0.82620    1.000
    O4       O        0.22369    0.31811    0.37144    1.000
    O5       O        0.02248    0.51952    0.65208    1.000
    O6       O        0.16617    0.47557    0.11956    1.000
    O7       O        0.23872    0.42490    0.23134    1.000
    O8       O        0.65495    0.54387    0.95272    1.000
    O9       O        0.31324    0.73871    0.64819    1.000
    O10      O        0.77631    0.68189    0.62856    1.000
    O11      O        0.04832    0.45134    0.24128    1.000
    O12      O        0.79462    0.59363    0.58017    1.000
    O13      O        0.28960    0.24128    0.30738    1.000
    O14      O        0.76128    0.57510    0.76866    1.000
    O15      O        0.18618    0.65624    0.57510    1.000
    O16      O        0.47558    0.57223    0.92579    1.000
    O17      O        0.62521    0.41983    0.17380    1.000
    O18      O        0.69060    0.40487    0.47557    1.000
    O19      O        0.68676    0.26129    0.35181    1.000
    O20      O        0.34505    0.45613    0.04728    1.000
    O21      O        0.03857    0.35181    0.38690    1.000
    O22      O        0.96143    0.64819    0.61310    1.000
    O23      O        0.88892    0.49659    0.45613    1.000
    O24      O        0.30940    0.59513    0.52443    1.000
    O25      O        0.60767    0.95272    0.50341    1.000
    O26      O        0.09665    0.49802    0.42777    1.000
    O27      O        0.39233    0.04728    0.49659    1.000
    O28      O        0.20099    0.82620    0.59363    1.000
    O29      O        0.52442    0.42777    0.07421    1.000
    O30      O        0.47006    0.23134    0.34376    1.000
    O31      O        0.71427    0.88044    0.59513    1.000
    O32      O        0.59698    0.30738    0.45134    1.000
    O33      O        0.50296    0.82840    0.51952    1.000
    O34      O        0.32544    0.34792    0.17160    1.000
    O35      O        0.95168    0.54866    0.75872    1.000
    O36      O        0.59513    0.37144    0.31045    1.000
    O37      O        0.11108    0.50341    0.54387    1.000
    O38      O        0.59863    0.07421    0.49802    1.000
    O39      O        0.40137    0.92579    0.50198    1.000
    O40      O        0.52994    0.76866    0.65624    1.000
    O41      O        0.67456    0.65208    0.82840    1.000
    O42      O        0.09442    0.68955    0.68189    1.000
    O43      O        0.40487    0.62856    0.68955    1.000
    O44      O        0.28573    0.11956    0.40487    1.000
    O45      O        0.40302    0.69262    0.54866    1.000
    O46      O        0.83383    0.52443    0.88044    1.000
    O47      O        0.90335    0.50198    0.57223    1.000
    O48      O        0.71040    0.75872    0.69262    1.000
    O49      O        0.81382    0.34376    0.42490    1.000
    O50      O        0.42547    0.38690    0.26129    1.000
    O51      O        0.97752    0.48048    0.34792    1.000
    O52      O        0.20538    0.40637    0.41983    1.000
    O53      O        0.79901    0.17380    0.40637    1.000
    O54      O        0.90558    0.31045    0.31811    1.000
