data_functionalizedCrystal
_audit_creation_method	'EQeq! by Chris Wilmer'
_symmetry_space_group_name_H-M	'P1'
_symmetry_Int_Tables_number	1
_symmetry_cell_setting	triclinic
loop_
_symmetry_equiv_pos_as_xyz
  x,y,z
_cell_length_a	12.4105
_cell_length_b	26.2172
_cell_length_c	26.2215
_cell_angle_alpha	90
_cell_angle_beta	90
_cell_angle_gamma	90
loop_
_atom_site_label
_atom_site_type_symbol
_atom_site_fract_x
_atom_site_fract_y
_atom_site_fract_z
_atom_site_charge
Mof_Zn	Zn	0.91806	0.00688	0.9592	1.195
Mof_Zn	Zn	0.08194	0.99312	0.4592	1.196
Mof_Zn	Zn	0.08194	0.50688	0.5408	1.198
Mof_Zn	Zn	0.91806	0.49312	0.0408	1.197
Mof_Zn	Zn	0.08194	0.99312	0.0408	1.194
Mof_Zn	Zn	0.91806	0.00688	0.5408	1.195
Mof_Zn	Zn	0.91806	0.49312	0.4592	1.197
Mof_Zn	Zn	0.08194	0.50688	0.9592	1.197
Mof_Zn	Zn	0.84592	0.77882	0.75	1.196
Mof_Zn	Zn	0.01287	0.69703	0.75	1.201
Mof_Zn	Zn	0.15408	0.22118	0.25	1.196
Mof_Zn	Zn	0.98713	0.30297	0.25	1.201
Mof_Zn	Zn	0.15408	0.27882	0.75	1.196
Mof_Zn	Zn	0.98713	0.19703	0.75	1.2
Mof_Zn	Zn	0.84592	0.72118	0.25	1.196
Mof_Zn	Zn	0.01287	0.80297	0.25	1.2
Mof_H 	H 	0.2107	0.7552	0.8663	0.088
Mof_H 	H 	0.2471	0.8683	0.9699	0.086
Mof_H 	H 	0.0035	0.8732	0.8696	0.052
Mof_H 	H 	0.4286	0.8241	0.9753	0.05
Mof_H 	H 	0.3351	0.8041	0.0107	0.048
Mof_H 	H 	0.5753	0.7404	0.0546	0.05
Mof_H 	H 	0.482	0.7763	0.0739	0.047
Mof_H 	H 	0.6593	0.7812	0.1181	0.083
Mof_H 	H 	0.9006	0.8843	0.1259	0.053
Mof_H 	H 	0.6979	0.8851	0.0061	0.09
Mof_H 	H 	0.7893	0.2448	0.3663	0.088
Mof_H 	H 	0.7529	0.1317	0.4699	0.086
Mof_H 	H 	0.9965	0.1268	0.3696	0.052
Mof_H 	H 	0.5714	0.1759	0.4753	0.052
Mof_H 	H 	0.6649	0.1959	0.5107	0.052
Mof_H 	H 	0.4247	0.2596	0.5546	0.051
Mof_H 	H 	0.518	0.2237	0.5739	0.048
Mof_H 	H 	0.3407	0.2188	0.6181	0.083
Mof_H 	H 	0.0994	0.1157	0.6259	0.053
Mof_H 	H 	0.3021	0.1149	0.5061	0.09
Mof_H 	H 	0.7893	0.2552	0.6337	0.087
Mof_H 	H 	0.7529	0.3683	0.5301	0.085
Mof_H 	H 	0.9965	0.3732	0.6304	0.052
Mof_H 	H 	0.5714	0.3241	0.5247	0.052
Mof_H 	H 	0.6649	0.3041	0.4893	0.052
Mof_H 	H 	0.4247	0.2404	0.4454	0.051
Mof_H 	H 	0.518	0.2763	0.4261	0.048
Mof_H 	H 	0.3407	0.2812	0.3819	0.083
Mof_H 	H 	0.0994	0.3843	0.3741	0.052
Mof_H 	H 	0.3021	0.3851	0.4939	0.09
Mof_H 	H 	0.2107	0.7448	0.1337	0.087
Mof_H 	H 	0.2471	0.6317	0.0301	0.085
Mof_H 	H 	0.0035	0.6268	0.1304	0.052
Mof_H 	H 	0.4286	0.6759	0.0247	0.051
Mof_H 	H 	0.3351	0.6959	0.9893	0.053
Mof_H 	H 	0.5753	0.7596	0.9454	0.05
Mof_H 	H 	0.482	0.7237	0.9261	0.047
Mof_H 	H 	0.6593	0.7188	0.8819	0.083
Mof_H 	H 	0.9006	0.6157	0.8741	0.052
Mof_H 	H 	0.6979	0.6149	0.9939	0.09
Mof_H 	H 	0.7893	0.2448	0.1337	0.088
Mof_H 	H 	0.7529	0.1317	0.0301	0.086
Mof_H 	H 	0.9965	0.1268	0.1304	0.052
Mof_H 	H 	0.5714	0.1759	0.0247	0.051
Mof_H 	H 	0.6649	0.1959	0.9893	0.051
Mof_H 	H 	0.4247	0.2596	0.9454	0.051
Mof_H 	H 	0.518	0.2237	0.9261	0.048
Mof_H 	H 	0.3407	0.2188	0.8819	0.083
Mof_H 	H 	0.0994	0.1157	0.8741	0.053
Mof_H 	H 	0.3021	0.1149	0.9939	0.09
Mof_H 	H 	0.2107	0.7552	0.6337	0.088
Mof_H 	H 	0.2471	0.8683	0.5301	0.086
Mof_H 	H 	0.0035	0.8732	0.6304	0.052
Mof_H 	H 	0.4286	0.8241	0.5247	0.052
Mof_H 	H 	0.3351	0.8041	0.4893	0.052
Mof_H 	H 	0.5753	0.7404	0.4454	0.051
Mof_H 	H 	0.482	0.7763	0.4261	0.048
Mof_H 	H 	0.6593	0.7812	0.3819	0.083
Mof_H 	H 	0.9006	0.8843	0.3741	0.053
Mof_H 	H 	0.6979	0.8851	0.4939	0.09
Mof_H 	H 	0.2107	0.7448	0.3663	0.087
Mof_H 	H 	0.2471	0.6317	0.4699	0.085
Mof_H 	H 	0.0035	0.6268	0.3696	0.052
Mof_H 	H 	0.4286	0.6759	0.4753	0.052
Mof_H 	H 	0.3351	0.6959	0.5107	0.052
Mof_H 	H 	0.5753	0.7596	0.5546	0.051
Mof_H 	H 	0.482	0.7237	0.5739	0.048
Mof_H 	H 	0.6593	0.7188	0.6181	0.083
Mof_H 	H 	0.9006	0.6157	0.6259	0.052
Mof_H 	H 	0.6979	0.6149	0.5061	0.09
Mof_H 	H 	0.7893	0.2552	0.8663	0.087
Mof_H 	H 	0.7529	0.3683	0.9699	0.085
Mof_H 	H 	0.9965	0.3732	0.8696	0.052
Mof_H 	H 	0.5714	0.3241	0.9753	0.052
Mof_H 	H 	0.6649	0.3041	0.0107	0.052
Mof_H 	H 	0.4247	0.2404	0.0546	0.051
Mof_H 	H 	0.518	0.2763	0.0739	0.048
Mof_H 	H 	0.3407	0.2812	0.1181	0.083
Mof_H 	H 	0.0994	0.3843	0.1259	0.052
Mof_H 	H 	0.3021	0.3851	0.0061	0.09
Mof_C 	C 	0.0348	0.786	0.8199	0.378
Mof_C 	C 	0.0966	0.8107	0.8621	-0.057
Mof_C 	C 	0.1873	0.7855	0.881	-0.103
Mof_C 	C 	0.2432	0.8072	0.923	0.173
Mof_C 	C 	0.2096	0.8534	0.943	-0.121
Mof_C 	C 	0.1191	0.8776	0.9226	-0.043
Mof_C 	C 	0.0636	0.8566	0.8828	-0.008
Mof_C 	C 	0.0789	0.9263	0.9482	0.371
Mof_C 	C 	0.3844	0.7947	0.9836	-0.007
Mof_C 	C 	0.5262	0.7675	0.0447	-0.004
Mof_C 	C 	0.6664	0.8291	0.0575	0.168
Mof_C 	C 	0.697	0.8084	0.104	-0.112
Mof_C 	C 	0.7863	0.8295	0.1294	-0.054
Mof_C 	C 	0.8416	0.8706	0.1088	-0.006
Mof_C 	C 	0.8087	0.8915	0.0622	-0.05
Mof_C 	C 	0.7207	0.8711	0.0368	-0.108
Mof_C 	C 	0.8281	0.8055	0.1777	0.389
Mof_C 	C 	0.8711	0.9344	0.0384	0.367
Mof_C 	C 	0.9652	0.214	0.3199	0.378
Mof_C 	C 	0.9034	0.1893	0.3621	-0.057
Mof_C 	C 	0.8127	0.2145	0.381	-0.102
Mof_C 	C 	0.7568	0.1928	0.423	0.172
Mof_C 	C 	0.7904	0.1466	0.443	-0.12
Mof_C 	C 	0.8809	0.1224	0.4226	-0.044
Mof_C 	C 	0.9364	0.1434	0.3828	-0.008
Mof_C 	C 	0.9211	0.0737	0.4482	0.371
Mof_C 	C 	0.6156	0.2053	0.4836	-0.015
Mof_C 	C 	0.4738	0.2325	0.5447	-0.006
Mof_C 	C 	0.3336	0.1709	0.5575	0.168
Mof_C 	C 	0.303	0.1916	0.604	-0.111
Mof_C 	C 	0.2137	0.1705	0.6294	-0.055
Mof_C 	C 	0.1584	0.1294	0.6088	-0.005
Mof_C 	C 	0.1913	0.1085	0.5622	-0.05
Mof_C 	C 	0.2793	0.1289	0.5368	-0.107
Mof_C 	C 	0.1719	0.1945	0.6777	0.389
Mof_C 	C 	0.1289	0.0656	0.5384	0.371
Mof_C 	C 	0.9652	0.286	0.6801	0.38
Mof_C 	C 	0.9034	0.3107	0.6379	-0.059
Mof_C 	C 	0.8127	0.2855	0.619	-0.101
Mof_C 	C 	0.7568	0.3072	0.577	0.171
Mof_C 	C 	0.7904	0.3534	0.557	-0.119
Mof_C 	C 	0.8809	0.3776	0.5774	-0.046
Mof_C 	C 	0.9364	0.3566	0.6172	-0.006
Mof_C 	C 	0.9211	0.4263	0.5518	0.377
Mof_C 	C 	0.6156	0.2947	0.5164	-0.015
Mof_C 	C 	0.4738	0.2675	0.4553	-0.006
Mof_C 	C 	0.3336	0.3291	0.4425	0.168
Mof_C 	C 	0.303	0.3084	0.396	-0.111
Mof_C 	C 	0.2137	0.3295	0.3706	-0.055
Mof_C 	C 	0.1584	0.3706	0.3912	-0.005
Mof_C 	C 	0.1913	0.3915	0.4378	-0.051
Mof_C 	C 	0.2793	0.3711	0.4632	-0.107
Mof_C 	C 	0.1719	0.3055	0.3223	0.39
Mof_C 	C 	0.1289	0.4344	0.4616	0.371
Mof_C 	C 	0.0348	0.714	0.1801	0.38
Mof_C 	C 	0.0966	0.6893	0.1379	-0.059
Mof_C 	C 	0.1873	0.7145	0.119	-0.101
Mof_C 	C 	0.2432	0.6928	0.077	0.171
Mof_C 	C 	0.2096	0.6466	0.057	-0.118
Mof_C 	C 	0.1191	0.6224	0.0774	-0.046
Mof_C 	C 	0.0636	0.6434	0.1172	-0.006
Mof_C 	C 	0.0789	0.5737	0.0518	0.377
Mof_C 	C 	0.3844	0.7053	0.0164	-0.015
Mof_C 	C 	0.5262	0.7325	0.9553	-0.003
Mof_C 	C 	0.6664	0.6709	0.9425	0.168
Mof_C 	C 	0.697	0.6916	0.896	-0.111
Mof_C 	C 	0.7863	0.6705	0.8706	-0.055
Mof_C 	C 	0.8416	0.6294	0.8912	-0.005
Mof_C 	C 	0.8087	0.6085	0.9378	-0.051
Mof_C 	C 	0.7207	0.6289	0.9632	-0.106
Mof_C 	C 	0.8281	0.6945	0.8223	0.39
Mof_C 	C 	0.8711	0.5656	0.9616	0.372
Mof_C 	C 	0.9652	0.214	0.1801	0.378
Mof_C 	C 	0.9034	0.1893	0.1379	-0.057
Mof_C 	C 	0.8127	0.2145	0.119	-0.102
Mof_C 	C 	0.7568	0.1928	0.077	0.172
Mof_C 	C 	0.7904	0.1466	0.057	-0.12
Mof_C 	C 	0.8809	0.1224	0.0774	-0.044
Mof_C 	C 	0.9364	0.1434	0.1172	-0.008
Mof_C 	C 	0.9211	0.0737	0.0518	0.371
Mof_C 	C 	0.6156	0.2053	0.0164	-0.014
Mof_C 	C 	0.4738	0.2325	0.9553	-0.006
Mof_C 	C 	0.3336	0.1709	0.9425	0.168
Mof_C 	C 	0.303	0.1916	0.896	-0.112
Mof_C 	C 	0.2137	0.1705	0.8706	-0.055
Mof_C 	C 	0.1584	0.1294	0.8912	-0.006
Mof_C 	C 	0.1913	0.1085	0.9378	-0.05
Mof_C 	C 	0.2793	0.1289	0.9632	-0.107
Mof_C 	C 	0.1719	0.1945	0.8223	0.389
Mof_C 	C 	0.1289	0.0656	0.9616	0.369
Mof_C 	C 	0.0348	0.786	0.6801	0.378
Mof_C 	C 	0.0966	0.8107	0.6379	-0.057
Mof_C 	C 	0.1873	0.7855	0.619	-0.102
Mof_C 	C 	0.2432	0.8072	0.577	0.172
Mof_C 	C 	0.2096	0.8534	0.557	-0.12
Mof_C 	C 	0.1191	0.8776	0.5774	-0.044
Mof_C 	C 	0.0636	0.8566	0.6172	-0.008
Mof_C 	C 	0.0789	0.9263	0.5518	0.371
Mof_C 	C 	0.3844	0.7947	0.5164	-0.015
Mof_C 	C 	0.5262	0.7675	0.4553	-0.006
Mof_C 	C 	0.6664	0.8291	0.4425	0.168
Mof_C 	C 	0.697	0.8084	0.396	-0.111
Mof_C 	C 	0.7863	0.8295	0.3706	-0.055
Mof_C 	C 	0.8416	0.8706	0.3912	-0.005
Mof_C 	C 	0.8087	0.8915	0.4378	-0.05
Mof_C 	C 	0.7207	0.8711	0.4632	-0.107
Mof_C 	C 	0.8281	0.8055	0.3223	0.389
Mof_C 	C 	0.8711	0.9344	0.4616	0.371
Mof_C 	C 	0.0348	0.714	0.3199	0.38
Mof_C 	C 	0.0966	0.6893	0.3621	-0.059
Mof_C 	C 	0.1873	0.7145	0.381	-0.101
Mof_C 	C 	0.2432	0.6928	0.423	0.171
Mof_C 	C 	0.2096	0.6466	0.443	-0.119
Mof_C 	C 	0.1191	0.6224	0.4226	-0.046
Mof_C 	C 	0.0636	0.6434	0.3828	-0.006
Mof_C 	C 	0.0789	0.5737	0.4482	0.377
Mof_C 	C 	0.3844	0.7053	0.4836	-0.015
Mof_C 	C 	0.5262	0.7325	0.5447	-0.006
Mof_C 	C 	0.6664	0.6709	0.5575	0.168
Mof_C 	C 	0.697	0.6916	0.604	-0.111
Mof_C 	C 	0.7863	0.6705	0.6294	-0.055
Mof_C 	C 	0.8416	0.6294	0.6088	-0.005
Mof_C 	C 	0.8087	0.6085	0.5622	-0.051
Mof_C 	C 	0.7207	0.6289	0.5368	-0.107
Mof_C 	C 	0.8281	0.6945	0.6777	0.39
Mof_C 	C 	0.8711	0.5656	0.5384	0.371
Mof_C 	C 	0.9652	0.286	0.8199	0.38
Mof_C 	C 	0.9034	0.3107	0.8621	-0.059
Mof_C 	C 	0.8127	0.2855	0.881	-0.101
Mof_C 	C 	0.7568	0.3072	0.923	0.171
Mof_C 	C 	0.7904	0.3534	0.943	-0.119
Mof_C 	C 	0.8809	0.3776	0.9226	-0.046
Mof_C 	C 	0.9364	0.3566	0.8828	-0.006
Mof_C 	C 	0.9211	0.4263	0.9482	0.377
Mof_C 	C 	0.6156	0.2947	0.9836	-0.015
Mof_C 	C 	0.4738	0.2675	0.0447	-0.006
Mof_C 	C 	0.3336	0.3291	0.0575	0.168
Mof_C 	C 	0.303	0.3084	0.104	-0.111
Mof_C 	C 	0.2137	0.3295	0.1294	-0.055
Mof_C 	C 	0.1584	0.3706	0.1088	-0.005
Mof_C 	C 	0.1913	0.3915	0.0622	-0.051
Mof_C 	C 	0.2793	0.3711	0.0368	-0.107
Mof_C 	C 	0.1719	0.3055	0.1777	0.39
Mof_C 	C 	0.1289	0.4344	0.0384	0.37
Mof_C 	C 	0.4549	0.75	-0	0.029
Mof_C 	C 	0.5451	0.25	0.5	0.034
Mof_C 	C 	0.5451	0.25	-0	0.034
Mof_C 	C 	0.4549	0.75	0.5	0.034
Mof_O 	O 	0.9515	0.8056	0.80388	-0.472
Mof_O 	O 	0.0744	0.7437	0.8034	-0.471
Mof_O 	O 	0.9999	0.9481	0.9271	-0.462
Mof_O 	O 	0.125	0.93943	0.9881	-0.478
Mof_O 	O 	0.3256	0.77795	0.9394	-0.223
Mof_O 	O 	0.5846	0.8105	0.02777	-0.222
Mof_O 	O 	0.7836	0.76697	0.19426	-0.477
Mof_O 	O 	0.9094	0.8275	0.1973	-0.482
Mof_O 	O 	0.9574	0.9467	0.0602	-0.478
Mof_O 	O 	0.8331	0.955	0.9984	-0.462
Mof_O 	O 	0.0485	0.1944	0.30388	-0.472
Mof_O 	O 	0.9256	0.2563	0.3034	-0.471
Mof_O 	O 	0.0001	0.0519	0.4271	-0.463
Mof_O 	O 	0.875	0.06057	0.4881	-0.479
Mof_O 	O 	0.6744	0.22205	0.4394	-0.222
Mof_O 	O 	0.4154	0.1895	0.52777	-0.22
Mof_O 	O 	0.2164	0.23303	0.69426	-0.477
Mof_O 	O 	0.0906	0.1725	0.6973	-0.482
Mof_O 	O 	0.0426	0.0533	0.5602	-0.478
Mof_O 	O 	0.1669	0.045	0.4984	-0.465
Mof_O 	O 	0.0485	0.3056	0.69612	-0.474
Mof_O 	O 	0.9256	0.2437	0.6966	-0.472
Mof_O 	O 	0.0001	0.4481	0.5729	-0.469
Mof_O 	O 	0.875	0.43943	0.5119	-0.479
Mof_O 	O 	0.6744	0.27795	0.5606	-0.222
Mof_O 	O 	0.4154	0.3105	0.47223	-0.22
Mof_O 	O 	0.2164	0.26697	0.30574	-0.477
Mof_O 	O 	0.0906	0.3275	0.3027	-0.483
Mof_O 	O 	0.0426	0.4467	0.4398	-0.481
Mof_O 	O 	0.1669	0.455	0.5016	-0.467
Mof_O 	O 	0.9515	0.6944	0.19612	-0.474
Mof_O 	O 	0.0744	0.7563	0.1966	-0.472
Mof_O 	O 	0.9999	0.5519	0.0729	-0.469
Mof_O 	O 	0.125	0.56057	0.0119	-0.479
Mof_O 	O 	0.3256	0.72205	0.0606	-0.222
Mof_O 	O 	0.5846	0.6895	0.97223	-0.22
Mof_O 	O 	0.7836	0.73303	0.80574	-0.477
Mof_O 	O 	0.9094	0.6725	0.8027	-0.483
Mof_O 	O 	0.9574	0.5533	0.9398	-0.481
Mof_O 	O 	0.8331	0.545	0.0016	-0.468
Mof_O 	O 	0.0485	0.1944	0.19612	-0.472
Mof_O 	O 	0.9256	0.2563	0.1966	-0.471
Mof_O 	O 	0.0001	0.0519	0.0729	-0.462
Mof_O 	O 	0.875	0.06057	0.0119	-0.478
Mof_O 	O 	0.6744	0.22205	0.0606	-0.222
Mof_O 	O 	0.4154	0.1895	0.97223	-0.221
Mof_O 	O 	0.2164	0.23303	0.80574	-0.477
Mof_O 	O 	0.0906	0.1725	0.8027	-0.482
Mof_O 	O 	0.0426	0.0533	0.9398	-0.479
Mof_O 	O 	0.1669	0.045	0.0016	-0.464
Mof_O 	O 	0.9515	0.8056	0.69612	-0.472
Mof_O 	O 	0.0744	0.7437	0.6966	-0.471
Mof_O 	O 	0.9999	0.9481	0.5729	-0.463
Mof_O 	O 	0.125	0.93943	0.5119	-0.479
Mof_O 	O 	0.3256	0.77795	0.5606	-0.222
Mof_O 	O 	0.5846	0.8105	0.47223	-0.22
Mof_O 	O 	0.7836	0.76697	0.30574	-0.477
Mof_O 	O 	0.9094	0.8275	0.3027	-0.482
Mof_O 	O 	0.9574	0.9467	0.4398	-0.478
Mof_O 	O 	0.8331	0.955	0.5016	-0.465
Mof_O 	O 	0.9515	0.6944	0.30388	-0.474
Mof_O 	O 	0.0744	0.7563	0.3034	-0.472
Mof_O 	O 	0.9999	0.5519	0.4271	-0.469
Mof_O 	O 	0.125	0.56057	0.4881	-0.479
Mof_O 	O 	0.3256	0.72205	0.4394	-0.222
Mof_O 	O 	0.5846	0.6895	0.52777	-0.22
Mof_O 	O 	0.7836	0.73303	0.69426	-0.477
Mof_O 	O 	0.9094	0.6725	0.6973	-0.483
Mof_O 	O 	0.9574	0.5533	0.5602	-0.481
Mof_O 	O 	0.8331	0.545	0.4984	-0.467
Mof_O 	O 	0.0485	0.3056	0.80388	-0.474
Mof_O 	O 	0.9256	0.2437	0.8034	-0.472
Mof_O 	O 	0.0001	0.4481	0.9271	-0.469
Mof_O 	O 	0.875	0.43943	0.9881	-0.478
Mof_O 	O 	0.6744	0.27795	0.9394	-0.222
Mof_O 	O 	0.4154	0.3105	0.02777	-0.22
Mof_O 	O 	0.2164	0.26697	0.19426	-0.477
Mof_O 	O 	0.0906	0.3275	0.1973	-0.483
Mof_O 	O 	0.0426	0.4467	0.0602	-0.481
Mof_O 	O 	0.1669	0.455	0.9984	-0.466
_end
