# CIF file generated by openbabel 3.1.0, see https://openbabel.org
data_I
_chemical_name_common 'image0'
_cell_length_a 6.72
_cell_length_b 9.494
_cell_length_c 10.682
_cell_angle_alpha 111.979
_cell_angle_beta 96.879
_cell_angle_gamma 106.678
_space_group_name_H-M_alt 'P 1'
_space_group_name_Hall 'P 1'
loop_
    _symmetry_equiv_pos_as_xyz
    x,y,z
loop_
    _atom_site_label
    _atom_site_type_symbol
    _atom_site_fract_x
    _atom_site_fract_y
    _atom_site_fract_z
    _atom_site_occupancy
    Cu1      Cu       0.16819    0.39624    0.29210    1.000
    Cu2      Cu       0.01050    0.14908    0.76927    1.000
    C1       C        0.14420    0.72260    0.30980    1.000
    C2       C        0.27550    0.11630    0.33140    1.000
    C3       C        0.05590    0.23250    0.96860    1.000
    C4       C        0.22350    0.08860    0.67220    1.000
    C5       C        0.11890    0.59480    0.29720    1.000
    C6       C        0.09190    0.28910    0.08780    1.000
    C7       C        0.24770    0.21780    0.30920    1.000
    C8       C        0.35210    0.05680    0.62000    1.000
    Cu3      Cu       0.35954    0.96358    0.39001    1.000
    N1       N        0.85580    0.27740    0.69020    1.000
    N2       N        0.72450    0.88370    0.66860    1.000
    N3       N        0.64790    0.94320    0.38000    1.000
    Cu4      Cu       0.83181    0.60376    0.70790    1.000
    Cu5      Cu       0.98950    0.85092    0.23073    1.000
    C9       C        0.94410    0.76750    0.03140    1.000
    C10      C        0.77650    0.91140    0.32780    1.000
    C11      C        0.88110    0.40520    0.70280    1.000
    C12      C        0.90810    0.71090    0.91220    1.000
    C13      C        0.75230    0.78220    0.69080    1.000
    Cu6      Cu       0.64046    0.03642    0.60999    1.000
