data_functionalizedCrystal
_audit_creation_method	'EQeq! by Chris Wilmer'
_symmetry_space_group_name_H-M	'P1'
_symmetry_Int_Tables_number	1
_symmetry_cell_setting	triclinic
loop_
_symmetry_equiv_pos_as_xyz
  x,y,z
_cell_length_a	26.4366
_cell_length_b	26.4366
_cell_length_c	5.3287
_cell_angle_alpha	90
_cell_angle_beta	90
_cell_angle_gamma	90
loop_
_atom_site_label
_atom_site_type_symbol
_atom_site_fract_x
_atom_site_fract_y
_atom_site_fract_z
_atom_site_charge
Mof_Zn	Zn	0.72623	0.7149	0.3326	1.224
Mof_H 	H 	0.832	0.5065	0.5311	0.083
Mof_H 	H 	0.8127	0.6793	0.7266	0.043
Mof_H 	H 	0.8771	0.6697	0.0571	0.059
Mof_H 	H 	0.9001	0.5006	0.8464	0.061
Mof_H 	H 	0.948	0.5376	0.1508	0.034
Mof_H 	H 	0.7046	0.6071	0.1156	0.006
Mof_H 	H 	0.9351	0.6213	0.2663	0.034
Mof_H 	H 	0.8116	0.4856	0.1068	0.125
Mof_H 	H 	0.7861	0.4049	0.9683	-0.025
Mof_H 	H 	0.6679	0.5214	0.2094	0.142
Mof_H 	H 	0.6425	0.453	0.9927	-0.019
Mof_C 	C 	0.74157	0.51149	0.1734	0.234
Mof_C 	C 	0.82774	0.54038	0.5724	-0.138
Mof_C 	C 	0.7916	0.56947	0.4543	0.087
Mof_C 	C 	0.85277	0.6156	0.8148	0.038
Mof_C 	C 	0.85786	0.5633	0.7562	0.046
Mof_C 	C 	0.81676	0.64515	0.6888	-0.127
Mof_C 	C 	0.78733	0.622	0.5058	0.047
Mof_C 	C 	0.8816	0.636	0.0114	-0.083
Mof_C 	C 	0.8951	0.5345	0.8864	-0.087
Mof_C 	C 	0.9234	0.5566	0.0689	-0.03
Mof_C 	C 	0.7314	0.60402	0.2277	0.107
Mof_C 	C 	0.9163	0.6072	0.1364	-0.027
Mof_C 	C 	0.7774	0.4774	0.099	-0.265
Mof_C 	C 	0.715	0.41887	0.9836	-0.266
Mof_C 	C 	0.7619	0.4291	0.009	0.188
Mof_C 	C 	0.692	0.4992	0.146	-0.283
Mof_C 	C 	0.6763	0.4577	0.036	0.183
Mof_C 	C 	0.6959	0.3692	0.897	0.514
Mof_N 	N 	0.74947	0.64139	0.3564	-0.268
Mof_N 	N 	0.75587	0.55987	0.2746	-0.173
Mof_O 	O 	0.22398	0.24618	0.1562	-0.61
Mof_O 	O 	0.72421	0.33484	0.8603	-0.542
Mof_O 	O 	0.6553	0.3579	0.818	-0.368
Mof_H 	H 	0.3025	0.24247	0.8251	0.069
Mof_Zn	Zn	0.22623	0.2149	0.8326	1.222
Mof_H 	H 	0.332	0.0065	0.0311	0.078
Mof_H 	H 	0.3127	0.1793	0.2266	0.046
Mof_H 	H 	0.3771	0.1697	0.5571	0.057
Mof_H 	H 	0.4001	0.0006	0.3464	0.059
Mof_H 	H 	0.448	0.0376	0.6508	0.032
Mof_H 	H 	0.2046	0.1071	0.6156	0.004
Mof_H 	H 	0.4351	0.1213	0.7663	0.033
Mof_H 	H 	0.3116	0.9856	0.6068	0.137
Mof_H 	H 	0.2861	0.9049	0.4683	-0.049
Mof_H 	H 	0.1679	0.0214	0.7094	0.153
Mof_H 	H 	0.1425	0.953	0.4927	-0.036
Mof_C 	C 	0.24157	0.01149	0.6734	0.259
Mof_C 	C 	0.32774	0.04038	0.0724	-0.125
Mof_C 	C 	0.2916	0.06947	0.9543	0.072
Mof_C 	C 	0.35277	0.1156	0.3148	0.043
Mof_C 	C 	0.35786	0.0633	0.2562	0.041
Mof_C 	C 	0.31676	0.14515	0.1888	-0.135
Mof_C 	C 	0.28733	0.122	0.0058	0.062
Mof_C 	C 	0.3816	0.136	0.5114	-0.086
Mof_C 	C 	0.3951	0.0345	0.3864	-0.09
Mof_C 	C 	0.4234	0.0566	0.5689	-0.026
Mof_C 	C 	0.2314	0.10402	0.7277	0.108
Mof_C 	C 	0.4163	0.1072	0.6364	-0.028
Mof_C 	C 	0.2774	0.9774	0.599	-0.3
Mof_C 	C 	0.215	0.91887	0.4836	-0.31
Mof_C 	C 	0.2619	0.9291	0.509	0.245
Mof_C 	C 	0.192	0.9992	0.646	-0.318
Mof_C 	C 	0.1763	0.9577	0.536	0.228
Mof_C 	C 	0.1959	0.8692	0.397	0.532
Mof_N 	N 	0.24947	0.14139	0.8564	-0.273
Mof_N 	N 	0.25587	0.05987	0.7746	-0.175
Mof_O 	O 	0.72398	0.74618	0.6562	-0.613
Mof_O 	O 	0.22421	0.83484	0.3603	-0.549
Mof_O 	O 	0.1553	0.8579	0.318	-0.374
Mof_H 	H 	0.8025	0.74247	0.3251	0.072
Mof_Zn	Zn	0.27377	0.2851	0.3326	1.223
Mof_H 	H 	0.168	0.4935	0.5311	0.082
Mof_H 	H 	0.1873	0.3207	0.7266	0.042
Mof_H 	H 	0.1229	0.3303	0.0571	0.058
Mof_H 	H 	0.0999	0.4994	0.8464	0.06
Mof_H 	H 	0.052	0.4624	0.1508	0.033
Mof_H 	H 	0.2954	0.3929	0.1156	0.005
Mof_H 	H 	0.0649	0.3787	0.2663	0.033
Mof_H 	H 	0.1884	0.5144	0.1068	0.124
Mof_H 	H 	0.2139	0.5951	0.9683	-0.026
Mof_H 	H 	0.3321	0.4786	0.2094	0.141
Mof_H 	H 	0.3575	0.547	0.9927	-0.02
Mof_C 	C 	0.25843	0.48851	0.1734	0.234
Mof_C 	C 	0.17226	0.45962	0.5724	-0.138
Mof_C 	C 	0.2084	0.43053	0.4543	0.087
Mof_C 	C 	0.14723	0.3844	0.8148	0.038
Mof_C 	C 	0.14214	0.4367	0.7562	0.046
Mof_C 	C 	0.18324	0.35485	0.6888	-0.127
Mof_C 	C 	0.21267	0.378	0.5058	0.047
Mof_C 	C 	0.1184	0.364	0.0114	-0.083
Mof_C 	C 	0.1049	0.4655	0.8864	-0.087
Mof_C 	C 	0.0766	0.4434	0.0689	-0.03
Mof_C 	C 	0.2686	0.39598	0.2277	0.107
Mof_C 	C 	0.0837	0.3928	0.1364	-0.027
Mof_C 	C 	0.2226	0.5226	0.099	-0.265
Mof_C 	C 	0.285	0.58113	0.9836	-0.266
Mof_C 	C 	0.2381	0.5709	0.009	0.188
Mof_C 	C 	0.308	0.5008	0.146	-0.283
Mof_C 	C 	0.3237	0.5423	0.036	0.183
Mof_C 	C 	0.3041	0.6308	0.897	0.514
Mof_N 	N 	0.25053	0.35861	0.3564	-0.268
Mof_N 	N 	0.24413	0.44013	0.2746	-0.173
Mof_O 	O 	0.77602	0.75382	0.1562	-0.61
Mof_O 	O 	0.27579	0.66516	0.8603	-0.542
Mof_O 	O 	0.3447	0.6421	0.818	-0.368
Mof_H 	H 	0.6975	0.75753	0.8251	0.069
Mof_Zn	Zn	0.77377	0.7851	0.8326	1.222
Mof_H 	H 	0.668	0.9935	0.0311	0.078
Mof_H 	H 	0.6873	0.8207	0.2266	0.046
Mof_H 	H 	0.6229	0.8303	0.5571	0.057
Mof_H 	H 	0.5999	0.9994	0.3464	0.059
Mof_H 	H 	0.552	0.9624	0.6508	0.032
Mof_H 	H 	0.7954	0.8929	0.6156	0.004
Mof_H 	H 	0.5649	0.8787	0.7663	0.033
Mof_H 	H 	0.6884	0.0144	0.6068	0.137
Mof_H 	H 	0.7139	0.0951	0.4683	-0.049
Mof_H 	H 	0.8321	0.9786	0.7094	0.153
Mof_H 	H 	0.8575	0.047	0.4927	-0.036
Mof_C 	C 	0.75843	0.98851	0.6734	0.259
Mof_C 	C 	0.67226	0.95962	0.0724	-0.125
Mof_C 	C 	0.7084	0.93053	0.9543	0.072
Mof_C 	C 	0.64723	0.8844	0.3148	0.043
Mof_C 	C 	0.64214	0.9367	0.2562	0.041
Mof_C 	C 	0.68324	0.85485	0.1888	-0.135
Mof_C 	C 	0.71267	0.878	0.0058	0.062
Mof_C 	C 	0.6184	0.864	0.5114	-0.086
Mof_C 	C 	0.6049	0.9655	0.3864	-0.09
Mof_C 	C 	0.5766	0.9434	0.5689	-0.026
Mof_C 	C 	0.7686	0.89598	0.7277	0.108
Mof_C 	C 	0.5837	0.8928	0.6364	-0.028
Mof_C 	C 	0.7226	0.0226	0.599	-0.3
Mof_C 	C 	0.785	0.08113	0.4836	-0.31
Mof_C 	C 	0.7381	0.0709	0.509	0.245
Mof_C 	C 	0.808	0.0008	0.646	-0.318
Mof_C 	C 	0.8237	0.0423	0.536	0.228
Mof_C 	C 	0.8041	0.1308	0.397	0.532
Mof_N 	N 	0.75053	0.85861	0.8564	-0.273
Mof_N 	N 	0.74413	0.94013	0.7746	-0.175
Mof_O 	O 	0.27602	0.25382	0.6562	-0.613
Mof_O 	O 	0.77579	0.16516	0.3603	-0.549
Mof_O 	O 	0.8447	0.1421	0.318	-0.374
Mof_H 	H 	0.1975	0.25753	0.3251	0.072
Mof_Zn	Zn	0.7149	0.27377	0.6674	1.223
Mof_H 	H 	0.5065	0.168	0.4689	0.082
Mof_H 	H 	0.6793	0.1873	0.2734	0.042
Mof_H 	H 	0.6697	0.1229	0.9429	0.058
Mof_H 	H 	0.5006	0.0999	0.1536	0.06
Mof_H 	H 	0.5376	0.052	0.8492	0.033
Mof_H 	H 	0.6071	0.2954	0.8844	0.005
Mof_H 	H 	0.6213	0.0649	0.7337	0.033
Mof_H 	H 	0.4856	0.1884	0.8932	0.124
Mof_H 	H 	0.4049	0.2139	0.0317	-0.026
Mof_H 	H 	0.5214	0.3321	0.7906	0.141
Mof_H 	H 	0.453	0.3575	0.0073	-0.02
Mof_C 	C 	0.51149	0.25843	0.8266	0.234
Mof_C 	C 	0.54038	0.17226	0.4276	-0.138
Mof_C 	C 	0.56947	0.2084	0.5457	0.087
Mof_C 	C 	0.6156	0.14723	0.1852	0.038
Mof_C 	C 	0.5633	0.14214	0.2438	0.046
Mof_C 	C 	0.64515	0.18324	0.3112	-0.127
Mof_C 	C 	0.622	0.21267	0.4942	0.047
Mof_C 	C 	0.636	0.1184	0.9886	-0.083
Mof_C 	C 	0.5345	0.1049	0.1136	-0.087
Mof_C 	C 	0.5566	0.0766	0.9311	-0.03
Mof_C 	C 	0.60402	0.2686	0.7723	0.107
Mof_C 	C 	0.6072	0.0837	0.8636	-0.027
Mof_C 	C 	0.4774	0.2226	0.901	-0.265
Mof_C 	C 	0.41887	0.285	0.0164	-0.266
Mof_C 	C 	0.4291	0.2381	0.991	0.188
Mof_C 	C 	0.4992	0.308	0.854	-0.283
Mof_C 	C 	0.4577	0.3237	0.964	0.183
Mof_C 	C 	0.3692	0.3041	0.103	0.514
Mof_N 	N 	0.64139	0.25053	0.6436	-0.268
Mof_N 	N 	0.55987	0.24413	0.7254	-0.173
Mof_O 	O 	0.24618	0.77602	0.8438	-0.61
Mof_O 	O 	0.33484	0.27579	0.1397	-0.542
Mof_O 	O 	0.3579	0.3447	0.182	-0.368
Mof_H 	H 	0.24247	0.6975	0.1749	0.069
Mof_Zn	Zn	0.2149	0.77377	0.1674	1.222
Mof_H 	H 	0.0065	0.668	0.9689	0.078
Mof_H 	H 	0.1793	0.6873	0.7734	0.046
Mof_H 	H 	0.1697	0.6229	0.4429	0.057
Mof_H 	H 	0.0006	0.5999	0.6536	0.059
Mof_H 	H 	0.0376	0.552	0.3492	0.032
Mof_H 	H 	0.1071	0.7954	0.3844	0.004
Mof_H 	H 	0.1213	0.5649	0.2337	0.033
Mof_H 	H 	0.9856	0.6884	0.3932	0.137
Mof_H 	H 	0.9049	0.7139	0.5317	-0.049
Mof_H 	H 	0.0214	0.8321	0.2906	0.153
Mof_H 	H 	0.953	0.8575	0.5073	-0.036
Mof_C 	C 	0.01149	0.75843	0.3266	0.259
Mof_C 	C 	0.04038	0.67226	0.9276	-0.125
Mof_C 	C 	0.06947	0.7084	0.0457	0.072
Mof_C 	C 	0.1156	0.64723	0.6852	0.043
Mof_C 	C 	0.0633	0.64214	0.7438	0.041
Mof_C 	C 	0.14515	0.68324	0.8112	-0.135
Mof_C 	C 	0.122	0.71267	0.9942	0.062
Mof_C 	C 	0.136	0.6184	0.4886	-0.086
Mof_C 	C 	0.0345	0.6049	0.6136	-0.09
Mof_C 	C 	0.0566	0.5766	0.4311	-0.026
Mof_C 	C 	0.10402	0.7686	0.2723	0.108
Mof_C 	C 	0.1072	0.5837	0.3636	-0.028
Mof_C 	C 	0.9774	0.7226	0.401	-0.3
Mof_C 	C 	0.91887	0.785	0.5164	-0.31
Mof_C 	C 	0.9291	0.7381	0.491	0.245
Mof_C 	C 	0.9992	0.808	0.354	-0.318
Mof_C 	C 	0.9577	0.8237	0.464	0.228
Mof_C 	C 	0.8692	0.8041	0.603	0.532
Mof_N 	N 	0.14139	0.75053	0.1436	-0.273
Mof_N 	N 	0.05987	0.74413	0.2254	-0.175
Mof_O 	O 	0.74618	0.27602	0.3438	-0.613
Mof_O 	O 	0.83484	0.77579	0.6397	-0.549
Mof_O 	O 	0.8579	0.8447	0.682	-0.374
Mof_H 	H 	0.74247	0.1975	0.6749	0.072
Mof_Zn	Zn	0.2851	0.72623	0.6674	1.223
Mof_H 	H 	0.4935	0.832	0.4689	0.082
Mof_H 	H 	0.3207	0.8127	0.2734	0.042
Mof_H 	H 	0.3303	0.8771	0.9429	0.058
Mof_H 	H 	0.4994	0.9001	0.1536	0.06
Mof_H 	H 	0.4624	0.948	0.8492	0.033
Mof_H 	H 	0.3929	0.7046	0.8844	0.005
Mof_H 	H 	0.3787	0.9351	0.7337	0.033
Mof_H 	H 	0.5144	0.8116	0.8932	0.124
Mof_H 	H 	0.5951	0.7861	0.0317	-0.026
Mof_H 	H 	0.4786	0.6679	0.7906	0.141
Mof_H 	H 	0.547	0.6425	0.0073	-0.02
Mof_C 	C 	0.48851	0.74157	0.8266	0.234
Mof_C 	C 	0.45962	0.82774	0.4276	-0.138
Mof_C 	C 	0.43053	0.7916	0.5457	0.087
Mof_C 	C 	0.3844	0.85277	0.1852	0.038
Mof_C 	C 	0.4367	0.85786	0.2438	0.046
Mof_C 	C 	0.35485	0.81676	0.3112	-0.127
Mof_C 	C 	0.378	0.78733	0.4942	0.047
Mof_C 	C 	0.364	0.8816	0.9886	-0.083
Mof_C 	C 	0.4655	0.8951	0.1136	-0.087
Mof_C 	C 	0.4434	0.9234	0.9311	-0.03
Mof_C 	C 	0.39598	0.7314	0.7723	0.107
Mof_C 	C 	0.3928	0.9163	0.8636	-0.027
Mof_C 	C 	0.5226	0.7774	0.901	-0.265
Mof_C 	C 	0.58113	0.715	0.0164	-0.266
Mof_C 	C 	0.5709	0.7619	0.991	0.188
Mof_C 	C 	0.5008	0.692	0.854	-0.283
Mof_C 	C 	0.5423	0.6763	0.964	0.183
Mof_C 	C 	0.6308	0.6959	0.103	0.514
Mof_N 	N 	0.35861	0.74947	0.6436	-0.268
Mof_N 	N 	0.44013	0.75587	0.7254	-0.173
Mof_O 	O 	0.75382	0.22398	0.8438	-0.61
Mof_O 	O 	0.66516	0.72421	0.1397	-0.542
Mof_O 	O 	0.6421	0.6553	0.182	-0.368
Mof_H 	H 	0.75753	0.3025	0.1749	0.069
Mof_Zn	Zn	0.7851	0.22623	0.1674	1.222
Mof_H 	H 	0.9935	0.332	0.9689	0.078
Mof_H 	H 	0.8207	0.3127	0.7734	0.046
Mof_H 	H 	0.8303	0.3771	0.4429	0.057
Mof_H 	H 	0.9994	0.4001	0.6536	0.059
Mof_H 	H 	0.9624	0.448	0.3492	0.032
Mof_H 	H 	0.8929	0.2046	0.3844	0.004
Mof_H 	H 	0.8787	0.4351	0.2337	0.033
Mof_H 	H 	0.0144	0.3116	0.3932	0.137
Mof_H 	H 	0.0951	0.2861	0.5317	-0.049
Mof_H 	H 	0.9786	0.1679	0.2906	0.153
Mof_H 	H 	0.047	0.1425	0.5073	-0.036
Mof_C 	C 	0.98851	0.24157	0.3266	0.259
Mof_C 	C 	0.95962	0.32774	0.9276	-0.125
Mof_C 	C 	0.93053	0.2916	0.0457	0.072
Mof_C 	C 	0.8844	0.35277	0.6852	0.043
Mof_C 	C 	0.9367	0.35786	0.7438	0.041
Mof_C 	C 	0.85485	0.31676	0.8112	-0.135
Mof_C 	C 	0.878	0.28733	0.9942	0.062
Mof_C 	C 	0.864	0.3816	0.4886	-0.086
Mof_C 	C 	0.9655	0.3951	0.6136	-0.09
Mof_C 	C 	0.9434	0.4234	0.4311	-0.026
Mof_C 	C 	0.89598	0.2314	0.2723	0.108
Mof_C 	C 	0.8928	0.4163	0.3636	-0.028
Mof_C 	C 	0.0226	0.2774	0.401	-0.3
Mof_C 	C 	0.08113	0.215	0.5164	-0.31
Mof_C 	C 	0.0709	0.2619	0.491	0.245
Mof_C 	C 	0.0008	0.192	0.354	-0.318
Mof_C 	C 	0.0423	0.1763	0.464	0.228
Mof_C 	C 	0.1308	0.1959	0.603	0.532
Mof_N 	N 	0.85861	0.24947	0.1436	-0.273
Mof_N 	N 	0.94013	0.25587	0.2254	-0.175
Mof_O 	O 	0.25382	0.72398	0.3438	-0.613
Mof_O 	O 	0.16516	0.22421	0.6397	-0.549
Mof_O 	O 	0.1421	0.1553	0.682	-0.374
Mof_H 	H 	0.25753	0.8025	0.6749	0.072
_end
