data_functionalizedCrystal
_audit_creation_method	'EQeq! by Chris Wilmer'
_symmetry_space_group_name_H-M	'P1'
_symmetry_Int_Tables_number	1
_symmetry_cell_setting	triclinic
loop_
_symmetry_equiv_pos_as_xyz
  x,y,z
_cell_length_a	10.717
_cell_length_b	23.114
_cell_length_c	10.07
_cell_angle_alpha	90
_cell_angle_beta	104.78
_cell_angle_gamma	90
loop_
_atom_site_label
_atom_site_type_symbol
_atom_site_fract_x
_atom_site_fract_y
_atom_site_fract_z
_atom_site_charge
Mof_O 	O 	0.66037	0.29437	0.85179	-0.544
Mof_H 	H 	0.6898	0.2684	0.8134	0.343
Mof_O 	O 	0.53768	0.22272	0.89666	-0.513
Mof_O 	O 	0.28116	0.26207	0.22534	-0.318
Mof_O 	O 	0.18511	0.34815	0.21614	-0.537
Mof_C 	C 	0.57446	0.27385	0.9052	0.482
Mof_C 	C 	0.51144	0.31618	0.9796	-0.108
Mof_C 	C 	0.53437	0.37478	0.9705	0.022
Mof_H 	H 	0.5937	0.3874	0.9235	0.054
Mof_C 	C 	0.46927	0.41508	0.031	-0.015
Mof_C 	C 	0.36087	0.33673	0.11449	-0.114
Mof_C 	C 	0.42568	0.29741	0.0526	0.045
Mof_H 	H 	0.4115	0.258	0.0601	0.042
Mof_C 	C 	0.38155	0.39562	0.1028	-0.006
Mof_H 	H 	0.337	0.4222	0.1428	0.03
Mof_C 	C 	0.26716	0.31539	0.1915	0.395
Mof_C 	C 	0.49003	0.47529	0.0118	-0.051
Mof_O 	O 	0.16037	0.79437	0.85179	-0.571
Mof_H 	H 	0.1898	0.7684	0.8134	0.342
Mof_O 	O 	0.03768	0.72272	0.89666	-0.561
Mof_O 	O 	0.78116	0.76207	0.22534	-0.303
Mof_O 	O 	0.68511	0.84815	0.21614	-0.516
Mof_C 	C 	0.07446	0.77385	0.9052	0.508
Mof_C 	C 	0.01144	0.81618	0.9796	-0.219
Mof_C 	C 	0.03437	0.87478	0.9705	-0.013
Mof_H 	H 	0.0937	0.8874	0.9235	0.043
Mof_C 	C 	0.96927	0.91508	0.031	-0.002
Mof_C 	C 	0.86087	0.83673	0.11449	-0.148
Mof_C 	C 	0.92568	0.79741	0.0526	0.188
Mof_H 	H 	0.9115	0.758	0.0601	0.018
Mof_C 	C 	0.88155	0.89562	0.1028	0.038
Mof_H 	H 	0.837	0.9222	0.1428	0.031
Mof_C 	C 	0.76716	0.81539	0.1915	0.414
Mof_C 	C 	0.99003	0.97529	0.0118	0.105
Mof_O 	O 	0.33963	0.29437	0.64821	-0.56
Mof_H 	H 	0.3102	0.2684	0.6866	0.342
Mof_O 	O 	0.46232	0.22272	0.60334	-0.521
Mof_O 	O 	0.71884	0.26207	0.27466	-0.303
Mof_O 	O 	0.81489	0.34815	0.28386	-0.489
Mof_C 	C 	0.42554	0.27385	0.5948	0.49
Mof_C 	C 	0.48856	0.31618	0.5204	-0.133
Mof_C 	C 	0.46563	0.37478	0.5295	0.016
Mof_H 	H 	0.4063	0.3874	0.5765	0.044
Mof_C 	C 	0.53073	0.41508	0.469	-0.009
Mof_C 	C 	0.63913	0.33673	0.38551	-0.11
Mof_C 	C 	0.57432	0.29741	0.4474	0.076
Mof_H 	H 	0.5885	0.258	0.4399	0.039
Mof_C 	C 	0.61845	0.39562	0.3972	0.003
Mof_H 	H 	0.663	0.4222	0.3572	0.041
Mof_C 	C 	0.73284	0.31539	0.3085	0.397
Mof_C 	C 	0.50997	0.47529	0.4882	-0.017
Mof_O 	O 	0.83963	0.79437	0.64821	-0.534
Mof_H 	H 	0.8102	0.7684	0.6866	0.342
Mof_O 	O 	0.96232	0.72272	0.60334	-0.469
Mof_O 	O 	0.21884	0.76207	0.27466	-0.318
Mof_O 	O 	0.31489	0.84815	0.28386	-0.513
Mof_C 	C 	0.92554	0.77385	0.5948	0.462
Mof_C 	C 	0.98856	0.81618	0.5204	-0.02
Mof_C 	C 	0.96563	0.87478	0.5295	0.054
Mof_H 	H 	0.9063	0.8874	0.5765	0.054
Mof_C 	C 	0.03073	0.91508	0.469	-0.027
Mof_C 	C 	0.13913	0.83673	0.38551	-0.077
Mof_C 	C 	0.07432	0.79741	0.4474	-0.068
Mof_H 	H 	0.0885	0.758	0.4399	0.064
Mof_C 	C 	0.11845	0.89562	0.3972	-0.04
Mof_H 	H 	0.163	0.9222	0.3572	0.039
Mof_C 	C 	0.23284	0.81539	0.3085	0.379
Mof_C 	C 	0.00997	0.97529	0.4882	-0.165
Mof_O 	O 	0.33963	0.70563	0.14821	-0.566
Mof_H 	H 	0.3102	0.7316	0.1866	0.341
Mof_O 	O 	0.46232	0.77728	0.10334	-0.528
Mof_O 	O 	0.71884	0.73793	0.77466	-0.299
Mof_O 	O 	0.81489	0.65185	0.78386	-0.486
Mof_C 	C 	0.42554	0.72615	0.0948	0.495
Mof_C 	C 	0.48856	0.68382	0.0204	-0.157
Mof_C 	C 	0.46563	0.62522	0.0295	0.007
Mof_H 	H 	0.4063	0.6126	0.0765	0.042
Mof_C 	C 	0.53073	0.58492	0.969	-0.006
Mof_C 	C 	0.63913	0.66327	0.88551	-0.118
Mof_C 	C 	0.57432	0.70259	0.9474	0.106
Mof_H 	H 	0.5885	0.742	0.9399	0.035
Mof_C 	C 	0.61845	0.60438	0.8972	0.01
Mof_H 	H 	0.663	0.5778	0.8572	0.041
Mof_C 	C 	0.73284	0.68461	0.8085	0.401
Mof_C 	C 	0.50997	0.52471	0.9882	0.015
Mof_O 	O 	0.83963	0.20563	0.14821	-0.54
Mof_H 	H 	0.8102	0.2316	0.1866	0.342
Mof_O 	O 	0.96232	0.27728	0.10334	-0.476
Mof_O 	O 	0.21884	0.23793	0.77466	-0.313
Mof_O 	O 	0.31489	0.15185	0.78386	-0.51
Mof_C 	C 	0.92554	0.22615	0.0948	0.467
Mof_C 	C 	0.98856	0.18382	0.0204	-0.043
Mof_C 	C 	0.96563	0.12522	0.0295	0.042
Mof_H 	H 	0.9063	0.1126	0.0765	0.053
Mof_C 	C 	0.03073	0.08492	0.969	-0.019
Mof_C 	C 	0.13913	0.16327	0.88551	-0.084
Mof_C 	C 	0.07432	0.20259	0.9474	-0.038
Mof_H 	H 	0.0885	0.242	0.9399	0.06
Mof_C 	C 	0.11845	0.10438	0.8972	-0.034
Mof_H 	H 	0.163	0.0778	0.8572	0.039
Mof_C 	C 	0.23284	0.18461	0.8085	0.383
Mof_C 	C 	0.00997	0.02471	0.9882	-0.14
Mof_O 	O 	0.66037	0.70563	0.35179	-0.551
Mof_H 	H 	0.6898	0.7316	0.3134	0.342
Mof_O 	O 	0.53768	0.77728	0.39666	-0.519
Mof_O 	O 	0.28116	0.73793	0.72534	-0.313
Mof_O 	O 	0.18511	0.65185	0.71614	-0.533
Mof_C 	C 	0.57446	0.72615	0.4052	0.487
Mof_C 	C 	0.51144	0.68382	0.4796	-0.131
Mof_C 	C 	0.53437	0.62522	0.4705	0.013
Mof_H 	H 	0.5937	0.6126	0.4235	0.052
Mof_C 	C 	0.46927	0.58492	0.531	-0.012
Mof_C 	C 	0.36087	0.66327	0.61449	-0.121
Mof_C 	C 	0.42568	0.70259	0.5526	0.075
Mof_H 	H 	0.4115	0.742	0.5601	0.039
Mof_C 	C 	0.38155	0.60438	0.6028	0.001
Mof_H 	H 	0.337	0.5778	0.6428	0.03
Mof_C 	C 	0.26716	0.68461	0.6915	0.4
Mof_C 	C 	0.49003	0.52471	0.5118	-0.019
Mof_O 	O 	0.16037	0.20563	0.35179	-0.577
Mof_H 	H 	0.1898	0.2316	0.3134	0.341
Mof_O 	O 	0.03768	0.27728	0.39666	-0.568
Mof_O 	O 	0.78116	0.23793	0.72534	-0.299
Mof_O 	O 	0.68511	0.15185	0.71614	-0.513
Mof_C 	C 	0.07446	0.22615	0.4052	0.514
Mof_C 	C 	0.01144	0.18382	0.4796	-0.243
Mof_C 	C 	0.03437	0.12522	0.4705	-0.026
Mof_H 	H 	0.0937	0.1126	0.4235	0.042
Mof_C 	C 	0.96927	0.08492	0.531	0.006
Mof_C 	C 	0.86087	0.16327	0.61449	-0.155
Mof_C 	C 	0.92568	0.20259	0.5526	0.219
Mof_H 	H 	0.9115	0.242	0.5601	0.015
Mof_C 	C 	0.88155	0.10438	0.6028	0.043
Mof_H 	H 	0.837	0.0778	0.6428	0.031
Mof_C 	C 	0.76716	0.18461	0.6915	0.418
Mof_C 	C 	0.99003	0.02471	0.5118	0.129
Mof_Mg	Mg	0.5	0.15786	0.75	1.462
Mof_Mg	Mg	3.31635e-33	0.65786	0.75	1.454
Mof_Mg	Mg	0.5	0.84214	0.25	1.461
Mof_Mg	Mg	1.10545e-33	0.34214	0.25	1.454
_end
