data_functionalizedCrystal
_audit_creation_method	'EQeq! by Chris Wilmer'
_symmetry_space_group_name_H-M	'P1'
_symmetry_Int_Tables_number	1
_symmetry_cell_setting	triclinic
loop_
_symmetry_equiv_pos_as_xyz
  x,y,z
_cell_length_a	8.311
_cell_length_b	21.674
_cell_length_c	13.501
_cell_angle_alpha	90
_cell_angle_beta	103.323
_cell_angle_gamma	90
loop_
_atom_site_label
_atom_site_type_symbol
_atom_site_fract_x
_atom_site_fract_y
_atom_site_fract_z
_atom_site_charge
Mof_N 	N 	0.8575	0.0474	0.6019	-0.173
Mof_N 	N 	0.7788	0.115	0.7039	-0.137
Mof_N 	N 	0.7392	0.3301	0.9272	-0.13
Mof_N 	N 	0.6443	0.4129	0.9895	-0.166
Mof_N 	N 	0.8035	0.0298	0.3579	-0.171
Mof_N 	N 	0.6395	0.0308	0.2043	-0.135
Mof_C 	C 	0.8738	0.1036	0.6375	0.103
Mof_H 	H 	0.9437	0.1328	0.619	-0.003
Mof_C 	C 	0.7422	0.0197	0.6485	-0.039
Mof_H 	H 	0.7057	0.9791	0.6386	0.057
Mof_C 	C 	0.692	0.0607	0.71	0.017
Mof_H 	H 	0.6147	0.054	0.7489	0.027
Mof_C 	C 	0.7682	0.1707	0.7583	0.066
Mof_C 	C 	0.906	0.2061	0.7938	-0.022
Mof_H 	H 	0.0073	0.194	0.7821	0.029
Mof_C 	C 	0.8952	0.2592	0.8465	-0.107
Mof_H 	H 	0.9881	0.2838	0.869	0.078
Mof_C 	C 	0.7447	0.2761	0.8661	0.108
Mof_C 	C 	0.6056	0.242	0.8292	-0.096
Mof_H 	H 	0.5042	0.2542	0.8407	0.067
Mof_C 	C 	0.6183	0.1892	0.7746	-0.055
Mof_H 	H 	0.5243	0.1658	0.7484	0.051
Mof_C 	C 	0.6115	0.3691	0.9215	0.109
Mof_H 	H 	0.5111	0.3653	0.8743	-0.008
Mof_C 	C 	0.8628	0.3506	0.0055	-0.024
Mof_H 	H 	0.9671	0.3333	0.0284	0.037
Mof_C 	C 	0.8026	0.401	0.0426	-0.012
Mof_H 	H 	0.8606	0.4245	0.0968	0.03
Mof_C 	C 	0.7744	0.006	0.2652	0.06
Mof_H 	H 	0.8394	0.9758	0.2449	0.022
Mof_C 	C 	0.6844	0.0735	0.3542	0.01
Mof_H 	H 	0.6753	0.0989	0.4082	0.022
Mof_C 	C 	0.5822	0.0745	0.2614	-0.009
Mof_H 	H 	0.4905	0.0999	0.24	0.031
Mof_C 	C 	0.5691	0.0146	0.0995	0.083
Mof_C 	C 	0.4821	0.0586	0.0358	-0.117
Mof_H 	H 	0.4691	0.098	0.06	0.067
Mof_C 	C 	0.5863	0.9564	0.0653	-0.101
Mof_H 	H 	0.6436	0.9268	0.1095	0.066
Mof_N 	N 	0.6425	0.5474	0.8981	-0.175
Mof_N 	N 	0.7212	0.615	0.7961	-0.139
Mof_N 	N 	0.7608	0.8301	0.5728	-0.139
Mof_N 	N 	0.8557	0.9129	0.5105	-0.175
Mof_N 	N 	0.6965	0.5298	0.1421	-0.178
Mof_N 	N 	0.8605	0.5308	0.2957	-0.149
Mof_C 	C 	0.6262	0.6036	0.8625	0.105
Mof_H 	H 	0.5563	0.6328	0.881	-0.004
Mof_C 	C 	0.7578	0.5197	0.8515	0.009
Mof_H 	H 	0.7943	0.4791	0.8614	0.033
Mof_C 	C 	0.808	0.5607	0.79	-0.004
Mof_H 	H 	0.8853	0.554	0.7511	0.042
Mof_C 	C 	0.7318	0.6707	0.7417	0.093
Mof_C 	C 	0.594	0.7061	0.7062	-0.08
Mof_H 	H 	0.4927	0.694	0.7179	0.06
Mof_C 	C 	0.6048	0.7592	0.6535	-0.072
Mof_H 	H 	0.5119	0.7838	0.631	0.056
Mof_C 	C 	0.7553	0.7761	0.6339	0.087
Mof_C 	C 	0.8944	0.742	0.6708	-0.074
Mof_H 	H 	0.9958	0.7542	0.6593	0.063
Mof_C 	C 	0.8817	0.6892	0.7254	-0.077
Mof_H 	H 	0.9757	0.6658	0.7516	0.065
Mof_C 	C 	0.8885	0.8691	0.5785	0.105
Mof_H 	H 	0.9889	0.8653	0.6257	-0.001
Mof_C 	C 	0.6372	0.8506	0.4945	-0.004
Mof_H 	H 	0.5329	0.8333	0.4716	0.034
Mof_C 	C 	0.6974	0.901	0.4574	0.008
Mof_H 	H 	0.6394	0.9245	0.4032	0.028
Mof_C 	C 	0.7256	0.506	0.2348	0.101
Mof_H 	H 	0.6606	0.4758	0.2551	-0.007
Mof_C 	C 	0.8156	0.5735	0.1458	-0.007
Mof_H 	H 	0.8247	0.5989	0.0918	0.024
Mof_C 	C 	0.9178	0.5745	0.2386	0.028
Mof_H 	H 	0.0095	0.5999	0.26	0.011
Mof_C 	C 	0.9309	0.5146	0.4005	0.133
Mof_C 	C 	0.0179	0.5586	0.4642	-0.132
Mof_H 	H 	0.0309	0.598	0.44	0.076
Mof_C 	C 	0.9137	0.4564	0.4347	-0.121
Mof_H 	H 	0.8564	0.4268	0.3905	0.076
Mof_N 	N 	0.1425	0.9526	0.3981	-0.185
Mof_N 	N 	0.2212	0.885	0.2961	-0.141
Mof_N 	N 	0.2608	0.6699	0.0728	-0.148
Mof_N 	N 	0.3557	0.5871	0.0105	-0.199
Mof_N 	N 	0.1965	0.9702	0.6421	-0.181
Mof_N 	N 	0.3605	0.9692	0.7957	-0.142
Mof_C 	C 	0.1262	0.8964	0.3625	0.1
Mof_H 	H 	0.0563	0.8672	0.381	-0.013
Mof_C 	C 	0.2578	0.9803	0.3515	0.052
Mof_H 	H 	0.2943	0.0209	0.3614	-0.003
Mof_C 	C 	0.308	0.9393	0.29	-0.03
Mof_H 	H 	0.3853	0.946	0.2511	0.049
Mof_C 	C 	0.2318	0.8293	0.2417	0.109
Mof_C 	C 	0.094	0.7939	0.2062	-0.131
Mof_H 	H 	0.9927	0.806	0.2179	0.086
Mof_C 	C 	0.1048	0.7408	0.1535	-0.044
Mof_H 	H 	0.0119	0.7162	0.131	0.038
Mof_C 	C 	0.2553	0.7239	0.1339	0.065
Mof_C 	C 	0.3944	0.758	0.1708	-0.06
Mof_H 	H 	0.4958	0.7458	0.1593	0.051
Mof_C 	C 	0.3817	0.8108	0.2254	-0.098
Mof_H 	H 	0.4757	0.8342	0.2516	0.066
Mof_C 	C 	0.3885	0.6309	0.0785	0.097
Mof_H 	H 	0.4889	0.6347	0.1257	-0.007
Mof_C 	C 	0.1372	0.6494	0.9945	0.012
Mof_H 	H 	0.0329	0.6667	0.9716	0.032
Mof_C 	C 	0.1974	0.599	0.9574	0.028
Mof_H 	H 	0.1394	0.5755	0.9032	0.016
Mof_C 	C 	0.2256	0.994	0.7348	0.138
Mof_H 	H 	0.1606	0.0242	0.7551	-0.034
Mof_C 	C 	0.3156	0.9265	0.6458	0.011
Mof_H 	H 	0.3247	0.9011	0.5918	0.021
Mof_C 	C 	0.4178	0.9255	0.7386	-0.005
Mof_H 	H 	0.5095	0.9001	0.76	0.036
Mof_C 	C 	0.4309	0.9854	0.9005	0.092
Mof_C 	C 	0.5179	0.9414	0.9642	-0.034
Mof_H 	H 	0.5309	0.902	0.94	0.055
Mof_C 	C 	0.4137	0.0436	0.9347	-0.056
Mof_H 	H 	0.3564	0.0732	0.8905	0.052
Mof_N 	N 	0.3575	0.4526	0.1019	-0.186
Mof_N 	N 	0.2788	0.385	0.2039	-0.14
Mof_N 	N 	0.2392	0.1699	0.4272	-0.14
Mof_N 	N 	0.1443	0.0871	0.4895	-0.188
Mof_N 	N 	0.3035	0.4702	0.8579	-0.176
Mof_N 	N 	0.1395	0.4692	0.7043	-0.127
Mof_C 	C 	0.3738	0.3964	0.1375	0.099
Mof_H 	H 	0.4437	0.3672	0.119	-0.013
Mof_C 	C 	0.2422	0.4803	0.1485	0.002
Mof_H 	H 	0.2057	0.5209	0.1386	0.023
Mof_C 	C 	0.192	0.4393	0.21	-0.008
Mof_H 	H 	0.1147	0.446	0.2489	0.033
Mof_C 	C 	0.2682	0.3293	0.2583	0.086
Mof_C 	C 	0.406	0.2939	0.2938	-0.081
Mof_H 	H 	0.5073	0.306	0.2821	0.059
Mof_C 	C 	0.3952	0.2408	0.3465	-0.075
Mof_H 	H 	0.4881	0.2162	0.369	0.057
Mof_C 	C 	0.2447	0.2239	0.3661	0.083
Mof_C 	C 	0.1056	0.258	0.3292	-0.079
Mof_H 	H 	0.0042	0.2458	0.3407	0.054
Mof_C 	C 	0.1183	0.3108	0.2746	-0.08
Mof_H 	H 	0.0243	0.3342	0.2484	0.054
Mof_C 	C 	0.1115	0.1309	0.4215	0.101
Mof_H 	H 	0.0111	0.1347	0.3743	-0.013
Mof_C 	C 	0.3628	0.1494	0.5055	-0.007
Mof_H 	H 	0.4671	0.1667	0.5284	0.035
Mof_C 	C 	0.3026	0.099	0.5426	0.008
Mof_H 	H 	0.3606	0.0755	0.5968	0.019
Mof_C 	C 	0.2744	0.494	0.7652	0.095
Mof_H 	H 	0.3394	0.5242	0.7449	-0.004
Mof_C 	C 	0.1844	0.4265	0.8542	0.029
Mof_H 	H 	0.1753	0.4011	0.9082	0.017
Mof_C 	C 	0.0822	0.4255	0.7614	-0.046
Mof_H 	H 	0.9905	0.4001	0.74	0.058
Mof_C 	C 	0.0691	0.4854	0.5995	0.041
Mof_C 	C 	0.9821	0.4414	0.5358	-0.019
Mof_H 	H 	0.9691	0.402	0.56	0.046
Mof_C 	C 	0.0863	0.5436	0.5653	-0.036
Mof_H 	H 	0.1436	0.5732	0.6095	0.042
Mof_Mn	Mn	3.74718e-33	2.66674e-33	0.5	0.668
Mof_Mn	Mn	0.5	0.5	-0	0.68
_end
