# CIF file generated by openbabel 3.1.0, see https://openbabel.org
data_I
_chemical_name_common 'RURPEA_clean'
_cell_length_a 7.281
_cell_length_b 7.441
_cell_length_c 7.46
_cell_angle_alpha 90
_cell_angle_beta 90
_cell_angle_gamma 95.814
_space_group_name_H-M_alt 'P 1'
_space_group_name_Hall 'P 1'
loop_
    _symmetry_equiv_pos_as_xyz
    x,y,z
loop_
    _atom_site_label
    _atom_site_type_symbol
    _atom_site_fract_x
    _atom_site_fract_y
    _atom_site_fract_z
    _atom_site_occupancy
    Fe1      Fe       0.00000    0.50000    0.50000    1.000
    H1       H        0.65840    0.49120    0.76120    1.000
    H2       H        0.34160    0.50880    0.76120    1.000
    H3       H        0.34160    0.50880    0.23880    1.000
    H4       H        0.65840    0.49120    0.23880    1.000
    Pt1      Pt       0.00000    0.00000    0.00000    1.000
    C1       C        0.59600    0.49500    0.65300    1.000
    C2       C        0.99140    0.18900    0.81100    1.000
    C3       C        0.40400    0.50500    0.65300    1.000
    C4       C        0.00860    0.81100    0.81100    1.000
    C5       C        0.40400    0.50500    0.34700    1.000
    C6       C        0.00860    0.81100    0.18900    1.000
    C7       C        0.59600    0.49500    0.34700    1.000
    C8       C        0.99140    0.18900    0.18900    1.000
    N1       N        0.99050    0.30000    0.70470    1.000
    N2       N        0.00950    0.70000    0.70470    1.000
    N3       N        0.00950    0.70000    0.29530    1.000
    N4       N        0.99050    0.30000    0.29530    1.000
    N5       N        0.68970    0.48900    0.50000    1.000
    N6       N        0.31030    0.51100    0.50000    1.000
