data_functionalizedCrystal
_audit_creation_method	'EQeq! by Chris Wilmer'
_symmetry_space_group_name_H-M	'P1'
_symmetry_Int_Tables_number	1
_symmetry_cell_setting	triclinic
loop_
_symmetry_equiv_pos_as_xyz
  x,y,z
_cell_length_a	13.992
_cell_length_b	17.3793
_cell_length_c	19.34
_cell_angle_alpha	97.8164
_cell_angle_beta	90
_cell_angle_gamma	113.738
loop_
_atom_site_label
_atom_site_type_symbol
_atom_site_fract_x
_atom_site_fract_y
_atom_site_fract_z
_atom_site_charge
Mof_Eu	Eu	0.11892	0.12084	0.49884	2.107
Mof_Eu	Eu	0.88108	0.87916	0.50116	2.107
Mof_Eu	Eu	0.99808	0.87916	0.00116	2.073
Mof_Eu	Eu	0.00192	0.12084	0.99884	2.073
Mof_H 	H 	0.8305	0.4468	0.4147	0.042
Mof_H 	H 	0.3837	0.5532	0.0853	0.042
Mof_H 	H 	0.9579	0.2326	0.6355	0.018
Mof_H 	H 	0.4271	0.3004	0.2089	0.055
Mof_H 	H 	0.3133	0.4038	0.048	0.039
Mof_H 	H 	0.0905	0.4038	0.548	0.037
Mof_H 	H 	0.5536	0.9436	0.1958	0.041
Mof_H 	H 	0.2786	0.9694	0.837	0.037
Mof_H 	H 	0.4032	0.5358	0.6928	0.043
Mof_H 	H 	0.2624	0.004	0.166	-0
Mof_H 	H 	0.2252	0.6694	0.6185	0.114
Mof_H 	H 	0.9095	0.5962	0.452	0.037
Mof_H 	H 	0.6629	0.6104	0.3525	0.037
Mof_H 	H 	0.2584	0.996	0.334	-0.002
Mof_H 	H 	0.6163	0.4468	0.9147	0.042
Mof_H 	H 	0.6908	0.9694	0.337	0.021
Mof_H 	H 	0.7416	0.004	0.666	-0.002
Mof_H 	H 	0.7253	0.7674	0.8645	0.019
Mof_H 	H 	0.4435	0.8702	0.7183	0.113
Mof_H 	H 	0.8674	0.4642	0.8072	0.043
Mof_H 	H 	0.0421	0.7674	0.3645	0.018
Mof_H 	H 	0.5733	0.1298	0.7817	0.113
Mof_H 	H 	0.9475	0.6104	0.8525	0.039
Mof_H 	H 	0.9152	0.1786	0.4579	0.002
Mof_H 	H 	0.7214	0.0306	0.163	0.037
Mof_H 	H 	0.0525	0.3896	0.1475	0.039
Mof_H 	H 	0.1674	0.7374	0.5784	0.055
Mof_H 	H 	0.1695	0.5532	0.5853	0.042
Mof_H 	H 	0.7366	0.8214	0.0421	0.004
Mof_H 	H 	0.8733	0.3004	0.7089	0.057
Mof_H 	H 	0.39	0.9436	0.6958	0.049
Mof_H 	H 	0.3554	0.9308	0.2707	0.052
Mof_H 	H 	0.8	0.3518	0.7745	0.113
Mof_H 	H 	0.6446	0.0692	0.7293	0.052
Mof_H 	H 	0.3371	0.3896	0.6475	0.037
Mof_H 	H 	0.1267	0.6996	0.2911	0.057
Mof_H 	H 	0.5968	0.4642	0.3072	0.043
Mof_H 	H 	0.1326	0.5358	0.1928	0.043
Mof_H 	H 	0.4482	0.6482	0.7255	0.112
Mof_H 	H 	0.2	0.6482	0.2255	0.113
Mof_H 	H 	0.6867	0.5962	0.952	0.039
Mof_H 	H 	0.61	0.0564	0.3042	0.049
Mof_H 	H 	0.4267	0.8702	0.2183	0.113
Mof_H 	H 	0.5558	0.3306	0.8815	0.115
Mof_H 	H 	0.2747	0.2326	0.1355	0.019
Mof_H 	H 	0.0848	0.8214	0.5421	0.002
Mof_H 	H 	0.8326	0.2626	0.4216	0.055
Mof_H 	H 	0.4246	0.0692	0.2293	0.052
Mof_H 	H 	0.5729	0.6996	0.7911	0.055
Mof_H 	H 	0.7748	0.3306	0.3815	0.114
Mof_H 	H 	0.5754	0.9308	0.7707	0.052
Mof_H 	H 	0.4442	0.6694	0.1185	0.115
Mof_H 	H 	0.2634	0.1786	0.9579	0.004
Mof_H 	H 	0.4464	0.0564	0.8042	0.041
Mof_H 	H 	0.7376	0.996	0.834	-0
Mof_H 	H 	0.5565	0.1298	0.2817	0.113
Mof_H 	H 	0.43	0.2626	0.9216	0.051
Mof_H 	H 	0.3092	0.0306	0.663	0.021
Mof_H 	H 	0.57	0.7374	0.0784	0.051
Mof_H 	H 	0.5518	0.3518	0.2745	0.112
Mof_C 	C 	0.1455	0.8458	0.5731	0.053
Mof_C 	C 	0.2488	0.8034	0.2743	0.009
Mof_C 	C 	0.5923	0.9204	0.166	-0.075
Mof_C 	C 	0.3934	0.1028	0.2119	-0.107
Mof_C 	C 	0.3014	0.4228	0.6357	0.003
Mof_C 	C 	0.828	0.6154	0.9078	-0.084
Mof_C 	C 	0.3281	0.9204	0.666	-0.092
Mof_C 	C 	0.8001	0.4824	0.4	-0.066
Mof_C 	C 	0.2803	0.8328	0.6407	0.007
Mof_C 	C 	0.725	0.5698	0.9251	-0.005
Mof_C 	C 	0.2978	0.0642	0.1727	0.071
Mof_C 	C 	0.2676	0.5512	0.1437	-0.006
Mof_C 	C 	0.7094	0.1028	0.7119	-0.11
Mof_C 	C 	0.7664	0.0642	0.6727	0.076
Mof_C 	C 	0.3304	0.7788	0.6645	0.132
Mof_C 	C 	0.464	0.7666	0.7275	0.117
Mof_C 	C 	0.7003	0.8458	0.0731	0.04
Mof_C 	C 	0.7197	0.1672	0.3593	0.007
Mof_C 	C 	0.8958	0.1996	0.656	0.07
Mof_C 	C 	0.6023	0.7966	0.0952	-0.087
Mof_C 	C 	0.4454	0.1966	0.2257	0.006
Mof_C 	C 	0.8569	0.1106	0.6436	-0.204
Mof_C 	C 	0.1431	0.8894	0.3564	-0.204
Mof_C 	C 	0.3164	0.6458	0.1681	0.127
Mof_C 	C 	0.6836	0.3542	0.8319	0.127
Mof_C 	C 	0.2336	0.9358	0.3273	0.076
Mof_C 	C 	0.7426	0.9328	0.0985	-0.15
Mof_C 	C 	0.6823	0.4824	0.9	-0.064
Mof_C 	C 	0.3977	0.2034	0.9048	-0.087
Mof_C 	C 	0.4475	0.1672	0.8593	-0.003
Mof_C 	C 	0.6719	0.0796	0.334	-0.092
Mof_C 	C 	0.3971	0.2402	0.1987	-0.104
Mof_C 	C 	0.0873	0.934	0.3987	0.558
Mof_C 	C 	0.2814	0.9714	0.6459	0.046
Mof_C 	C 	0.8286	0.7092	0.4376	0.339
Mof_C 	C 	0.6589	0.4914	0.3369	-0.071
Mof_C 	C 	0.172	0.3846	0.0922	-0.084
Mof_C 	C 	0.1902	0.9328	0.5985	-0.165
Mof_C 	C 	0.1569	0.7598	0.3013	-0.107
Mof_C 	C 	0.3177	0.5176	0.1	-0.064
Mof_C 	C 	0.8431	0.2402	0.6987	-0.107
Mof_C 	C 	0.8806	0.7092	0.9376	0.337
Mof_C 	C 	0.6962	0.8004	0.844	0.064
Mof_C 	C 	0.6066	0.8972	0.7881	-0.107
Mof_C 	C 	0.8461	0.9904	0.0754	0.457
Mof_C 	C 	0.7164	0.4488	0.3563	-0.006
Mof_C 	C 	0.275	0.4302	0.0749	-0.005
Mof_C 	C 	0.1533	0.066	0.1013	0.538
Mof_C 	C 	0.6029	0.7598	0.8013	-0.104
Mof_C 	C 	0.6706	0.3542	0.3319	0.126
Mof_C 	C 	0.2126	0.3846	0.5922	-0.087
Mof_C 	C 	0.9127	0.066	0.6013	0.558
Mof_C 	C 	0.3294	0.6458	0.6681	0.126
Mof_C 	C 	0.2997	0.1542	0.9269	0.04
Mof_C 	C 	0.7324	0.4488	0.8563	-0.006
Mof_C 	C 	0.2906	0.8972	0.2881	-0.11
Mof_C 	C 	0.1714	0.2908	0.5624	0.339
Mof_C 	C 	0.7463	0.8894	0.8564	-0.195
Mof_C 	C 	0.5516	0.2212	0.8355	0.135
Mof_C 	C 	0.8325	0.4914	0.8369	-0.069
Mof_C 	C 	0.3411	0.5086	0.6631	-0.071
Mof_C 	C 	0.69	0.9714	0.1459	0.016
Mof_C 	C 	0.1999	0.5176	0.6	-0.066
Mof_C 	C 	0.2836	0.5512	0.6437	-0.006
Mof_C 	C 	0.1552	0.4302	0.5749	-0.004
Mof_C 	C 	0.8098	0.0672	0.4015	-0.165
Mof_C 	C 	0.6696	0.2212	0.3355	0.132
Mof_C 	C 	0.1042	0.8004	0.344	0.07
Mof_C 	C 	0.1443	0.9904	0.5754	0.482
Mof_C 	C 	0.3026	0.7666	0.2275	0.117
Mof_C 	C 	0.536	0.2334	0.2725	0.117
Mof_C 	C 	0.7512	0.1966	0.7257	0.009
Mof_C 	C 	0.1194	0.2908	0.0624	0.337
Mof_C 	C 	0.7186	0.0286	0.3541	0.046
Mof_C 	C 	0.6974	0.2334	0.7725	0.117
Mof_C 	C 	0.1539	0.0096	0.9246	0.457
Mof_C 	C 	0.7022	0.9358	0.8273	0.071
Mof_C 	C 	0.8557	0.0096	0.4246	0.482
Mof_C 	C 	0.7874	0.6154	0.4078	-0.087
Mof_C 	C 	0.4077	0.0796	0.834	-0.075
Mof_C 	C 	0.2537	0.1106	0.1436	-0.195
Mof_C 	C 	0.8786	0.5772	0.8643	0.002
Mof_C 	C 	0.1943	0.7966	0.5952	-0.097
Mof_C 	C 	0.1214	0.4228	0.1357	0.002
Mof_C 	C 	0.2574	0.0672	0.9015	-0.15
Mof_C 	C 	0.8467	0.934	0.8987	0.538
Mof_C 	C 	0.31	0.0286	0.8541	0.016
Mof_C 	C 	0.8448	0.5698	0.4251	-0.004
Mof_C 	C 	0.4484	0.7788	0.1645	0.135
Mof_C 	C 	0.5546	0.8034	0.7743	0.006
Mof_C 	C 	0.5525	0.8328	0.1407	-0.003
Mof_C 	C 	0.6986	0.5772	0.3643	0.003
Mof_C 	C 	0.1675	0.5086	0.1631	-0.069
Mof_C 	C 	0.8057	0.2034	0.4048	-0.097
Mof_C 	C 	0.3038	0.1996	0.156	0.064
Mof_C 	C 	0.8545	0.1542	0.4269	0.053
Mof_N 	N 	0.3985	0.8148	0.2052	-0.222
Mof_N 	N 	0.2837	0.6932	0.6452	-0.221
Mof_N 	N 	0.2602	0.6802	0.2103	-0.218
Mof_N 	N 	0.5905	0.3068	0.8548	-0.222
Mof_N 	N 	0.7398	0.3198	0.7897	-0.218
Mof_N 	N 	0.4163	0.8148	0.7052	-0.221
Mof_N 	N 	0.58	0.3198	0.2897	-0.218
Mof_N 	N 	0.6015	0.1852	0.7948	-0.222
Mof_N 	N 	0.4095	0.6932	0.1452	-0.222
Mof_N 	N 	0.42	0.6802	0.7103	-0.218
Mof_N 	N 	0.7163	0.3068	0.3548	-0.221
Mof_N 	N 	0.5837	0.1852	0.2948	-0.221
Mof_O 	O 	0.0957	0.0446	0.9499	-0.611
Mof_O 	O 	0.8678	0.067	0.08	-0.502
Mof_O 	O 	0.7851	0.7514	0.4168	-0.464
Mof_O 	O 	0.8616	0.9892	0.5792	-0.598
Mof_O 	O 	0.1629	0.2604	0.0173	-0.444
Mof_O 	O 	0.9663	0.7514	0.9168	-0.458
Mof_O 	O 	0.0511	0.9554	0.5501	-0.614
Mof_O 	O 	0.0038	0.1098	0.5896	-0.558
Mof_O 	O 	0.0975	0.2604	0.5173	-0.452
Mof_O 	O 	0.8371	0.7396	0.9827	-0.444
Mof_O 	O 	0.894	0.8902	0.9104	-0.54
Mof_O 	O 	0.9489	0.0446	0.4499	-0.614
Mof_O 	O 	0.1384	0.0108	0.4208	-0.598
Mof_O 	O 	0.8724	0.0108	0.9208	-0.579
Mof_O 	O 	0.9025	0.7396	0.4827	-0.452
Mof_O 	O 	0.9043	0.9554	0.0501	-0.611
Mof_O 	O 	0.1322	0.933	0.92	-0.502
Mof_O 	O 	0.9962	0.8902	0.4104	-0.558
Mof_O 	O 	0.2149	0.2486	0.5832	-0.464
Mof_O 	O 	0.0337	0.2486	0.0832	-0.458
Mof_O 	O 	0.1992	0.067	0.58	-0.521
Mof_O 	O 	0.106	0.1098	0.0896	-0.54
Mof_O 	O 	0.8008	0.933	0.42	-0.521
Mof_O 	O 	0.1276	0.9892	0.0792	-0.579
_end
