data_functionalizedCrystal
_audit_creation_method	'EQeq! by Chris Wilmer'
_symmetry_space_group_name_H-M	'P1'
_symmetry_Int_Tables_number	1
_symmetry_cell_setting	triclinic
loop_
_symmetry_equiv_pos_as_xyz
  x,y,z
_cell_length_a	11.275
_cell_length_b	13.288
_cell_length_c	18.774
_cell_angle_alpha	92.211
_cell_angle_beta	100.988
_cell_angle_gamma	104.96
loop_
_atom_site_label
_atom_site_type_symbol
_atom_site_fract_x
_atom_site_fract_y
_atom_site_fract_z
_atom_site_charge
Mof_Ni	Ni	0.04928	0.60947	0.92827	1.114
Mof_Ni	Ni	0.95072	0.39053	0.07173	1.1
Mof_Ni	Ni	0.5	0.5	0.5	1.062
Mof_Ni	Ni	0.5	0	-0	0.944
Mof_H 	H 	0.8474	0.2643	0.4251	0.291
Mof_H 	H 	0.6353	0.064	0.3375	-0.029
Mof_H 	H 	0.4462	0.9415	0.2927	0.149
Mof_H 	H 	0.2988	0.0526	0.4466	0.186
Mof_H 	H 	0.4881	0.1732	0.4913	-0.04
Mof_H 	H 	0.2187	0.9585	0.2105	0.172
Mof_H 	H 	0.1528	0.8407	0.1066	-0.049
Mof_H 	H 	0.1026	0.6028	0.2312	-0.03
Mof_H 	H 	0.1793	0.7195	0.3349	0.181
Mof_H 	H 	0.8931	0.6995	0.0162	-0.033
Mof_H 	H 	0.6913	0.6898	0.0209	0.042
Mof_H 	H 	0.5835	0.5084	0.834	0.076
Mof_H 	H 	0.7902	0.5222	0.8354	0.003
Mof_H 	H 	0.1367	0.9396	0.8246	-0.013
Mof_H 	H 	0.1051	0.0413	0.7283	0.104
Mof_H 	H 	0.9024	0.7841	0.6006	0.154
Mof_H 	H 	0.9335	0.6827	0.6955	-0.004
Mof_H 	H 	0.211	0.0304	0.6006	0.146
Mof_H 	H 	0.327	0.1874	0.5693	-0.024
Mof_H 	H 	0.0239	0.2955	0.5405	-0.022
Mof_H 	H 	0.9087	0.1397	0.5721	0.173
Mof_H 	H 	0.6848	0.6629	0.6163	-0.003
Mof_H 	H 	0.6941	0.7684	0.7177	0.084
Mof_H 	H 	0.331	0.625	0.7068	0.087
Mof_H 	H 	0.332	0.5304	0.6031	0.004
Mof_H 	H 	0.6928	0.8044	0.8389	0.084
Mof_H 	H 	0.6842	0.9053	0.939	-0.024
Mof_H 	H 	0.3315	0.8815	0.8637	-0.025
Mof_H 	H 	0.3295	0.7769	0.7632	0.096
Mof_H 	H 	0.3903	0.4925	0.8406	0.074
Mof_H 	H 	0.5132	0.6895	0.0199	0.032
Mof_H 	H 	0.1926	0.5006	0.8433	0.01
Mof_H 	H 	0.3114	0.6922	0.0179	-0.03
Mof_H 	H 	0.1526	0.7357	0.5749	0.294
Mof_H 	H 	0.3647	0.936	0.6625	-0.045
Mof_H 	H 	0.5538	0.0585	0.7073	0.165
Mof_H 	H 	0.7012	0.9474	0.5534	0.175
Mof_H 	H 	0.5119	0.8268	0.5087	-0.033
Mof_H 	H 	0.7813	0.0415	0.7895	0.155
Mof_H 	H 	0.8472	0.1593	0.8934	-0.048
Mof_H 	H 	0.8974	0.3972	0.7688	-0.03
Mof_H 	H 	0.8207	0.2805	0.6651	0.177
Mof_H 	H 	0.1069	0.3005	0.9838	0.021
Mof_H 	H 	0.3087	0.3102	0.9791	0.093
Mof_H 	H 	0.4165	0.4916	0.166	0.077
Mof_H 	H 	0.2098	0.4778	0.1646	0.004
Mof_H 	H 	0.8633	0.0604	0.1754	-0.071
Mof_H 	H 	0.8949	0.9587	0.2717	0.197
Mof_H 	H 	0.0976	0.2159	0.3994	0.177
Mof_H 	H 	0.0665	0.3173	0.3045	-0.029
Mof_H 	H 	0.789	0.9696	0.3994	0.175
Mof_H 	H 	0.673	0.8126	0.4307	-0.029
Mof_H 	H 	0.9761	0.7045	0.4595	-0.025
Mof_H 	H 	0.0913	0.8603	0.4279	0.185
Mof_H 	H 	0.3152	0.3371	0.3837	-0.003
Mof_H 	H 	0.3059	0.2316	0.2823	0.079
Mof_H 	H 	0.669	0.375	0.2932	0.086
Mof_H 	H 	0.668	0.4696	0.3969	0.004
Mof_H 	H 	0.3072	0.1956	0.1611	0.081
Mof_H 	H 	0.3158	0.0947	0.061	-0.046
Mof_H 	H 	0.6685	0.1185	0.1363	-0.035
Mof_H 	H 	0.6705	0.2231	0.2368	0.096
Mof_H 	H 	0.6097	0.5075	0.1594	0.075
Mof_H 	H 	0.4868	0.3105	0.9801	0.084
Mof_H 	H 	0.8074	0.4994	0.1567	0.007
Mof_H 	H 	0.6886	0.3078	0.9821	0.02
Mof_C 	C 	0.69734	0.2157	0.4467	0.435
Mof_C 	C 	0.58047	0.13158	0.41838	-0.258
Mof_C 	C 	0.56739	0.06171	0.35942	0.194
Mof_C 	C 	0.45469	0.98852	0.33257	-0.328
Mof_C 	C 	0.3543	0.98564	0.36538	0.398
Mof_C 	C 	0.36668	0.05488	0.42465	-0.393
Mof_C 	C 	0.47938	0.12695	0.45105	0.241
Mof_C 	C 	0.20709	0.8488	0.28129	0.374
Mof_C 	C 	0.1979	0.88681	0.21452	-0.373
Mof_C 	C 	0.15664	0.81593	0.15246	0.237
Mof_C 	C 	0.12169	0.7104	0.15799	-0.28
Mof_C 	C 	0.12828	0.67427	0.22682	0.231
Mof_C 	C 	0.17278	0.74374	0.28885	-0.361
Mof_C 	C 	0.07538	0.63364	0.09199	0.468
Mof_C 	C 	0.82984	0.65938	0.97901	0.12
Mof_C 	C 	0.70828	0.65422	0.98203	-0.103
Mof_C 	C 	0.61058	0.59701	0.92823	0.056
Mof_C 	C 	0.6448	0.5476	0.8724	-0.135
Mof_C 	C 	0.76997	0.55635	0.87366	0.082
Mof_C 	C 	0.05483	0.73466	0.83113	0.333
Mof_C 	C 	0.03806	0.80174	0.77074	-0.184
Mof_C 	C 	0.08901	0.90787	0.7795	0.144
Mof_C 	C 	0.07047	0.96919	0.72181	-0.245
Mof_C 	C 	0.00071	0.92185	0.65563	0.319
Mof_C 	C 	0.94962	0.81541	0.64582	-0.291
Mof_C 	C 	0.96788	0.75484	0.70252	0.157
Mof_C 	C 	0.04854	0.07045	0.58695	0.332
Mof_C 	C 	0.17318	0.08336	0.58763	-0.322
Mof_C 	C 	0.24196	0.1773	0.56853	0.188
Mof_C 	C 	0.18629	0.25616	0.54837	-0.224
Mof_C 	C 	0.0617	0.24189	0.55141	0.201
Mof_C 	C 	0.99272	0.14894	0.57047	-0.331
Mof_C 	C 	0.25731	0.35419	0.52123	0.377
Mof_C 	C 	0.61186	0.65707	0.63389	0.083
Mof_C 	C 	0.61904	0.72012	0.69568	-0.135
Mof_C 	C 	0.51229	0.71018	0.72435	0.06
Mof_C 	C 	0.40422	0.63602	0.68873	-0.135
Mof_C 	C 	0.40605	0.5788	0.62655	0.086
Mof_C 	C 	0.51167	0.77782	0.78911	0.069
Mof_C 	C 	0.61751	0.81834	0.84285	-0.144
Mof_C 	C 	0.61208	0.87991	0.90287	0.079
Mof_C 	C 	0.40531	0.86544	0.85887	0.083
Mof_C 	C 	0.40339	0.80249	0.79799	-0.146
Mof_C 	C 	0.4784	0.59366	0.92892	0.053
Mof_C 	C 	0.37736	0.53526	0.87711	-0.132
Mof_C 	C 	0.44943	0.65088	0.9824	-0.098
Mof_C 	C 	0.25834	0.54012	0.87938	0.083
Mof_C 	C 	0.32724	0.65179	0.98113	0.099
Mof_C 	C 	0.30266	0.7843	0.5533	0.445
Mof_C 	C 	0.41953	0.86842	0.58162	-0.271
Mof_C 	C 	0.43261	0.93829	0.64058	0.281
Mof_C 	C 	0.54531	0.01148	0.66743	-0.403
Mof_C 	C 	0.6457	0.01436	0.63462	0.356
Mof_C 	C 	0.63332	0.94512	0.57535	-0.323
Mof_C 	C 	0.52062	0.87305	0.54895	0.232
Mof_C 	C 	0.79291	0.1512	0.71871	0.365
Mof_C 	C 	0.8021	0.11319	0.78548	-0.367
Mof_C 	C 	0.84336	0.18407	0.84754	0.226
Mof_C 	C 	0.87831	0.2896	0.84201	-0.274
Mof_C 	C 	0.87172	0.32573	0.77318	0.224
Mof_C 	C 	0.82722	0.25626	0.71115	-0.356
Mof_C 	C 	0.92462	0.36636	0.90801	0.461
Mof_C 	C 	0.17016	0.34062	0.02099	0.057
Mof_C 	C 	0.29172	0.34578	0.01797	-0.169
Mof_C 	C 	0.38942	0.40299	0.07177	0.062
Mof_C 	C 	0.3552	0.4524	0.1276	-0.14
Mof_C 	C 	0.23003	0.44365	0.12634	0.081
Mof_C 	C 	0.94517	0.26534	0.16887	0.365
Mof_C 	C 	0.96194	0.19826	0.22926	-0.267
Mof_C 	C 	0.91099	0.09213	0.2205	0.258
Mof_C 	C 	0.92953	0.03081	0.27819	-0.429
Mof_C 	C 	0.99929	0.07815	0.34437	0.388
Mof_C 	C 	0.05038	0.18459	0.35418	-0.357
Mof_C 	C 	0.03212	0.24516	0.29748	0.235
Mof_C 	C 	0.95146	0.92955	0.41305	0.382
Mof_C 	C 	0.82682	0.91664	0.41237	-0.353
Mof_C 	C 	0.75804	0.8227	0.43147	0.21
Mof_C 	C 	0.81371	0.74384	0.45163	-0.233
Mof_C 	C 	0.9383	0.75811	0.44859	0.202
Mof_C 	C 	0.00728	0.85106	0.42953	-0.334
Mof_C 	C 	0.74269	0.64581	0.47877	0.381
Mof_C 	C 	0.38814	0.34293	0.36611	0.082
Mof_C 	C 	0.38096	0.27988	0.30432	-0.134
Mof_C 	C 	0.48771	0.28982	0.27565	0.056
Mof_C 	C 	0.59578	0.36398	0.31127	-0.133
Mof_C 	C 	0.59395	0.4212	0.37345	0.085
Mof_C 	C 	0.48833	0.22218	0.21089	0.069
Mof_C 	C 	0.38249	0.18166	0.15715	-0.153
Mof_C 	C 	0.38792	0.12009	0.09713	0.075
Mof_C 	C 	0.59469	0.13456	0.14113	0.079
Mof_C 	C 	0.59661	0.19751	0.20201	-0.151
Mof_C 	C 	0.5216	0.40634	0.07108	0.062
Mof_C 	C 	0.62264	0.46474	0.12289	-0.139
Mof_C 	C 	0.55057	0.34912	0.0176	-0.166
Mof_C 	C 	0.74166	0.45988	0.12062	0.083
Mof_C 	C 	0.67276	0.34821	0.01887	0.036
Mof_N 	N 	0.50682	0.5883	0.59787	-0.238
Mof_N 	N 	0.50716	0.90409	0.91082	-0.27
Mof_N 	N 	0.86265	0.61065	0.92631	-0.233
Mof_N 	N 	0.23097	0.59795	0.9301	-0.224
Mof_N 	N 	0.49318	0.4117	0.40213	-0.237
Mof_N 	N 	0.49284	0.09591	0.08918	-0.288
Mof_N 	N 	0.13735	0.38935	0.07369	-0.227
Mof_N 	N 	0.76903	0.40205	0.0699	-0.222
Mof_O 	O 	0.78021	0.22453	0.40412	-0.498
Mof_O 	O 	0.71552	0.27322	0.50092	-0.314
Mof_O 	O 	0.23966	0.91596	0.34477	-0.348
Mof_O 	O 	0.10278	0.66426	0.03366	-0.474
Mof_O 	O 	0.00945	0.54564	0.10021	-0.464
Mof_O 	O 	0.02292	0.63602	0.81726	-0.371
Mof_O 	O 	0.097	0.77349	0.89569	-0.363
Mof_O 	O 	0.97	0.97503	0.5966	-0.304
Mof_O 	O 	0.19448	0.41009	0.48906	-0.293
Mof_O 	O 	0.37448	0.37254	0.53011	-0.426
Mof_O 	O 	0.21979	0.77547	0.59588	-0.497
Mof_O 	O 	0.28448	0.72678	0.49908	-0.314
Mof_O 	O 	0.76034	0.08404	0.65523	-0.351
Mof_O 	O 	0.89722	0.33574	0.96634	-0.454
Mof_O 	O 	0.99055	0.45436	0.89979	-0.46
Mof_O 	O 	0.97708	0.36398	0.18274	-0.384
Mof_O 	O 	0.903	0.22651	0.10431	-0.392
Mof_O 	O 	0.03	0.02497	0.4034	-0.358
Mof_O 	O 	0.80552	0.58991	0.51094	-0.295
Mof_O 	O 	0.62552	0.62746	0.46989	-0.426
_end
