# CIF file generated by openbabel 3.1.0, see https://openbabel.org
data_I
_chemical_name_common 'image0'
_cell_length_a 32.27
_cell_length_b 18.631
_cell_length_c 23.512
_cell_angle_alpha 90
_cell_angle_beta 117.225
_cell_angle_gamma 90
_space_group_name_H-M_alt 'P 1'
_space_group_name_Hall 'P 1'
loop_
    _symmetry_equiv_pos_as_xyz
    x,y,z
loop_
    _atom_site_label
    _atom_site_type_symbol
    _atom_site_fract_x
    _atom_site_fract_y
    _atom_site_fract_z
    _atom_site_occupancy
    Cu1      Cu       0.25121    0.44778    0.29787    1.000
    Cu2      Cu       0.23987    0.51803    0.19395    1.000
    Cu3      Cu       0.04077    0.23112    0.30217    1.000
    O1       O        0.25750    0.36230    0.25270    1.000
    O2       O        0.24520    0.42250    0.16400    1.000
    O3       O        0.26720    0.10020    0.26180    1.000
    O4       O        0.25880    0.04190    0.17520    1.000
    O5       O        0.31751    0.47190    0.32420    1.000
    O6       O        0.30720    0.53080    0.23810    1.000
    O7       O        0.50730    0.65930    0.33040    1.000
    O8       O        0.44090    0.65700    0.23930    1.000
    O9       O        0.18450    0.43820    0.25320    1.000
    O10      O        0.17230    0.49790    0.16580    1.000
    O11      O        0.05414    0.30340    0.25700    1.000
    O12      O        0.98281    0.29450    0.17500    1.000
    C1       C        0.25250    0.36800    0.19910    1.000
    C2       C        0.25670    0.29690    0.17010    1.000
    C3       C        0.25270    0.29630    0.10870    1.000
    H1       H        0.24980    0.33920    0.08700    1.000
    C4       C        0.25320    0.23140    0.07980    1.000
    C5       C        0.25760    0.16730    0.11220    1.000
    H2       H        0.25800    0.12390    0.09280    1.000
    C6       C        0.26160    0.16790    0.17360    1.000
    C7       C        0.26110    0.23270    0.20260    1.000
    H3       H        0.26370    0.23310    0.24360    1.000
    C8       C        0.26260    0.09890    0.20280    1.000
    C9       C        0.33100    0.50580    0.29490    1.000
    C10      C        0.37987    0.52400    0.32590    1.000
    C11      C        0.39759    0.56880    0.29500    1.000
    H4       H        0.37830    0.58500    0.25380    1.000
    C12      C        0.44420    0.58930    0.32560    1.000
    C13      C        0.47299    0.56500    0.38710    1.000
    H5       H        0.50410    0.57870    0.40760    1.000
    C14      C        0.45530    0.52020    0.41800    1.000
    C15      C        0.40870    0.49970    0.38740    1.000
    H6       H        0.39680    0.46980    0.40810    1.000
    C16      C        0.46380    0.64240    0.29620    1.000
    H7       H        0.45240    0.68410    0.31040    1.000
    C17      C        0.15730    0.45750    0.19700    1.000
    C18      C        0.10679    0.44480    0.16930    1.000
    C19      C        0.08936    0.39720    0.19860    1.000
    H8       H        0.10910    0.37770    0.23830    1.000
    C20      C        0.04242    0.37880    0.16860    1.000
    C21      C        0.01290    0.40800    0.10930    1.000
    H9       H        0.98150    0.39570    0.08920    1.000
    C22      C        0.03030    0.45560    0.08000    1.000
    C23      C        0.07730    0.47400    0.11000    1.000
    H10      H        0.08890    0.50590    0.09040    1.000
    C24      C        0.02050    0.32570    0.19920    1.000
    C25      C        0.25280    0.22660    0.01740    1.000
    O13      O        0.27600    0.18100    0.00710    1.000
    C26      C        0.99680    0.47850    0.01700    1.000
    O14      O        0.96540    0.43900    0.98180    1.000
    C27      C        0.48250    0.49120    0.48340    1.000
    H11      H        0.46980    0.45830    0.49600    1.000
    H12      H        0.25710    0.18470    0.00560    1.000
    H13      H        0.96940    0.45980    0.00190    1.000
    O15      O        0.47250    0.42890    0.49350    1.000
    N1       N        0.51750    0.50880    0.51660    1.000
    Cu4      Cu       0.75121    0.94778    0.29787    1.000
    Cu5      Cu       0.73987    0.01803    0.19395    1.000
    Cu6      Cu       0.54077    0.73112    0.30217    1.000
    O16      O        0.75750    0.86230    0.25270    1.000
    O17      O        0.74520    0.92250    0.16400    1.000
    O18      O        0.76720    0.60020    0.26180    1.000
    O19      O        0.75880    0.54190    0.17520    1.000
    O20      O        0.81751    0.97190    0.32420    1.000
    O21      O        0.80720    0.03080    0.23810    1.000
    O22      O        0.00730    0.15930    0.33040    1.000
    O23      O        0.94090    0.15700    0.23930    1.000
    O24      O        0.68450    0.93820    0.25320    1.000
    O25      O        0.67230    0.99790    0.16580    1.000
    O26      O        0.55414    0.80340    0.25700    1.000
    O27      O        0.48281    0.79450    0.17500    1.000
    C28      C        0.75250    0.86800    0.19910    1.000
    C29      C        0.75670    0.79690    0.17010    1.000
    C30      C        0.75270    0.79630    0.10870    1.000
    H14      H        0.74980    0.83920    0.08700    1.000
    C31      C        0.75320    0.73140    0.07980    1.000
    C32      C        0.75760    0.66730    0.11220    1.000
    H15      H        0.75800    0.62390    0.09280    1.000
    C33      C        0.76160    0.66790    0.17360    1.000
    C34      C        0.76110    0.73270    0.20260    1.000
    H16      H        0.76370    0.73310    0.24360    1.000
    C35      C        0.76260    0.59890    0.20280    1.000
    C36      C        0.83100    0.00580    0.29490    1.000
    C37      C        0.87987    0.02400    0.32590    1.000
    C38      C        0.89759    0.06880    0.29500    1.000
    H17      H        0.87830    0.08500    0.25380    1.000
    C39      C        0.94420    0.08930    0.32560    1.000
    C40      C        0.97299    0.06500    0.38710    1.000
    H18      H        0.00410    0.07870    0.40760    1.000
    C41      C        0.95530    0.02020    0.41800    1.000
    C42      C        0.90870    0.99970    0.38740    1.000
    H19      H        0.89680    0.96980    0.40810    1.000
    C43      C        0.96380    0.14240    0.29620    1.000
    H20      H        0.95240    0.18410    0.31040    1.000
    C44      C        0.65730    0.95750    0.19700    1.000
    C45      C        0.60679    0.94480    0.16930    1.000
    C46      C        0.58936    0.89720    0.19860    1.000
    H21      H        0.60910    0.87770    0.23830    1.000
    C47      C        0.54242    0.87880    0.16860    1.000
    C48      C        0.51290    0.90800    0.10930    1.000
    H22      H        0.48150    0.89570    0.08920    1.000
    C49      C        0.53030    0.95560    0.08000    1.000
    C50      C        0.57730    0.97400    0.11000    1.000
    H23      H        0.58890    0.00590    0.09040    1.000
    C51      C        0.52050    0.82570    0.19920    1.000
    C52      C        0.75280    0.72660    0.01740    1.000
    O28      O        0.77600    0.68100    0.00710    1.000
    C53      C        0.49680    0.97850    0.01700    1.000
    O29      O        0.46540    0.93900    0.98180    1.000
    C54      C        0.98250    0.99120    0.48340    1.000
    H24      H        0.96980    0.95830    0.49600    1.000
    H25      H        0.75710    0.68470    0.00560    1.000
    H26      H        0.46940    0.95980    0.00190    1.000
    O30      O        0.97250    0.92890    0.49350    1.000
    N2       N        0.01750    0.00880    0.51660    1.000
    Cu7      Cu       0.74879    0.44778    0.20213    1.000
    Cu8      Cu       0.76013    0.51803    0.30605    1.000
    Cu9      Cu       0.95923    0.23112    0.19783    1.000
    O31      O        0.74250    0.36230    0.24730    1.000
    O32      O        0.75480    0.42250    0.33600    1.000
    O33      O        0.73280    0.10020    0.23820    1.000
    O34      O        0.74120    0.04190    0.32480    1.000
    O35      O        0.68249    0.47190    0.17580    1.000
    O36      O        0.69280    0.53080    0.26190    1.000
    O37      O        0.49270    0.65930    0.16960    1.000
    O38      O        0.55910    0.65700    0.26070    1.000
    O39      O        0.81550    0.43820    0.24680    1.000
    O40      O        0.82770    0.49790    0.33420    1.000
    O41      O        0.94586    0.30340    0.24300    1.000
    O42      O        0.01719    0.29450    0.32500    1.000
    C55      C        0.74750    0.36800    0.30090    1.000
    C56      C        0.74330    0.29690    0.32990    1.000
    C57      C        0.74730    0.29630    0.39130    1.000
    H27      H        0.75020    0.33920    0.41300    1.000
    C58      C        0.74680    0.23140    0.42020    1.000
    C59      C        0.74240    0.16730    0.38780    1.000
    H28      H        0.74200    0.12390    0.40720    1.000
    C60      C        0.73840    0.16790    0.32640    1.000
    C61      C        0.73890    0.23270    0.29740    1.000
    H29      H        0.73630    0.23310    0.25640    1.000
    C62      C        0.73740    0.09890    0.29720    1.000
    C63      C        0.66900    0.50580    0.20510    1.000
    C64      C        0.62013    0.52400    0.17410    1.000
    C65      C        0.60241    0.56880    0.20500    1.000
    H30      H        0.62170    0.58500    0.24620    1.000
    C66      C        0.55580    0.58930    0.17440    1.000
    C67      C        0.52701    0.56500    0.11290    1.000
    H31      H        0.49590    0.57870    0.09240    1.000
    C68      C        0.54470    0.52020    0.08200    1.000
    C69      C        0.59130    0.49970    0.11260    1.000
    H32      H        0.60320    0.46980    0.09190    1.000
    C70      C        0.53620    0.64240    0.20380    1.000
    H33      H        0.54760    0.68410    0.18960    1.000
    C71      C        0.84270    0.45750    0.30300    1.000
    C72      C        0.89321    0.44480    0.33070    1.000
    C73      C        0.91064    0.39720    0.30140    1.000
    H34      H        0.89090    0.37770    0.26170    1.000
    C74      C        0.95758    0.37880    0.33140    1.000
    C75      C        0.98710    0.40800    0.39070    1.000
    H35      H        0.01850    0.39570    0.41080    1.000
    C76      C        0.96970    0.45560    0.42000    1.000
    C77      C        0.92270    0.47400    0.39000    1.000
    H36      H        0.91110    0.50590    0.40960    1.000
    C78      C        0.97950    0.32570    0.30080    1.000
    C79      C        0.74720    0.22660    0.48260    1.000
    O43      O        0.72400    0.18100    0.49290    1.000
    C80      C        0.00320    0.47850    0.48300    1.000
    O44      O        0.03460    0.43900    0.51820    1.000
    C81      C        0.51750    0.49120    0.01660    1.000
    H37      H        0.53020    0.45830    0.00400    1.000
    H38      H        0.74290    0.18470    0.49440    1.000
    H39      H        0.03060    0.45980    0.49810    1.000
    O45      O        0.52750    0.42890    0.00650    1.000
    N3       N        0.48250    0.50880    0.98340    1.000
    Cu10     Cu       0.24879    0.94778    0.20213    1.000
    Cu11     Cu       0.26013    0.01803    0.30605    1.000
    Cu12     Cu       0.45923    0.73112    0.19783    1.000
    O46      O        0.24250    0.86230    0.24730    1.000
    O47      O        0.25480    0.92250    0.33600    1.000
    O48      O        0.23280    0.60020    0.23820    1.000
    O49      O        0.24120    0.54190    0.32480    1.000
    O50      O        0.18249    0.97190    0.17580    1.000
    O51      O        0.19280    0.03080    0.26190    1.000
    O52      O        0.99270    0.15930    0.16960    1.000
    O53      O        0.05910    0.15700    0.26070    1.000
    O54      O        0.31550    0.93820    0.24680    1.000
    O55      O        0.32770    0.99790    0.33420    1.000
    O56      O        0.44586    0.80340    0.24300    1.000
    O57      O        0.51719    0.79450    0.32500    1.000
    C82      C        0.24750    0.86800    0.30090    1.000
    C83      C        0.24330    0.79690    0.32990    1.000
    C84      C        0.24730    0.79630    0.39130    1.000
    H40      H        0.25020    0.83920    0.41300    1.000
    C85      C        0.24680    0.73140    0.42020    1.000
    C86      C        0.24240    0.66730    0.38780    1.000
    H41      H        0.24200    0.62390    0.40720    1.000
    C87      C        0.23840    0.66790    0.32640    1.000
    C88      C        0.23890    0.73270    0.29740    1.000
    H42      H        0.23630    0.73310    0.25640    1.000
    C89      C        0.23740    0.59890    0.29720    1.000
    C90      C        0.16900    0.00580    0.20510    1.000
    C91      C        0.12013    0.02400    0.17410    1.000
    C92      C        0.10241    0.06880    0.20500    1.000
    H43      H        0.12170    0.08500    0.24620    1.000
    C93      C        0.05580    0.08930    0.17440    1.000
    C94      C        0.02701    0.06500    0.11290    1.000
    H44      H        0.99590    0.07870    0.09240    1.000
    C95      C        0.04470    0.02020    0.08200    1.000
    C96      C        0.09130    0.99970    0.11260    1.000
    H45      H        0.10320    0.96980    0.09190    1.000
    C97      C        0.03620    0.14240    0.20380    1.000
    H46      H        0.04760    0.18410    0.18960    1.000
    C98      C        0.34270    0.95750    0.30300    1.000
    C99      C        0.39321    0.94480    0.33070    1.000
    C100     C        0.41064    0.89720    0.30140    1.000
    H47      H        0.39090    0.87770    0.26170    1.000
    C101     C        0.45758    0.87880    0.33140    1.000
    C102     C        0.48710    0.90800    0.39070    1.000
    H48      H        0.51850    0.89570    0.41080    1.000
    C103     C        0.46970    0.95560    0.42000    1.000
    C104     C        0.42270    0.97400    0.39000    1.000
    H49      H        0.41110    0.00590    0.40960    1.000
    C105     C        0.47950    0.82570    0.30080    1.000
    C106     C        0.24720    0.72660    0.48260    1.000
    O58      O        0.22400    0.68100    0.49290    1.000
    C107     C        0.50320    0.97850    0.48300    1.000
    O59      O        0.53460    0.93900    0.51820    1.000
    C108     C        0.01750    0.99120    0.01660    1.000
    H50      H        0.03020    0.95830    0.00400    1.000
    H51      H        0.24290    0.68470    0.49440    1.000
    H52      H        0.53060    0.95980    0.49810    1.000
    O60      O        0.02750    0.92890    0.00650    1.000
    N4       N        0.98250    0.00880    0.98340    1.000
    Cu13     Cu       0.74879    0.55222    0.70213    1.000
    Cu14     Cu       0.76013    0.48197    0.80605    1.000
    Cu15     Cu       0.95923    0.76888    0.69783    1.000
    O61      O        0.74250    0.63770    0.74730    1.000
    O62      O        0.75480    0.57750    0.83600    1.000
    O63      O        0.73280    0.89980    0.73820    1.000
    O64      O        0.74120    0.95810    0.82480    1.000
    O65      O        0.68249    0.52810    0.67580    1.000
    O66      O        0.69280    0.46920    0.76190    1.000
    O67      O        0.49270    0.34070    0.66960    1.000
    O68      O        0.55910    0.34300    0.76070    1.000
    O69      O        0.81550    0.56180    0.74680    1.000
    O70      O        0.82770    0.50210    0.83420    1.000
    O71      O        0.94586    0.69660    0.74300    1.000
    O72      O        0.01719    0.70550    0.82500    1.000
    C109     C        0.74750    0.63200    0.80090    1.000
    C110     C        0.74330    0.70310    0.82990    1.000
    C111     C        0.74730    0.70370    0.89130    1.000
    H53      H        0.75020    0.66080    0.91300    1.000
    C112     C        0.74680    0.76860    0.92020    1.000
    C113     C        0.74240    0.83270    0.88780    1.000
    H54      H        0.74200    0.87610    0.90720    1.000
    C114     C        0.73840    0.83210    0.82640    1.000
    C115     C        0.73890    0.76730    0.79740    1.000
    H55      H        0.73630    0.76690    0.75640    1.000
    C116     C        0.73740    0.90110    0.79720    1.000
    C117     C        0.66900    0.49420    0.70510    1.000
    C118     C        0.62013    0.47600    0.67410    1.000
    C119     C        0.60241    0.43120    0.70500    1.000
    H56      H        0.62170    0.41500    0.74620    1.000
    C120     C        0.55580    0.41070    0.67440    1.000
    C121     C        0.52701    0.43500    0.61290    1.000
    H57      H        0.49590    0.42130    0.59240    1.000
    C122     C        0.54470    0.47980    0.58200    1.000
    C123     C        0.59130    0.50030    0.61260    1.000
    H58      H        0.60320    0.53020    0.59190    1.000
    C124     C        0.53620    0.35760    0.70380    1.000
    H59      H        0.54760    0.31590    0.68960    1.000
    C125     C        0.84270    0.54250    0.80300    1.000
    C126     C        0.89321    0.55520    0.83070    1.000
    C127     C        0.91064    0.60280    0.80140    1.000
    H60      H        0.89090    0.62230    0.76170    1.000
    C128     C        0.95758    0.62120    0.83140    1.000
    C129     C        0.98710    0.59200    0.89070    1.000
    H61      H        0.01850    0.60430    0.91080    1.000
    C130     C        0.96970    0.54440    0.92000    1.000
    C131     C        0.92270    0.52600    0.89000    1.000
    H62      H        0.91110    0.49410    0.90960    1.000
    C132     C        0.97950    0.67430    0.80080    1.000
    C133     C        0.74720    0.77340    0.98260    1.000
    O73      O        0.72400    0.81900    0.99290    1.000
    C134     C        0.00320    0.52150    0.98300    1.000
    O74      O        0.03460    0.56100    0.01820    1.000
    H63      H        0.53020    0.54170    0.50400    1.000
    H64      H        0.74290    0.81530    0.99440    1.000
    H65      H        0.03060    0.54020    0.99810    1.000
    O75      O        0.52750    0.57110    0.50650    1.000
    Cu16     Cu       0.24879    0.05222    0.70213    1.000
    Cu17     Cu       0.26013    0.98197    0.80605    1.000
    Cu18     Cu       0.45923    0.26888    0.69783    1.000
    O76      O        0.24250    0.13770    0.74730    1.000
    O77      O        0.25480    0.07750    0.83600    1.000
    O78      O        0.23280    0.39980    0.73820    1.000
    O79      O        0.24120    0.45810    0.82480    1.000
    O80      O        0.18249    0.02810    0.67580    1.000
    O81      O        0.19280    0.96920    0.76190    1.000
    O82      O        0.99270    0.84070    0.66960    1.000
    O83      O        0.05910    0.84300    0.76070    1.000
    O84      O        0.31550    0.06180    0.74680    1.000
    O85      O        0.32770    0.00210    0.83420    1.000
    O86      O        0.44586    0.19660    0.74300    1.000
    O87      O        0.51719    0.20550    0.82500    1.000
    C135     C        0.24750    0.13200    0.80090    1.000
    C136     C        0.24330    0.20310    0.82990    1.000
    C137     C        0.24730    0.20370    0.89130    1.000
    H66      H        0.25020    0.16080    0.91300    1.000
    C138     C        0.24680    0.26860    0.92020    1.000
    C139     C        0.24240    0.33270    0.88780    1.000
    H67      H        0.24200    0.37610    0.90720    1.000
    C140     C        0.23840    0.33210    0.82640    1.000
    C141     C        0.23890    0.26730    0.79740    1.000
    H68      H        0.23630    0.26690    0.75640    1.000
    C142     C        0.23740    0.40110    0.79720    1.000
    C143     C        0.16900    0.99420    0.70510    1.000
    C144     C        0.12013    0.97600    0.67410    1.000
    C145     C        0.10241    0.93120    0.70500    1.000
    H69      H        0.12170    0.91500    0.74620    1.000
    C146     C        0.05580    0.91070    0.67440    1.000
    C147     C        0.02701    0.93500    0.61290    1.000
    H70      H        0.99590    0.92130    0.59240    1.000
    C148     C        0.04470    0.97980    0.58200    1.000
    C149     C        0.09130    0.00030    0.61260    1.000
    H71      H        0.10320    0.03020    0.59190    1.000
    C150     C        0.03620    0.85760    0.70380    1.000
    H72      H        0.04760    0.81590    0.68960    1.000
    C151     C        0.34270    0.04250    0.80300    1.000
    C152     C        0.39321    0.05520    0.83070    1.000
    C153     C        0.41064    0.10280    0.80140    1.000
    H73      H        0.39090    0.12230    0.76170    1.000
    C154     C        0.45758    0.12120    0.83140    1.000
    C155     C        0.48710    0.09200    0.89070    1.000
    H74      H        0.51850    0.10430    0.91080    1.000
    C156     C        0.46970    0.04440    0.92000    1.000
    C157     C        0.42270    0.02600    0.89000    1.000
    H75      H        0.41110    0.99410    0.90960    1.000
    C158     C        0.47950    0.17430    0.80080    1.000
    C159     C        0.24720    0.27340    0.98260    1.000
    O88      O        0.22400    0.31900    0.99290    1.000
    C160     C        0.50320    0.02150    0.98300    1.000
    O89      O        0.53460    0.06100    0.01820    1.000
    H76      H        0.03020    0.04170    0.50400    1.000
    H77      H        0.24290    0.31530    0.99440    1.000
    H78      H        0.53060    0.04020    0.99810    1.000
    O90      O        0.02750    0.07110    0.50650    1.000
    Cu19     Cu       0.25121    0.55222    0.79787    1.000
    Cu20     Cu       0.23987    0.48197    0.69395    1.000
    Cu21     Cu       0.04077    0.76888    0.80217    1.000
    O91      O        0.25750    0.63770    0.75270    1.000
    O92      O        0.24520    0.57750    0.66400    1.000
    O93      O        0.26720    0.89980    0.76180    1.000
    O94      O        0.25880    0.95810    0.67520    1.000
    O95      O        0.31751    0.52810    0.82420    1.000
    O96      O        0.30720    0.46920    0.73810    1.000
    O97      O        0.50730    0.34070    0.83040    1.000
    O98      O        0.44090    0.34300    0.73930    1.000
    O99      O        0.18450    0.56180    0.75320    1.000
    O100     O        0.17230    0.50210    0.66580    1.000
    O101     O        0.05414    0.69660    0.75700    1.000
    O102     O        0.98281    0.70550    0.67500    1.000
    C161     C        0.25250    0.63200    0.69910    1.000
    C162     C        0.25670    0.70310    0.67010    1.000
    C163     C        0.25270    0.70370    0.60870    1.000
    H79      H        0.24980    0.66080    0.58700    1.000
    C164     C        0.25320    0.76860    0.57980    1.000
    C165     C        0.25760    0.83270    0.61220    1.000
    H80      H        0.25800    0.87610    0.59280    1.000
    C166     C        0.26160    0.83210    0.67360    1.000
    C167     C        0.26110    0.76730    0.70260    1.000
    H81      H        0.26370    0.76690    0.74360    1.000
    C168     C        0.26260    0.90110    0.70280    1.000
    C169     C        0.33100    0.49420    0.79490    1.000
    C170     C        0.37987    0.47600    0.82590    1.000
    C171     C        0.39759    0.43120    0.79500    1.000
    H82      H        0.37830    0.41500    0.75380    1.000
    C172     C        0.44420    0.41070    0.82560    1.000
    C173     C        0.47299    0.43500    0.88710    1.000
    H83      H        0.50410    0.42130    0.90760    1.000
    C174     C        0.45530    0.47980    0.91800    1.000
    C175     C        0.40870    0.50030    0.88740    1.000
    H84      H        0.39680    0.53020    0.90810    1.000
    C176     C        0.46380    0.35760    0.79620    1.000
    H85      H        0.45240    0.31590    0.81040    1.000
    C177     C        0.15730    0.54250    0.69700    1.000
    C178     C        0.10679    0.55520    0.66930    1.000
    C179     C        0.08936    0.60280    0.69860    1.000
    H86      H        0.10910    0.62230    0.73830    1.000
    C180     C        0.04242    0.62120    0.66860    1.000
    C181     C        0.01290    0.59200    0.60930    1.000
    H87      H        0.98150    0.60430    0.58920    1.000
    C182     C        0.03030    0.54440    0.58000    1.000
    C183     C        0.07730    0.52600    0.61000    1.000
    H88      H        0.08890    0.49410    0.59040    1.000
    C184     C        0.02050    0.67430    0.69920    1.000
    C185     C        0.25280    0.77340    0.51740    1.000
    O103     O        0.27600    0.81900    0.50710    1.000
    C186     C        0.99680    0.52150    0.51700    1.000
    O104     O        0.96540    0.56100    0.48180    1.000
    H89      H        0.46980    0.54170    0.99600    1.000
    H90      H        0.25710    0.81530    0.50560    1.000
    H91      H        0.96940    0.54020    0.50190    1.000
    O105     O        0.47250    0.57110    0.99350    1.000
    Cu22     Cu       0.75121    0.05222    0.79787    1.000
    Cu23     Cu       0.73987    0.98197    0.69395    1.000
    Cu24     Cu       0.54077    0.26888    0.80217    1.000
    O106     O        0.75750    0.13770    0.75270    1.000
    O107     O        0.74520    0.07750    0.66400    1.000
    O108     O        0.76720    0.39980    0.76180    1.000
    O109     O        0.75880    0.45810    0.67520    1.000
    O110     O        0.81751    0.02810    0.82420    1.000
    O111     O        0.80720    0.96920    0.73810    1.000
    O112     O        0.00730    0.84070    0.83040    1.000
    O113     O        0.94090    0.84300    0.73930    1.000
    O114     O        0.68450    0.06180    0.75320    1.000
    O115     O        0.67230    0.00210    0.66580    1.000
    O116     O        0.55414    0.19660    0.75700    1.000
    O117     O        0.48281    0.20550    0.67500    1.000
    C187     C        0.75250    0.13200    0.69910    1.000
    C188     C        0.75670    0.20310    0.67010    1.000
    C189     C        0.75270    0.20370    0.60870    1.000
    H92      H        0.74980    0.16080    0.58700    1.000
    C190     C        0.75320    0.26860    0.57980    1.000
    C191     C        0.75760    0.33270    0.61220    1.000
    H93      H        0.75800    0.37610    0.59280    1.000
    C192     C        0.76160    0.33210    0.67360    1.000
    C193     C        0.76110    0.26730    0.70260    1.000
    H94      H        0.76370    0.26690    0.74360    1.000
    C194     C        0.76260    0.40110    0.70280    1.000
    C195     C        0.83100    0.99420    0.79490    1.000
    C196     C        0.87987    0.97600    0.82590    1.000
    C197     C        0.89759    0.93120    0.79500    1.000
    H95      H        0.87830    0.91500    0.75380    1.000
    C198     C        0.94420    0.91070    0.82560    1.000
    C199     C        0.97299    0.93500    0.88710    1.000
    H96      H        0.00410    0.92130    0.90760    1.000
    C200     C        0.95530    0.97980    0.91800    1.000
    C201     C        0.90870    0.00030    0.88740    1.000
    H97      H        0.89680    0.03020    0.90810    1.000
    C202     C        0.96380    0.85760    0.79620    1.000
    H98      H        0.95240    0.81590    0.81040    1.000
    C203     C        0.65730    0.04250    0.69700    1.000
    C204     C        0.60679    0.05520    0.66930    1.000
    C205     C        0.58936    0.10280    0.69860    1.000
    H99      H        0.60910    0.12230    0.73830    1.000
    C206     C        0.54242    0.12120    0.66860    1.000
    C207     C        0.51290    0.09200    0.60930    1.000
    H100     H        0.48150    0.10430    0.58920    1.000
    C208     C        0.53030    0.04440    0.58000    1.000
    C209     C        0.57730    0.02600    0.61000    1.000
    H101     H        0.58890    0.99410    0.59040    1.000
    C210     C        0.52050    0.17430    0.69920    1.000
    C211     C        0.75280    0.27340    0.51740    1.000
    O118     O        0.77600    0.31900    0.50710    1.000
    C212     C        0.49680    0.02150    0.51700    1.000
    O119     O        0.46540    0.06100    0.48180    1.000
    H102     H        0.96980    0.04170    0.99600    1.000
    H103     H        0.75710    0.31530    0.50560    1.000
    H104     H        0.46940    0.04020    0.50190    1.000
    O120     O        0.97250    0.07110    0.99350    1.000
