# CIF file generated by openbabel 3.1.0, see https://openbabel.org
data_I
_chemical_name_common 'image0'
_cell_length_a 21.838
_cell_length_b 21.838
_cell_length_c 14.721
_cell_angle_alpha 90
_cell_angle_beta 90
_cell_angle_gamma 90
_space_group_name_H-M_alt 'P 1'
_space_group_name_Hall 'P 1'
loop_
    _symmetry_equiv_pos_as_xyz
    x,y,z
loop_
    _atom_site_label
    _atom_site_type_symbol
    _atom_site_fract_x
    _atom_site_fract_y
    _atom_site_fract_z
    _atom_site_occupancy
    O1       O        0.20571    0.45209    0.17255    1.000
    O2       O        0.29739    0.46005    0.10970    1.000
    O3       O        0.13790    0.36298    0.99980    1.000
    O4       O        0.15205    0.56523    0.06320    1.000
    O5       O        0.81731    0.37960    0.02610    1.000
    O6       O        0.82872    0.58661    0.05250    1.000
    O7       O        0.77977    0.52405    0.88450    1.000
    O8       O        0.68647    0.54251    0.93660    1.000
    N1       N        0.14474    0.46702    0.01500    1.000
    N2       N        0.82303    0.48292    0.04320    1.000
    C1       C        0.23970    0.45854    0.10470    1.000
    C2       C        0.21230    0.46160    0.01000    1.000
    H1       H        0.22112    0.42137    0.98040    1.000
    C3       C        0.24230    0.51120    0.94970    1.000
    H2       H        0.28673    0.50523    0.94907    1.000
    H3       H        0.22631    0.50788    0.88767    1.000
    H4       H        0.23274    0.55180    0.97417    1.000
    C4       C        0.11200    0.41150    0.01230    1.000
    C5       C        0.11920    0.52300    0.04310    1.000
    C6       C        0.05150    0.52672    0.04410    1.000
    C7       C        0.02300    0.58260    0.05480    1.000
    H5       H        0.04661    0.61890    0.06051    1.000
    C8       C        0.95870    0.58542    0.05730    1.000
    H6       H        0.93912    0.62388    0.06530    1.000
    C9       C        0.92383    0.53359    0.04820    1.000
    C10      C        0.95182    0.47608    0.03850    1.000
    C11      C        0.01643    0.47260    0.03410    1.000
    C12      C        0.04440    0.41544    0.02130    1.000
    C13      C        0.00930    0.36300    0.01500    1.000
    H7       H        0.02866    0.32442    0.00671    1.000
    C14      C        0.94570    0.36643    0.02080    1.000
    H8       H        0.92194    0.33007    0.01725    1.000
    C15      C        0.91702    0.42219    0.03160    1.000
    C16      C        0.84870    0.42470    0.03360    1.000
    C17      C        0.85560    0.53760    0.04820    1.000
    C18      C        0.75470    0.48810    0.03340    1.000
    H9       H        0.73957    0.44542    0.02325    1.000
    C19      C        0.72370    0.51010    0.11890    1.000
    H10      H        0.72427    0.47742    0.16453    1.000
    H11      H        0.68123    0.52125    0.10526    1.000
    H12      H        0.74546    0.54599    0.14255    1.000
    C20      C        0.74090    0.52306    0.94590    1.000
    O9       O        0.29429    0.95209    0.57745    1.000
    O10      O        0.20261    0.96005    0.64030    1.000
    O11      O        0.36210    0.86298    0.75020    1.000
    O12      O        0.34795    0.06523    0.68680    1.000
    O13      O        0.68269    0.87960    0.72390    1.000
    O14      O        0.67128    0.08661    0.69750    1.000
    O15      O        0.72023    0.02405    0.86550    1.000
    O16      O        0.81353    0.04251    0.81340    1.000
    N3       N        0.35526    0.96702    0.73500    1.000
    N4       N        0.67697    0.98292    0.70680    1.000
    C21      C        0.26030    0.95854    0.64530    1.000
    C22      C        0.28770    0.96160    0.74000    1.000
    H13      H        0.27888    0.92137    0.76960    1.000
    C23      C        0.25770    0.01120    0.80030    1.000
    H14      H        0.21327    0.00523    0.80093    1.000
    H15      H        0.27369    0.00788    0.86233    1.000
    H16      H        0.26726    0.05180    0.77583    1.000
    C24      C        0.38800    0.91150    0.73770    1.000
    C25      C        0.38080    0.02300    0.70690    1.000
    C26      C        0.44850    0.02672    0.70590    1.000
    C27      C        0.47700    0.08260    0.69520    1.000
    H17      H        0.45339    0.11890    0.68949    1.000
    C28      C        0.54130    0.08542    0.69270    1.000
    H18      H        0.56088    0.12388    0.68470    1.000
    C29      C        0.57617    0.03359    0.70180    1.000
    C30      C        0.54818    0.97608    0.71150    1.000
    C31      C        0.48357    0.97260    0.71590    1.000
    C32      C        0.45560    0.91544    0.72870    1.000
    C33      C        0.49070    0.86300    0.73500    1.000
    H19      H        0.47134    0.82442    0.74329    1.000
    C34      C        0.55430    0.86643    0.72920    1.000
    H20      H        0.57806    0.83007    0.73275    1.000
    C35      C        0.58298    0.92219    0.71840    1.000
    C36      C        0.65130    0.92470    0.71640    1.000
    C37      C        0.64440    0.03760    0.70180    1.000
    C38      C        0.74530    0.98810    0.71660    1.000
    H21      H        0.76043    0.94542    0.72675    1.000
    C39      C        0.77630    0.01010    0.63110    1.000
    H22      H        0.77573    0.97742    0.58547    1.000
    H23      H        0.81877    0.02125    0.64474    1.000
    H24      H        0.75454    0.04599    0.60745    1.000
    C40      C        0.75910    0.02306    0.80410    1.000
    Cd1      Cd       0.20490    0.95069    0.47919    1.000
    N5       N        0.22710    0.84918    0.45650    1.000
    N6       N        0.30199    0.55700    0.28090    1.000
    C41      C        0.18390    0.81060    0.42380    1.000
    H25      H        0.14247    0.82376    0.42316    1.000
    C42      C        0.19770    0.75330    0.39150    1.000
    H26      H        0.16588    0.72757    0.36932    1.000
    C43      C        0.25770    0.73270    0.39110    1.000
    C44      C        0.30140    0.77248    0.42830    1.000
    H27      H        0.34306    0.76005    0.43218    1.000
    C45      C        0.28440    0.82899    0.45890    1.000
    H28      H        0.31511    0.85517    0.48302    1.000
    C46      C        0.25073    0.58699    0.25700    1.000
    H29      H        0.22389    0.56799    0.21480    1.000
    C47      C        0.23498    0.64361    0.29030    1.000
    H30      H        0.19822    0.66312    0.27154    1.000
    C48      C        0.27460    0.67212    0.35300    1.000
    C49      C        0.32801    0.64150    0.37680    1.000
    H31      H        0.35603    0.65932    0.41846    1.000
    C50      C        0.33991    0.58471    0.33920    1.000
    H32      H        0.37679    0.56442    0.35550    1.000
    Cd2      Cd       0.29510    0.45069    0.27081    1.000
    N7       N        0.27290    0.34918    0.29350    1.000
    N8       N        0.19801    0.05700    0.46910    1.000
    C51      C        0.31610    0.31060    0.32620    1.000
    H33      H        0.35753    0.32376    0.32684    1.000
    C52      C        0.30230    0.25330    0.35850    1.000
    H34      H        0.33412    0.22757    0.38068    1.000
    C53      C        0.24230    0.23270    0.35890    1.000
    C54      C        0.19860    0.27248    0.32170    1.000
    H35      H        0.15694    0.26005    0.31782    1.000
    C55      C        0.21560    0.32899    0.29110    1.000
    H36      H        0.18489    0.35517    0.26698    1.000
    C56      C        0.24927    0.08699    0.49300    1.000
    H37      H        0.27611    0.06799    0.53520    1.000
    C57      C        0.26502    0.14361    0.45970    1.000
    H38      H        0.30178    0.16312    0.47846    1.000
    C58      C        0.22540    0.17212    0.39700    1.000
    C59      C        0.17199    0.14150    0.37320    1.000
    H39      H        0.14397    0.15932    0.33154    1.000
    C60      C        0.16009    0.08471    0.41080    1.000
    H40      H        0.12321    0.06442    0.39450    1.000
    O17      O        0.79429    0.54791    0.67255    1.000
    O18      O        0.70261    0.53995    0.60970    1.000
    O19      O        0.86210    0.63702    0.49980    1.000
    O20      O        0.84795    0.43477    0.56320    1.000
    O21      O        0.18269    0.62040    0.52610    1.000
    O22      O        0.17128    0.41339    0.55250    1.000
    O23      O        0.22023    0.47595    0.38450    1.000
    O24      O        0.31353    0.45749    0.43660    1.000
    N9       N        0.85526    0.53298    0.51500    1.000
    N10      N        0.17697    0.51708    0.54320    1.000
    C61      C        0.76030    0.54146    0.60470    1.000
    C62      C        0.78770    0.53840    0.51000    1.000
    H41      H        0.77888    0.57863    0.48040    1.000
    C63      C        0.75770    0.48880    0.44970    1.000
    H42      H        0.71327    0.49477    0.44907    1.000
    H43      H        0.77369    0.49212    0.38767    1.000
    H44      H        0.76726    0.44820    0.47417    1.000
    C64      C        0.88800    0.58850    0.51230    1.000
    C65      C        0.88080    0.47700    0.54310    1.000
    C66      C        0.94850    0.47328    0.54410    1.000
    C67      C        0.97700    0.41740    0.55480    1.000
    H45      H        0.95339    0.38110    0.56051    1.000
    C68      C        0.04130    0.41458    0.55730    1.000
    H46      H        0.06088    0.37612    0.56530    1.000
    C69      C        0.07617    0.46641    0.54820    1.000
    C70      C        0.04818    0.52392    0.53850    1.000
    C71      C        0.98357    0.52740    0.53410    1.000
    C72      C        0.95560    0.58456    0.52130    1.000
    C73      C        0.99070    0.63700    0.51500    1.000
    H47      H        0.97134    0.67558    0.50671    1.000
    C74      C        0.05430    0.63357    0.52080    1.000
    H48      H        0.07806    0.66993    0.51725    1.000
    C75      C        0.08298    0.57781    0.53160    1.000
    C76      C        0.15130    0.57530    0.53360    1.000
    C77      C        0.14440    0.46240    0.54820    1.000
    C78      C        0.24530    0.51190    0.53340    1.000
    H49      H        0.26043    0.55458    0.52325    1.000
    C79      C        0.27630    0.48990    0.61890    1.000
    H50      H        0.27573    0.52258    0.66453    1.000
    H51      H        0.31877    0.47875    0.60526    1.000
    H52      H        0.25454    0.45401    0.64255    1.000
    C80      C        0.25910    0.47694    0.44590    1.000
    O25      O        0.70571    0.04791    0.07745    1.000
    O26      O        0.79739    0.03995    0.14030    1.000
    O27      O        0.63790    0.13702    0.25020    1.000
    O28      O        0.65205    0.93477    0.18680    1.000
    O29      O        0.31731    0.12040    0.22390    1.000
    O30      O        0.32872    0.91339    0.19750    1.000
    O31      O        0.27977    0.97595    0.36550    1.000
    O32      O        0.18647    0.95749    0.31340    1.000
    N11      N        0.64474    0.03298    0.23500    1.000
    N12      N        0.32303    0.01708    0.20680    1.000
    C81      C        0.73970    0.04146    0.14530    1.000
    C82      C        0.71230    0.03840    0.24000    1.000
    H53      H        0.72112    0.07863    0.26960    1.000
    C83      C        0.74230    0.98880    0.30030    1.000
    H54      H        0.78673    0.99477    0.30093    1.000
    H55      H        0.72631    0.99212    0.36233    1.000
    H56      H        0.73274    0.94820    0.27583    1.000
    C84      C        0.61200    0.08850    0.23770    1.000
    C85      C        0.61920    0.97700    0.20690    1.000
    C86      C        0.55150    0.97328    0.20590    1.000
    C87      C        0.52300    0.91740    0.19520    1.000
    H57      H        0.54661    0.88110    0.18949    1.000
    C88      C        0.45870    0.91458    0.19270    1.000
    H58      H        0.43912    0.87612    0.18470    1.000
    C89      C        0.42383    0.96641    0.20180    1.000
    C90      C        0.45182    0.02392    0.21150    1.000
    C91      C        0.51643    0.02740    0.21590    1.000
    C92      C        0.54440    0.08456    0.22870    1.000
    C93      C        0.50930    0.13700    0.23500    1.000
    H59      H        0.52866    0.17558    0.24329    1.000
    C94      C        0.44570    0.13357    0.22920    1.000
    H60      H        0.42194    0.16993    0.23275    1.000
    C95      C        0.41702    0.07781    0.21840    1.000
    C96      C        0.34870    0.07530    0.21640    1.000
    C97      C        0.35560    0.96240    0.20180    1.000
    C98      C        0.25470    0.01190    0.21660    1.000
    H61      H        0.23957    0.05458    0.22675    1.000
    C99      C        0.22370    0.98990    0.13110    1.000
    H62      H        0.22427    0.02258    0.08547    1.000
    H63      H        0.18123    0.97875    0.14474    1.000
    H64      H        0.24546    0.95401    0.10745    1.000
    C100     C        0.24090    0.97694    0.30410    1.000
    Cd3      Cd       0.79510    0.04931    0.97919    1.000
    N13      N        0.77290    0.15082    0.95650    1.000
    N14      N        0.69801    0.44300    0.78090    1.000
    C101     C        0.81610    0.18940    0.92380    1.000
    H65      H        0.85753    0.17624    0.92316    1.000
    C102     C        0.80230    0.24670    0.89150    1.000
    H66      H        0.83412    0.27243    0.86932    1.000
    C103     C        0.74230    0.26730    0.89110    1.000
    C104     C        0.69860    0.22752    0.92830    1.000
    H67      H        0.65694    0.23995    0.93218    1.000
    C105     C        0.71560    0.17101    0.95890    1.000
    H68      H        0.68489    0.14483    0.98302    1.000
    C106     C        0.74927    0.41301    0.75700    1.000
    H69      H        0.77611    0.43201    0.71480    1.000
    C107     C        0.76502    0.35639    0.79030    1.000
    H70      H        0.80178    0.33688    0.77154    1.000
    C108     C        0.72540    0.32788    0.85300    1.000
    C109     C        0.67199    0.35850    0.87680    1.000
    H71      H        0.64397    0.34068    0.91846    1.000
    C110     C        0.66009    0.41529    0.83920    1.000
    H72      H        0.62321    0.43558    0.85550    1.000
    Cd4      Cd       0.70490    0.54931    0.77081    1.000
    N15      N        0.72710    0.65082    0.79350    1.000
    N16      N        0.80199    0.94300    0.96910    1.000
    C111     C        0.68390    0.68940    0.82620    1.000
    H73      H        0.64247    0.67624    0.82684    1.000
    C112     C        0.69770    0.74670    0.85850    1.000
    H74      H        0.66588    0.77243    0.88068    1.000
    C113     C        0.75770    0.76730    0.85890    1.000
    C114     C        0.80140    0.72752    0.82170    1.000
    H75      H        0.84306    0.73995    0.81782    1.000
    C115     C        0.78440    0.67101    0.79110    1.000
    H76      H        0.81511    0.64483    0.76698    1.000
    C116     C        0.75073    0.91301    0.99300    1.000
    H77      H        0.72389    0.93201    0.03520    1.000
    C117     C        0.73498    0.85639    0.95970    1.000
    H78      H        0.69822    0.83688    0.97846    1.000
    C118     C        0.77460    0.82788    0.89700    1.000
    C119     C        0.82801    0.85850    0.87320    1.000
    H79      H        0.85603    0.84068    0.83154    1.000
    C120     C        0.83991    0.91529    0.91080    1.000
    H80      H        0.87679    0.93558    0.89450    1.000
    O33      O        0.04791    0.70571    0.92255    1.000
    O34      O        0.03995    0.79739    0.85970    1.000
    O35      O        0.13702    0.63790    0.74980    1.000
    O36      O        0.93477    0.65205    0.81320    1.000
    O37      O        0.12040    0.31731    0.77610    1.000
    O38      O        0.91339    0.32872    0.80250    1.000
    O39      O        0.97595    0.27977    0.63450    1.000
    O40      O        0.95749    0.18647    0.68660    1.000
    N17      N        0.03298    0.64474    0.76500    1.000
    N18      N        0.01708    0.32303    0.79320    1.000
    C121     C        0.04146    0.73970    0.85470    1.000
    C122     C        0.03840    0.71230    0.76000    1.000
    H81      H        0.07863    0.72112    0.73040    1.000
    C123     C        0.98880    0.74230    0.69970    1.000
    H82      H        0.99477    0.78673    0.69907    1.000
    H83      H        0.99212    0.72631    0.63767    1.000
    H84      H        0.94820    0.73274    0.72417    1.000
    C124     C        0.08850    0.61200    0.76230    1.000
    C125     C        0.97700    0.61920    0.79310    1.000
    C126     C        0.97328    0.55150    0.79410    1.000
    C127     C        0.91740    0.52300    0.80480    1.000
    H85      H        0.88110    0.54661    0.81051    1.000
    C128     C        0.91458    0.45870    0.80730    1.000
    H86      H        0.87612    0.43912    0.81530    1.000
    C129     C        0.96641    0.42383    0.79820    1.000
    C130     C        0.02392    0.45182    0.78850    1.000
    C131     C        0.02740    0.51643    0.78410    1.000
    C132     C        0.08456    0.54440    0.77130    1.000
    C133     C        0.13700    0.50930    0.76500    1.000
    H87      H        0.17558    0.52866    0.75671    1.000
    C134     C        0.13357    0.44570    0.77080    1.000
    H88      H        0.16993    0.42194    0.76725    1.000
    C135     C        0.07781    0.41702    0.78160    1.000
    C136     C        0.07530    0.34870    0.78360    1.000
    C137     C        0.96240    0.35560    0.79820    1.000
    C138     C        0.01190    0.25470    0.78340    1.000
    H89      H        0.05458    0.23957    0.77325    1.000
    C139     C        0.98990    0.22370    0.86890    1.000
    H90      H        0.02258    0.22427    0.91453    1.000
    H91      H        0.97875    0.18123    0.85526    1.000
    H92      H        0.95401    0.24546    0.89255    1.000
    C140     C        0.97694    0.24090    0.69590    1.000
    O41      O        0.54791    0.79429    0.32745    1.000
    O42      O        0.53995    0.70261    0.39030    1.000
    O43      O        0.63702    0.86210    0.50020    1.000
    O44      O        0.43477    0.84795    0.43680    1.000
    O45      O        0.62040    0.18269    0.47390    1.000
    O46      O        0.41339    0.17128    0.44750    1.000
    O47      O        0.47595    0.22023    0.61550    1.000
    O48      O        0.45749    0.31353    0.56340    1.000
    N19      N        0.53298    0.85526    0.48500    1.000
    N20      N        0.51708    0.17697    0.45680    1.000
    C141     C        0.54146    0.76030    0.39530    1.000
    C142     C        0.53840    0.78770    0.49000    1.000
    H93      H        0.57863    0.77888    0.51960    1.000
    C143     C        0.48880    0.75770    0.55030    1.000
    H94      H        0.49477    0.71327    0.55093    1.000
    H95      H        0.49212    0.77369    0.61233    1.000
    H96      H        0.44820    0.76726    0.52583    1.000
    C144     C        0.58850    0.88800    0.48770    1.000
    C145     C        0.47700    0.88080    0.45690    1.000
    C146     C        0.47328    0.94850    0.45590    1.000
    C147     C        0.41740    0.97700    0.44520    1.000
    H97      H        0.38110    0.95339    0.43949    1.000
    C148     C        0.41458    0.04130    0.44270    1.000
    H98      H        0.37612    0.06088    0.43470    1.000
    C149     C        0.46641    0.07617    0.45180    1.000
    C150     C        0.52392    0.04818    0.46150    1.000
    C151     C        0.52740    0.98357    0.46590    1.000
    C152     C        0.58456    0.95560    0.47870    1.000
    C153     C        0.63700    0.99070    0.48500    1.000
    H99      H        0.67558    0.97134    0.49329    1.000
    C154     C        0.63357    0.05430    0.47920    1.000
    H100     H        0.66993    0.07806    0.48275    1.000
    C155     C        0.57781    0.08298    0.46840    1.000
    C156     C        0.57530    0.15130    0.46640    1.000
    C157     C        0.46240    0.14440    0.45180    1.000
    C158     C        0.51190    0.24530    0.46660    1.000
    H101     H        0.55458    0.26043    0.47675    1.000
    C159     C        0.48990    0.27630    0.38110    1.000
    H102     H        0.52258    0.27573    0.33547    1.000
    H103     H        0.47875    0.31877    0.39474    1.000
    H104     H        0.45401    0.25454    0.35745    1.000
    C160     C        0.47694    0.25910    0.55410    1.000
    Cd5      Cd       0.54931    0.70490    0.22919    1.000
    N21      N        0.65082    0.72710    0.20650    1.000
    N22      N        0.94300    0.80199    0.03090    1.000
    C161     C        0.68940    0.68390    0.17380    1.000
    H105     H        0.67624    0.64247    0.17316    1.000
    C162     C        0.74670    0.69770    0.14150    1.000
    H106     H        0.77243    0.66588    0.11932    1.000
    C163     C        0.76730    0.75770    0.14110    1.000
    C164     C        0.72752    0.80140    0.17830    1.000
    H107     H        0.73995    0.84306    0.18218    1.000
    C165     C        0.67101    0.78440    0.20890    1.000
    H108     H        0.64483    0.81511    0.23302    1.000
    C166     C        0.91301    0.75073    0.00700    1.000
    H109     H        0.93201    0.72389    0.96480    1.000
    C167     C        0.85639    0.73498    0.04030    1.000
    H110     H        0.83688    0.69822    0.02154    1.000
    C168     C        0.82788    0.77460    0.10300    1.000
    C169     C        0.85850    0.82801    0.12680    1.000
    H111     H        0.84068    0.85603    0.16846    1.000
    C170     C        0.91529    0.83991    0.08920    1.000
    H112     H        0.93558    0.87679    0.10550    1.000
    Cd6      Cd       0.04931    0.79510    0.02081    1.000
    N23      N        0.15082    0.77290    0.04350    1.000
    N24      N        0.44300    0.69801    0.21910    1.000
    C171     C        0.18940    0.81610    0.07620    1.000
    H113     H        0.17624    0.85753    0.07684    1.000
    C172     C        0.24670    0.80230    0.10850    1.000
    H114     H        0.27243    0.83412    0.13068    1.000
    C173     C        0.26730    0.74230    0.10890    1.000
    C174     C        0.22752    0.69860    0.07170    1.000
    H115     H        0.23995    0.65694    0.06782    1.000
    C175     C        0.17101    0.71560    0.04110    1.000
    H116     H        0.14483    0.68489    0.01698    1.000
    C176     C        0.41301    0.74927    0.24300    1.000
    H117     H        0.43201    0.77611    0.28520    1.000
    C177     C        0.35639    0.76502    0.20970    1.000
    H118     H        0.33688    0.80178    0.22846    1.000
    C178     C        0.32788    0.72540    0.14700    1.000
    C179     C        0.35850    0.67199    0.12320    1.000
    H119     H        0.34068    0.64397    0.08154    1.000
    C180     C        0.41529    0.66009    0.16080    1.000
    H120     H        0.43558    0.62321    0.14450    1.000
    O49      O        0.95209    0.29429    0.42255    1.000
    O50      O        0.96005    0.20261    0.35970    1.000
    O51      O        0.86298    0.36210    0.24980    1.000
    O52      O        0.06523    0.34795    0.31320    1.000
    O53      O        0.87960    0.68269    0.27610    1.000
    O54      O        0.08661    0.67128    0.30250    1.000
    O55      O        0.02405    0.72023    0.13450    1.000
    O56      O        0.04251    0.81353    0.18660    1.000
    N25      N        0.96702    0.35526    0.26500    1.000
    N26      N        0.98292    0.67697    0.29320    1.000
    C181     C        0.95854    0.26030    0.35470    1.000
    C182     C        0.96160    0.28770    0.26000    1.000
    H121     H        0.92137    0.27888    0.23040    1.000
    C183     C        0.01120    0.25770    0.19970    1.000
    H122     H        0.00523    0.21327    0.19907    1.000
    H123     H        0.00788    0.27369    0.13767    1.000
    H124     H        0.05180    0.26726    0.22417    1.000
    C184     C        0.91150    0.38800    0.26230    1.000
    C185     C        0.02300    0.38080    0.29310    1.000
    C186     C        0.02672    0.44850    0.29410    1.000
    C187     C        0.08260    0.47700    0.30480    1.000
    H125     H        0.11890    0.45339    0.31051    1.000
    C188     C        0.08542    0.54130    0.30730    1.000
    H126     H        0.12388    0.56088    0.31530    1.000
    C189     C        0.03359    0.57617    0.29820    1.000
    C190     C        0.97608    0.54818    0.28850    1.000
    C191     C        0.97260    0.48357    0.28410    1.000
    C192     C        0.91544    0.45560    0.27130    1.000
    C193     C        0.86300    0.49070    0.26500    1.000
    H127     H        0.82442    0.47134    0.25671    1.000
    C194     C        0.86643    0.55430    0.27080    1.000
    H128     H        0.83007    0.57806    0.26725    1.000
    C195     C        0.92219    0.58298    0.28160    1.000
    C196     C        0.92470    0.65130    0.28360    1.000
    C197     C        0.03760    0.64440    0.29820    1.000
    C198     C        0.98810    0.74530    0.28340    1.000
    H129     H        0.94542    0.76043    0.27325    1.000
    C199     C        0.01010    0.77630    0.36890    1.000
    H130     H        0.97742    0.77573    0.41453    1.000
    H131     H        0.02125    0.81877    0.35526    1.000
    H132     H        0.04599    0.75454    0.39255    1.000
    C200     C        0.02306    0.75910    0.19590    1.000
    O57      O        0.45209    0.20571    0.82745    1.000
    O58      O        0.46005    0.29739    0.89030    1.000
    O59      O        0.36298    0.13790    0.00020    1.000
    O60      O        0.56523    0.15205    0.93680    1.000
    O61      O        0.37960    0.81731    0.97390    1.000
    O62      O        0.58661    0.82872    0.94750    1.000
    O63      O        0.52405    0.77977    0.11550    1.000
    O64      O        0.54251    0.68647    0.06340    1.000
    N27      N        0.46702    0.14474    0.98500    1.000
    N28      N        0.48292    0.82303    0.95680    1.000
    C201     C        0.45854    0.23970    0.89530    1.000
    C202     C        0.46160    0.21230    0.99000    1.000
    H133     H        0.42137    0.22112    0.01960    1.000
    C203     C        0.51120    0.24230    0.05030    1.000
    H134     H        0.50523    0.28673    0.05093    1.000
    H135     H        0.50788    0.22631    0.11233    1.000
    H136     H        0.55180    0.23274    0.02583    1.000
    C204     C        0.41150    0.11200    0.98770    1.000
    C205     C        0.52300    0.11920    0.95690    1.000
    C206     C        0.52672    0.05150    0.95590    1.000
    C207     C        0.58260    0.02300    0.94520    1.000
    H137     H        0.61890    0.04661    0.93949    1.000
    C208     C        0.58542    0.95870    0.94270    1.000
    H138     H        0.62388    0.93912    0.93470    1.000
    C209     C        0.53359    0.92383    0.95180    1.000
    C210     C        0.47608    0.95182    0.96150    1.000
    C211     C        0.47260    0.01643    0.96590    1.000
    C212     C        0.41544    0.04440    0.97870    1.000
    C213     C        0.36300    0.00930    0.98500    1.000
    H139     H        0.32442    0.02866    0.99329    1.000
    C214     C        0.36643    0.94570    0.97920    1.000
    H140     H        0.33007    0.92194    0.98275    1.000
    C215     C        0.42219    0.91702    0.96840    1.000
    C216     C        0.42470    0.84870    0.96640    1.000
    C217     C        0.53760    0.85560    0.95180    1.000
    C218     C        0.48810    0.75470    0.96660    1.000
    H141     H        0.44542    0.73957    0.97675    1.000
    C219     C        0.51010    0.72370    0.88110    1.000
    H142     H        0.47742    0.72427    0.83547    1.000
    H143     H        0.52125    0.68123    0.89474    1.000
    H144     H        0.54599    0.74546    0.85745    1.000
    C220     C        0.52306    0.74090    0.05410    1.000
    Cd7      Cd       0.45069    0.29510    0.72919    1.000
    N29      N        0.34918    0.27290    0.70650    1.000
    N30      N        0.05700    0.19801    0.53090    1.000
    C221     C        0.31060    0.31610    0.67380    1.000
    H145     H        0.32376    0.35753    0.67316    1.000
    C222     C        0.25330    0.30230    0.64150    1.000
    H146     H        0.22757    0.33412    0.61932    1.000
    C223     C        0.23270    0.24230    0.64110    1.000
    C224     C        0.27248    0.19860    0.67830    1.000
    H147     H        0.26005    0.15694    0.68218    1.000
    C225     C        0.32899    0.21560    0.70890    1.000
    H148     H        0.35517    0.18489    0.73302    1.000
    C226     C        0.08699    0.24927    0.50700    1.000
    H149     H        0.06799    0.27611    0.46480    1.000
    C227     C        0.14361    0.26502    0.54030    1.000
    H150     H        0.16312    0.30178    0.52154    1.000
    C228     C        0.17212    0.22540    0.60300    1.000
    C229     C        0.14150    0.17199    0.62680    1.000
    H151     H        0.15932    0.14397    0.66846    1.000
    C230     C        0.08471    0.16009    0.58920    1.000
    H152     H        0.06442    0.12321    0.60550    1.000
    Cd8      Cd       0.95069    0.20490    0.52081    1.000
    N31      N        0.84918    0.22710    0.54350    1.000
    N32      N        0.55700    0.30199    0.71910    1.000
    C231     C        0.81060    0.18390    0.57620    1.000
    H153     H        0.82376    0.14247    0.57684    1.000
    C232     C        0.75330    0.19770    0.60850    1.000
    H154     H        0.72757    0.16588    0.63068    1.000
    C233     C        0.73270    0.25770    0.60890    1.000
    C234     C        0.77248    0.30140    0.57170    1.000
    H155     H        0.76005    0.34306    0.56782    1.000
    C235     C        0.82899    0.28440    0.54110    1.000
    H156     H        0.85517    0.31511    0.51698    1.000
    C236     C        0.58699    0.25073    0.74300    1.000
    H157     H        0.56799    0.22389    0.78520    1.000
    C237     C        0.64361    0.23498    0.70970    1.000
    H158     H        0.66312    0.19822    0.72846    1.000
    C238     C        0.67212    0.27460    0.64700    1.000
    C239     C        0.64150    0.32801    0.62320    1.000
    H159     H        0.65932    0.35603    0.58154    1.000
    C240     C        0.58471    0.33991    0.66080    1.000
    H160     H        0.56442    0.37679    0.64450    1.000
