# CIF file generated by openbabel 3.1.0, see https://openbabel.org
data_I
_chemical_name_common 'image0'
_cell_length_a 13.745
_cell_length_b 22.346
_cell_length_c 22.592
_cell_angle_alpha 90
_cell_angle_beta 90
_cell_angle_gamma 90
_space_group_name_H-M_alt 'P 1'
_space_group_name_Hall 'P 1'
loop_
    _symmetry_equiv_pos_as_xyz
    x,y,z
loop_
    _atom_site_label
    _atom_site_type_symbol
    _atom_site_fract_x
    _atom_site_fract_y
    _atom_site_fract_z
    _atom_site_occupancy
    Mn1      Mn       0.82973    0.99513    0.17733    1.000
    Mn2      Mn       0.71820    0.12232    0.17888    1.000
    Mn3      Mn       0.63109    0.00993    0.11174    1.000
    O1       O        0.71040    0.03820    0.18810    1.000
    O2       O        0.95080    0.95660    0.16820    1.000
    O3       O        0.77280    0.96990    0.10650    1.000
    O4       O        0.72620    0.20640    0.17430    1.000
    O5       O        0.64690    0.10930    0.10960    1.000
    O6       O        0.54460    0.98800    0.18870    1.000
    N1       N        0.87650    0.09280    0.14870    1.000
    N2       N        0.92280    0.10880    0.10760    1.000
    N3       N        0.97160    0.12360    0.06750    1.000
    N4       N        0.55220    0.99070    0.03570    1.000
    C1       C        0.12270    0.16820    0.27150    1.000
    C2       C        0.98970    0.92930    0.11470    1.000
    C3       C        0.92640    0.94270    0.06470    1.000
    C4       C        0.81340    0.93250    0.05990    1.000
    C5       C        0.08210    0.94410    0.10320    1.000
    C6       C        0.77100    0.94140    0.00660    1.000
    C7       C        0.68820    0.24160    0.12410    1.000
    C8       C        0.67440    0.20660    0.07750    1.000
    C9       C        0.62100    0.15850    0.07130    1.000
    C10      C        0.71260    0.29850    0.13370    1.000
    C11      C        0.56750    0.14060    0.02450    1.000
    C12      C        0.45490    0.95280    0.19380    1.000
    C13      C        0.39630    0.96390    0.14860    1.000
    Mn4      Mn       0.17027    0.00487    0.67733    1.000
    Mn5      Mn       0.28180    0.87768    0.67888    1.000
    Mn6      Mn       0.36891    0.99007    0.61174    1.000
    O7       O        0.28960    0.96180    0.68810    1.000
    O8       O        0.04920    0.04340    0.66820    1.000
    O9       O        0.22720    0.03010    0.60650    1.000
    O10      O        0.27380    0.79360    0.67430    1.000
    O11      O        0.35310    0.89070    0.60960    1.000
    O12      O        0.45540    0.01200    0.68870    1.000
    N5       N        0.12350    0.90720    0.64870    1.000
    N6       N        0.07720    0.89120    0.60760    1.000
    N7       N        0.02840    0.87640    0.56750    1.000
    N8       N        0.44780    0.00930    0.53570    1.000
    C14      C        0.87730    0.83180    0.77150    1.000
    C15      C        0.01030    0.07070    0.61470    1.000
    C16      C        0.07360    0.05730    0.56470    1.000
    C17      C        0.18660    0.06750    0.55990    1.000
    C18      C        0.91790    0.05590    0.60320    1.000
    C19      C        0.22900    0.05860    0.50660    1.000
    C20      C        0.31180    0.75840    0.62410    1.000
    C21      C        0.32560    0.79340    0.57750    1.000
    C22      C        0.37900    0.84150    0.57130    1.000
    C23      C        0.28740    0.70150    0.63370    1.000
    C24      C        0.43250    0.85940    0.52450    1.000
    C25      C        0.54510    0.04720    0.69380    1.000
    C26      C        0.60370    0.03610    0.64860    1.000
    Mn7      Mn       0.17027    0.49513    0.32267    1.000
    Mn8      Mn       0.28180    0.62232    0.32112    1.000
    Mn9      Mn       0.36891    0.50993    0.38826    1.000
    O13      O        0.28960    0.53820    0.31190    1.000
    O14      O        0.04920    0.45660    0.33180    1.000
    O15      O        0.22720    0.46990    0.39350    1.000
    O16      O        0.27380    0.70640    0.32570    1.000
    O17      O        0.35310    0.60930    0.39040    1.000
    O18      O        0.45540    0.48800    0.31130    1.000
    N9       N        0.12350    0.59280    0.35130    1.000
    N10      N        0.07720    0.60880    0.39240    1.000
    N11      N        0.02840    0.62360    0.43250    1.000
    N12      N        0.44780    0.49070    0.46430    1.000
    C27      C        0.87730    0.66820    0.22850    1.000
    C28      C        0.01030    0.42930    0.38530    1.000
    C29      C        0.07360    0.44270    0.43530    1.000
    C30      C        0.18660    0.43250    0.44010    1.000
    C31      C        0.91790    0.44410    0.39680    1.000
    C32      C        0.22900    0.44140    0.49340    1.000
    C33      C        0.31180    0.74160    0.37590    1.000
    C34      C        0.32560    0.70660    0.42250    1.000
    C35      C        0.37900    0.65850    0.42870    1.000
    C36      C        0.28740    0.79850    0.36630    1.000
    C37      C        0.43250    0.64060    0.47550    1.000
    C38      C        0.54510    0.45280    0.30620    1.000
    C39      C        0.60370    0.46390    0.35140    1.000
    Mn10     Mn       0.82973    0.50487    0.82267    1.000
    Mn11     Mn       0.71820    0.37768    0.82112    1.000
    Mn12     Mn       0.63109    0.49007    0.88826    1.000
    O19      O        0.71040    0.46180    0.81190    1.000
    O20      O        0.95080    0.54340    0.83180    1.000
    O21      O        0.77280    0.53010    0.89350    1.000
    O22      O        0.72620    0.29360    0.82570    1.000
    O23      O        0.64690    0.39070    0.89040    1.000
    O24      O        0.54460    0.51200    0.81130    1.000
    N13      N        0.87650    0.40720    0.85130    1.000
    N14      N        0.92280    0.39120    0.89240    1.000
    N15      N        0.97160    0.37640    0.93250    1.000
    N16      N        0.55220    0.50930    0.96430    1.000
    C40      C        0.12270    0.33180    0.72850    1.000
    C41      C        0.98970    0.57070    0.88530    1.000
    C42      C        0.92640    0.55730    0.93530    1.000
    C43      C        0.81340    0.56750    0.94010    1.000
    C44      C        0.08210    0.55590    0.89680    1.000
    C45      C        0.77100    0.55860    0.99340    1.000
    C46      C        0.68820    0.25840    0.87590    1.000
    C47      C        0.67440    0.29340    0.92250    1.000
    C48      C        0.62100    0.34150    0.92870    1.000
    C49      C        0.71260    0.20150    0.86630    1.000
    C50      C        0.56750    0.35940    0.97550    1.000
    C51      C        0.45490    0.54720    0.80620    1.000
    C52      C        0.39630    0.53610    0.85140    1.000
    Mn13     Mn       0.17027    0.00487    0.82267    1.000
    Mn14     Mn       0.28180    0.87768    0.82112    1.000
    Mn15     Mn       0.36891    0.99007    0.88826    1.000
    O25      O        0.28960    0.96180    0.81190    1.000
    O26      O        0.04920    0.04340    0.83180    1.000
    O27      O        0.22720    0.03010    0.89350    1.000
    O28      O        0.27380    0.79360    0.82570    1.000
    O29      O        0.35310    0.89070    0.89040    1.000
    O30      O        0.45540    0.01200    0.81130    1.000
    N17      N        0.12350    0.90720    0.85130    1.000
    N18      N        0.07720    0.89120    0.89240    1.000
    N19      N        0.02840    0.87640    0.93250    1.000
    N20      N        0.44780    0.00930    0.96430    1.000
    C53      C        0.87730    0.83180    0.72850    1.000
    C54      C        0.01030    0.07070    0.88530    1.000
    C55      C        0.07360    0.05730    0.93530    1.000
    C56      C        0.18660    0.06750    0.94010    1.000
    C57      C        0.91790    0.05590    0.89680    1.000
    C58      C        0.22900    0.05860    0.99340    1.000
    C59      C        0.31180    0.75840    0.87590    1.000
    C60      C        0.32560    0.79340    0.92250    1.000
    C61      C        0.37900    0.84150    0.92870    1.000
    C62      C        0.28740    0.70150    0.86630    1.000
    C63      C        0.43250    0.85940    0.97550    1.000
    C64      C        0.54510    0.04720    0.80620    1.000
    C65      C        0.60370    0.03610    0.85140    1.000
    Mn16     Mn       0.82973    0.99513    0.32267    1.000
    Mn17     Mn       0.71820    0.12232    0.32112    1.000
    Mn18     Mn       0.63109    0.00993    0.38826    1.000
    O31      O        0.71040    0.03820    0.31190    1.000
    O32      O        0.95080    0.95660    0.33180    1.000
    O33      O        0.77280    0.96990    0.39350    1.000
    O34      O        0.72620    0.20640    0.32570    1.000
    O35      O        0.64690    0.10930    0.39040    1.000
    O36      O        0.54460    0.98800    0.31130    1.000
    N21      N        0.87650    0.09280    0.35130    1.000
    N22      N        0.92280    0.10880    0.39240    1.000
    N23      N        0.97160    0.12360    0.43250    1.000
    N24      N        0.55220    0.99070    0.46430    1.000
    C66      C        0.12270    0.16820    0.22850    1.000
    C67      C        0.98970    0.92930    0.38530    1.000
    C68      C        0.92640    0.94270    0.43530    1.000
    C69      C        0.81340    0.93250    0.44010    1.000
    C70      C        0.08210    0.94410    0.39680    1.000
    C71      C        0.77100    0.94140    0.49340    1.000
    C72      C        0.68820    0.24160    0.37590    1.000
    C73      C        0.67440    0.20660    0.42250    1.000
    C74      C        0.62100    0.15850    0.42870    1.000
    C75      C        0.71260    0.29850    0.36630    1.000
    C76      C        0.56750    0.14060    0.47550    1.000
    C77      C        0.45490    0.95280    0.30620    1.000
    C78      C        0.39630    0.96390    0.35140    1.000
    Mn19     Mn       0.82973    0.50487    0.67733    1.000
    Mn20     Mn       0.71820    0.37768    0.67888    1.000
    Mn21     Mn       0.63109    0.49007    0.61174    1.000
    O37      O        0.71040    0.46180    0.68810    1.000
    O38      O        0.95080    0.54340    0.66820    1.000
    O39      O        0.77280    0.53010    0.60650    1.000
    O40      O        0.72620    0.29360    0.67430    1.000
    O41      O        0.64690    0.39070    0.60960    1.000
    O42      O        0.54460    0.51200    0.68870    1.000
    N25      N        0.87650    0.40720    0.64870    1.000
    N26      N        0.92280    0.39120    0.60760    1.000
    N27      N        0.97160    0.37640    0.56750    1.000
    N28      N        0.55220    0.50930    0.53570    1.000
    C79      C        0.12270    0.33180    0.77150    1.000
    C80      C        0.98970    0.57070    0.61470    1.000
    C81      C        0.92640    0.55730    0.56470    1.000
    C82      C        0.81340    0.56750    0.55990    1.000
    C83      C        0.08210    0.55590    0.60320    1.000
    C84      C        0.77100    0.55860    0.50660    1.000
    C85      C        0.68820    0.25840    0.62410    1.000
    C86      C        0.67440    0.29340    0.57750    1.000
    C87      C        0.62100    0.34150    0.57130    1.000
    C88      C        0.71260    0.20150    0.63370    1.000
    C89      C        0.56750    0.35940    0.52450    1.000
    C90      C        0.45490    0.54720    0.69380    1.000
    C91      C        0.39630    0.53610    0.64860    1.000
    Mn22     Mn       0.17027    0.49513    0.17733    1.000
    Mn23     Mn       0.28180    0.62232    0.17888    1.000
    Mn24     Mn       0.36891    0.50993    0.11174    1.000
    O43      O        0.28960    0.53820    0.18810    1.000
    O44      O        0.04920    0.45660    0.16820    1.000
    O45      O        0.22720    0.46990    0.10650    1.000
    O46      O        0.27380    0.70640    0.17430    1.000
    O47      O        0.35310    0.60930    0.10960    1.000
    O48      O        0.45540    0.48800    0.18870    1.000
    N29      N        0.12350    0.59280    0.14870    1.000
    N30      N        0.07720    0.60880    0.10760    1.000
    N31      N        0.02840    0.62360    0.06750    1.000
    N32      N        0.44780    0.49070    0.03570    1.000
    C92      C        0.87730    0.66820    0.27150    1.000
    C93      C        0.01030    0.42930    0.11470    1.000
    C94      C        0.07360    0.44270    0.06470    1.000
    C95      C        0.18660    0.43250    0.05990    1.000
    C96      C        0.91790    0.44410    0.10320    1.000
    C97      C        0.22900    0.44140    0.00660    1.000
    C98      C        0.31180    0.74160    0.12410    1.000
    C99      C        0.32560    0.70660    0.07750    1.000
    C100     C        0.37900    0.65850    0.07130    1.000
    C101     C        0.28740    0.79850    0.13370    1.000
    C102     C        0.43250    0.64060    0.02450    1.000
    C103     C        0.54510    0.45280    0.19380    1.000
    C104     C        0.60370    0.46390    0.14860    1.000
    Mn25     Mn       0.92142    0.10540    0.25000    1.000
    Mn26     Mn       0.62591    0.01044    0.25000    1.000
    Mn27     Mn       0.02230    0.97947    0.25000    1.000
    Mn28     Mn       0.81261    0.22937    0.25000    1.000
    O49      O        0.88470    0.02310    0.25000    1.000
    O50      O        0.79160    0.13470    0.25000    1.000
    O51      O        0.04880    0.07350    0.25000    1.000
    O52      O        0.95500    0.18730    0.25000    1.000
    N33      N        0.58930    0.11420    0.25000    1.000
    N34      N        0.51440    0.13420    0.25000    1.000
    N35      N        0.42700    0.15140    0.25000    1.000
    N36      N        0.14130    0.92210    0.25000    1.000
    N37      N        0.16090    0.87310    0.25000    1.000
    N38      N        0.81070    0.32270    0.25000    1.000
    C105     C        0.14350    0.10850    0.25000    1.000
    C106     C        0.04730    0.21030    0.25000    1.000
    C107     C        0.21370    0.07350    0.25000    1.000
    C108     C        0.05140    0.27070    0.25000    1.000
    C109     C        0.40970    0.97740    0.25000    1.000
    Mn29     Mn       0.07858    0.89460    0.75000    1.000
    Mn30     Mn       0.37409    0.98956    0.75000    1.000
    Mn31     Mn       0.97770    0.02053    0.75000    1.000
    Mn32     Mn       0.18739    0.77063    0.75000    1.000
    O53      O        0.11530    0.97690    0.75000    1.000
    O54      O        0.20840    0.86530    0.75000    1.000
    O55      O        0.95120    0.92650    0.75000    1.000
    O56      O        0.04500    0.81270    0.75000    1.000
    N39      N        0.41070    0.88580    0.75000    1.000
    N40      N        0.48560    0.86580    0.75000    1.000
    N41      N        0.57300    0.84860    0.75000    1.000
    N42      N        0.85870    0.07790    0.75000    1.000
    N43      N        0.83910    0.12690    0.75000    1.000
    N44      N        0.18930    0.67730    0.75000    1.000
    C110     C        0.85650    0.89150    0.75000    1.000
    C111     C        0.95270    0.78970    0.75000    1.000
    C112     C        0.78630    0.92650    0.75000    1.000
    C113     C        0.94860    0.72930    0.75000    1.000
    C114     C        0.59030    0.02260    0.75000    1.000
    Mn33     Mn       0.07858    0.60540    0.25000    1.000
    Mn34     Mn       0.37409    0.51044    0.25000    1.000
    Mn35     Mn       0.97770    0.47947    0.25000    1.000
    Mn36     Mn       0.18739    0.72937    0.25000    1.000
    O57      O        0.11530    0.52310    0.25000    1.000
    O58      O        0.20840    0.63470    0.25000    1.000
    O59      O        0.95120    0.57350    0.25000    1.000
    O60      O        0.04500    0.68730    0.25000    1.000
    N45      N        0.41070    0.61420    0.25000    1.000
    N46      N        0.48560    0.63420    0.25000    1.000
    N47      N        0.57300    0.65140    0.25000    1.000
    N48      N        0.85870    0.42210    0.25000    1.000
    N49      N        0.83910    0.37310    0.25000    1.000
    N50      N        0.18930    0.82270    0.25000    1.000
    C115     C        0.85650    0.60850    0.25000    1.000
    C116     C        0.95270    0.71030    0.25000    1.000
    C117     C        0.78630    0.57350    0.25000    1.000
    C118     C        0.94860    0.77070    0.25000    1.000
    C119     C        0.59030    0.47740    0.25000    1.000
    Mn37     Mn       0.92142    0.39460    0.75000    1.000
    Mn38     Mn       0.62591    0.48956    0.75000    1.000
    Mn39     Mn       0.02230    0.52053    0.75000    1.000
    Mn40     Mn       0.81261    0.27063    0.75000    1.000
    O61      O        0.88470    0.47690    0.75000    1.000
    O62      O        0.79160    0.36530    0.75000    1.000
    O63      O        0.04880    0.42650    0.75000    1.000
    O64      O        0.95500    0.31270    0.75000    1.000
    N51      N        0.58930    0.38580    0.75000    1.000
    N52      N        0.51440    0.36580    0.75000    1.000
    N53      N        0.42700    0.34860    0.75000    1.000
    N54      N        0.14130    0.57790    0.75000    1.000
    N55      N        0.16090    0.62690    0.75000    1.000
    N56      N        0.81070    0.17730    0.75000    1.000
    C120     C        0.14350    0.39150    0.75000    1.000
    C121     C        0.04730    0.28970    0.75000    1.000
    C122     C        0.21370    0.42650    0.75000    1.000
    C123     C        0.05140    0.22930    0.75000    1.000
    C124     C        0.40970    0.52260    0.75000    1.000
    N57      N        0.50000    0.00000    0.00000    1.000
    N58      N        0.50000    0.00000    0.50000    1.000
    N59      N        0.50000    0.50000    0.50000    1.000
    N60      N        0.50000    0.50000    0.00000    1.000
