data_functionalizedCrystal
_audit_creation_method	'EQeq! by Chris Wilmer'
_symmetry_space_group_name_H-M	'P1'
_symmetry_Int_Tables_number	1
_symmetry_cell_setting	triclinic
loop_
_symmetry_equiv_pos_as_xyz
  x,y,z
_cell_length_a	9.4217
_cell_length_b	22.1411
_cell_length_c	26.34
_cell_angle_alpha	90
_cell_angle_beta	90
_cell_angle_gamma	90
loop_
_atom_site_label
_atom_site_type_symbol
_atom_site_fract_x
_atom_site_fract_y
_atom_site_fract_z
_atom_site_charge
Mof_Er	Er	0.75	4.59416e-33	0.48619	1.715
Mof_Er	Er	0.75	0.5	0.01381	1.875
Mof_Er	Er	0.25	0	0.51381	1.717
Mof_Er	Er	0.25	0.5	0.98619	1.874
Mof_H 	H 	0.8687	0.8905	0.1112	0.085
Mof_H 	H 	0.9112	0.8131	0.0446	0.056
Mof_H 	H 	0.8607	0.8065	0.8432	0.058
Mof_H 	H 	0.8152	0.882	0.7769	0.082
Mof_H 	H 	0.5856	0.9414	0.1421	0.085
Mof_H 	H 	0.5845	0.9439	0.2299	0.017
Mof_H 	H 	0.6992	0.7548	0.9695	0.103
Mof_H 	H 	0.7622	0.6553	0.9822	-0.006
Mof_H 	H 	0.1533	0.6928	0.9308	-0.002
Mof_H 	H 	0.0878	0.7929	0.9163	0.102
Mof_H 	H 	0.9092	0.0599	0.7468	0.084
Mof_H 	H 	0.9077	0.0605	0.6587	0.015
Mof_H 	H 	0.6313	0.1095	0.1112	0.064
Mof_H 	H 	0.5888	0.1869	0.0446	0.059
Mof_H 	H 	0.6393	0.1935	0.8432	0.06
Mof_H 	H 	0.6848	0.118	0.7769	0.065
Mof_H 	H 	0.9144	0.0586	0.1421	0.088
Mof_H 	H 	0.9155	0.0561	0.2299	0.019
Mof_H 	H 	0.8008	0.2452	0.9695	0.105
Mof_H 	H 	0.7378	0.3447	0.9822	-0.008
Mof_H 	H 	0.3467	0.3072	0.9308	-0.005
Mof_H 	H 	0.4122	0.2071	0.9163	0.102
Mof_H 	H 	0.5908	0.9401	0.7468	0.085
Mof_H 	H 	0.5923	0.9395	0.6587	0.013
Mof_H 	H 	0.6313	0.3905	0.3888	0.063
Mof_H 	H 	0.5888	0.3131	0.4554	0.06
Mof_H 	H 	0.6393	0.3065	0.6568	0.062
Mof_H 	H 	0.6848	0.382	0.7231	0.062
Mof_H 	H 	0.9144	0.4414	0.3579	0.091
Mof_H 	H 	0.9155	0.4439	0.2701	0.025
Mof_H 	H 	0.8008	0.2548	0.5305	0.103
Mof_H 	H 	0.7378	0.1553	0.5178	-0.005
Mof_H 	H 	0.3467	0.1928	0.5692	-0.003
Mof_H 	H 	0.4122	0.2929	0.5837	0.101
Mof_H 	H 	0.5908	0.5599	0.7532	0.089
Mof_H 	H 	0.5923	0.5605	0.8413	0.021
Mof_H 	H 	0.8687	0.6095	0.3888	0.064
Mof_H 	H 	0.9112	0.6869	0.4554	0.061
Mof_H 	H 	0.8607	0.6935	0.6568	0.063
Mof_H 	H 	0.8152	0.618	0.7231	0.062
Mof_H 	H 	0.5856	0.5586	0.3579	0.091
Mof_H 	H 	0.5845	0.5561	0.2701	0.026
Mof_H 	H 	0.6992	0.7452	0.5305	0.101
Mof_H 	H 	0.7622	0.8447	0.5178	0
Mof_H 	H 	0.1533	0.8072	0.5692	0.003
Mof_H 	H 	0.0878	0.7071	0.5837	0.099
Mof_H 	H 	0.9092	0.4401	0.7532	0.089
Mof_H 	H 	0.9077	0.4395	0.8413	0.021
Mof_H 	H 	0.1313	0.1095	0.8888	0.064
Mof_H 	H 	0.0888	0.1869	0.9554	0.059
Mof_H 	H 	0.1393	0.1935	0.1568	0.06
Mof_H 	H 	0.1848	0.118	0.2231	0.065
Mof_H 	H 	0.4144	0.0586	0.8579	0.088
Mof_H 	H 	0.4155	0.0561	0.7701	0.019
Mof_H 	H 	0.3008	0.2452	0.0305	0.104
Mof_H 	H 	0.2378	0.3447	0.0178	-0.008
Mof_H 	H 	0.8467	0.3072	0.0692	-0.004
Mof_H 	H 	0.9122	0.2071	0.0837	0.102
Mof_H 	H 	0.0908	0.9401	0.2532	0.085
Mof_H 	H 	0.0923	0.9395	0.3413	0.013
Mof_H 	H 	0.3687	0.8905	0.8888	0.084
Mof_H 	H 	0.4112	0.8131	0.9554	0.055
Mof_H 	H 	0.3607	0.8065	0.1568	0.056
Mof_H 	H 	0.3152	0.882	0.2231	0.08
Mof_H 	H 	0.0856	0.9414	0.8579	0.083
Mof_H 	H 	0.0845	0.9439	0.7701	0.016
Mof_H 	H 	0.1992	0.7548	0.0305	0.104
Mof_H 	H 	0.2622	0.6553	0.0178	-0.008
Mof_H 	H 	0.6533	0.6928	0.0692	-0.004
Mof_H 	H 	0.5878	0.7929	0.0837	0.102
Mof_H 	H 	0.4092	0.0599	0.2532	0.083
Mof_H 	H 	0.4077	0.0605	0.3413	0.015
Mof_H 	H 	0.3687	0.6095	0.6112	0.063
Mof_H 	H 	0.4112	0.6869	0.5446	0.061
Mof_H 	H 	0.3607	0.6935	0.3432	0.063
Mof_H 	H 	0.3152	0.618	0.2769	0.062
Mof_H 	H 	0.0856	0.5586	0.6421	0.091
Mof_H 	H 	0.0845	0.5561	0.7299	0.025
Mof_H 	H 	0.1992	0.7452	0.4695	0.102
Mof_H 	H 	0.2622	0.8447	0.4822	-0.001
Mof_H 	H 	0.6533	0.8072	0.4308	0.002
Mof_H 	H 	0.5878	0.7071	0.4163	0.1
Mof_H 	H 	0.4092	0.4401	0.2468	0.089
Mof_H 	H 	0.4077	0.4395	0.1587	0.02
Mof_H 	H 	0.1313	0.3905	0.6112	0.063
Mof_H 	H 	0.0888	0.3131	0.5446	0.06
Mof_H 	H 	0.1393	0.3065	0.3432	0.062
Mof_H 	H 	0.1848	0.382	0.2769	0.062
Mof_H 	H 	0.4144	0.4414	0.6421	0.091
Mof_H 	H 	0.4155	0.4439	0.7299	0.025
Mof_H 	H 	0.3008	0.2548	0.4695	0.103
Mof_H 	H 	0.2378	0.1553	0.4822	-0.005
Mof_H 	H 	0.8467	0.1928	0.4308	-0.003
Mof_H 	H 	0.9122	0.2929	0.4163	0.1
Mof_H 	H 	0.0908	0.5599	0.2468	0.089
Mof_H 	H 	0.0923	0.5605	0.1587	0.021
Mof_C 	C 	0.7949	0.9471	0.05128	0.196
Mof_C 	C 	0.8518	0.895	0.07586	-0.108
Mof_C 	C 	0.8772	0.8531	0.03948	-0.062
Mof_C 	C 	0.8428	0.8807	0.99167	0.116
Mof_C 	C 	0.8506	0.85066	0.94448	-0.116
Mof_C 	C 	0.8237	0.8777	0.89722	0.11
Mof_C 	C 	0.8375	0.8478	0.84855	-0.063
Mof_C 	C 	0.8118	0.8888	0.81251	-0.11
Mof_C 	C 	0.7777	0.9454	0.83731	0.189
Mof_C 	C 	0.6527	0.9657	0.1596	-0.09
Mof_C 	C 	0.6533	0.9668	0.2119	0.13
Mof_C 	C 	0.8885	0.7864	0.9459	0.152
Mof_C 	C 	0.7941	0.7429	0.9625	-0.205
Mof_C 	C 	0.8302	0.6832	0.9696	0.144
Mof_C 	C 	0.9649	0.6645	0.95836	-0.229
Mof_C 	C 	0.0599	0.7056	0.9391	0.13
Mof_C 	C 	0.0221	0.7658	0.9314	-0.204
Mof_C 	C 	0.0111	0.6018	0.9705	0.524
Mof_C 	C 	0.8433	0.0352	0.72907	-0.156
Mof_C 	C 	0.8428	0.0355	0.67655	0.081
Mof_C 	C 	0.7051	0.0529	0.05128	0.125
Mof_C 	C 	0.6482	0.105	0.07586	-0.087
Mof_C 	C 	0.6228	0.1469	0.03948	-0.076
Mof_C 	C 	0.6572	0.1193	0.99167	0.115
Mof_C 	C 	0.6494	0.14934	0.94448	-0.125
Mof_C 	C 	0.6763	0.1223	0.89722	0.11
Mof_C 	C 	0.6625	0.1522	0.84855	-0.077
Mof_C 	C 	0.6882	0.1112	0.81251	-0.088
Mof_C 	C 	0.7223	0.0546	0.83731	0.12
Mof_C 	C 	0.8473	0.0343	0.1596	-0.153
Mof_C 	C 	0.8467	0.0332	0.2119	0.066
Mof_C 	C 	0.6115	0.2136	0.9459	0.154
Mof_C 	C 	0.7059	0.2571	0.9625	-0.21
Mof_C 	C 	0.6698	0.3168	0.9696	0.151
Mof_C 	C 	0.5351	0.3355	0.95836	-0.242
Mof_C 	C 	0.4401	0.2944	0.9391	0.14
Mof_C 	C 	0.4779	0.2342	0.9314	-0.205
Mof_C 	C 	0.4889	0.3982	0.9705	0.534
Mof_C 	C 	0.6567	0.9648	0.72907	-0.09
Mof_C 	C 	0.6572	0.9645	0.67655	0.146
Mof_C 	C 	0.7051	0.4471	0.44872	0.115
Mof_C 	C 	0.6482	0.395	0.42414	-0.077
Mof_C 	C 	0.6228	0.3531	0.46052	-0.078
Mof_C 	C 	0.6572	0.3807	0.50833	0.117
Mof_C 	C 	0.6494	0.35066	0.55552	-0.122
Mof_C 	C 	0.6763	0.3777	0.60278	0.112
Mof_C 	C 	0.6625	0.3478	0.65145	-0.081
Mof_C 	C 	0.6882	0.3888	0.68749	-0.078
Mof_C 	C 	0.7223	0.4454	0.66269	0.107
Mof_C 	C 	0.8473	0.4657	0.3404	-0.15
Mof_C 	C 	0.8467	0.4668	0.2881	0.059
Mof_C 	C 	0.6115	0.2864	0.5541	0.15
Mof_C 	C 	0.7059	0.2429	0.5375	-0.205
Mof_C 	C 	0.6698	0.1832	0.5304	0.143
Mof_C 	C 	0.5351	0.1645	0.54164	-0.233
Mof_C 	C 	0.4401	0.2056	0.5609	0.133
Mof_C 	C 	0.4779	0.2658	0.5686	-0.2
Mof_C 	C 	0.4889	0.1018	0.5295	0.518
Mof_C 	C 	0.6567	0.5352	0.77093	-0.155
Mof_C 	C 	0.6572	0.5355	0.82345	0.078
Mof_C 	C 	0.7949	0.5529	0.44872	0.115
Mof_C 	C 	0.8518	0.605	0.42414	-0.076
Mof_C 	C 	0.8772	0.6469	0.46052	-0.078
Mof_C 	C 	0.8428	0.6193	0.50833	0.117
Mof_C 	C 	0.8506	0.64934	0.55552	-0.121
Mof_C 	C 	0.8237	0.6223	0.60278	0.112
Mof_C 	C 	0.8375	0.6522	0.65145	-0.081
Mof_C 	C 	0.8118	0.6112	0.68749	-0.077
Mof_C 	C 	0.7777	0.5546	0.66269	0.107
Mof_C 	C 	0.6527	0.5343	0.3404	-0.15
Mof_C 	C 	0.6533	0.5332	0.2881	0.06
Mof_C 	C 	0.8885	0.7136	0.5541	0.148
Mof_C 	C 	0.7941	0.7571	0.5375	-0.198
Mof_C 	C 	0.8302	0.8168	0.5304	0.135
Mof_C 	C 	0.9649	0.8355	0.54164	-0.214
Mof_C 	C 	0.0599	0.7944	0.5609	0.122
Mof_C 	C 	0.0221	0.7342	0.5686	-0.196
Mof_C 	C 	0.0111	0.8982	0.5295	0.503
Mof_C 	C 	0.8433	0.4648	0.77093	-0.155
Mof_C 	C 	0.8428	0.4645	0.82345	0.078
Mof_C 	C 	0.2051	0.0529	0.94872	0.124
Mof_C 	C 	0.1482	0.105	0.92414	-0.086
Mof_C 	C 	0.1228	0.1469	0.96052	-0.078
Mof_C 	C 	0.1572	0.1193	0.00833	0.116
Mof_C 	C 	0.1494	0.14934	0.05552	-0.125
Mof_C 	C 	0.1763	0.1223	0.10278	0.111
Mof_C 	C 	0.1625	0.1522	0.15145	-0.078
Mof_C 	C 	0.1882	0.1112	0.18749	-0.088
Mof_C 	C 	0.2223	0.0546	0.16269	0.12
Mof_C 	C 	0.3473	0.0343	0.8404	-0.153
Mof_C 	C 	0.3467	0.0332	0.7881	0.066
Mof_C 	C 	0.1115	0.2136	0.0541	0.155
Mof_C 	C 	0.2059	0.2571	0.0375	-0.209
Mof_C 	C 	0.1698	0.3168	0.0304	0.149
Mof_C 	C 	0.0351	0.3355	0.04164	-0.237
Mof_C 	C 	0.9401	0.2944	0.0609	0.136
Mof_C 	C 	0.9779	0.2342	0.0686	-0.206
Mof_C 	C 	0.9889	0.3982	0.0295	0.53
Mof_C 	C 	0.1567	0.9648	0.27093	-0.091
Mof_C 	C 	0.1572	0.9645	0.32345	0.145
Mof_C 	C 	0.2949	0.9471	0.94872	0.195
Mof_C 	C 	0.3518	0.895	0.92414	-0.108
Mof_C 	C 	0.3772	0.8531	0.96052	-0.061
Mof_C 	C 	0.3428	0.8807	0.00833	0.115
Mof_C 	C 	0.3506	0.85066	0.05552	-0.115
Mof_C 	C 	0.3237	0.8777	0.10278	0.109
Mof_C 	C 	0.3375	0.8478	0.15145	-0.063
Mof_C 	C 	0.3118	0.8888	0.18749	-0.11
Mof_C 	C 	0.2777	0.9454	0.16269	0.188
Mof_C 	C 	0.1527	0.9657	0.8404	-0.091
Mof_C 	C 	0.1533	0.9668	0.7881	0.129
Mof_C 	C 	0.3885	0.7864	0.0541	0.15
Mof_C 	C 	0.2941	0.7429	0.0375	-0.208
Mof_C 	C 	0.3302	0.6832	0.0304	0.149
Mof_C 	C 	0.4649	0.6645	0.04164	-0.24
Mof_C 	C 	0.5599	0.7056	0.0609	0.138
Mof_C 	C 	0.5221	0.7658	0.0686	-0.202
Mof_C 	C 	0.5111	0.6018	0.0295	0.533
Mof_C 	C 	0.3433	0.0352	0.27093	-0.156
Mof_C 	C 	0.3428	0.0355	0.32345	0.08
Mof_C 	C 	0.2949	0.5529	0.55128	0.115
Mof_C 	C 	0.3518	0.605	0.57586	-0.077
Mof_C 	C 	0.3772	0.6469	0.53948	-0.078
Mof_C 	C 	0.3428	0.6193	0.49167	0.116
Mof_C 	C 	0.3506	0.64934	0.44448	-0.121
Mof_C 	C 	0.3237	0.6223	0.39722	0.112
Mof_C 	C 	0.3375	0.6522	0.34855	-0.081
Mof_C 	C 	0.3118	0.6112	0.31251	-0.078
Mof_C 	C 	0.2777	0.5546	0.33731	0.107
Mof_C 	C 	0.1527	0.5343	0.6596	-0.15
Mof_C 	C 	0.1533	0.5332	0.7119	0.059
Mof_C 	C 	0.3885	0.7136	0.4459	0.147
Mof_C 	C 	0.2941	0.7571	0.4625	-0.2
Mof_C 	C 	0.3302	0.8168	0.4696	0.138
Mof_C 	C 	0.4649	0.8355	0.45836	-0.221
Mof_C 	C 	0.5599	0.7944	0.4391	0.127
Mof_C 	C 	0.5221	0.7342	0.4314	-0.195
Mof_C 	C 	0.5111	0.8982	0.4705	0.509
Mof_C 	C 	0.3433	0.4648	0.22907	-0.155
Mof_C 	C 	0.3428	0.4645	0.17655	0.077
Mof_C 	C 	0.2051	0.4471	0.55128	0.115
Mof_C 	C 	0.1482	0.395	0.57586	-0.077
Mof_C 	C 	0.1228	0.3531	0.53948	-0.078
Mof_C 	C 	0.1572	0.3807	0.49167	0.117
Mof_C 	C 	0.1494	0.35066	0.44448	-0.122
Mof_C 	C 	0.1763	0.3777	0.39722	0.112
Mof_C 	C 	0.1625	0.3478	0.34855	-0.081
Mof_C 	C 	0.1882	0.3888	0.31251	-0.078
Mof_C 	C 	0.2223	0.4454	0.33731	0.107
Mof_C 	C 	0.3473	0.4657	0.6596	-0.15
Mof_C 	C 	0.3467	0.4668	0.7119	0.059
Mof_C 	C 	0.1115	0.2864	0.4459	0.15
Mof_C 	C 	0.2059	0.2429	0.4625	-0.205
Mof_C 	C 	0.1698	0.1832	0.4696	0.143
Mof_C 	C 	0.0351	0.1645	0.45836	-0.232
Mof_C 	C 	0.9401	0.2056	0.4391	0.133
Mof_C 	C 	0.9779	0.2658	0.4314	-0.2
Mof_C 	C 	0.9889	0.1018	0.4705	0.518
Mof_C 	C 	0.1567	0.5352	0.22907	-0.155
Mof_C 	C 	0.1572	0.5355	0.17655	0.078
Mof_C 	C 	0.75	0	0.0762	-0.171
Mof_C 	C 	0.75	0	0.8127	-0.179
Mof_C 	C 	0.75	0	0.1325	0.06
Mof_C 	C 	0.75	2.29708e-33	0.2386	-0.178
Mof_C 	C 	0.75	4.59416e-33	0.2974	0.252
Mof_C 	C 	0.75	9.18832e-33	0.7559	0.064
Mof_C 	C 	0.75	0	0.65	-0.186
Mof_C 	C 	0.75	0	0.59291	0.262
Mof_C 	C 	0.75	0.5	0.4238	-0.102
Mof_C 	C 	0.75	0.5	0.6873	-0.108
Mof_C 	C 	0.75	0.5	0.3675	0.115
Mof_C 	C 	0.75	0.5	0.2614	-0.116
Mof_C 	C 	0.75	0.5	0.2026	0.324
Mof_C 	C 	0.75	0.5	0.7441	0.121
Mof_C 	C 	0.75	0.5	0.85	-0.125
Mof_C 	C 	0.75	0.5	0.90709	0.328
Mof_C 	C 	0.25	0	0.9238	-0.171
Mof_C 	C 	0.25	0	0.1873	-0.179
Mof_C 	C 	0.25	0	0.8675	0.061
Mof_C 	C 	0.25	0	0.7614	-0.178
Mof_C 	C 	0.25	0	0.7026	0.253
Mof_C 	C 	0.25	0	0.2441	0.065
Mof_C 	C 	0.25	4.59416e-33	0.35	-0.185
Mof_C 	C 	0.25	4.59416e-33	0.40709	0.263
Mof_C 	C 	0.25	0.5	0.5762	-0.102
Mof_C 	C 	0.25	0.5	0.3127	-0.109
Mof_C 	C 	0.25	0.5	0.6325	0.115
Mof_C 	C 	0.25	0.5	0.7386	-0.116
Mof_C 	C 	0.25	0.5	0.7974	0.324
Mof_C 	C 	0.25	0.5	0.2559	0.121
Mof_C 	C 	0.25	0.5	0.15	-0.125
Mof_C 	C 	0.25	0.5	0.09291	0.328
Mof_N 	N 	0.7913	0.93775	0.99982	-0.114
Mof_N 	N 	0.7869	0.93671	0.88881	-0.117
Mof_N 	N 	0.7087	0.06225	0.99982	-0.132
Mof_N 	N 	0.7131	0.06329	0.88881	-0.135
Mof_N 	N 	0.7087	0.43775	0.50018	-0.119
Mof_N 	N 	0.7131	0.43671	0.61119	-0.121
Mof_N 	N 	0.7913	0.56225	0.50018	-0.119
Mof_N 	N 	0.7869	0.56329	0.61119	-0.121
Mof_N 	N 	0.2087	0.06225	0.00018	-0.132
Mof_N 	N 	0.2131	0.06329	0.11119	-0.135
Mof_N 	N 	0.2913	0.93775	0.00018	-0.115
Mof_N 	N 	0.2869	0.93671	0.11119	-0.117
Mof_N 	N 	0.2913	0.56225	0.49982	-0.119
Mof_N 	N 	0.2869	0.56329	0.38881	-0.121
Mof_N 	N 	0.2087	0.43775	0.49982	-0.119
Mof_N 	N 	0.2131	0.43671	0.38881	-0.121
Mof_O 	O 	0.8425	0.0296	0.31921	-0.266
Mof_O 	O 	0.9218	0.56607	0.98915	-0.545
Mof_O 	O 	0.1371	0.58774	0.96235	-0.529
Mof_O 	O 	0.8339	0.03485	0.56916	-0.383
Mof_O 	O 	0.6575	0.9704	0.31921	-0.189
Mof_O 	O 	0.5782	0.43393	0.98915	-0.549
Mof_O 	O 	0.3629	0.41226	0.96235	-0.532
Mof_O 	O 	0.6661	0.96515	0.56916	-0.317
Mof_O 	O 	0.6575	0.5296	0.18079	-0.268
Mof_O 	O 	0.5782	0.06607	0.51085	-0.537
Mof_O 	O 	0.3629	0.08774	0.53765	-0.516
Mof_O 	O 	0.6661	0.53485	0.93084	-0.4
Mof_O 	O 	0.8425	0.4704	0.18079	-0.268
Mof_O 	O 	0.9218	0.93393	0.51085	-0.491
Mof_O 	O 	0.1371	0.91226	0.53765	-0.485
Mof_O 	O 	0.8339	0.46515	0.93084	-0.399
Mof_O 	O 	0.1575	0.9704	0.68079	-0.191
Mof_O 	O 	0.0782	0.43393	0.01085	-0.548
Mof_O 	O 	0.8629	0.41226	0.03765	-0.531
Mof_O 	O 	0.1661	0.96515	0.43084	-0.318
Mof_O 	O 	0.3425	0.0296	0.68079	-0.266
Mof_O 	O 	0.4218	0.56607	0.01085	-0.549
Mof_O 	O 	0.6371	0.58774	0.03765	-0.532
Mof_O 	O 	0.3339	0.03485	0.43084	-0.383
Mof_O 	O 	0.3425	0.4704	0.81921	-0.268
Mof_O 	O 	0.4218	0.93393	0.48915	-0.494
Mof_O 	O 	0.6371	0.91226	0.46235	-0.486
Mof_O 	O 	0.3339	0.46515	0.06916	-0.4
Mof_O 	O 	0.1575	0.5296	0.81921	-0.269
Mof_O 	O 	0.0782	0.06607	0.48915	-0.537
Mof_O 	O 	0.8629	0.08774	0.46235	-0.516
Mof_O 	O 	0.1661	0.53485	0.06916	-0.4
_end
