# CIF file generated by openbabel 3.1.0, see https://openbabel.org
data_I
_chemical_name_common 'image0'
_cell_length_a 11.9
_cell_length_b 12.494
_cell_length_c 12.539
_cell_angle_alpha 90
_cell_angle_beta 98.76
_cell_angle_gamma 90
_space_group_name_H-M_alt 'P 1'
_space_group_name_Hall 'P 1'
loop_
    _symmetry_equiv_pos_as_xyz
    x,y,z
loop_
    _atom_site_label
    _atom_site_type_symbol
    _atom_site_fract_x
    _atom_site_fract_y
    _atom_site_fract_z
    _atom_site_occupancy
    C1       C        0.51550    0.65980    0.50950    1.000
    C2       C        0.61120    0.62580    0.47000    1.000
    H1       H        0.67410    0.60040    0.51620    1.000
    C3       C        0.61160    0.63050    0.35980    1.000
    C4       C        0.51710    0.66590    0.28940    1.000
    H2       H        0.51890    0.66950    0.21560    1.000
    C5       C        0.42020    0.69560    0.33080    1.000
    C6       C        0.41940    0.69720    0.44140    1.000
    H3       H        0.35660    0.72260    0.46960    1.000
    C7       C        0.51300    0.65900    0.62870    1.000
    C8       C        0.72100    0.62020    0.21570    1.000
    H4       H        0.69750    0.69400    0.19760    1.000
    C9       C        0.64220    0.54390    0.14110    1.000
    C10      C        0.84410    0.60820    0.20210    1.000
    H5       H        0.88910    0.65990    0.24640    1.000
    H6       H        0.85190    0.61960    0.12790    1.000
    H7       H        0.86980    0.53740    0.22340    1.000
    C11      C        0.30780    0.70430    0.15590    1.000
    H8       H        0.33900    0.63330    0.14510    1.000
    C12      C        0.36780    0.78510    0.09510    1.000
    C13      C        0.18110    0.70210    0.11590    1.000
    H9       H        0.14550    0.65050    0.15660    1.000
    H10      H        0.16810    0.68270    0.04090    1.000
    H11      H        0.14940    0.77160    0.12470    1.000
    C14      C        0.97920    0.45400    0.90910    1.000
    C15      C        0.03750    0.45130    0.01230    1.000
    H12      H        0.99970    0.46510    0.07050    1.000
    C16      C        0.15330    0.42800    0.02980    1.000
    C17      C        0.21000    0.40930    0.94310    1.000
    H13      H        0.28770    0.39510    0.95400    1.000
    C18      C        0.14800    0.41210    0.83770    1.000
    C19      C        0.03330    0.43390    0.82080    1.000
    H14      H        0.99280    0.43520    0.75130    1.000
    C20      C        0.85510    0.48100    0.89170    1.000
    C21      C        0.31320    0.42690    0.75120    1.000
    H15      H        0.36330    0.37970    0.79940    1.000
    C22      C        0.32750    0.54200    0.79130    1.000
    C23      C        0.34170    0.41920    0.63840    1.000
    H16      H        0.32470    0.34840    0.61070    1.000
    H17      H        0.42120    0.43360    0.63980    1.000
    H18      H        0.29760    0.47050    0.59290    1.000
    C24      C        0.31800    0.39990    0.16290    1.000
    H19      H        0.36580    0.44680    0.12610    1.000
    C25      C        0.33810    0.28390    0.13570    1.000
    C26      C        0.34680    0.41430    0.28510    1.000
    H20      H        0.32990    0.48640    0.30390    1.000
    H21      H        0.42610    0.40020    0.30760    1.000
    H22      H        0.30230    0.36540    0.32050    1.000
    O1       O        0.43620    0.71430    0.66230    1.000
    O2       O        0.58380    0.60230    0.68640    1.000
    O3       O        0.71170    0.60190    0.32540    1.000
    O4       O        0.62020    0.45490    0.17440    1.000
    O5       O        0.60950    0.57890    0.04670    1.000
    O6       O        0.32110    0.72500    0.26740    1.000
    O7       O        0.37450    0.76270    0.99800    1.000
    O8       O        0.40710    0.87140    0.14030    1.000
    O9       O        0.80270    0.50340    0.79940    1.000
    O10      O        0.80150    0.47830    0.97300    1.000
    O11      O        0.20210    0.42970    0.13590    1.000
    O12      O        0.25790    0.21820    0.12300    1.000
    O13      O        0.43870    0.25460    0.12950    1.000
    O14      O        0.19760    0.39430    0.74830    1.000
    O15      O        0.25040    0.60890    0.76850    1.000
    O16      O        0.42380    0.56890    0.84450    1.000
    O17      O        0.23600    0.83210    0.65030    1.000
    H23      H        0.22820    0.88910    0.68640    1.000
    H24      H        0.19510    0.83690    0.58800    1.000
    Sm1      Sm       0.62739    0.55430    0.86846    1.000
    Sm2      Sm       0.35887    0.77064    0.81305    1.000
    C27      C        0.48450    0.15980    0.49050    1.000
    C28      C        0.38880    0.12580    0.53000    1.000
    H25      H        0.32590    0.10040    0.48380    1.000
    C29      C        0.38840    0.13050    0.64020    1.000
    C30      C        0.48290    0.16590    0.71060    1.000
    H26      H        0.48110    0.16950    0.78440    1.000
    C31      C        0.57980    0.19560    0.66920    1.000
    C32      C        0.58060    0.19720    0.55860    1.000
    H27      H        0.64340    0.22260    0.53040    1.000
    C33      C        0.48700    0.15900    0.37130    1.000
    C34      C        0.27900    0.12020    0.78430    1.000
    H28      H        0.30250    0.19400    0.80240    1.000
    C35      C        0.35780    0.04390    0.85890    1.000
    C36      C        0.15590    0.10820    0.79790    1.000
    H29      H        0.11090    0.15990    0.75360    1.000
    H30      H        0.14810    0.11960    0.87210    1.000
    H31      H        0.13020    0.03740    0.77660    1.000
    C37      C        0.69220    0.20430    0.84410    1.000
    H32      H        0.66100    0.13330    0.85490    1.000
    C38      C        0.63220    0.28510    0.90490    1.000
    C39      C        0.81890    0.20210    0.88410    1.000
    H33      H        0.85450    0.15050    0.84340    1.000
    H34      H        0.83190    0.18270    0.95910    1.000
    H35      H        0.85060    0.27160    0.87530    1.000
    C40      C        0.02080    0.95400    0.09090    1.000
    C41      C        0.96250    0.95130    0.98770    1.000
    H36      H        0.00030    0.96510    0.92950    1.000
    C42      C        0.84670    0.92800    0.97020    1.000
    C43      C        0.79000    0.90930    0.05690    1.000
    H37      H        0.71230    0.89510    0.04600    1.000
    C44      C        0.85200    0.91210    0.16230    1.000
    C45      C        0.96670    0.93390    0.17920    1.000
    H38      H        0.00720    0.93520    0.24870    1.000
    C46      C        0.14490    0.98100    0.10830    1.000
    C47      C        0.68680    0.92690    0.24880    1.000
    H39      H        0.63670    0.87970    0.20060    1.000
    C48      C        0.67250    0.04200    0.20870    1.000
    C49      C        0.65830    0.91920    0.36160    1.000
    H40      H        0.67530    0.84840    0.38930    1.000
    H41      H        0.57880    0.93360    0.36020    1.000
    H42      H        0.70240    0.97050    0.40710    1.000
    C50      C        0.68200    0.89990    0.83710    1.000
    H43      H        0.63420    0.94680    0.87390    1.000
    C51      C        0.66190    0.78390    0.86430    1.000
    C52      C        0.65320    0.91430    0.71490    1.000
    H44      H        0.67010    0.98640    0.69610    1.000
    H45      H        0.57390    0.90020    0.69240    1.000
    H46      H        0.69770    0.86540    0.67950    1.000
    O18      O        0.56380    0.21430    0.33770    1.000
    O19      O        0.41620    0.10230    0.31360    1.000
    O20      O        0.28830    0.10190    0.67460    1.000
    O21      O        0.37980    0.95490    0.82560    1.000
    O22      O        0.39050    0.07890    0.95330    1.000
    O23      O        0.67890    0.22500    0.73260    1.000
    O24      O        0.62550    0.26270    0.00200    1.000
    O25      O        0.59290    0.37140    0.85970    1.000
    O26      O        0.19730    0.00340    0.20060    1.000
    O27      O        0.19850    0.97830    0.02700    1.000
    O28      O        0.79790    0.92970    0.86410    1.000
    O29      O        0.74210    0.71820    0.87700    1.000
    O30      O        0.56130    0.75460    0.87050    1.000
    O31      O        0.80240    0.89430    0.25170    1.000
    O32      O        0.74960    0.10890    0.23150    1.000
    O33      O        0.57620    0.06890    0.15550    1.000
    O34      O        0.76400    0.33210    0.34970    1.000
    H47      H        0.77180    0.38910    0.31360    1.000
    H48      H        0.80490    0.33690    0.41200    1.000
    Sm3      Sm       0.37261    0.05430    0.13154    1.000
    Sm4      Sm       0.64113    0.27064    0.18695    1.000
