# CIF file generated by openbabel 3.1.0, see https://openbabel.org
data_I
_chemical_name_common 'TONQOD_clean'
_cell_length_a 9.2945
_cell_length_b 19.4305
_cell_length_c 19.4305
_cell_angle_alpha 67.7291
_cell_angle_beta 76.1623
_cell_angle_gamma 76.1624
_space_group_name_H-M_alt 'P 1'
_space_group_name_Hall 'P 1'
loop_
    _symmetry_equiv_pos_as_xyz
    x,y,z
loop_
    _atom_site_label
    _atom_site_type_symbol
    _atom_site_fract_x
    _atom_site_fract_y
    _atom_site_fract_z
    _atom_site_occupancy
    Zn1      Zn       0.63876    0.51401    0.51401    1.000
    Zn2      Zn       0.16678    0.98599    0.98599    1.000
    Zn3      Zn       0.83322    0.01401    0.01401    1.000
    Zn4      Zn       0.36124    0.48599    0.48599    1.000
    H1       H        0.89310    0.55100    0.28640    1.000
    H2       H        0.01370    0.54880    0.16740    1.000
    H3       H        0.64780    0.48650    0.14150    1.000
    H4       H        0.52750    0.49280    0.25900    1.000
    H5       H        0.23050    0.94900    0.21360    1.000
    H6       H        0.22990    0.95120    0.33260    1.000
    H7       H        0.77580    0.01350    0.35850    1.000
    H8       H        0.77930    0.00720    0.24100    1.000
    H9       H        0.76950    0.78640    0.05100    1.000
    H10      H        0.77010    0.66740    0.04880    1.000
    H11      H        0.22420    0.64150    0.98650    1.000
    H12      H        0.22070    0.75900    0.99280    1.000
    H13      H        0.10690    0.71360    0.44900    1.000
    H14      H        0.98630    0.83260    0.45120    1.000
    H15      H        0.35220    0.85850    0.51350    1.000
    H16      H        0.47250    0.74100    0.50720    1.000
    H17      H        0.10690    0.44900    0.71360    1.000
    H18      H        0.98630    0.45120    0.83260    1.000
    H19      H        0.35220    0.51350    0.85850    1.000
    H20      H        0.47250    0.50720    0.74100    1.000
    H21      H        0.76950    0.05100    0.78640    1.000
    H22      H        0.77010    0.04880    0.66740    1.000
    H23      H        0.22420    0.98650    0.64150    1.000
    H24      H        0.22070    0.99280    0.75900    1.000
    H25      H        0.23050    0.21360    0.94900    1.000
    H26      H        0.22990    0.33260    0.95120    1.000
    H27      H        0.77580    0.35850    0.01350    1.000
    H28      H        0.77930    0.24100    0.00720    1.000
    H29      H        0.89310    0.28640    0.55100    1.000
    H30      H        0.01370    0.16740    0.54880    1.000
    H31      H        0.64780    0.14150    0.48650    1.000
    H32      H        0.52750    0.25900    0.49280    1.000
    H33      H        0.86510    0.40990    0.09010    1.000
    H34      H        0.86510    0.09010    0.40990    1.000
    H35      H        0.13490    0.59010    0.90990    1.000
    H36      H        0.13490    0.90990    0.59010    1.000
    C1       C        0.62433    0.52197    0.36237    1.000
    C2       C        0.69757    0.52223    0.28443    1.000
    C3       C        0.84294    0.53859    0.25653    1.000
    C4       C        0.91515    0.53685    0.18625    1.000
    C5       C        0.84003    0.51717    0.14217    1.000
    C6       C        0.69787    0.50033    0.17033    1.000
    C7       C        0.62679    0.50361    0.24061    1.000
    C8       C        0.92185    0.51055    0.06815    1.000
    C9       C        0.00867    0.97803    0.13763    1.000
    C10      C        0.00423    0.97777    0.21557    1.000
    C11      C        0.13806    0.96141    0.24347    1.000
    C12      C        0.13825    0.96315    0.31375    1.000
    C13      C        0.99937    0.98283    0.35783    1.000
    C14      C        0.86853    0.99967    0.32967    1.000
    C15      C        0.87101    0.99639    0.25939    1.000
    C16      C        0.00055    0.98945    0.43185    1.000
    C17      C        0.99133    0.86237    0.02197    1.000
    C18      C        0.99577    0.78443    0.02223    1.000
    C19      C        0.86194    0.75653    0.03859    1.000
    C20      C        0.86175    0.68625    0.03685    1.000
    C21      C        0.00063    0.64217    0.01717    1.000
    C22      C        0.13147    0.67033    0.00033    1.000
    C23      C        0.12899    0.74061    0.00361    1.000
    C24      C        0.99945    0.56815    0.01055    1.000
    C25      C        0.37567    0.63763    0.47803    1.000
    C26      C        0.30243    0.71557    0.47777    1.000
    C27      C        0.15706    0.74347    0.46141    1.000
    C28      C        0.08485    0.81375    0.46315    1.000
    C29      C        0.15997    0.85783    0.48283    1.000
    C30      C        0.30213    0.82967    0.49967    1.000
    C31      C        0.37321    0.75939    0.49639    1.000
    C32      C        0.07815    0.93185    0.48945    1.000
    C33      C        0.37567    0.47803    0.63763    1.000
    C34      C        0.30243    0.47777    0.71557    1.000
    C35      C        0.15706    0.46141    0.74347    1.000
    C36      C        0.08485    0.46315    0.81375    1.000
    C37      C        0.15997    0.48283    0.85783    1.000
    C38      C        0.30213    0.49967    0.82967    1.000
    C39      C        0.37321    0.49639    0.75939    1.000
    C40      C        0.07815    0.48945    0.93185    1.000
    C41      C        0.99133    0.02197    0.86237    1.000
    C42      C        0.99577    0.02223    0.78443    1.000
    C43      C        0.86194    0.03859    0.75653    1.000
    C44      C        0.86175    0.03685    0.68625    1.000
    C45      C        0.00063    0.01717    0.64217    1.000
    C46      C        0.13147    0.00033    0.67033    1.000
    C47      C        0.12899    0.00361    0.74061    1.000
    C48      C        0.99945    0.01055    0.56815    1.000
    C49      C        0.00867    0.13763    0.97803    1.000
    C50      C        0.00423    0.21557    0.97777    1.000
    C51      C        0.13806    0.24347    0.96141    1.000
    C52      C        0.13825    0.31375    0.96315    1.000
    C53      C        0.99937    0.35783    0.98283    1.000
    C54      C        0.86853    0.32967    0.99967    1.000
    C55      C        0.87101    0.25939    0.99639    1.000
    C56      C        0.00055    0.43185    0.98945    1.000
    C57      C        0.62433    0.36237    0.52197    1.000
    C58      C        0.69757    0.28443    0.52223    1.000
    C59      C        0.84294    0.25653    0.53859    1.000
    C60      C        0.91515    0.18625    0.53685    1.000
    C61      C        0.84003    0.14217    0.51717    1.000
    C62      C        0.69787    0.17033    0.50033    1.000
    C63      C        0.62679    0.24061    0.50361    1.000
    C64      C        0.92185    0.06815    0.51055    1.000
    C65      C        0.92220    0.44630    0.05370    1.000
    C66      C        0.92220    0.05370    0.44630    1.000
    C67      C        0.07780    0.55370    0.94630    1.000
    C68      C        0.07780    0.94630    0.55370    1.000
    O1       O        0.70207    0.53039    0.40167    1.000
    O2       O        0.49069    0.51108    0.38134    1.000
    O3       O        0.13413    0.96961    0.09833    1.000
    O4       O        0.88311    0.98892    0.11866    1.000
    O5       O        0.86587    0.90167    0.03039    1.000
    O6       O        0.11689    0.88134    0.01108    1.000
    O7       O        0.29793    0.59833    0.46961    1.000
    O8       O        0.50931    0.61866    0.48892    1.000
    O9       O        0.29793    0.46961    0.59833    1.000
    O10      O        0.50931    0.48892    0.61866    1.000
    O11      O        0.86587    0.03039    0.90167    1.000
    O12      O        0.11689    0.01108    0.88134    1.000
    O13      O        0.13413    0.09833    0.96961    1.000
    O14      O        0.88311    0.11866    0.98892    1.000
    O15      O        0.70207    0.40167    0.53039    1.000
    O16      O        0.49069    0.38134    0.51108    1.000
