data_functionalizedCrystal
_audit_creation_method	'EQeq! by Chris Wilmer'
_symmetry_space_group_name_H-M	'P1'
_symmetry_Int_Tables_number	1
_symmetry_cell_setting	triclinic
loop_
_symmetry_equiv_pos_as_xyz
  x,y,z
_cell_length_a	10.5841
_cell_length_b	10.5841
_cell_length_c	12.2246
_cell_angle_alpha	90
_cell_angle_beta	90
_cell_angle_gamma	112.854
loop_
_atom_site_label
_atom_site_type_symbol
_atom_site_fract_x
_atom_site_fract_y
_atom_site_fract_z
_atom_site_charge
Mof_Mn	Mn	0.5	0.5	-0	0.666
Mof_Mn	Mn	7.50145e-33	0	0.5	0.601
Mof_Ag	Ag	0.75429	0.24571	0.75789	0.434
Mof_Ag	Ag	0.74571	0.25429	0.25789	0.418
Mof_Ag	Ag	0.25429	0.74571	0.74211	0.433
Mof_Ag	Ag	0.24571	0.75429	0.24211	0.418
Mof_H 	H 	0.7332	0.6992	0.8442	-0.026
Mof_H 	H 	0.911	0.9154	0.8373	0.105
Mof_H 	H 	0.7668	0.8008	0.3442	-0.002
Mof_H 	H 	0.589	0.5846	0.3373	0.064
Mof_H 	H 	0.8008	0.7668	0.6558	-0.001
Mof_H 	H 	0.5846	0.589	0.6627	0.065
Mof_H 	H 	0.6992	0.7332	0.1558	-0.022
Mof_H 	H 	0.9154	0.911	0.1627	0.108
Mof_H 	H 	0.2668	0.3008	0.1558	0
Mof_H 	H 	0.089	0.0846	0.1627	0.016
Mof_H 	H 	0.2332	0.1992	0.6558	-0.018
Mof_H 	H 	0.411	0.4154	0.6627	0.064
Mof_H 	H 	0.1992	0.2332	0.3442	-0.018
Mof_H 	H 	0.4154	0.411	0.3373	0.064
Mof_H 	H 	0.3008	0.2668	0.8442	-0.003
Mof_H 	H 	0.0846	0.089	0.8373	0.013
Mof_C 	C 	0.7629	0.7487	0.9105	0.129
Mof_C 	C 	0.8769	0.8747	0.906	-0.194
Mof_C 	C 	0.7371	0.7513	0.4105	0.069
Mof_C 	C 	0.6231	0.6253	0.406	-0.141
Mof_C 	C 	0.7513	0.7371	0.5895	0.07
Mof_C 	C 	0.6253	0.6231	0.594	-0.141
Mof_C 	C 	0.7487	0.7629	0.0895	0.105
Mof_C 	C 	0.8747	0.8769	0.094	-0.215
Mof_C 	C 	0.2371	0.2513	0.0895	0.016
Mof_C 	C 	0.1231	0.1253	0.094	-0.067
Mof_C 	C 	0.2629	0.2487	0.5895	0.064
Mof_C 	C 	0.3769	0.3747	0.594	-0.149
Mof_C 	C 	0.2487	0.2629	0.4105	0.064
Mof_C 	C 	0.3747	0.3769	0.406	-0.149
Mof_C 	C 	0.2513	0.2371	0.9105	0.039
Mof_C 	C 	0.1253	0.1231	0.906	-0.048
Mof_C 	C 	0.649	0.351	0.8311	-0.114
Mof_C 	C 	0.8586	0.1414	0.6831	-0.12
Mof_C 	C 	0.851	0.149	0.3311	-0.118
Mof_C 	C 	0.6414	0.3586	0.1831	-0.123
Mof_C 	C 	0.149	0.851	0.6689	-0.117
Mof_C 	C 	0.3586	0.6414	0.8169	-0.117
Mof_C 	C 	0.351	0.649	0.1689	-0.12
Mof_C 	C 	0.1414	0.8586	0.3169	-0.12
Mof_C 	C 	0.9382	0.9382	-0	0.16
Mof_C 	C 	0.5618	0.5618	0.5	0.039
Mof_C 	C 	0.0618	0.0618	-0	-0.124
Mof_C 	C 	0.4382	0.4382	0.5	0.042
Mof_N 	N 	0.5928	0.4072	0.8765	-0.149
Mof_N 	N 	0.9142	0.0858	0.6326	-0.147
Mof_N 	N 	0.9072	0.0928	0.3765	-0.147
Mof_N 	N 	0.5858	0.4142	0.1326	-0.159
Mof_N 	N 	0.0928	0.9072	0.6235	-0.146
Mof_N 	N 	0.4142	0.5858	0.8674	-0.15
Mof_N 	N 	0.4072	0.5928	0.1235	-0.158
Mof_N 	N 	0.0858	0.9142	0.3674	-0.147
Mof_N 	N 	0.6956	0.6956	-0	-0.225
Mof_N 	N 	0.8044	0.8044	0.5	-0.178
Mof_N 	N 	0.3044	0.3044	-0	-0.194
Mof_N 	N 	0.1956	0.1956	0.5	-0.199
_end
