data_functionalizedCrystal
_audit_creation_method	'EQeq! by Chris Wilmer'
_symmetry_space_group_name_H-M	'P1'
_symmetry_Int_Tables_number	1
_symmetry_cell_setting	triclinic
loop_
_symmetry_equiv_pos_as_xyz
  x,y,z
_cell_length_a	9.6655
_cell_length_b	11.002
_cell_length_c	15.304
_cell_angle_alpha	108.95
_cell_angle_beta	95.14
_cell_angle_gamma	109.32
loop_
_atom_site_label
_atom_site_type_symbol
_atom_site_fract_x
_atom_site_fract_y
_atom_site_fract_z
_atom_site_charge
Mof_U 	U 	0.8867	0.18904	0.11375	0.027
Mof_U 	U 	0.14972	0.66407	0.49976	-0.001
Mof_O 	O 	0.8256	0.3857	0.2053	-0.186
Mof_O 	O 	0.9393	0.4076	0.0892	-0.18
Mof_C 	C 	0.8836	0.4583	0.1576	0.269
Mof_C 	C 	0.8851	0.6006	0.1832	-0.039
Mof_C 	C 	0.9087	0.6668	0.119	-0.01
Mof_H 	H 	0.9244	0.6215	0.0602	0.081
Mof_C 	C 	0.9091	0.7981	0.142	-0.035
Mof_C 	C 	0.887	0.8652	0.23	-0.011
Mof_H 	H 	0.8831	0.9528	0.2448	0.075
Mof_C 	C 	0.871	0.8045	0.2954	-0.04
Mof_H 	H 	0.8644	0.8535	0.3562	0.076
Mof_C 	C 	0.8632	0.667	0.2699	-0.001
Mof_H 	H 	0.8436	0.6218	0.3119	0.067
Mof_C 	C 	0.9305	0.8689	0.0734	0.284
Mof_O 	O 	0.904	0.9753	0.0884	-0.173
Mof_O 	O 	0.9726	0.8177	0.0005	-0.161
Mof_O 	O 	0.9764	0.442	0.4066	-0.479
Mof_H 	H 	3.00927e-17	0.42	0.354	0.285
Mof_H 	H 	0.896	0.46	0.403	0.308
Mof_O 	O 	0.176	0.6302	0.3362	-0.219
Mof_O 	O 	0.3253	0.8283	0.4452	-0.2
Mof_C 	C 	0.6785	0.0796	0.2729	0.304
Mof_C 	C 	0.5515	0.9465	0.2462	-0.068
Mof_C 	C 	0.4805	0.9095	0.3139	0.01
Mof_H 	H 	0.5158	0.9683	0.3774	0.075
Mof_C 	C 	0.3579	0.7861	0.2877	-0.061
Mof_C 	C 	0.2999	0.7018	0.1923	0.002
Mof_H 	H 	0.2158	0.6198	0.1744	0.056
Mof_C 	C 	0.367	0.7397	0.1243	-0.058
Mof_H 	H 	0.3286	0.6827	0.0606	0.074
Mof_C 	C 	0.4923	0.8637	0.151	0.005
Mof_H 	H 	0.536	0.8906	0.1051	0.064
Mof_C 	C 	0.2812	0.7478	0.3602	0.29
Mof_O 	O 	0.7463	0.1128	0.2132	-0.185
Mof_O 	O 	0.724	0.157	0.3555	-0.194
Mof_U 	U 	0.1133	0.81096	0.88625	0.004
Mof_U 	U 	0.85028	0.33593	0.50024	0.02
Mof_O 	O 	0.1744	0.6143	0.7947	-0.198
Mof_O 	O 	0.0607	0.5924	0.9108	-0.208
Mof_C 	C 	0.1164	0.5417	0.8424	0.271
Mof_C 	C 	0.1149	0.3994	0.8168	-0.059
Mof_C 	C 	0.0913	0.3332	0.881	-0.002
Mof_H 	H 	0.0756	0.3785	0.9398	0.066
Mof_C 	C 	0.0909	0.2019	0.858	-0.054
Mof_C 	C 	0.113	0.1348	0.77	-0.005
Mof_H 	H 	0.1169	0.0472	0.7552	0.068
Mof_C 	C 	0.129	0.1955	0.7046	-0.056
Mof_H 	H 	0.1356	0.1465	0.6438	0.07
Mof_C 	C 	0.1368	0.333	0.7301	0.003
Mof_H 	H 	0.1564	0.3782	0.6881	0.054
Mof_C 	C 	0.0695	0.1311	0.9266	0.289
Mof_O 	O 	0.096	0.0247	0.9116	-0.186
Mof_O 	O 	0.0274	0.1823	0.9995	-0.192
Mof_O 	O 	0.0236	0.558	0.5934	-0.577
Mof_H 	H 	4.01236e-17	0.58	0.646	0.339
Mof_H 	H 	0.104	0.54	0.597	0.326
Mof_O 	O 	0.824	0.3698	0.6638	-0.191
Mof_O 	O 	0.6747	0.1717	0.5548	-0.19
Mof_C 	C 	0.3215	0.9204	0.7271	0.29
Mof_C 	C 	0.4485	0.0535	0.7538	-0.045
Mof_C 	C 	0.5195	0.0905	0.6861	-0.004
Mof_H 	H 	0.4842	0.0317	0.6226	0.083
Mof_C 	C 	0.6421	0.2139	0.7123	-0.04
Mof_C 	C 	0.7001	0.2982	0.8077	-0.01
Mof_H 	H 	0.7842	0.3802	0.8256	0.079
Mof_C 	C 	0.633	0.2603	0.8757	-0.035
Mof_H 	H 	0.6714	0.3173	0.9394	0.075
Mof_C 	C 	0.5077	0.1363	0.849	-0.008
Mof_H 	H 	0.464	0.1094	0.8949	0.074
Mof_C 	C 	0.7188	0.2522	0.6398	0.285
Mof_O 	O 	0.2537	0.8872	0.7868	-0.189
Mof_O 	O 	0.276	0.843	0.6445	-0.198
_end
