data_functionalizedCrystal
_audit_creation_method	'EQeq! by Chris Wilmer'
_symmetry_space_group_name_H-M	'P1'
_symmetry_Int_Tables_number	1
_symmetry_cell_setting	triclinic
loop_
_symmetry_equiv_pos_as_xyz
  x,y,z
_cell_length_a	33.6474
_cell_length_b	13.9237
_cell_length_c	23.3437
_cell_angle_alpha	90
_cell_angle_beta	112.495
_cell_angle_gamma	90
loop_
_atom_site_label
_atom_site_type_symbol
_atom_site_fract_x
_atom_site_fract_y
_atom_site_fract_z
_atom_site_charge
Mof_Ag	Ag	0.154	0.13611	0.29129	0.571
Mof_N 	N 	0.21781	0.1516	0.37218	-0.206
Mof_C 	C 	0.24861	0.1502	0.41503	0.091
Mof_C 	C 	0.28719	0.1448	0.46933	-0.062
Mof_C 	C 	0.30777	0.0585	0.48719	0.008
Mof_C 	C 	0.30454	0.2288	0.50359	0.005
Mof_C 	C 	0.34603	0.0514	0.53993	-0.129
Mof_H 	H 	0.2962	0.0038	0.464	0.02
Mof_H 	H 	0.291	0.2877	0.4909	0.026
Mof_C 	C 	0.34188	0.2229	0.55611	-0.123
Mof_C 	C 	0.36346	0.1351	0.57456	0.095
Mof_H 	H 	0.3597	0.9925	0.5519	0.072
Mof_H 	H 	0.3528	0.2778	0.5795	0.06
Mof_C 	C 	0.40529	0.1326	0.62837	-0.147
Mof_C 	C 	0.4403	0.093	0.61987	0.091
Mof_C 	C 	0.40549	0.1715	0.68477	0.091
Mof_C 	C 	0.44235	0.0546	0.5639	-0.096
Mof_N 	N 	0.4812	0.0795	0.66832	-0.289
Mof_C 	C 	0.36966	0.1825	0.70276	-0.135
Mof_N 	N 	0.44217	0.20134	0.73319	-0.317
Mof_C 	C 	0.4835	0.0226	0.57783	-0.052
Mof_H 	H 	0.4199	0.0521	0.5253	0.062
Mof_C 	C 	0.50572	0.0384	0.64226	0.031
Mof_H 	H 	0.3411	0.1683	0.6788	0.057
Mof_C 	C 	0.38558	0.2182	0.76258	-0.098
Mof_C 	C 	0.43029	0.2309	0.77969	0.004
Mof_H 	H 	0.4946	0.9958	0.5506	0.041
Mof_H 	H 	0.5344	0.0218	0.6639	-0.007
Mof_H 	H 	0.3699	0.2314	0.7869	0.029
Mof_C 	C 	0.37893	0.5064	0.68207	-0.126
Mof_C 	C 	0.46224	0.2763	0.8337	-0.007
Mof_C 	C 	0.38125	0.4805	0.62582	-0.087
Mof_H 	H 	0.356	0.5365	0.6876	0.041
Mof_C 	C 	0.41825	0.4779	0.72912	0.014
Mof_C 	C 	0.4637	0.2825	0.89528	-0.03
Mof_N 	N 	0.49673	0.31864	0.82857	-0.304
Mof_C 	C 	0.42235	0.437	0.64047	0.08
Mof_H 	H 	0.3602	0.4897	0.5865	0.052
Mof_H 	H 	0.4252	0.4867	0.7714	-0.013
Mof_N 	N 	0.44408	0.4367	0.70462	-0.292
Mof_H 	H 	0.4431	0.2601	0.9095	0.034
Mof_C 	C 	0.50121	0.3277	0.92934	-0.108
Mof_C 	C 	0.52185	0.3536	0.88826	0.093
Mof_C 	C 	0.43965	0.4046	0.59746	-0.145
Mof_H 	H 	0.5116	0.3396	0.9717	0.069
Mof_C 	C 	0.41617	0.4329	0.53187	0.108
Mof_C 	C 	0.41085	0.5302	0.51731	-0.136
Mof_C 	C 	0.40022	0.366	0.48446	-0.139
Mof_H 	H 	0.4206	0.5748	0.5494	0.075
Mof_C 	C 	0.39173	0.5633	0.45716	0.014
Mof_C 	C 	0.37966	0.3974	0.42337	0.014
Mof_H 	H 	0.4032	0.3007	0.4933	0.08
Mof_H 	H 	0.3893	0.6287	0.4484	0.019
Mof_C 	C 	0.37619	0.4953	0.41005	-0.062
Mof_H 	H 	0.3683	0.3529	0.3915	0.02
Mof_C 	C 	0.35823	0.5284	0.34729	0.079
Mof_Ag	Ag	0.654	0.63611	0.29129	0.571
Mof_N 	N 	0.71781	0.6516	0.37218	-0.206
Mof_C 	C 	0.74861	0.6502	0.41503	0.092
Mof_C 	C 	0.78719	0.6448	0.46933	-0.064
Mof_C 	C 	0.80777	0.5585	0.48719	0.01
Mof_C 	C 	0.80454	0.7288	0.50359	0.007
Mof_C 	C 	0.84603	0.5514	0.53993	-0.132
Mof_H 	H 	0.7962	0.5038	0.464	0.02
Mof_H 	H 	0.791	0.7877	0.4909	0.025
Mof_C 	C 	0.84188	0.7229	0.55611	-0.125
Mof_C 	C 	0.86346	0.6351	0.57456	0.099
Mof_H 	H 	0.8597	0.4925	0.5519	0.074
Mof_H 	H 	0.8528	0.7778	0.5795	0.061
Mof_C 	C 	0.90529	0.6326	0.62837	-0.151
Mof_C 	C 	0.9403	0.593	0.61987	0.109
Mof_C 	C 	0.90549	0.6715	0.68477	0.094
Mof_C 	C 	0.94235	0.5546	0.5639	-0.134
Mof_N 	N 	0.9812	0.5795	0.66832	-0.255
Mof_C 	C 	0.86966	0.6825	0.70276	-0.133
Mof_N 	N 	0.94217	0.70134	0.73319	-0.313
Mof_C 	C 	0.9835	0.5226	0.57783	0.038
Mof_H 	H 	0.9199	0.5521	0.5253	0.078
Mof_C 	C 	0.00572	0.5384	0.64226	-0.07
Mof_H 	H 	0.8411	0.6683	0.6788	0.057
Mof_C 	C 	0.88558	0.7182	0.76258	-0.103
Mof_C 	C 	0.93029	0.7309	0.77969	0.014
Mof_H 	H 	0.9946	0.4958	0.5506	0.022
Mof_H 	H 	0.0344	0.5218	0.6639	0.021
Mof_H 	H 	0.8699	0.7314	0.7869	0.031
Mof_C 	C 	0.87893	0.0064	0.68207	-0.122
Mof_C 	C 	0.96224	0.7763	0.8337	-0.021
Mof_C 	C 	0.88125	0.9805	0.62582	-0.089
Mof_H 	H 	0.856	0.0365	0.6876	0.041
Mof_C 	C 	0.91825	0.9779	0.72912	0.014
Mof_C 	C 	0.9637	0.7825	0.89528	0.035
Mof_N 	N 	0.99673	0.81864	0.82857	-0.28
Mof_C 	C 	0.92235	0.937	0.64047	0.084
Mof_H 	H 	0.8602	0.9897	0.5865	0.053
Mof_H 	H 	0.9252	0.9867	0.7714	-0.008
Mof_N 	N 	0.94408	0.9367	0.70462	-0.284
Mof_H 	H 	0.9431	0.7601	0.9095	0.016
Mof_C 	C 	0.00121	0.8277	0.92934	-0.169
Mof_C 	C 	0.02185	0.8536	0.88826	0.083
Mof_C 	C 	0.93965	0.9046	0.59746	-0.143
Mof_H 	H 	0.0116	0.8396	0.9717	0.081
Mof_C 	C 	0.91617	0.9329	0.53187	0.108
Mof_C 	C 	0.91085	0.0302	0.51731	-0.134
Mof_C 	C 	0.90022	0.866	0.48446	-0.138
Mof_H 	H 	0.9206	0.0748	0.5494	0.078
Mof_C 	C 	0.89173	0.0633	0.45716	0.015
Mof_C 	C 	0.87966	0.8974	0.42337	0.015
Mof_H 	H 	0.9032	0.8007	0.4933	0.081
Mof_H 	H 	0.8893	0.1287	0.4484	0.021
Mof_C 	C 	0.87619	0.9953	0.41005	-0.06
Mof_H 	H 	0.8683	0.8529	0.3915	0.022
Mof_C 	C 	0.85823	0.0284	0.34729	0.081
Mof_Ag	Ag	0.846	0.13611	0.20871	0.572
Mof_N 	N 	0.78219	0.1516	0.12782	-0.206
Mof_C 	C 	0.75139	0.1502	0.08497	0.09
Mof_C 	C 	0.71281	0.1448	0.03067	-0.061
Mof_C 	C 	0.69223	0.0585	0.01281	0.005
Mof_C 	C 	0.69546	0.2288	0.99641	0.003
Mof_C 	C 	0.65397	0.0514	0.96007	-0.125
Mof_H 	H 	0.7038	0.0038	0.036	0.021
Mof_H 	H 	0.709	0.2877	0.0091	0.027
Mof_C 	C 	0.65812	0.2229	0.94389	-0.121
Mof_C 	C 	0.63654	0.1351	0.92544	0.093
Mof_H 	H 	0.6403	0.9925	0.9481	0.07
Mof_H 	H 	0.6472	0.2778	0.9205	0.06
Mof_C 	C 	0.59471	0.1326	0.87163	-0.146
Mof_C 	C 	0.5597	0.093	0.88013	0.092
Mof_C 	C 	0.59451	0.1715	0.81523	0.091
Mof_C 	C 	0.55765	0.0546	0.9361	-0.097
Mof_N 	N 	0.5188	0.0795	0.83168	-0.289
Mof_C 	C 	0.63034	0.1825	0.79724	-0.135
Mof_N 	N 	0.55783	0.20134	0.76681	-0.317
Mof_C 	C 	0.5165	0.0226	0.92217	-0.05
Mof_H 	H 	0.5801	0.0521	0.9747	0.063
Mof_C 	C 	0.49428	0.0384	0.85774	0.03
Mof_H 	H 	0.6589	0.1683	0.8212	0.057
Mof_C 	C 	0.61442	0.2182	0.73742	-0.098
Mof_C 	C 	0.56971	0.2309	0.72031	0.004
Mof_H 	H 	0.5054	0.9958	0.9494	0.04
Mof_H 	H 	0.4656	0.0218	0.8361	-0.006
Mof_H 	H 	0.6301	0.2314	0.7131	0.029
Mof_C 	C 	0.62107	0.5064	0.81793	-0.126
Mof_C 	C 	0.53776	0.2763	0.6663	-0.007
Mof_C 	C 	0.61875	0.4805	0.87418	-0.087
Mof_H 	H 	0.644	0.5365	0.8124	0.041
Mof_C 	C 	0.58175	0.4779	0.77088	0.014
Mof_C 	C 	0.5363	0.2825	0.60472	-0.03
Mof_N 	N 	0.50327	0.31864	0.67143	-0.304
Mof_C 	C 	0.57765	0.437	0.85953	0.08
Mof_H 	H 	0.6398	0.4897	0.9135	0.052
Mof_H 	H 	0.5748	0.4867	0.7286	-0.013
Mof_N 	N 	0.55592	0.4367	0.79538	-0.292
Mof_H 	H 	0.5569	0.2601	0.5905	0.034
Mof_C 	C 	0.49879	0.3277	0.57066	-0.108
Mof_C 	C 	0.47815	0.3536	0.61174	0.093
Mof_C 	C 	0.56035	0.4046	0.90254	-0.145
Mof_H 	H 	0.4884	0.3396	0.5283	0.069
Mof_C 	C 	0.58383	0.4329	0.96813	0.108
Mof_C 	C 	0.58915	0.5302	0.98269	-0.137
Mof_C 	C 	0.59978	0.366	0.01554	-0.14
Mof_H 	H 	0.5794	0.5748	0.9506	0.075
Mof_C 	C 	0.60827	0.5633	0.04284	0.015
Mof_C 	C 	0.62034	0.3974	0.07663	0.014
Mof_H 	H 	0.5968	0.3007	0.0067	0.08
Mof_H 	H 	0.6107	0.6287	0.0516	0.018
Mof_C 	C 	0.62381	0.4953	0.08995	-0.062
Mof_H 	H 	0.6317	0.3529	0.1085	0.02
Mof_C 	C 	0.64177	0.5284	0.15271	0.08
Mof_Ag	Ag	0.346	0.63611	0.20871	0.571
Mof_N 	N 	0.28219	0.6516	0.12782	-0.206
Mof_C 	C 	0.25139	0.6502	0.08497	0.089
Mof_C 	C 	0.21281	0.6448	0.03067	-0.058
Mof_C 	C 	0.19223	0.5585	0.01281	0.005
Mof_C 	C 	0.19546	0.7288	0.99641	-0.002
Mof_C 	C 	0.15397	0.5514	0.96007	-0.126
Mof_H 	H 	0.2038	0.5038	0.036	0.021
Mof_H 	H 	0.209	0.7877	0.0091	0.029
Mof_C 	C 	0.15812	0.7229	0.94389	-0.118
Mof_C 	C 	0.13654	0.6351	0.92544	0.09
Mof_H 	H 	0.1403	0.4925	0.9481	0.069
Mof_H 	H 	0.1472	0.7778	0.9205	0.058
Mof_C 	C 	0.09471	0.6326	0.87163	-0.141
Mof_C 	C 	0.0597	0.593	0.88013	0.075
Mof_C 	C 	0.09451	0.6715	0.81523	0.088
Mof_C 	C 	0.05765	0.5546	0.9361	-0.057
Mof_N 	N 	0.0188	0.5795	0.83168	-0.32
Mof_C 	C 	0.13034	0.6825	0.79724	-0.136
Mof_N 	N 	0.05783	0.70134	0.76681	-0.318
Mof_C 	C 	0.0165	0.5226	0.92217	-0.141
Mof_H 	H 	0.0801	0.5521	0.9747	0.046
Mof_C 	C 	0.99428	0.5384	0.85774	0.131
Mof_H 	H 	0.1589	0.6683	0.8212	0.057
Mof_C 	C 	0.11442	0.7182	0.73742	-0.094
Mof_C 	C 	0.06971	0.7309	0.72031	-0.005
Mof_H 	H 	0.0054	0.4958	0.9494	0.061
Mof_H 	H 	0.9656	0.5218	0.8361	-0.034
Mof_H 	H 	0.1301	0.7314	0.7131	0.026
Mof_C 	C 	0.12107	0.0064	0.81793	-0.125
Mof_C 	C 	0.03776	0.7763	0.6663	0.008
Mof_C 	C 	0.11875	0.9805	0.87418	-0.087
Mof_H 	H 	0.144	0.0365	0.8124	0.04
Mof_C 	C 	0.08175	0.9779	0.77088	0.012
Mof_C 	C 	0.0363	0.7825	0.60472	-0.098
Mof_N 	N 	0.00327	0.81864	0.67143	-0.325
Mof_C 	C 	0.07765	0.937	0.85953	0.076
Mof_H 	H 	0.1398	0.9897	0.9135	0.051
Mof_H 	H 	0.0748	0.9867	0.7286	-0.016
Mof_N 	N 	0.05592	0.9367	0.79538	-0.295
Mof_H 	H 	0.0569	0.7601	0.5905	0.052
Mof_C 	C 	0.99879	0.8277	0.57066	-0.045
Mof_C 	C 	0.97815	0.8536	0.61174	0.102
Mof_C 	C 	0.06035	0.9046	0.90254	-0.144
Mof_H 	H 	0.9884	0.8396	0.5283	0.056
Mof_C 	C 	0.08383	0.9329	0.96813	0.099
Mof_C 	C 	0.08915	0.0302	0.98269	-0.13
Mof_C 	C 	0.09978	0.866	0.01554	-0.133
Mof_H 	H 	0.0794	0.0748	0.9506	0.069
Mof_C 	C 	0.10827	0.0633	0.04284	0.005
Mof_C 	C 	0.12034	0.8974	0.07663	0.007
Mof_H 	H 	0.0968	0.8007	0.0067	0.077
Mof_H 	H 	0.1107	0.1287	0.0516	0.019
Mof_C 	C 	0.12381	0.9953	0.08995	-0.056
Mof_H 	H 	0.1317	0.8529	0.1085	0.022
Mof_C 	C 	0.14177	0.0284	0.15271	0.075
Mof_N 	N 	0.65465	0.5597	0.20252	-0.196
Mof_N 	N 	0.15465	0.0597	0.20252	-0.196
Mof_N 	N 	0.34535	0.5597	0.29748	-0.196
Mof_N 	N 	0.84535	0.0597	0.29748	-0.196
Mof_Zn	Zn	0.5	0.14412	0.75	1.161
Mof_Zn	Zn	0.5	0.37086	0.75	1.157
Mof_Zn	Zn	2.25026e-17	0.64412	0.75	1.151
Mof_Zn	Zn	2.25026e-17	0.87086	0.75	1.147
Mof_N 	N 	0.34535	0.4403	0.79748	-0.196
Mof_N 	N 	0.84535	0.9403	0.79748	-0.196
Mof_N 	N 	0.65465	0.4403	0.70252	-0.196
Mof_N 	N 	0.15465	0.9403	0.70252	-0.196
Mof_Ag	Ag	0.846	0.86389	0.70871	0.572
Mof_N 	N 	0.78219	0.8484	0.62782	-0.206
Mof_C 	C 	0.75139	0.8498	0.58497	0.091
Mof_C 	C 	0.71281	0.8552	0.53067	-0.062
Mof_C 	C 	0.69223	0.9415	0.51281	0.008
Mof_C 	C 	0.69546	0.7712	0.49641	0.005
Mof_C 	C 	0.65397	0.9486	0.46007	-0.129
Mof_H 	H 	0.7038	0.9962	0.536	0.02
Mof_H 	H 	0.709	0.7123	0.5091	0.026
Mof_C 	C 	0.65812	0.7771	0.44389	-0.123
Mof_C 	C 	0.63654	0.8649	0.42544	0.095
Mof_H 	H 	0.6403	0.0075	0.4481	0.072
Mof_H 	H 	0.6472	0.7222	0.4205	0.06
Mof_C 	C 	0.59471	0.8674	0.37163	-0.147
Mof_C 	C 	0.5597	0.907	0.38013	0.091
Mof_C 	C 	0.59451	0.8285	0.31523	0.091
Mof_C 	C 	0.55765	0.9454	0.4361	-0.096
Mof_N 	N 	0.5188	0.9205	0.33168	-0.289
Mof_C 	C 	0.63034	0.8175	0.29724	-0.135
Mof_N 	N 	0.55783	0.79866	0.26681	-0.317
Mof_C 	C 	0.5165	0.9774	0.42217	-0.052
Mof_H 	H 	0.5801	0.9479	0.4747	0.062
Mof_C 	C 	0.49428	0.9616	0.35774	0.031
Mof_H 	H 	0.6589	0.8317	0.3212	0.057
Mof_C 	C 	0.61442	0.7818	0.23742	-0.098
Mof_C 	C 	0.56971	0.7691	0.22031	0.004
Mof_H 	H 	0.5054	0.0042	0.4494	0.041
Mof_H 	H 	0.4656	0.9782	0.3361	-0.007
Mof_H 	H 	0.6301	0.7686	0.2131	0.029
Mof_C 	C 	0.62107	0.4936	0.31793	-0.126
Mof_C 	C 	0.53776	0.7237	0.1663	-0.007
Mof_C 	C 	0.61875	0.5195	0.37418	-0.087
Mof_H 	H 	0.644	0.4635	0.3124	0.041
Mof_C 	C 	0.58175	0.5221	0.27088	0.014
Mof_C 	C 	0.5363	0.7175	0.10472	-0.03
Mof_N 	N 	0.50327	0.68136	0.17143	-0.304
Mof_C 	C 	0.57765	0.563	0.35953	0.08
Mof_H 	H 	0.6398	0.5103	0.4135	0.052
Mof_H 	H 	0.5748	0.5133	0.2286	-0.013
Mof_N 	N 	0.55592	0.5633	0.29538	-0.292
Mof_H 	H 	0.5569	0.7399	0.0905	0.034
Mof_C 	C 	0.49879	0.6723	0.07066	-0.108
Mof_C 	C 	0.47815	0.6464	0.11174	0.093
Mof_C 	C 	0.56035	0.5954	0.40254	-0.145
Mof_H 	H 	0.4884	0.6604	0.0283	0.069
Mof_C 	C 	0.58383	0.5671	0.46813	0.108
Mof_C 	C 	0.58915	0.4698	0.48269	-0.136
Mof_C 	C 	0.59978	0.634	0.51554	-0.139
Mof_H 	H 	0.5794	0.4252	0.4506	0.075
Mof_C 	C 	0.60827	0.4367	0.54284	0.014
Mof_C 	C 	0.62034	0.6026	0.57663	0.014
Mof_H 	H 	0.5968	0.6993	0.5067	0.08
Mof_H 	H 	0.6107	0.3713	0.5516	0.019
Mof_C 	C 	0.62381	0.5047	0.58995	-0.062
Mof_H 	H 	0.6317	0.6471	0.6085	0.02
Mof_C 	C 	0.64177	0.4716	0.65271	0.08
Mof_Ag	Ag	0.346	0.36389	0.70871	0.571
Mof_N 	N 	0.28219	0.3484	0.62782	-0.206
Mof_C 	C 	0.25139	0.3498	0.58497	0.09
Mof_C 	C 	0.21281	0.3552	0.53067	-0.061
Mof_C 	C 	0.19223	0.4415	0.51281	0.006
Mof_C 	C 	0.19546	0.2712	0.49641	0.003
Mof_C 	C 	0.15397	0.4486	0.46007	-0.126
Mof_H 	H 	0.2038	0.4962	0.536	0.021
Mof_H 	H 	0.209	0.2123	0.5091	0.027
Mof_C 	C 	0.15812	0.2771	0.44389	-0.12
Mof_C 	C 	0.13654	0.3649	0.42544	0.091
Mof_H 	H 	0.1403	0.5075	0.4481	0.069
Mof_H 	H 	0.1472	0.2222	0.4205	0.059
Mof_C 	C 	0.09471	0.3674	0.37163	-0.141
Mof_C 	C 	0.0597	0.407	0.38013	0.075
Mof_C 	C 	0.09451	0.3285	0.31523	0.089
Mof_C 	C 	0.05765	0.4454	0.4361	-0.057
Mof_N 	N 	0.0188	0.4205	0.33168	-0.32
Mof_C 	C 	0.13034	0.3175	0.29724	-0.136
Mof_N 	N 	0.05783	0.29866	0.26681	-0.318
Mof_C 	C 	0.0165	0.4774	0.42217	-0.142
Mof_H 	H 	0.0801	0.4479	0.4747	0.046
Mof_C 	C 	0.99428	0.4616	0.35774	0.133
Mof_H 	H 	0.1589	0.3317	0.3212	0.057
Mof_C 	C 	0.11442	0.2818	0.23742	-0.094
Mof_C 	C 	0.06971	0.2691	0.22031	-0.005
Mof_H 	H 	0.0054	0.5042	0.4494	0.061
Mof_H 	H 	0.9656	0.4782	0.3361	-0.035
Mof_H 	H 	0.1301	0.2686	0.2131	0.026
Mof_C 	C 	0.12107	0.9936	0.31793	-0.126
Mof_C 	C 	0.03776	0.2237	0.1663	0.008
Mof_C 	C 	0.11875	0.0195	0.37418	-0.087
Mof_H 	H 	0.144	0.9635	0.3124	0.04
Mof_C 	C 	0.08175	0.0221	0.27088	0.013
Mof_C 	C 	0.0363	0.2175	0.10472	-0.098
Mof_N 	N 	0.00327	0.18136	0.17143	-0.325
Mof_C 	C 	0.07765	0.063	0.35953	0.076
Mof_H 	H 	0.1398	0.0103	0.4135	0.052
Mof_H 	H 	0.0748	0.0133	0.2286	-0.016
Mof_N 	N 	0.05592	0.0633	0.29538	-0.296
Mof_H 	H 	0.0569	0.2399	0.0905	0.052
Mof_C 	C 	0.99879	0.1723	0.07066	-0.045
Mof_C 	C 	0.97815	0.1464	0.11174	0.102
Mof_C 	C 	0.06035	0.0954	0.40254	-0.146
Mof_H 	H 	0.9884	0.1604	0.0283	0.056
Mof_C 	C 	0.08383	0.0671	0.46813	0.106
Mof_C 	C 	0.08915	0.9698	0.48269	-0.136
Mof_C 	C 	0.09978	0.134	0.51554	-0.14
Mof_H 	H 	0.0794	0.9252	0.4506	0.071
Mof_C 	C 	0.10827	0.9367	0.54284	0.011
Mof_C 	C 	0.12034	0.1026	0.57663	0.012
Mof_H 	H 	0.0968	0.1993	0.5067	0.079
Mof_H 	H 	0.1107	0.8713	0.5516	0.017
Mof_C 	C 	0.12381	0.0047	0.58995	-0.061
Mof_H 	H 	0.1317	0.1471	0.6085	0.02
Mof_C 	C 	0.14177	0.9716	0.65271	0.077
Mof_Ag	Ag	0.154	0.86389	0.79129	0.57
Mof_N 	N 	0.21781	0.8484	0.87218	-0.206
Mof_C 	C 	0.24861	0.8498	0.91503	0.091
Mof_C 	C 	0.28719	0.8552	0.96933	-0.063
Mof_C 	C 	0.30777	0.9415	0.98719	0.005
Mof_C 	C 	0.30454	0.7712	0.00359	0.008
Mof_C 	C 	0.34603	0.9486	0.03993	-0.125
Mof_H 	H 	0.2962	0.9962	0.964	0.021
Mof_H 	H 	0.291	0.7123	0.9909	0.024
Mof_C 	C 	0.34188	0.7771	0.05611	-0.124
Mof_C 	C 	0.36346	0.8649	0.07456	0.094
Mof_H 	H 	0.3597	0.0075	0.0519	0.07
Mof_H 	H 	0.3528	0.7222	0.0795	0.061
Mof_C 	C 	0.40529	0.8674	0.12837	-0.146
Mof_C 	C 	0.4403	0.907	0.11987	0.092
Mof_C 	C 	0.40549	0.8285	0.18477	0.091
Mof_C 	C 	0.44235	0.9454	0.0639	-0.097
Mof_N 	N 	0.4812	0.9205	0.16832	-0.289
Mof_C 	C 	0.36966	0.8175	0.20276	-0.135
Mof_N 	N 	0.44217	0.79866	0.23319	-0.317
Mof_C 	C 	0.4835	0.9774	0.07783	-0.049
Mof_H 	H 	0.4199	0.9479	0.0253	0.063
Mof_C 	C 	0.50572	0.9616	0.14226	0.03
Mof_H 	H 	0.3411	0.8317	0.1788	0.057
Mof_C 	C 	0.38558	0.7818	0.26258	-0.098
Mof_C 	C 	0.43029	0.7691	0.27969	0.004
Mof_H 	H 	0.4946	0.0042	0.0506	0.04
Mof_H 	H 	0.5344	0.9782	0.1639	-0.006
Mof_H 	H 	0.3699	0.7686	0.2869	0.029
Mof_C 	C 	0.37893	0.4936	0.18207	-0.126
Mof_C 	C 	0.46224	0.7237	0.3337	-0.007
Mof_C 	C 	0.38125	0.5195	0.12582	-0.087
Mof_H 	H 	0.356	0.4635	0.1876	0.041
Mof_C 	C 	0.41825	0.5221	0.22912	0.014
Mof_C 	C 	0.4637	0.7175	0.39528	-0.03
Mof_N 	N 	0.49673	0.68136	0.32857	-0.304
Mof_C 	C 	0.42235	0.563	0.14047	0.08
Mof_H 	H 	0.3602	0.5103	0.0865	0.052
Mof_H 	H 	0.4252	0.5133	0.2714	-0.012
Mof_N 	N 	0.44408	0.5633	0.20462	-0.292
Mof_H 	H 	0.4431	0.7399	0.4095	0.034
Mof_C 	C 	0.50121	0.6723	0.42934	-0.108
Mof_C 	C 	0.52185	0.6464	0.38826	0.093
Mof_C 	C 	0.43965	0.5954	0.09746	-0.145
Mof_H 	H 	0.5116	0.6604	0.4717	0.069
Mof_C 	C 	0.41617	0.5671	0.03187	0.108
Mof_C 	C 	0.41085	0.4698	0.01731	-0.136
Mof_C 	C 	0.40022	0.634	0.98446	-0.141
Mof_H 	H 	0.4206	0.4252	0.0494	0.075
Mof_C 	C 	0.39173	0.4367	0.95716	0.013
Mof_C 	C 	0.37966	0.6026	0.92337	0.014
Mof_H 	H 	0.4032	0.6993	0.9933	0.08
Mof_H 	H 	0.3893	0.3713	0.9484	0.019
Mof_C 	C 	0.37619	0.5047	0.91005	-0.062
Mof_H 	H 	0.3683	0.6471	0.8915	0.02
Mof_C 	C 	0.35823	0.4716	0.84729	0.079
Mof_Ag	Ag	0.654	0.36389	0.79129	0.571
Mof_N 	N 	0.71781	0.3484	0.87218	-0.206
Mof_C 	C 	0.74861	0.3498	0.91503	0.092
Mof_C 	C 	0.78719	0.3552	0.96933	-0.064
Mof_C 	C 	0.80777	0.4415	0.98719	0.009
Mof_C 	C 	0.80454	0.2712	0.00359	0.008
Mof_C 	C 	0.84603	0.4486	0.03993	-0.13
Mof_H 	H 	0.7962	0.4962	0.964	0.02
Mof_H 	H 	0.791	0.2123	0.9909	0.025
Mof_C 	C 	0.84188	0.2771	0.05611	-0.125
Mof_C 	C 	0.86346	0.3649	0.07456	0.098
Mof_H 	H 	0.8597	0.5075	0.0519	0.074
Mof_H 	H 	0.8528	0.2222	0.0795	0.061
Mof_C 	C 	0.90529	0.3674	0.12837	-0.151
Mof_C 	C 	0.9403	0.407	0.11987	0.108
Mof_C 	C 	0.90549	0.3285	0.18477	0.094
Mof_C 	C 	0.94235	0.4454	0.0639	-0.134
Mof_N 	N 	0.9812	0.4205	0.16832	-0.255
Mof_C 	C 	0.86966	0.3175	0.20276	-0.133
Mof_N 	N 	0.94217	0.29866	0.23319	-0.313
Mof_C 	C 	0.9835	0.4774	0.07783	0.037
Mof_H 	H 	0.9199	0.4479	0.0253	0.078
Mof_C 	C 	0.00572	0.4616	0.14226	-0.069
Mof_H 	H 	0.8411	0.3317	0.1788	0.057
Mof_C 	C 	0.88558	0.2818	0.26258	-0.103
Mof_C 	C 	0.93029	0.2691	0.27969	0.014
Mof_H 	H 	0.9946	0.5042	0.0506	0.023
Mof_H 	H 	0.0344	0.4782	0.1639	0.021
Mof_H 	H 	0.8699	0.2686	0.2869	0.031
Mof_C 	C 	0.87893	0.9936	0.18207	-0.121
Mof_C 	C 	0.96224	0.2237	0.3337	-0.022
Mof_C 	C 	0.88125	0.0195	0.12582	-0.09
Mof_H 	H 	0.856	0.9635	0.1876	0.04
Mof_C 	C 	0.91825	0.0221	0.22912	0.013
Mof_C 	C 	0.9637	0.2175	0.39528	0.037
Mof_N 	N 	0.99673	0.18136	0.32857	-0.28
Mof_C 	C 	0.92235	0.063	0.14047	0.083
Mof_H 	H 	0.8602	0.0103	0.0865	0.053
Mof_H 	H 	0.9252	0.0133	0.2714	-0.007
Mof_N 	N 	0.94408	0.0633	0.20462	-0.284
Mof_H 	H 	0.9431	0.2399	0.4095	0.016
Mof_C 	C 	0.00121	0.1723	0.42934	-0.17
Mof_C 	C 	0.02185	0.1464	0.38826	0.084
Mof_C 	C 	0.93965	0.0954	0.09746	-0.141
Mof_H 	H 	0.0116	0.1604	0.4717	0.082
Mof_C 	C 	0.91617	0.0671	0.03187	0.104
Mof_C 	C 	0.91085	0.9698	0.01731	-0.125
Mof_C 	C 	0.90022	0.134	0.98446	-0.135
Mof_H 	H 	0.9206	0.9252	0.0494	0.076
Mof_C 	C 	0.89173	0.9367	0.95716	0.006
Mof_C 	C 	0.87966	0.1026	0.92337	0.011
Mof_H 	H 	0.9032	0.1993	0.9933	0.079
Mof_H 	H 	0.8893	0.8713	0.9484	0.023
Mof_C 	C 	0.87619	0.0047	0.91005	-0.055
Mof_H 	H 	0.8683	0.1471	0.8915	0.023
Mof_C 	C 	0.85823	0.9716	0.84729	0.078
Mof_Zn	Zn	0.5	0.85588	0.25	1.161
Mof_Zn	Zn	0.5	0.62914	0.25	1.157
Mof_Zn	Zn	8.99119e-34	0.35588	0.25	1.151
Mof_Zn	Zn	8.99119e-34	0.12914	0.25	1.147
_end
