data_functionalizedCrystal
_audit_creation_method	'EQeq! by Chris Wilmer'
_symmetry_space_group_name_H-M	'P1'
_symmetry_Int_Tables_number	1
_symmetry_cell_setting	triclinic
loop_
_symmetry_equiv_pos_as_xyz
  x,y,z
_cell_length_a	8.4408
_cell_length_b	9.263
_cell_length_c	13.843
_cell_angle_alpha	81.119
_cell_angle_beta	83.643
_cell_angle_gamma	72.647
loop_
_atom_site_label
_atom_site_type_symbol
_atom_site_fract_x
_atom_site_fract_y
_atom_site_fract_z
_atom_site_charge
Mof_Zn	Zn	0.74556	0.4937	0.47314	1.234
Mof_Zn	Zn	0.70629	0.08149	0.98055	1.24
Mof_Zn	Zn	0.36247	0.11199	0.37406	1.24
Mof_P 	P 	0.90455	0.56646	0.64875	0.578
Mof_P 	P 	0.41496	0.13549	0.13603	0.57
Mof_P 	P 	0.98318	0.79185	0.07714	0.567
Mof_P 	P 	0.58102	0.21723	0.52006	0.553
Mof_O 	O 	0.8134	0.4767	0.6032	-0.459
Mof_O 	O 	0.0921	0.4979	0.6354	-0.434
Mof_O 	O 	0.7103	0.2965	0.47005	-0.419
Mof_O 	O 	0.4348	0.33	0.5697	-0.462
Mof_O 	O 	0.5278	0.2016	0.06043	-0.417
Mof_O 	O 	0.833	0.9302	0.0765	-0.438
Mof_O 	O 	0.4027	0.9818	0.11617	-0.445
Mof_O 	O 	0.1399	0.8211	0.10273	-0.409
Mof_O 	O 	0.5306	0.1438	0.44218	-0.478
Mof_O 	O 	0.8493	0.7362	0.6129	-0.472
Mof_O 	O 	0.6651	0.0915	0.60147	-0.407
Mof_O 	O 	0.4699	0.1242	0.23929	-0.406
Mof_O 	O 	0.857	0.5436	0.76211	-0.519
Mof_H 	H 	0.9281	0.4717	0.7885	0.359
Mof_O 	O 	0.2317	0.2469	0.1301	-0.518
Mof_H 	H 	0.2171	0.3106	0.1677	0.345
Mof_O 	O 	0.9413	0.6669	0.1512	-0.248
Mof_O 	O 	0.0233	0.7396	0.972	-0.461
Mof_H 	H 	0.9361	0.7487	0.9475	0.304
Mof_Zn	Zn	0.25444	0.5063	0.52686	1.235
Mof_Zn	Zn	0.29371	0.91851	0.01945	1.241
Mof_Zn	Zn	0.63753	0.88801	0.62594	1.241
Mof_P 	P 	0.09545	0.43354	0.35125	0.579
Mof_P 	P 	0.58504	0.86451	0.86397	0.57
Mof_P 	P 	0.01682	0.20815	0.92286	0.567
Mof_P 	P 	0.41898	0.78277	0.47994	0.553
Mof_O 	O 	0.1866	0.5233	0.3968	-0.459
Mof_O 	O 	0.9079	0.5021	0.3646	-0.434
Mof_O 	O 	0.2897	0.7035	0.52995	-0.419
Mof_O 	O 	0.5652	0.67	0.4303	-0.462
Mof_O 	O 	0.4722	0.7984	0.93957	-0.417
Mof_O 	O 	0.167	0.0698	0.9235	-0.438
Mof_O 	O 	0.5973	0.0182	0.88383	-0.445
Mof_O 	O 	0.8601	0.1789	0.89727	-0.409
Mof_O 	O 	0.4694	0.8562	0.55782	-0.478
Mof_O 	O 	0.1507	0.2638	0.3871	-0.472
Mof_O 	O 	0.3349	0.9085	0.39853	-0.407
Mof_O 	O 	0.5301	0.8758	0.76071	-0.406
Mof_O 	O 	0.143	0.4564	0.23789	-0.519
Mof_H 	H 	0.0719	0.5283	0.2115	0.359
Mof_O 	O 	0.7683	0.7531	0.8699	-0.518
Mof_H 	H 	0.7829	0.6894	0.8323	0.345
Mof_O 	O 	0.0587	0.3331	0.8488	-0.248
Mof_O 	O 	0.9767	0.2604	0.028	-0.461
Mof_H 	H 	0.0639	0.2513	0.0525	0.304
_end
