# CIF file generated by openbabel 3.1.0, see https://openbabel.org
data_I
_chemical_name_common 'image0'
_cell_length_a 44.26
_cell_length_b 15.016
_cell_length_c 14.974
_cell_angle_alpha 90
_cell_angle_beta 94.012
_cell_angle_gamma 90
_space_group_name_H-M_alt 'P 1'
_space_group_name_Hall 'P 1'
loop_
    _symmetry_equiv_pos_as_xyz
    x,y,z
loop_
    _atom_site_label
    _atom_site_type_symbol
    _atom_site_fract_x
    _atom_site_fract_y
    _atom_site_fract_z
    _atom_site_occupancy
    Zn1      Zn       0.21687    0.25056    0.99564    1.000
    O1       O        0.22433    0.33005    0.10173    1.000
    O2       O        0.23090    0.64876    0.41842    1.000
    O3       O        0.27410    0.33068    0.10691    1.000
    O4       O        0.28066    0.64441    0.42330    1.000
    N1       N        0.17294    0.25910    0.96000    1.000
    C1       C        0.27969    0.46940    0.34790    1.000
    C2       C        0.25355    0.57170    0.24310    1.000
    C3       C        0.25347    0.53540    0.33800    1.000
    C4       C        0.25070    0.41280    0.21590    1.000
    C5       C        0.25246    0.50690    0.17920    1.000
    C6       C        0.22367    0.41160    0.27330    1.000
    C7       C        0.22532    0.47700    0.33970    1.000
    C8       C        0.20347    0.48140    0.40000    1.000
    H1       H        0.20460    0.52530    0.44570    1.000
    C9       C        0.27796    0.40300    0.28320    1.000
    C10      C        0.25390    0.61840    0.06640    1.000
    H2       H        0.25420    0.63440    0.00510    1.000
    C11      C        0.25483    0.65980    0.21940    1.000
    H3       H        0.25570    0.70460    0.26430    1.000
    C12      C        0.30232    0.46740    0.41530    1.000
    H4       H        0.30380    0.51330    0.45910    1.000
    C13      C        0.25480    0.68330    0.13080    1.000
    H5       H        0.25540    0.74440    0.11420    1.000
    C14      C        0.29852    0.33480    0.28790    1.000
    H6       H        0.29730    0.28890    0.24400    1.000
    C15      C        0.32088    0.33270    0.35560    1.000
    H7       H        0.33510    0.28520    0.35880    1.000
    C16      C        0.24957    0.35080    0.13580    1.000
    C17      C        0.25516    0.61520    0.40000    1.000
    C18      C        0.32294    0.39850    0.41900    1.000
    H8       H        0.33860    0.39670    0.46570    1.000
    C19      C        0.20007    0.35210    0.26820    1.000
    H9       H        0.19900    0.30710    0.22360    1.000
    C20      C        0.16424    0.29760    0.88170    1.000
    H10      H        0.17900    0.32870    0.85050    1.000
    C21      C        0.25261    0.53020    0.09040    1.000
    H11      H        0.25180    0.48540    0.04560    1.000
    C22      C        0.17790    0.35800    0.32810    1.000
    H12      H        0.16130    0.31790    0.32370    1.000
    C23      C        0.13534    0.29430    0.84480    1.000
    H13      H        0.13010    0.32160    0.78860    1.000
    C24      C        0.17971    0.42140    0.39380    1.000
    H14      H        0.16450    0.42430    0.43550    1.000
    C25      C        0.12253    0.21170    0.97130    1.000
    H15      H        0.10810    0.18140    0.00420    1.000
    C26      C        0.15209    0.21700    0.00370    1.000
    H16      H        0.15800    0.18970    0.05940    1.000
    C27      C        0.08344    0.24600    0.85220    1.000
    C28      C        0.05888    0.24590    0.81950    1.000
    C29      C        0.02780    0.24610    0.78170    1.000
    C30      C        0.02319    0.29330    0.69240    1.000
    C31      C        0.00674    0.29370    0.84210    1.000
    C32      C        0.11386    0.25090    0.89010    1.000
    C33      C        0.02958    0.07600    0.78460    1.000
    H17      H        0.05000    0.07640    0.80860    1.000
    C34      C        0.04485    0.33260    0.64510    1.000
    H18      H        0.06550    0.33100    0.66700    1.000
    C35      C        0.03653    0.37470    0.56540    1.000
    H19      H        0.05160    0.40300    0.53330    1.000
    C36      C        0.00704    0.37670    0.53140    1.000
    H20      H        0.00160    0.40600    0.47640    1.000
    C37      C        0.01496    0.99670    0.76740    1.000
    H21      H        0.02520    0.94200    0.77930    1.000
    C38      C        0.01474    0.33480    0.92110    1.000
    H22      H        0.03530    0.33500    0.94390    1.000
    C39      C        0.01492    0.15290    0.76740    1.000
    Zn2      Zn       0.71687    0.75056    0.99564    1.000
    O5       O        0.72433    0.83005    0.10173    1.000
    O6       O        0.73090    0.14876    0.41842    1.000
    O7       O        0.77410    0.83068    0.10691    1.000
    O8       O        0.78066    0.14441    0.42330    1.000
    N2       N        0.67294    0.75910    0.96000    1.000
    C40      C        0.77969    0.96940    0.34790    1.000
    C41      C        0.75355    0.07170    0.24310    1.000
    C42      C        0.75347    0.03540    0.33800    1.000
    C43      C        0.75070    0.91280    0.21590    1.000
    C44      C        0.75246    0.00690    0.17920    1.000
    C45      C        0.72367    0.91160    0.27330    1.000
    C46      C        0.72532    0.97700    0.33970    1.000
    C47      C        0.70347    0.98140    0.40000    1.000
    H23      H        0.70460    0.02530    0.44570    1.000
    C48      C        0.77796    0.90300    0.28320    1.000
    C49      C        0.75390    0.11840    0.06640    1.000
    H24      H        0.75420    0.13440    0.00510    1.000
    C50      C        0.75483    0.15980    0.21940    1.000
    H25      H        0.75570    0.20460    0.26430    1.000
    C51      C        0.80232    0.96740    0.41530    1.000
    H26      H        0.80380    0.01330    0.45910    1.000
    C52      C        0.75480    0.18330    0.13080    1.000
    H27      H        0.75540    0.24440    0.11420    1.000
    C53      C        0.79852    0.83480    0.28790    1.000
    H28      H        0.79730    0.78890    0.24400    1.000
    C54      C        0.82088    0.83270    0.35560    1.000
    H29      H        0.83510    0.78520    0.35880    1.000
    C55      C        0.74957    0.85080    0.13580    1.000
    C56      C        0.75516    0.11520    0.40000    1.000
    C57      C        0.82294    0.89850    0.41900    1.000
    H30      H        0.83860    0.89670    0.46570    1.000
    C58      C        0.70007    0.85210    0.26820    1.000
    H31      H        0.69900    0.80710    0.22360    1.000
    C59      C        0.66424    0.79760    0.88170    1.000
    H32      H        0.67900    0.82870    0.85050    1.000
    C60      C        0.75261    0.03020    0.09040    1.000
    H33      H        0.75180    0.98540    0.04560    1.000
    C61      C        0.67790    0.85800    0.32810    1.000
    H34      H        0.66130    0.81790    0.32370    1.000
    C62      C        0.63534    0.79430    0.84480    1.000
    H35      H        0.63010    0.82160    0.78860    1.000
    C63      C        0.67971    0.92140    0.39380    1.000
    H36      H        0.66450    0.92430    0.43550    1.000
    C64      C        0.62253    0.71170    0.97130    1.000
    H37      H        0.60810    0.68140    0.00420    1.000
    C65      C        0.65209    0.71700    0.00370    1.000
    H38      H        0.65800    0.68970    0.05940    1.000
    C66      C        0.58344    0.74600    0.85220    1.000
    C67      C        0.55888    0.74590    0.81950    1.000
    C68      C        0.52780    0.74610    0.78170    1.000
    C69      C        0.52319    0.79330    0.69240    1.000
    C70      C        0.50674    0.79370    0.84210    1.000
    C71      C        0.61386    0.75090    0.89010    1.000
    C72      C        0.52958    0.57600    0.78460    1.000
    H39      H        0.55000    0.57640    0.80860    1.000
    C73      C        0.54485    0.83260    0.64510    1.000
    H40      H        0.56550    0.83100    0.66700    1.000
    C74      C        0.53653    0.87470    0.56540    1.000
    H41      H        0.55160    0.90300    0.53330    1.000
    C75      C        0.50704    0.87670    0.53140    1.000
    H42      H        0.50160    0.90600    0.47640    1.000
    C76      C        0.51496    0.49670    0.76740    1.000
    H43      H        0.52520    0.44200    0.77930    1.000
    C77      C        0.51474    0.83480    0.92110    1.000
    H44      H        0.53530    0.83500    0.94390    1.000
    C78      C        0.51492    0.65290    0.76740    1.000
    Zn3      Zn       0.78313    0.25056    0.50436    1.000
    O9       O        0.77567    0.33005    0.39827    1.000
    O10      O        0.76910    0.64876    0.08158    1.000
    O11      O        0.72590    0.33068    0.39309    1.000
    O12      O        0.71934    0.64441    0.07670    1.000
    N3       N        0.82706    0.25910    0.54000    1.000
    C79      C        0.72031    0.46940    0.15210    1.000
    C80      C        0.74645    0.57170    0.25690    1.000
    C81      C        0.74653    0.53540    0.16200    1.000
    C82      C        0.74930    0.41280    0.28410    1.000
    C83      C        0.74754    0.50690    0.32080    1.000
    C84      C        0.77633    0.41160    0.22670    1.000
    C85      C        0.77468    0.47700    0.16030    1.000
    C86      C        0.79653    0.48140    0.10000    1.000
    H45      H        0.79540    0.52530    0.05430    1.000
    C87      C        0.72204    0.40300    0.21680    1.000
    C88      C        0.74610    0.61840    0.43360    1.000
    H46      H        0.74580    0.63440    0.49490    1.000
    C89      C        0.74517    0.65980    0.28060    1.000
    H47      H        0.74430    0.70460    0.23570    1.000
    C90      C        0.69768    0.46740    0.08470    1.000
    H48      H        0.69620    0.51330    0.04090    1.000
    C91      C        0.74520    0.68330    0.36920    1.000
    H49      H        0.74460    0.74440    0.38580    1.000
    C92      C        0.70148    0.33480    0.21210    1.000
    H50      H        0.70270    0.28890    0.25600    1.000
    C93      C        0.67912    0.33270    0.14440    1.000
    H51      H        0.66490    0.28520    0.14120    1.000
    C94      C        0.75043    0.35080    0.36420    1.000
    C95      C        0.74484    0.61520    0.10000    1.000
    C96      C        0.67706    0.39850    0.08100    1.000
    H52      H        0.66140    0.39670    0.03430    1.000
    C97      C        0.79993    0.35210    0.23180    1.000
    H53      H        0.80100    0.30710    0.27640    1.000
    C98      C        0.83576    0.29760    0.61830    1.000
    H54      H        0.82100    0.32870    0.64950    1.000
    C99      C        0.74739    0.53020    0.40960    1.000
    H55      H        0.74820    0.48540    0.45440    1.000
    C100     C        0.82210    0.35800    0.17190    1.000
    H56      H        0.83870    0.31790    0.17630    1.000
    C101     C        0.86466    0.29430    0.65520    1.000
    H57      H        0.86990    0.32160    0.71140    1.000
    C102     C        0.82029    0.42140    0.10620    1.000
    H58      H        0.83550    0.42430    0.06450    1.000
    C103     C        0.87747    0.21170    0.52870    1.000
    H59      H        0.89190    0.18140    0.49580    1.000
    C104     C        0.84791    0.21700    0.49630    1.000
    H60      H        0.84200    0.18970    0.44060    1.000
    C105     C        0.91656    0.24600    0.64780    1.000
    C106     C        0.94112    0.24590    0.68050    1.000
    C107     C        0.97220    0.24610    0.71830    1.000
    C108     C        0.97681    0.29330    0.80760    1.000
    C109     C        0.99326    0.29370    0.65790    1.000
    C110     C        0.88614    0.25090    0.60990    1.000
    C111     C        0.97042    0.07600    0.71540    1.000
    H61      H        0.95000    0.07640    0.69140    1.000
    C112     C        0.95515    0.33260    0.85490    1.000
    H62      H        0.93450    0.33100    0.83300    1.000
    C113     C        0.96347    0.37470    0.93460    1.000
    H63      H        0.94840    0.40300    0.96670    1.000
    C114     C        0.99296    0.37670    0.96860    1.000
    H64      H        0.99840    0.40600    0.02360    1.000
    C115     C        0.98504    0.99670    0.73260    1.000
    H65      H        0.97480    0.94200    0.72070    1.000
    C116     C        0.98526    0.33480    0.57890    1.000
    H66      H        0.96470    0.33500    0.55610    1.000
    C117     C        0.98508    0.15290    0.73260    1.000
    Zn4      Zn       0.28313    0.75056    0.50436    1.000
    O13      O        0.27567    0.83005    0.39827    1.000
    O14      O        0.26910    0.14876    0.08158    1.000
    O15      O        0.22590    0.83068    0.39309    1.000
    O16      O        0.21934    0.14441    0.07670    1.000
    N4       N        0.32706    0.75910    0.54000    1.000
    C118     C        0.22031    0.96940    0.15210    1.000
    C119     C        0.24645    0.07170    0.25690    1.000
    C120     C        0.24653    0.03540    0.16200    1.000
    C121     C        0.24930    0.91280    0.28410    1.000
    C122     C        0.24754    0.00690    0.32080    1.000
    C123     C        0.27633    0.91160    0.22670    1.000
    C124     C        0.27468    0.97700    0.16030    1.000
    C125     C        0.29653    0.98140    0.10000    1.000
    H67      H        0.29540    0.02530    0.05430    1.000
    C126     C        0.22204    0.90300    0.21680    1.000
    C127     C        0.24610    0.11840    0.43360    1.000
    H68      H        0.24580    0.13440    0.49490    1.000
    C128     C        0.24517    0.15980    0.28060    1.000
    H69      H        0.24430    0.20460    0.23570    1.000
    C129     C        0.19768    0.96740    0.08470    1.000
    H70      H        0.19620    0.01330    0.04090    1.000
    C130     C        0.24520    0.18330    0.36920    1.000
    H71      H        0.24460    0.24440    0.38580    1.000
    C131     C        0.20148    0.83480    0.21210    1.000
    H72      H        0.20270    0.78890    0.25600    1.000
    C132     C        0.17912    0.83270    0.14440    1.000
    H73      H        0.16490    0.78520    0.14120    1.000
    C133     C        0.25043    0.85080    0.36420    1.000
    C134     C        0.24484    0.11520    0.10000    1.000
    C135     C        0.17706    0.89850    0.08100    1.000
    H74      H        0.16140    0.89670    0.03430    1.000
    C136     C        0.29993    0.85210    0.23180    1.000
    H75      H        0.30100    0.80710    0.27640    1.000
    C137     C        0.33576    0.79760    0.61830    1.000
    H76      H        0.32100    0.82870    0.64950    1.000
    C138     C        0.24739    0.03020    0.40960    1.000
    H77      H        0.24820    0.98540    0.45440    1.000
    C139     C        0.32210    0.85800    0.17190    1.000
    H78      H        0.33870    0.81790    0.17630    1.000
    C140     C        0.36466    0.79430    0.65520    1.000
    H79      H        0.36990    0.82160    0.71140    1.000
    C141     C        0.32029    0.92140    0.10620    1.000
    H80      H        0.33550    0.92430    0.06450    1.000
    C142     C        0.37747    0.71170    0.52870    1.000
    H81      H        0.39190    0.68140    0.49580    1.000
    C143     C        0.34791    0.71700    0.49630    1.000
    H82      H        0.34200    0.68970    0.44060    1.000
    C144     C        0.41656    0.74600    0.64780    1.000
    C145     C        0.44112    0.74590    0.68050    1.000
    C146     C        0.47220    0.74610    0.71830    1.000
    C147     C        0.47681    0.79330    0.80760    1.000
    C148     C        0.49326    0.79370    0.65790    1.000
    C149     C        0.38614    0.75090    0.60990    1.000
    C150     C        0.47042    0.57600    0.71540    1.000
    H83      H        0.45000    0.57640    0.69140    1.000
    C151     C        0.45515    0.83260    0.85490    1.000
    H84      H        0.43450    0.83100    0.83300    1.000
    C152     C        0.46347    0.87470    0.93460    1.000
    H85      H        0.44840    0.90300    0.96670    1.000
    C153     C        0.49296    0.87670    0.96860    1.000
    H86      H        0.49840    0.90600    0.02360    1.000
    C154     C        0.48504    0.49670    0.73260    1.000
    H87      H        0.47480    0.44200    0.72070    1.000
    C155     C        0.48526    0.83480    0.57890    1.000
    H88      H        0.46470    0.83500    0.55610    1.000
    C156     C        0.48508    0.65290    0.73260    1.000
    Zn5      Zn       0.78313    0.74944    0.00436    1.000
    O17      O        0.77567    0.66995    0.89827    1.000
    O18      O        0.76910    0.35124    0.58158    1.000
    O19      O        0.72590    0.66932    0.89309    1.000
    O20      O        0.71934    0.35559    0.57670    1.000
    N5       N        0.82706    0.74090    0.04000    1.000
    C157     C        0.72031    0.53060    0.65210    1.000
    C158     C        0.74645    0.42830    0.75690    1.000
    C159     C        0.74653    0.46460    0.66200    1.000
    C160     C        0.74930    0.58720    0.78410    1.000
    C161     C        0.74754    0.49310    0.82080    1.000
    C162     C        0.77633    0.58840    0.72670    1.000
    C163     C        0.77468    0.52300    0.66030    1.000
    C164     C        0.79653    0.51860    0.60000    1.000
    H89      H        0.79540    0.47470    0.55430    1.000
    C165     C        0.72204    0.59700    0.71680    1.000
    C166     C        0.74610    0.38160    0.93360    1.000
    H90      H        0.74580    0.36560    0.99490    1.000
    C167     C        0.74517    0.34020    0.78060    1.000
    H91      H        0.74430    0.29540    0.73570    1.000
    C168     C        0.69768    0.53260    0.58470    1.000
    H92      H        0.69620    0.48670    0.54090    1.000
    C169     C        0.74520    0.31670    0.86920    1.000
    H93      H        0.74460    0.25560    0.88580    1.000
    C170     C        0.70148    0.66520    0.71210    1.000
    H94      H        0.70270    0.71110    0.75600    1.000
    C171     C        0.67912    0.66730    0.64440    1.000
    H95      H        0.66490    0.71480    0.64120    1.000
    C172     C        0.75043    0.64920    0.86420    1.000
    C173     C        0.74484    0.38480    0.60000    1.000
    C174     C        0.67706    0.60150    0.58100    1.000
    H96      H        0.66140    0.60330    0.53430    1.000
    C175     C        0.79993    0.64790    0.73180    1.000
    H97      H        0.80100    0.69290    0.77640    1.000
    C176     C        0.83576    0.70240    0.11830    1.000
    H98      H        0.82100    0.67130    0.14950    1.000
    C177     C        0.74739    0.46980    0.90960    1.000
    H99      H        0.74820    0.51460    0.95440    1.000
    C178     C        0.82210    0.64200    0.67190    1.000
    H100     H        0.83870    0.68210    0.67630    1.000
    C179     C        0.86466    0.70570    0.15520    1.000
    H101     H        0.86990    0.67840    0.21140    1.000
    C180     C        0.82029    0.57860    0.60620    1.000
    H102     H        0.83550    0.57570    0.56450    1.000
    C181     C        0.87747    0.78830    0.02870    1.000
    H103     H        0.89190    0.81860    0.99580    1.000
    C182     C        0.84791    0.78300    0.99630    1.000
    H104     H        0.84200    0.81030    0.94060    1.000
    C183     C        0.91656    0.75400    0.14780    1.000
    C184     C        0.94112    0.75410    0.18050    1.000
    C185     C        0.97220    0.75390    0.21830    1.000
    C186     C        0.97681    0.70670    0.30760    1.000
    C187     C        0.99326    0.70630    0.15790    1.000
    C188     C        0.88614    0.74910    0.10990    1.000
    C189     C        0.97042    0.92400    0.21540    1.000
    H105     H        0.95000    0.92360    0.19140    1.000
    C190     C        0.95515    0.66740    0.35490    1.000
    H106     H        0.93450    0.66900    0.33300    1.000
    C191     C        0.96347    0.62530    0.43460    1.000
    H107     H        0.94840    0.59700    0.46670    1.000
    C192     C        0.99296    0.62330    0.46860    1.000
    H108     H        0.99840    0.59400    0.52360    1.000
    C193     C        0.98504    0.00330    0.23260    1.000
    H109     H        0.97480    0.05800    0.22070    1.000
    C194     C        0.98526    0.66520    0.07890    1.000
    H110     H        0.96470    0.66500    0.05610    1.000
    C195     C        0.98508    0.84710    0.23260    1.000
    Zn6      Zn       0.28313    0.24944    0.00436    1.000
    O21      O        0.27567    0.16995    0.89827    1.000
    O22      O        0.26910    0.85124    0.58158    1.000
    O23      O        0.22590    0.16932    0.89309    1.000
    O24      O        0.21934    0.85559    0.57670    1.000
    N6       N        0.32706    0.24090    0.04000    1.000
    C196     C        0.22031    0.03060    0.65210    1.000
    C197     C        0.24645    0.92830    0.75690    1.000
    C198     C        0.24653    0.96460    0.66200    1.000
    C199     C        0.24930    0.08720    0.78410    1.000
    C200     C        0.24754    0.99310    0.82080    1.000
    C201     C        0.27633    0.08840    0.72670    1.000
    C202     C        0.27468    0.02300    0.66030    1.000
    C203     C        0.29653    0.01860    0.60000    1.000
    H111     H        0.29540    0.97470    0.55430    1.000
    C204     C        0.22204    0.09700    0.71680    1.000
    C205     C        0.24610    0.88160    0.93360    1.000
    H112     H        0.24580    0.86560    0.99490    1.000
    C206     C        0.24517    0.84020    0.78060    1.000
    H113     H        0.24430    0.79540    0.73570    1.000
    C207     C        0.19768    0.03260    0.58470    1.000
    H114     H        0.19620    0.98670    0.54090    1.000
    C208     C        0.24520    0.81670    0.86920    1.000
    H115     H        0.24460    0.75560    0.88580    1.000
    C209     C        0.20148    0.16520    0.71210    1.000
    H116     H        0.20270    0.21110    0.75600    1.000
    C210     C        0.17912    0.16730    0.64440    1.000
    H117     H        0.16490    0.21480    0.64120    1.000
    C211     C        0.25043    0.14920    0.86420    1.000
    C212     C        0.24484    0.88480    0.60000    1.000
    C213     C        0.17706    0.10150    0.58100    1.000
    H118     H        0.16140    0.10330    0.53430    1.000
    C214     C        0.29993    0.14790    0.73180    1.000
    H119     H        0.30100    0.19290    0.77640    1.000
    C215     C        0.33576    0.20240    0.11830    1.000
    H120     H        0.32100    0.17130    0.14950    1.000
    C216     C        0.24739    0.96980    0.90960    1.000
    H121     H        0.24820    0.01460    0.95440    1.000
    C217     C        0.32210    0.14200    0.67190    1.000
    H122     H        0.33870    0.18210    0.67630    1.000
    C218     C        0.36466    0.20570    0.15520    1.000
    H123     H        0.36990    0.17840    0.21140    1.000
    C219     C        0.32029    0.07860    0.60620    1.000
    H124     H        0.33550    0.07570    0.56450    1.000
    C220     C        0.37747    0.28830    0.02870    1.000
    H125     H        0.39190    0.31860    0.99580    1.000
    C221     C        0.34791    0.28300    0.99630    1.000
    H126     H        0.34200    0.31030    0.94060    1.000
    C222     C        0.41656    0.25400    0.14780    1.000
    C223     C        0.44112    0.25410    0.18050    1.000
    C224     C        0.47220    0.25390    0.21830    1.000
    C225     C        0.47681    0.20670    0.30760    1.000
    C226     C        0.49326    0.20630    0.15790    1.000
    C227     C        0.38614    0.24910    0.10990    1.000
    C228     C        0.47042    0.42400    0.21540    1.000
    H127     H        0.45000    0.42360    0.19140    1.000
    C229     C        0.45515    0.16740    0.35490    1.000
    H128     H        0.43450    0.16900    0.33300    1.000
    C230     C        0.46347    0.12530    0.43460    1.000
    H129     H        0.44840    0.09700    0.46670    1.000
    C231     C        0.49296    0.12330    0.46860    1.000
    H130     H        0.49840    0.09400    0.52360    1.000
    C232     C        0.48504    0.50330    0.23260    1.000
    H131     H        0.47480    0.55800    0.22070    1.000
    C233     C        0.48526    0.16520    0.07890    1.000
    H132     H        0.46470    0.16500    0.05610    1.000
    C234     C        0.48508    0.34710    0.23260    1.000
    Zn7      Zn       0.21687    0.74944    0.49564    1.000
    O25      O        0.22433    0.66995    0.60173    1.000
    O26      O        0.23090    0.35124    0.91842    1.000
    O27      O        0.27410    0.66932    0.60691    1.000
    O28      O        0.28066    0.35559    0.92330    1.000
    N7       N        0.17294    0.74090    0.46000    1.000
    C235     C        0.27969    0.53060    0.84790    1.000
    C236     C        0.25355    0.42830    0.74310    1.000
    C237     C        0.25347    0.46460    0.83800    1.000
    C238     C        0.25070    0.58720    0.71590    1.000
    C239     C        0.25246    0.49310    0.67920    1.000
    C240     C        0.22367    0.58840    0.77330    1.000
    C241     C        0.22532    0.52300    0.83970    1.000
    C242     C        0.20347    0.51860    0.90000    1.000
    H133     H        0.20460    0.47470    0.94570    1.000
    C243     C        0.27796    0.59700    0.78320    1.000
    C244     C        0.25390    0.38160    0.56640    1.000
    H134     H        0.25420    0.36560    0.50510    1.000
    C245     C        0.25483    0.34020    0.71940    1.000
    H135     H        0.25570    0.29540    0.76430    1.000
    C246     C        0.30232    0.53260    0.91530    1.000
    H136     H        0.30380    0.48670    0.95910    1.000
    C247     C        0.25480    0.31670    0.63080    1.000
    H137     H        0.25540    0.25560    0.61420    1.000
    C248     C        0.29852    0.66520    0.78790    1.000
    H138     H        0.29730    0.71110    0.74400    1.000
    C249     C        0.32088    0.66730    0.85560    1.000
    H139     H        0.33510    0.71480    0.85880    1.000
    C250     C        0.24957    0.64920    0.63580    1.000
    C251     C        0.25516    0.38480    0.90000    1.000
    C252     C        0.32294    0.60150    0.91900    1.000
    H140     H        0.33860    0.60330    0.96570    1.000
    C253     C        0.20007    0.64790    0.76820    1.000
    H141     H        0.19900    0.69290    0.72360    1.000
    C254     C        0.16424    0.70240    0.38170    1.000
    H142     H        0.17900    0.67130    0.35050    1.000
    C255     C        0.25261    0.46980    0.59040    1.000
    H143     H        0.25180    0.51460    0.54560    1.000
    C256     C        0.17790    0.64200    0.82810    1.000
    H144     H        0.16130    0.68210    0.82370    1.000
    C257     C        0.13534    0.70570    0.34480    1.000
    H145     H        0.13010    0.67840    0.28860    1.000
    C258     C        0.17971    0.57860    0.89380    1.000
    H146     H        0.16450    0.57570    0.93550    1.000
    C259     C        0.12253    0.78830    0.47130    1.000
    H147     H        0.10810    0.81860    0.50420    1.000
    C260     C        0.15209    0.78300    0.50370    1.000
    H148     H        0.15800    0.81030    0.55940    1.000
    C261     C        0.08344    0.75400    0.35220    1.000
    C262     C        0.05888    0.75410    0.31950    1.000
    C263     C        0.02780    0.75390    0.28170    1.000
    C264     C        0.02319    0.70670    0.19240    1.000
    C265     C        0.00674    0.70630    0.34210    1.000
    C266     C        0.11386    0.74910    0.39010    1.000
    C267     C        0.02958    0.92400    0.28460    1.000
    H149     H        0.05000    0.92360    0.30860    1.000
    C268     C        0.04485    0.66740    0.14510    1.000
    H150     H        0.06550    0.66900    0.16700    1.000
    C269     C        0.03653    0.62530    0.06540    1.000
    H151     H        0.05160    0.59700    0.03330    1.000
    C270     C        0.00704    0.62330    0.03140    1.000
    H152     H        0.00160    0.59400    0.97640    1.000
    C271     C        0.01496    0.00330    0.26740    1.000
    H153     H        0.02520    0.05800    0.27930    1.000
    C272     C        0.01474    0.66520    0.42110    1.000
    H154     H        0.03530    0.66500    0.44390    1.000
    C273     C        0.01492    0.84710    0.26740    1.000
    Zn8      Zn       0.71687    0.24944    0.49564    1.000
    O29      O        0.72433    0.16995    0.60173    1.000
    O30      O        0.73090    0.85124    0.91842    1.000
    O31      O        0.77410    0.16932    0.60691    1.000
    O32      O        0.78066    0.85559    0.92330    1.000
    N8       N        0.67294    0.24090    0.46000    1.000
    C274     C        0.77969    0.03060    0.84790    1.000
    C275     C        0.75355    0.92830    0.74310    1.000
    C276     C        0.75347    0.96460    0.83800    1.000
    C277     C        0.75070    0.08720    0.71590    1.000
    C278     C        0.75246    0.99310    0.67920    1.000
    C279     C        0.72367    0.08840    0.77330    1.000
    C280     C        0.72532    0.02300    0.83970    1.000
    C281     C        0.70347    0.01860    0.90000    1.000
    H155     H        0.70460    0.97470    0.94570    1.000
    C282     C        0.77796    0.09700    0.78320    1.000
    C283     C        0.75390    0.88160    0.56640    1.000
    H156     H        0.75420    0.86560    0.50510    1.000
    C284     C        0.75483    0.84020    0.71940    1.000
    H157     H        0.75570    0.79540    0.76430    1.000
    C285     C        0.80232    0.03260    0.91530    1.000
    H158     H        0.80380    0.98670    0.95910    1.000
    C286     C        0.75480    0.81670    0.63080    1.000
    H159     H        0.75540    0.75560    0.61420    1.000
    C287     C        0.79852    0.16520    0.78790    1.000
    H160     H        0.79730    0.21110    0.74400    1.000
    C288     C        0.82088    0.16730    0.85560    1.000
    H161     H        0.83510    0.21480    0.85880    1.000
    C289     C        0.74957    0.14920    0.63580    1.000
    C290     C        0.75516    0.88480    0.90000    1.000
    C291     C        0.82294    0.10150    0.91900    1.000
    H162     H        0.83860    0.10330    0.96570    1.000
    C292     C        0.70007    0.14790    0.76820    1.000
    H163     H        0.69900    0.19290    0.72360    1.000
    C293     C        0.66424    0.20240    0.38170    1.000
    H164     H        0.67900    0.17130    0.35050    1.000
    C294     C        0.75261    0.96980    0.59040    1.000
    H165     H        0.75180    0.01460    0.54560    1.000
    C295     C        0.67790    0.14200    0.82810    1.000
    H166     H        0.66130    0.18210    0.82370    1.000
    C296     C        0.63534    0.20570    0.34480    1.000
    H167     H        0.63010    0.17840    0.28860    1.000
    C297     C        0.67971    0.07860    0.89380    1.000
    H168     H        0.66450    0.07570    0.93550    1.000
    C298     C        0.62253    0.28830    0.47130    1.000
    H169     H        0.60810    0.31860    0.50420    1.000
    C299     C        0.65209    0.28300    0.50370    1.000
    H170     H        0.65800    0.31030    0.55940    1.000
    C300     C        0.58344    0.25400    0.35220    1.000
    C301     C        0.55888    0.25410    0.31950    1.000
    C302     C        0.52780    0.25390    0.28170    1.000
    C303     C        0.52319    0.20670    0.19240    1.000
    C304     C        0.50674    0.20630    0.34210    1.000
    C305     C        0.61386    0.24910    0.39010    1.000
    C306     C        0.52958    0.42400    0.28460    1.000
    H171     H        0.55000    0.42360    0.30860    1.000
    C307     C        0.54485    0.16740    0.14510    1.000
    H172     H        0.56550    0.16900    0.16700    1.000
    C308     C        0.53653    0.12530    0.06540    1.000
    H173     H        0.55160    0.09700    0.03330    1.000
    C309     C        0.50704    0.12330    0.03140    1.000
    H174     H        0.50160    0.09400    0.97640    1.000
    C310     C        0.51496    0.50330    0.26740    1.000
    H175     H        0.52520    0.55800    0.27930    1.000
    C311     C        0.51474    0.16520    0.42110    1.000
    H176     H        0.53530    0.16500    0.44390    1.000
    C312     C        0.51492    0.34710    0.26740    1.000
