data_functionalizedCrystal
_audit_creation_method	'EQeq! by Chris Wilmer'
_symmetry_space_group_name_H-M	'P1'
_symmetry_Int_Tables_number	1
_symmetry_cell_setting	triclinic
loop_
_symmetry_equiv_pos_as_xyz
  x,y,z
_cell_length_a	6.5434
_cell_length_b	6.9311
_cell_length_c	7.7465
_cell_angle_alpha	111.487
_cell_angle_beta	95.645
_cell_angle_gamma	90.833
loop_
_atom_site_label
_atom_site_type_symbol
_atom_site_fract_x
_atom_site_fract_y
_atom_site_fract_z
_atom_site_charge
Mof_Gd	Gd	0.87397	0.77948	0.06766	1.654
Mof_Gd	Gd	0.12603	0.22052	0.93234	1.654
Mof_P 	P 	0.3284	0.74792	0.97994	0.483
Mof_P 	P 	0.6716	0.25208	0.02006	0.483
Mof_H 	H 	0.3622	0.7204	0.7978	-0.063
Mof_H 	H 	0.6378	0.2796	0.2022	-0.063
Mof_C 	C 	0.0591	0.9058	0.5009	0.253
Mof_C 	C 	0.9409	0.0942	0.4991	0.253
Mof_O 	O 	0.1994	0.9415	0.0357	-0.538
Mof_O 	O 	0.528	0.776	0.1048	-0.448
Mof_O 	O 	0.1825	0.5721	0.9758	-0.549
Mof_O 	O 	0.0518	0.7554	0.3483	-0.395
Mof_O 	O 	0.8475	0.0834	0.3474	-0.397
Mof_O 	O 	0.8006	0.0585	0.9643	-0.538
Mof_O 	O 	0.472	0.224	0.8952	-0.448
Mof_O 	O 	0.8175	0.4279	0.0242	-0.549
Mof_O 	O 	0.9482	0.2446	0.6517	-0.395
Mof_O 	O 	0.1525	0.9166	0.6526	-0.397
_end
