# CIF file generated by openbabel 3.1.0, see https://openbabel.org
data_I
_chemical_name_common 'image0'
_cell_length_a 29.705
_cell_length_b 12.9699
_cell_length_c 13.8285
_cell_angle_alpha 90
_cell_angle_beta 95.247
_cell_angle_gamma 90
_space_group_name_H-M_alt 'P 1'
_space_group_name_Hall 'P 1'
loop_
    _symmetry_equiv_pos_as_xyz
    x,y,z
loop_
    _atom_site_label
    _atom_site_type_symbol
    _atom_site_fract_x
    _atom_site_fract_y
    _atom_site_fract_z
    _atom_site_occupancy
    Eu1      Eu       0.31438    0.80006    0.03656    1.000
    C1       C        0.60264    0.75520    0.53910    1.000
    C2       C        0.55650    0.73430    0.56840    1.000
    C3       C        0.54185    0.63390    0.57970    1.000
    H1       H        0.56150    0.57940    0.57110    1.000
    C4       C        0.49846    0.61350    0.60360    1.000
    H2       H        0.48900    0.54570    0.61070    1.000
    C5       C        0.52668    0.81480    0.58100    1.000
    H3       H        0.53590    0.88250    0.57280    1.000
    C6       C        0.46898    0.69450    0.61700    1.000
    C7       C        0.48340    0.79500    0.60560    1.000
    H4       H        0.46390    0.84950    0.61460    1.000
    C8       C        0.42188    0.67630    0.63760    1.000
    C9       C        0.25575    0.43780    0.55500    1.000
    C10      C        0.28525    0.51030    0.61520    1.000
    C11      C        0.26577    0.57660    0.67900    1.000
    H5       H        0.23460    0.57790    0.68120    1.000
    C12      C        0.29325    0.64070    0.73940    1.000
    C13      C        0.33916    0.64470    0.73030    1.000
    H6       H        0.35740    0.68910    0.76950    1.000
    C14      C        0.35826    0.58250    0.66270    1.000
    C15      C        0.33155    0.51210    0.60800    1.000
    H7       H        0.34460    0.46640    0.56690    1.000
    C16      C        0.27269    0.70190    0.81750    1.000
    C17      C        0.32000    0.01590    0.18550    1.000
    H8       H        0.28870    0.01380    0.17310    1.000
    C18      C        0.38680    0.06020    0.24780    1.000
    H9       H        0.41030    0.09340    0.28440    1.000
    C19      C        0.39070    0.98250    0.18340    1.000
    C20      C        0.43299    0.93180    0.15660    1.000
    H10      H        0.42540    0.87940    0.10880    1.000
    H11      H        0.44860    0.90110    0.21330    1.000
    H12      H        0.45210    0.98240    0.13050    1.000
    N1       N        0.40512    0.58770    0.64640    1.000
    N2       N        0.34772    0.95500    0.14230    1.000
    N3       N        0.34153    0.08050    0.24850    1.000
    O1       O        0.61635    0.84770    0.53660    1.000
    O2       O        0.62702    0.68100    0.51650    1.000
    O3       O        0.27225    0.35460    0.52540    1.000
    O4       O        0.21507    0.45980    0.53520    1.000
    O5       O        0.23316    0.68160    0.83330    1.000
    O6       O        0.29786    0.76960    0.86240    1.000
    H13      H        0.40330    0.73900    0.64500    1.000
    H14      H        0.32680    0.12900    0.29000    1.000
    Eu2      Eu       0.81438    0.30006    0.03656    1.000
    C21      C        0.10264    0.25520    0.53910    1.000
    C22      C        0.05650    0.23430    0.56840    1.000
    C23      C        0.04185    0.13390    0.57970    1.000
    H15      H        0.06150    0.07940    0.57110    1.000
    C24      C        0.99846    0.11350    0.60360    1.000
    H16      H        0.98900    0.04570    0.61070    1.000
    C25      C        0.02668    0.31480    0.58100    1.000
    H17      H        0.03590    0.38250    0.57280    1.000
    C26      C        0.96898    0.19450    0.61700    1.000
    C27      C        0.98340    0.29500    0.60560    1.000
    H18      H        0.96390    0.34950    0.61460    1.000
    C28      C        0.92188    0.17630    0.63760    1.000
    C29      C        0.75575    0.93780    0.55500    1.000
    C30      C        0.78525    0.01030    0.61520    1.000
    C31      C        0.76577    0.07660    0.67900    1.000
    H19      H        0.73460    0.07790    0.68120    1.000
    C32      C        0.79325    0.14070    0.73940    1.000
    C33      C        0.83916    0.14470    0.73030    1.000
    H20      H        0.85740    0.18910    0.76950    1.000
    C34      C        0.85826    0.08250    0.66270    1.000
    C35      C        0.83155    0.01210    0.60800    1.000
    H21      H        0.84460    0.96640    0.56690    1.000
    C36      C        0.77269    0.20190    0.81750    1.000
    C37      C        0.82000    0.51590    0.18550    1.000
    H22      H        0.78870    0.51380    0.17310    1.000
    C38      C        0.88680    0.56020    0.24780    1.000
    H23      H        0.91030    0.59340    0.28440    1.000
    C39      C        0.89070    0.48250    0.18340    1.000
    C40      C        0.93299    0.43180    0.15660    1.000
    H24      H        0.92540    0.37940    0.10880    1.000
    H25      H        0.94860    0.40110    0.21330    1.000
    H26      H        0.95210    0.48240    0.13050    1.000
    N4       N        0.90512    0.08770    0.64640    1.000
    N5       N        0.84772    0.45500    0.14230    1.000
    N6       N        0.84153    0.58050    0.24850    1.000
    O7       O        0.11635    0.34770    0.53660    1.000
    O8       O        0.12702    0.18100    0.51650    1.000
    O9       O        0.77225    0.85460    0.52540    1.000
    O10      O        0.71507    0.95980    0.53520    1.000
    O11      O        0.73316    0.18160    0.83330    1.000
    O12      O        0.79786    0.26960    0.86240    1.000
    H27      H        0.90330    0.23900    0.64500    1.000
    H28      H        0.82680    0.62900    0.29000    1.000
    Eu3      Eu       0.68562    0.80006    0.46344    1.000
    C41      C        0.39736    0.75520    0.96090    1.000
    C42      C        0.44350    0.73430    0.93160    1.000
    C43      C        0.45815    0.63390    0.92030    1.000
    H29      H        0.43850    0.57940    0.92890    1.000
    C44      C        0.50154    0.61350    0.89640    1.000
    H30      H        0.51100    0.54570    0.88930    1.000
    C45      C        0.47332    0.81480    0.91900    1.000
    H31      H        0.46410    0.88250    0.92720    1.000
    C46      C        0.53102    0.69450    0.88300    1.000
    C47      C        0.51660    0.79500    0.89440    1.000
    H32      H        0.53610    0.84950    0.88540    1.000
    C48      C        0.57812    0.67630    0.86240    1.000
    C49      C        0.74425    0.43780    0.94500    1.000
    C50      C        0.71475    0.51030    0.88480    1.000
    C51      C        0.73423    0.57660    0.82100    1.000
    H33      H        0.76540    0.57790    0.81880    1.000
    C52      C        0.70675    0.64070    0.76060    1.000
    C53      C        0.66084    0.64470    0.76970    1.000
    H34      H        0.64260    0.68910    0.73050    1.000
    C54      C        0.64174    0.58250    0.83730    1.000
    C55      C        0.66845    0.51210    0.89200    1.000
    H35      H        0.65540    0.46640    0.93310    1.000
    C56      C        0.72731    0.70190    0.68250    1.000
    C57      C        0.68000    0.01590    0.31450    1.000
    H36      H        0.71130    0.01380    0.32690    1.000
    C58      C        0.61320    0.06020    0.25220    1.000
    H37      H        0.58970    0.09340    0.21560    1.000
    C59      C        0.60930    0.98250    0.31660    1.000
    C60      C        0.56701    0.93180    0.34340    1.000
    H38      H        0.57460    0.87940    0.39120    1.000
    H39      H        0.55140    0.90110    0.28670    1.000
    H40      H        0.54790    0.98240    0.36950    1.000
    N7       N        0.59488    0.58770    0.85360    1.000
    N8       N        0.65228    0.95500    0.35770    1.000
    N9       N        0.65847    0.08050    0.25150    1.000
    O13      O        0.38365    0.84770    0.96340    1.000
    O14      O        0.37298    0.68100    0.98350    1.000
    O15      O        0.72775    0.35460    0.97460    1.000
    O16      O        0.78493    0.45980    0.96480    1.000
    O17      O        0.76684    0.68160    0.66670    1.000
    O18      O        0.70214    0.76960    0.63760    1.000
    H41      H        0.59670    0.73900    0.85500    1.000
    H42      H        0.67320    0.12900    0.21000    1.000
    Eu4      Eu       0.18562    0.30006    0.46344    1.000
    C61      C        0.89736    0.25520    0.96090    1.000
    C62      C        0.94350    0.23430    0.93160    1.000
    C63      C        0.95815    0.13390    0.92030    1.000
    H43      H        0.93850    0.07940    0.92890    1.000
    C64      C        0.00154    0.11350    0.89640    1.000
    H44      H        0.01100    0.04570    0.88930    1.000
    C65      C        0.97332    0.31480    0.91900    1.000
    H45      H        0.96410    0.38250    0.92720    1.000
    C66      C        0.03102    0.19450    0.88300    1.000
    C67      C        0.01660    0.29500    0.89440    1.000
    H46      H        0.03610    0.34950    0.88540    1.000
    C68      C        0.07812    0.17630    0.86240    1.000
    C69      C        0.24425    0.93780    0.94500    1.000
    C70      C        0.21475    0.01030    0.88480    1.000
    C71      C        0.23423    0.07660    0.82100    1.000
    H47      H        0.26540    0.07790    0.81880    1.000
    C72      C        0.20675    0.14070    0.76060    1.000
    C73      C        0.16084    0.14470    0.76970    1.000
    H48      H        0.14260    0.18910    0.73050    1.000
    C74      C        0.14174    0.08250    0.83730    1.000
    C75      C        0.16845    0.01210    0.89200    1.000
    H49      H        0.15540    0.96640    0.93310    1.000
    C76      C        0.22731    0.20190    0.68250    1.000
    C77      C        0.18000    0.51590    0.31450    1.000
    H50      H        0.21130    0.51380    0.32690    1.000
    C78      C        0.11320    0.56020    0.25220    1.000
    H51      H        0.08970    0.59340    0.21560    1.000
    C79      C        0.10930    0.48250    0.31660    1.000
    C80      C        0.06701    0.43180    0.34340    1.000
    H52      H        0.07460    0.37940    0.39120    1.000
    H53      H        0.05140    0.40110    0.28670    1.000
    H54      H        0.04790    0.48240    0.36950    1.000
    N10      N        0.09488    0.08770    0.85360    1.000
    N11      N        0.15228    0.45500    0.35770    1.000
    N12      N        0.15847    0.58050    0.25150    1.000
    O19      O        0.88365    0.34770    0.96340    1.000
    O20      O        0.87298    0.18100    0.98350    1.000
    O21      O        0.22775    0.85460    0.97460    1.000
    O22      O        0.28493    0.95980    0.96480    1.000
    O23      O        0.26684    0.18160    0.66670    1.000
    O24      O        0.20214    0.26960    0.63760    1.000
    H55      H        0.09670    0.23900    0.85500    1.000
    H56      H        0.17320    0.62900    0.21000    1.000
    Eu5      Eu       0.68562    0.19994    0.96344    1.000
    C81      C        0.39736    0.24480    0.46090    1.000
    C82      C        0.44350    0.26570    0.43160    1.000
    C83      C        0.45815    0.36610    0.42030    1.000
    H57      H        0.43850    0.42060    0.42890    1.000
    C84      C        0.50154    0.38650    0.39640    1.000
    H58      H        0.51100    0.45430    0.38930    1.000
    C85      C        0.47332    0.18520    0.41900    1.000
    H59      H        0.46410    0.11750    0.42720    1.000
    C86      C        0.53102    0.30550    0.38300    1.000
    C87      C        0.51660    0.20500    0.39440    1.000
    H60      H        0.53610    0.15050    0.38540    1.000
    C88      C        0.57812    0.32370    0.36240    1.000
    C89      C        0.74425    0.56220    0.44500    1.000
    C90      C        0.71475    0.48970    0.38480    1.000
    C91      C        0.73423    0.42340    0.32100    1.000
    H61      H        0.76540    0.42210    0.31880    1.000
    C92      C        0.70675    0.35930    0.26060    1.000
    C93      C        0.66084    0.35530    0.26970    1.000
    H62      H        0.64260    0.31090    0.23050    1.000
    C94      C        0.64174    0.41750    0.33730    1.000
    C95      C        0.66845    0.48790    0.39200    1.000
    H63      H        0.65540    0.53360    0.43310    1.000
    C96      C        0.72731    0.29810    0.18250    1.000
    C97      C        0.68000    0.98410    0.81450    1.000
    H64      H        0.71130    0.98620    0.82690    1.000
    C98      C        0.61320    0.93980    0.75220    1.000
    H65      H        0.58970    0.90660    0.71560    1.000
    C99      C        0.60930    0.01750    0.81660    1.000
    C100     C        0.56701    0.06820    0.84340    1.000
    H66      H        0.57460    0.12060    0.89120    1.000
    H67      H        0.55140    0.09890    0.78670    1.000
    H68      H        0.54790    0.01760    0.86950    1.000
    N13      N        0.59488    0.41230    0.35360    1.000
    N14      N        0.65228    0.04500    0.85770    1.000
    N15      N        0.65847    0.91950    0.75150    1.000
    O25      O        0.38365    0.15230    0.46340    1.000
    O26      O        0.37298    0.31900    0.48350    1.000
    O27      O        0.72775    0.64540    0.47460    1.000
    O28      O        0.78493    0.54020    0.46480    1.000
    O29      O        0.76684    0.31840    0.16670    1.000
    O30      O        0.70214    0.23040    0.13760    1.000
    H69      H        0.59670    0.26100    0.35500    1.000
    H70      H        0.67320    0.87100    0.71000    1.000
    Eu6      Eu       0.18562    0.69994    0.96344    1.000
    C101     C        0.89736    0.74480    0.46090    1.000
    C102     C        0.94350    0.76570    0.43160    1.000
    C103     C        0.95815    0.86610    0.42030    1.000
    H71      H        0.93850    0.92060    0.42890    1.000
    C104     C        0.00154    0.88650    0.39640    1.000
    H72      H        0.01100    0.95430    0.38930    1.000
    C105     C        0.97332    0.68520    0.41900    1.000
    H73      H        0.96410    0.61750    0.42720    1.000
    C106     C        0.03102    0.80550    0.38300    1.000
    C107     C        0.01660    0.70500    0.39440    1.000
    H74      H        0.03610    0.65050    0.38540    1.000
    C108     C        0.07812    0.82370    0.36240    1.000
    C109     C        0.24425    0.06220    0.44500    1.000
    C110     C        0.21475    0.98970    0.38480    1.000
    C111     C        0.23423    0.92340    0.32100    1.000
    H75      H        0.26540    0.92210    0.31880    1.000
    C112     C        0.20675    0.85930    0.26060    1.000
    C113     C        0.16084    0.85530    0.26970    1.000
    H76      H        0.14260    0.81090    0.23050    1.000
    C114     C        0.14174    0.91750    0.33730    1.000
    C115     C        0.16845    0.98790    0.39200    1.000
    H77      H        0.15540    0.03360    0.43310    1.000
    C116     C        0.22731    0.79810    0.18250    1.000
    C117     C        0.18000    0.48410    0.81450    1.000
    H78      H        0.21130    0.48620    0.82690    1.000
    C118     C        0.11320    0.43980    0.75220    1.000
    H79      H        0.08970    0.40660    0.71560    1.000
    C119     C        0.10930    0.51750    0.81660    1.000
    C120     C        0.06701    0.56820    0.84340    1.000
    H80      H        0.07460    0.62060    0.89120    1.000
    H81      H        0.05140    0.59890    0.78670    1.000
    H82      H        0.04790    0.51760    0.86950    1.000
    N16      N        0.09488    0.91230    0.35360    1.000
    N17      N        0.15228    0.54500    0.85770    1.000
    N18      N        0.15847    0.41950    0.75150    1.000
    O31      O        0.88365    0.65230    0.46340    1.000
    O32      O        0.87298    0.81900    0.48350    1.000
    O33      O        0.22775    0.14540    0.47460    1.000
    O34      O        0.28493    0.04020    0.46480    1.000
    O35      O        0.26684    0.81840    0.16670    1.000
    O36      O        0.20214    0.73040    0.13760    1.000
    H83      H        0.09670    0.76100    0.35500    1.000
    H84      H        0.17320    0.37100    0.71000    1.000
    Eu7      Eu       0.31438    0.19994    0.53656    1.000
    C121     C        0.60264    0.24480    0.03910    1.000
    C122     C        0.55650    0.26570    0.06840    1.000
    C123     C        0.54185    0.36610    0.07970    1.000
    H85      H        0.56150    0.42060    0.07110    1.000
    C124     C        0.49846    0.38650    0.10360    1.000
    H86      H        0.48900    0.45430    0.11070    1.000
    C125     C        0.52668    0.18520    0.08100    1.000
    H87      H        0.53590    0.11750    0.07280    1.000
    C126     C        0.46898    0.30550    0.11700    1.000
    C127     C        0.48340    0.20500    0.10560    1.000
    H88      H        0.46390    0.15050    0.11460    1.000
    C128     C        0.42188    0.32370    0.13760    1.000
    C129     C        0.25575    0.56220    0.05500    1.000
    C130     C        0.28525    0.48970    0.11520    1.000
    C131     C        0.26577    0.42340    0.17900    1.000
    H89      H        0.23460    0.42210    0.18120    1.000
    C132     C        0.29325    0.35930    0.23940    1.000
    C133     C        0.33916    0.35530    0.23030    1.000
    H90      H        0.35740    0.31090    0.26950    1.000
    C134     C        0.35826    0.41750    0.16270    1.000
    C135     C        0.33155    0.48790    0.10800    1.000
    H91      H        0.34460    0.53360    0.06690    1.000
    C136     C        0.27269    0.29810    0.31750    1.000
    C137     C        0.32000    0.98410    0.68550    1.000
    H92      H        0.28870    0.98620    0.67310    1.000
    C138     C        0.38680    0.93980    0.74780    1.000
    H93      H        0.41030    0.90660    0.78440    1.000
    C139     C        0.39070    0.01750    0.68340    1.000
    C140     C        0.43299    0.06820    0.65660    1.000
    H94      H        0.42540    0.12060    0.60880    1.000
    H95      H        0.44860    0.09890    0.71330    1.000
    H96      H        0.45210    0.01760    0.63050    1.000
    N19      N        0.40512    0.41230    0.14640    1.000
    N20      N        0.34772    0.04500    0.64230    1.000
    N21      N        0.34153    0.91950    0.74850    1.000
    O37      O        0.61635    0.15230    0.03660    1.000
    O38      O        0.62702    0.31900    0.01650    1.000
    O39      O        0.27225    0.64540    0.02540    1.000
    O40      O        0.21507    0.54020    0.03520    1.000
    O41      O        0.23316    0.31840    0.33330    1.000
    O42      O        0.29786    0.23040    0.36240    1.000
    H97      H        0.40330    0.26100    0.14500    1.000
    H98      H        0.32680    0.87100    0.79000    1.000
    Eu8      Eu       0.81438    0.69994    0.53656    1.000
    C141     C        0.10264    0.74480    0.03910    1.000
    C142     C        0.05650    0.76570    0.06840    1.000
    C143     C        0.04185    0.86610    0.07970    1.000
    H99      H        0.06150    0.92060    0.07110    1.000
    C144     C        0.99846    0.88650    0.10360    1.000
    H100     H        0.98900    0.95430    0.11070    1.000
    C145     C        0.02668    0.68520    0.08100    1.000
    H101     H        0.03590    0.61750    0.07280    1.000
    C146     C        0.96898    0.80550    0.11700    1.000
    C147     C        0.98340    0.70500    0.10560    1.000
    H102     H        0.96390    0.65050    0.11460    1.000
    C148     C        0.92188    0.82370    0.13760    1.000
    C149     C        0.75575    0.06220    0.05500    1.000
    C150     C        0.78525    0.98970    0.11520    1.000
    C151     C        0.76577    0.92340    0.17900    1.000
    H103     H        0.73460    0.92210    0.18120    1.000
    C152     C        0.79325    0.85930    0.23940    1.000
    C153     C        0.83916    0.85530    0.23030    1.000
    H104     H        0.85740    0.81090    0.26950    1.000
    C154     C        0.85826    0.91750    0.16270    1.000
    C155     C        0.83155    0.98790    0.10800    1.000
    H105     H        0.84460    0.03360    0.06690    1.000
    C156     C        0.77269    0.79810    0.31750    1.000
    C157     C        0.82000    0.48410    0.68550    1.000
    H106     H        0.78870    0.48620    0.67310    1.000
    C158     C        0.88680    0.43980    0.74780    1.000
    H107     H        0.91030    0.40660    0.78440    1.000
    C159     C        0.89070    0.51750    0.68340    1.000
    C160     C        0.93299    0.56820    0.65660    1.000
    H108     H        0.92540    0.62060    0.60880    1.000
    H109     H        0.94860    0.59890    0.71330    1.000
    H110     H        0.95210    0.51760    0.63050    1.000
    N22      N        0.90512    0.91230    0.14640    1.000
    N23      N        0.84772    0.54500    0.64230    1.000
    N24      N        0.84153    0.41950    0.74850    1.000
    O43      O        0.11635    0.65230    0.03660    1.000
    O44      O        0.12702    0.81900    0.01650    1.000
    O45      O        0.77225    0.14540    0.02540    1.000
    O46      O        0.71507    0.04020    0.03520    1.000
    O47      O        0.73316    0.81840    0.33330    1.000
    O48      O        0.79786    0.73040    0.36240    1.000
    H111     H        0.90330    0.76100    0.14500    1.000
    H112     H        0.82680    0.37100    0.79000    1.000
