# CIF file generated by openbabel 3.1.0, see https://openbabel.org
data_I
_chemical_name_common 'image0'
_cell_length_a 5.0979
_cell_length_b 15.2338
_cell_length_c 16.4247
_cell_angle_alpha 90
_cell_angle_beta 95.668
_cell_angle_gamma 90
_space_group_name_H-M_alt 'P 1'
_space_group_name_Hall 'P 1'
loop_
    _symmetry_equiv_pos_as_xyz
    x,y,z
loop_
    _atom_site_label
    _atom_site_type_symbol
    _atom_site_fract_x
    _atom_site_fract_y
    _atom_site_fract_z
    _atom_site_occupancy
    Co1      Co       0.96540    0.67711    0.21650    1.000
    Co2      Co       0.34330    0.80262    0.08222    1.000
    Co3      Co       0.01040    0.92849    0.82041    1.000
    P1       P        0.41510    0.59991    0.13049    1.000
    P2       P        0.92440    0.86946    0.16220    1.000
    P3       P        0.47610    0.88591    0.91248    1.000
    O1       O        0.29050    0.95970    0.93320    1.000
    O2       O        0.02940    0.88520    0.07710    1.000
    O3       O        0.75720    0.92060    0.90600    1.000
    O4       O        0.10420    0.79490    0.20110    1.000
    O5       O        0.71780    0.60950    0.14280    1.000
    O6       O        0.80650    0.88590    0.71630    1.000
    O7       O        0.34830    0.85390    0.82560    1.000
    O8       O        0.63720    0.83970    0.15850    1.000
    O9       O        0.29290    0.67270    0.07350    1.000
    O10      O        0.47900    0.80890    0.97170    1.000
    O11      O        0.03420    0.04890    0.78240    1.000
    O12      O        0.33410    0.51000    0.09740    1.000
    Co4      Co       0.53460    0.17711    0.28350    1.000
    Co5      Co       0.15670    0.30262    0.41778    1.000
    Co6      Co       0.48960    0.42849    0.67959    1.000
    P4       P        0.08490    0.09991    0.36951    1.000
    P5       P        0.57560    0.36946    0.33780    1.000
    P6       P        0.02390    0.38591    0.58752    1.000
    O13      O        0.20950    0.45970    0.56680    1.000
    O14      O        0.47060    0.38520    0.42290    1.000
    O15      O        0.74280    0.42060    0.59400    1.000
    O16      O        0.39580    0.29490    0.29890    1.000
    O17      O        0.78220    0.10950    0.35720    1.000
    O18      O        0.69350    0.38590    0.78370    1.000
    O19      O        0.15170    0.35390    0.67440    1.000
    O20      O        0.86280    0.33970    0.34150    1.000
    O21      O        0.20710    0.17270    0.42650    1.000
    O22      O        0.02100    0.30890    0.52830    1.000
    O23      O        0.46580    0.54890    0.71760    1.000
    O24      O        0.16590    0.01000    0.40260    1.000
    Co7      Co       0.03460    0.32289    0.78350    1.000
    Co8      Co       0.65670    0.19738    0.91778    1.000
    Co9      Co       0.98960    0.07151    0.17959    1.000
    P7       P        0.58490    0.40009    0.86951    1.000
    P8       P        0.07560    0.13054    0.83780    1.000
    P9       P        0.52390    0.11409    0.08752    1.000
    O25      O        0.70950    0.04030    0.06680    1.000
    O26      O        0.97060    0.11480    0.92290    1.000
    O27      O        0.24280    0.07940    0.09400    1.000
    O28      O        0.89580    0.20510    0.79890    1.000
    O29      O        0.28220    0.39050    0.85720    1.000
    O30      O        0.19350    0.11410    0.28370    1.000
    O31      O        0.65170    0.14610    0.17440    1.000
    O32      O        0.36280    0.16030    0.84150    1.000
    O33      O        0.70710    0.32730    0.92650    1.000
    O34      O        0.52100    0.19110    0.02830    1.000
    O35      O        0.96580    0.95110    0.21760    1.000
    O36      O        0.66590    0.49000    0.90260    1.000
    Co10     Co       0.46540    0.82289    0.71650    1.000
    Co11     Co       0.84330    0.69738    0.58222    1.000
    Co12     Co       0.51040    0.57151    0.32041    1.000
    P10      P        0.91510    0.90009    0.63049    1.000
    P11      P        0.42440    0.63054    0.66220    1.000
    P12      P        0.97610    0.61409    0.41248    1.000
    O37      O        0.79050    0.54030    0.43320    1.000
    O38      O        0.52940    0.61480    0.57710    1.000
    O39      O        0.25720    0.57940    0.40600    1.000
    O40      O        0.60420    0.70510    0.70110    1.000
    O41      O        0.21780    0.89050    0.64280    1.000
    O42      O        0.30650    0.61410    0.21630    1.000
    O43      O        0.84830    0.64610    0.32560    1.000
    O44      O        0.13720    0.66030    0.65850    1.000
    O45      O        0.79290    0.82730    0.57350    1.000
    O46      O        0.97900    0.69110    0.47170    1.000
    O47      O        0.53420    0.45110    0.28240    1.000
    O48      O        0.83410    0.99000    0.59740    1.000
    Co13     Co       0.00000    0.00000    0.00000    1.000
    Co14     Co       0.50000    0.50000    0.50000    1.000
