# CIF file generated by openbabel 3.1.0, see https://openbabel.org
data_I
_chemical_name_common 'OKINIG_clean'
_cell_length_a 9.4778
_cell_length_b 9.9538
_cell_length_c 17.692
_cell_angle_alpha 90
_cell_angle_beta 90
_cell_angle_gamma 104.419
_space_group_name_H-M_alt 'P 1'
_space_group_name_Hall 'P 1'
loop_
    _symmetry_equiv_pos_as_xyz
    x,y,z
loop_
    _atom_site_label
    _atom_site_type_symbol
    _atom_site_fract_x
    _atom_site_fract_y
    _atom_site_fract_z
    _atom_site_occupancy
    Li1      Li       0.78030    0.94910    0.74090    1.000
    Li2      Li       0.87080    0.80700    0.86190    1.000
    Li3      Li       0.97290    0.55360    0.59270    1.000
    Li4      Li       0.97280    0.04780    0.51980    1.000
    Li5      Li       0.13780    0.34420    0.54070    1.000
    Li6      Li       0.13320    0.82930    0.51680    1.000
    Li7      Li       0.13470    0.70380    0.75750    1.000
    Li8      Li       0.21970    0.05090    0.24090    1.000
    Li9      Li       0.12920    0.19300    0.36190    1.000
    Li10     Li       0.02710    0.44640    0.09270    1.000
    Li11     Li       0.02720    0.95220    0.01980    1.000
    Li12     Li       0.86220    0.65580    0.04070    1.000
    Li13     Li       0.86680    0.17070    0.01680    1.000
    Li14     Li       0.86530    0.29620    0.25750    1.000
    H1       H        0.82960    0.55560    0.91110    1.000
    H2       H        0.74620    0.65280    0.91960    1.000
    H3       H        0.70160    0.50400    0.66130    1.000
    H4       H        0.67530    0.58220    0.55050    1.000
    H5       H        0.55040    0.76660    0.53280    1.000
    H6       H        0.42700    0.52880    0.54850    1.000
    H7       H        0.45920    0.43020    0.65250    1.000
    H8       H        0.56460    0.57120    0.76250    1.000
    H9       H        0.54650    0.80300    0.75870    1.000
    H10      H        0.54990    0.90690    0.64020    1.000
    H11      H        0.54350    0.07440    0.95750    1.000
    H12      H        0.56830    0.98370    0.06560    1.000
    H13      H        0.44680    0.74510    0.08540    1.000
    H14      H        0.31620    0.92050    0.06540    1.000
    H15      H        0.30510    0.00540    0.95430    1.000
    H16      H        0.43300    0.92660    0.85200    1.000
    H17      H        0.44560    0.69330    0.86020    1.000
    H18      H        0.45100    0.59920    0.98100    1.000
    H19      H        0.17040    0.44440    0.41110    1.000
    H20      H        0.25380    0.34720    0.41960    1.000
    H21      H        0.29840    0.49600    0.16130    1.000
    H22      H        0.32470    0.41780    0.05050    1.000
    H23      H        0.44960    0.23340    0.03280    1.000
    H24      H        0.57300    0.47120    0.04850    1.000
    H25      H        0.54080    0.56980    0.15250    1.000
    H26      H        0.43540    0.42880    0.26250    1.000
    H27      H        0.45350    0.19700    0.25870    1.000
    H28      H        0.45010    0.09310    0.14020    1.000
    H29      H        0.45650    0.92560    0.45750    1.000
    H30      H        0.43170    0.01630    0.56560    1.000
    H31      H        0.55320    0.25490    0.58540    1.000
    H32      H        0.68380    0.07950    0.56540    1.000
    H33      H        0.69490    0.99460    0.45430    1.000
    H34      H        0.56700    0.07340    0.35200    1.000
    H35      H        0.55440    0.30670    0.36020    1.000
    H36      H        0.54900    0.40080    0.48100    1.000
    C1       C        0.70280    0.60220    0.66708    1.000
    C2       C        0.69110    0.66110    0.58540    1.000
    C3       C        0.55370    0.71880    0.58090    1.000
    C4       C        0.42010    0.59360    0.58920    1.000
    C5       C        0.43390    0.51720    0.66500    1.000
    C6       C        0.56250    0.60810    0.71130    1.000
    C7       C        0.84270    0.67110    0.70980    1.000
    C8       C        0.82930    0.76520    0.55970    1.000
    C9       C        0.27480    0.63120    0.57882    1.000
    C10      C        0.29660    0.48160    0.71390    1.000
    C11      C        0.55210    0.75620    0.71370    1.000
    C12      C        0.55150    0.81450    0.64640    1.000
    C13      C        0.56690    0.98550    0.94770    1.000
    C14      C        0.57680    0.91570    0.02690    1.000
    C15      C        0.44360    0.79000    0.03640    1.000
    C16      C        0.30530    0.84350    0.02960    1.000
    C17      C        0.29820    0.90610    0.94790    1.000
    C18      C        0.43560    0.89320    0.90390    1.000
    C19      C        0.70870    0.01690    0.90340    1.000
    C20      C        0.72000    0.87720    0.04100    1.000
    C21      C        0.16720    0.73440    0.05260    1.000
    C22      C        0.15770    0.84460    0.90490    1.000
    C23      C        0.44340    0.74380    0.90430    1.000
    C24      C        0.44690    0.69050    0.97290    1.000
    C25      C        0.29720    0.39780    0.16708    1.000
    C26      C        0.30890    0.33890    0.08540    1.000
    C27      C        0.44630    0.28120    0.08090    1.000
    C28      C        0.57990    0.40640    0.08920    1.000
    C29      C        0.56610    0.48280    0.16500    1.000
    C30      C        0.43750    0.39190    0.21130    1.000
    C31      C        0.15730    0.32890    0.20980    1.000
    C32      C        0.17070    0.23480    0.05970    1.000
    C33      C        0.72520    0.36880    0.07882    1.000
    C34      C        0.70340    0.51840    0.21390    1.000
    C35      C        0.44790    0.24380    0.21370    1.000
    C36      C        0.44850    0.18550    0.14640    1.000
    C37      C        0.43310    0.01450    0.44770    1.000
    C38      C        0.42320    0.08430    0.52690    1.000
    C39      C        0.55640    0.21000    0.53640    1.000
    C40      C        0.69470    0.15650    0.52960    1.000
    C41      C        0.70180    0.09390    0.44790    1.000
    C42      C        0.56440    0.10680    0.40390    1.000
    C43      C        0.29130    0.98310    0.40340    1.000
    C44      C        0.28000    0.12280    0.54100    1.000
    C45      C        0.83280    0.26560    0.55260    1.000
    C46      C        0.84230    0.15540    0.40490    1.000
    C47      C        0.55660    0.25620    0.40430    1.000
    C48      C        0.55310    0.30950    0.47290    1.000
    O1       O        0.84610    0.77130    0.75277    1.000
    O2       O        0.95050    0.61870    0.69970    1.000
    O3       O        0.93500    0.71500    0.53750    1.000
    O4       O        0.83510    0.89110    0.55973    1.000
    O5       O        0.16350    0.52990    0.57376    1.000
    O6       O        0.27050    0.75540    0.57367    1.000
    O7       O        0.24460    0.57520    0.73934    1.000
    O8       O        0.24630    0.35540    0.73060    1.000
    O9       O        0.73930    0.92660    0.86166    1.000
    O10      O        0.79330    0.13920    0.91110    1.000
    O11      O        0.83620    0.97540    0.03830    1.000
    O12      O        0.71950    0.75450    0.05632    1.000
    O13      O        0.17030    0.61180    0.06264    1.000
    O14      O        0.05270    0.77910    0.06152    1.000
    O15      O        0.14380    0.73550    0.86714    1.000
    O16      O        0.05740    0.90910    0.91026    1.000
    O17      O        0.83770    0.63700    0.92150    1.000
    O18      O        0.15390    0.22870    0.25277    1.000
    O19      O        0.04950    0.38130    0.19970    1.000
    O20      O        0.06500    0.28500    0.03750    1.000
    O21      O        0.16490    0.10890    0.05973    1.000
    O22      O        0.83650    0.47010    0.07376    1.000
    O23      O        0.72950    0.24460    0.07367    1.000
    O24      O        0.75540    0.42480    0.23934    1.000
    O25      O        0.75370    0.64460    0.23060    1.000
    O26      O        0.26070    0.07340    0.36166    1.000
    O27      O        0.20670    0.86080    0.41110    1.000
    O28      O        0.16380    0.02460    0.53830    1.000
    O29      O        0.28050    0.24550    0.55632    1.000
    O30      O        0.82970    0.38820    0.56264    1.000
    O31      O        0.94730    0.22090    0.56152    1.000
    O32      O        0.85620    0.26450    0.36714    1.000
    O33      O        0.94260    0.09090    0.41026    1.000
    O34      O        0.16230    0.36300    0.42150    1.000
