data_functionalizedCrystal
_audit_creation_method	'EQeq! by Chris Wilmer'
_symmetry_space_group_name_H-M	'P1'
_symmetry_Int_Tables_number	1
_symmetry_cell_setting	triclinic
loop_
_symmetry_equiv_pos_as_xyz
  x,y,z
_cell_length_a	26.0852
_cell_length_b	26.0852
_cell_length_c	17.6308
_cell_angle_alpha	90
_cell_angle_beta	90
_cell_angle_gamma	90
loop_
_atom_site_label
_atom_site_type_symbol
_atom_site_fract_x
_atom_site_fract_y
_atom_site_fract_z
_atom_site_charge
Mof_Zn	Zn	0.76106	0.25144	0.16745	1.235
Mof_O 	O 	0.67739	0.25725	0.29624	-0.451
Mof_O 	O 	0.6835	0.25309	0.17059	-0.483
Mof_O 	O 	0.32918	0.24029	0.32825	-0.494
Mof_O 	O 	0.33502	0.24645	0.20323	-0.451
Mof_O 	O 	0.77717	0.23574	0.0616	-0.585
Mof_C 	C 	0.35368	0.24402	0.26813	0.404
Mof_C 	C 	0.65889	0.25442	0.23111	0.396
Mof_C 	C 	0.60129	0.25361	0.22484	-0.093
Mof_C 	C 	0.57738	0.254	0.15376	0.032
Mof_H 	H 	0.5978	0.2554	0.1092	0.025
Mof_C 	C 	0.5255	0.25239	0.14755	-0.091
Mof_H 	H 	0.51	0.2523	0.0988	0.073
Mof_C 	C 	0.49433	0.25083	0.21355	0.028
Mof_C 	C 	0.44009	0.24836	0.20961	-0.023
Mof_H 	H 	0.4237	0.2481	0.1615	0.067
Mof_C 	C 	0.41107	0.24633	0.27361	-0.1
Mof_C 	C 	0.435	0.24797	0.34531	0.032
Mof_H 	H 	0.4146	0.2478	0.39	0.009
Mof_C 	C 	0.48732	0.2498	0.35125	-0.096
Mof_H 	H 	0.503	0.2505	0.3999	0.062
Mof_C 	C 	0.51797	0.25062	0.28563	0.028
Mof_C 	C 	0.57233	0.25265	0.28939	-0.026
Mof_H 	H 	0.5888	0.2533	0.3375	0.061
Mof_H 	H 	0.7092	0.3009	0.0524	0.285
Mof_H 	H 	0.6893	0.2807	0.9718	0.27
Mof_H 	H 	0.7323	0.3243	0.9758	0.258
Mof_Zn	Zn	0.23894	0.74856	0.16745	1.236
Mof_O 	O 	0.32261	0.74275	0.29624	-0.45
Mof_O 	O 	0.3165	0.74691	0.17059	-0.482
Mof_O 	O 	0.67082	0.75971	0.32825	-0.493
Mof_O 	O 	0.66498	0.75355	0.20323	-0.451
Mof_O 	O 	0.22283	0.76426	0.0616	-0.585
Mof_C 	C 	0.64632	0.75598	0.26813	0.404
Mof_C 	C 	0.34111	0.74558	0.23111	0.396
Mof_C 	C 	0.39871	0.74639	0.22484	-0.093
Mof_C 	C 	0.42262	0.746	0.15376	0.032
Mof_H 	H 	0.4022	0.7446	0.1092	0.025
Mof_C 	C 	0.4745	0.74761	0.14755	-0.091
Mof_H 	H 	0.49	0.7477	0.0988	0.073
Mof_C 	C 	0.50567	0.74917	0.21355	0.028
Mof_C 	C 	0.55991	0.75164	0.20961	-0.023
Mof_H 	H 	0.5763	0.7519	0.1615	0.067
Mof_C 	C 	0.58893	0.75367	0.27361	-0.1
Mof_C 	C 	0.565	0.75203	0.34531	0.032
Mof_H 	H 	0.5854	0.7522	0.39	0.009
Mof_C 	C 	0.51268	0.7502	0.35125	-0.096
Mof_H 	H 	0.497	0.7495	0.3999	0.062
Mof_C 	C 	0.48203	0.74938	0.28563	0.028
Mof_C 	C 	0.42767	0.74735	0.28939	-0.026
Mof_H 	H 	0.4112	0.7467	0.3375	0.061
Mof_H 	H 	0.2908	0.6991	0.0524	0.285
Mof_H 	H 	0.3107	0.7193	0.9718	0.27
Mof_H 	H 	0.2677	0.6757	0.9758	0.258
Mof_Zn	Zn	0.74856	0.76106	0.66745	1.236
Mof_O 	O 	0.74275	0.67739	0.79624	-0.457
Mof_O 	O 	0.74691	0.6835	0.67059	-0.496
Mof_O 	O 	0.75971	0.32918	0.82825	-0.489
Mof_O 	O 	0.75355	0.33502	0.70323	-0.454
Mof_O 	O 	0.76426	0.77717	0.5616	-0.636
Mof_C 	C 	0.75598	0.35368	0.76813	0.401
Mof_C 	C 	0.74558	0.65889	0.73111	0.4
Mof_C 	C 	0.74639	0.60129	0.72484	-0.105
Mof_C 	C 	0.746	0.57738	0.65376	0.035
Mof_H 	H 	0.7446	0.5978	0.6092	0.008
Mof_C 	C 	0.74761	0.5255	0.64755	-0.1
Mof_H 	H 	0.7477	0.51	0.5988	0.063
Mof_C 	C 	0.74917	0.49433	0.71355	0.027
Mof_C 	C 	0.75164	0.44009	0.70961	-0.027
Mof_H 	H 	0.7519	0.4237	0.6615	0.061
Mof_C 	C 	0.75367	0.41107	0.77361	-0.1
Mof_C 	C 	0.75203	0.435	0.84531	0.024
Mof_H 	H 	0.7522	0.4146	0.89	0.009
Mof_C 	C 	0.7502	0.48732	0.85125	-0.093
Mof_H 	H 	0.7495	0.503	0.8999	0.049
Mof_C 	C 	0.74938	0.51797	0.78563	0.019
Mof_C 	C 	0.74735	0.57233	0.78939	-0.022
Mof_H 	H 	0.7467	0.5888	0.8375	0.053
Mof_H 	H 	0.6991	0.7092	0.5524	0.405
Mof_H 	H 	0.7193	0.6893	0.4718	0.417
Mof_H 	H 	0.6757	0.7323	0.4758	0.414
Mof_Zn	Zn	0.25144	0.23894	0.66745	1.236
Mof_O 	O 	0.25725	0.32261	0.79624	-0.457
Mof_O 	O 	0.25309	0.3165	0.67059	-0.496
Mof_O 	O 	0.24029	0.67082	0.82825	-0.489
Mof_O 	O 	0.24645	0.66498	0.70323	-0.454
Mof_O 	O 	0.23574	0.22283	0.5616	-0.636
Mof_C 	C 	0.24402	0.64632	0.76813	0.401
Mof_C 	C 	0.25442	0.34111	0.73111	0.4
Mof_C 	C 	0.25361	0.39871	0.72484	-0.105
Mof_C 	C 	0.254	0.42262	0.65376	0.035
Mof_H 	H 	0.2554	0.4022	0.6092	0.008
Mof_C 	C 	0.25239	0.4745	0.64755	-0.1
Mof_H 	H 	0.2523	0.49	0.5988	0.063
Mof_C 	C 	0.25083	0.50567	0.71355	0.027
Mof_C 	C 	0.24836	0.55991	0.70961	-0.027
Mof_H 	H 	0.2481	0.5763	0.6615	0.061
Mof_C 	C 	0.24633	0.58893	0.77361	-0.1
Mof_C 	C 	0.24797	0.565	0.84531	0.024
Mof_H 	H 	0.2478	0.5854	0.89	0.009
Mof_C 	C 	0.2498	0.51268	0.85125	-0.093
Mof_H 	H 	0.2505	0.497	0.8999	0.049
Mof_C 	C 	0.25062	0.48203	0.78563	0.019
Mof_C 	C 	0.25265	0.42767	0.78939	-0.022
Mof_H 	H 	0.2533	0.4112	0.8375	0.053
Mof_H 	H 	0.3009	0.2908	0.5524	0.405
Mof_H 	H 	0.2807	0.3107	0.4718	0.417
Mof_H 	H 	0.3243	0.2677	0.4758	0.414
Mof_Zn	Zn	0.73894	0.75144	0.83255	1.235
Mof_O 	O 	0.82261	0.75725	0.70376	-0.451
Mof_O 	O 	0.8165	0.75309	0.82941	-0.49
Mof_O 	O 	0.17082	0.74029	0.67175	-0.495
Mof_O 	O 	0.16498	0.74645	0.79677	-0.46
Mof_O 	O 	0.72283	0.73574	0.9384	-0.634
Mof_C 	C 	0.14632	0.74402	0.73187	0.406
Mof_C 	C 	0.84111	0.75442	0.76889	0.395
Mof_C 	C 	0.89871	0.75361	0.77516	-0.096
Mof_C 	C 	0.92262	0.754	0.84624	0.023
Mof_H 	H 	0.9022	0.7554	0.8908	0.009
Mof_C 	C 	0.9745	0.75239	0.85245	-0.092
Mof_H 	H 	0.99	0.7523	0.9012	0.049
Mof_C 	C 	0.00567	0.75083	0.78645	0.015
Mof_C 	C 	0.05991	0.74836	0.79039	-0.018
Mof_H 	H 	0.0763	0.7481	0.8385	0.052
Mof_C 	C 	0.08893	0.74633	0.72639	-0.109
Mof_C 	C 	0.065	0.74797	0.65469	0.036
Mof_H 	H 	0.0854	0.7478	0.61	0.007
Mof_C 	C 	0.01268	0.7498	0.64875	-0.102
Mof_H 	H 	0.997	0.7505	0.6001	0.063
Mof_C 	C 	0.98203	0.75062	0.71437	0.031
Mof_C 	C 	0.92767	0.75265	0.71061	-0.031
Mof_H 	H 	0.9112	0.7533	0.6625	0.062
Mof_H 	H 	0.7908	0.8009	0.9476	0.318
Mof_H 	H 	0.8107	0.7807	0.0282	0.357
Mof_H 	H 	0.7677	0.8243	0.0242	0.364
Mof_Zn	Zn	0.26106	0.24856	0.83255	1.235
Mof_O 	O 	0.17739	0.24275	0.70376	-0.451
Mof_O 	O 	0.1835	0.24691	0.82941	-0.49
Mof_O 	O 	0.82918	0.25971	0.67175	-0.495
Mof_O 	O 	0.83502	0.25355	0.79677	-0.46
Mof_O 	O 	0.27717	0.26426	0.9384	-0.634
Mof_C 	C 	0.85368	0.25598	0.73187	0.406
Mof_C 	C 	0.15889	0.24558	0.76889	0.395
Mof_C 	C 	0.10129	0.24639	0.77516	-0.096
Mof_C 	C 	0.07738	0.246	0.84624	0.023
Mof_H 	H 	0.0978	0.2446	0.8908	0.009
Mof_C 	C 	0.0255	0.24761	0.85245	-0.092
Mof_H 	H 	0.01	0.2477	0.9012	0.049
Mof_C 	C 	0.99433	0.24917	0.78645	0.015
Mof_C 	C 	0.94009	0.25164	0.79039	-0.018
Mof_H 	H 	0.9237	0.2519	0.8385	0.052
Mof_C 	C 	0.91107	0.25367	0.72639	-0.109
Mof_C 	C 	0.935	0.25203	0.65469	0.036
Mof_H 	H 	0.9146	0.2522	0.61	0.007
Mof_C 	C 	0.98732	0.2502	0.64875	-0.102
Mof_H 	H 	0.003	0.2495	0.6001	0.063
Mof_C 	C 	0.01797	0.24938	0.71437	0.031
Mof_C 	C 	0.07233	0.24735	0.71061	-0.031
Mof_H 	H 	0.0888	0.2467	0.6625	0.062
Mof_H 	H 	0.2092	0.1991	0.9476	0.318
Mof_H 	H 	0.1893	0.2193	0.0282	0.357
Mof_H 	H 	0.2323	0.1757	0.0242	0.364
Mof_Zn	Zn	0.75144	0.26106	0.33255	1.236
Mof_O 	O 	0.75725	0.17739	0.20376	-0.448
Mof_O 	O 	0.75309	0.1835	0.32941	-0.495
Mof_O 	O 	0.74029	0.82918	0.17175	-0.482
Mof_O 	O 	0.74645	0.83502	0.29677	-0.453
Mof_O 	O 	0.73574	0.27717	0.4384	-0.635
Mof_C 	C 	0.74402	0.85368	0.23187	0.403
Mof_C 	C 	0.75442	0.15889	0.26889	0.398
Mof_C 	C 	0.75361	0.10129	0.27516	-0.097
Mof_C 	C 	0.754	0.07738	0.34624	0.031
Mof_H 	H 	0.7554	0.0978	0.3908	0.01
Mof_C 	C 	0.75239	0.0255	0.35245	-0.094
Mof_H 	H 	0.7523	0.01	0.4012	0.061
Mof_C 	C 	0.75083	0.99433	0.28645	0.025
Mof_C 	C 	0.74836	0.94009	0.29039	-0.022
Mof_H 	H 	0.7481	0.9237	0.3385	0.061
Mof_C 	C 	0.74633	0.91107	0.22639	-0.097
Mof_C 	C 	0.74797	0.935	0.15469	0.033
Mof_H 	H 	0.7478	0.9146	0.11	0.024
Mof_C 	C 	0.7498	0.98732	0.14875	-0.093
Mof_H 	H 	0.7505	0.003	0.1001	0.073
Mof_C 	C 	0.75062	0.01797	0.21437	0.031
Mof_C 	C 	0.75265	0.07233	0.21061	-0.026
Mof_H 	H 	0.7533	0.0888	0.1625	0.068
Mof_H 	H 	0.8009	0.2092	0.4476	0.405
Mof_H 	H 	0.7807	0.1893	0.5282	0.417
Mof_H 	H 	0.8243	0.2323	0.5242	0.414
Mof_Zn	Zn	0.24856	0.73894	0.33255	1.236
Mof_O 	O 	0.24275	0.82261	0.20376	-0.448
Mof_O 	O 	0.24691	0.8165	0.32941	-0.495
Mof_O 	O 	0.25971	0.17082	0.17175	-0.482
Mof_O 	O 	0.25355	0.16498	0.29677	-0.453
Mof_O 	O 	0.26426	0.72283	0.4384	-0.635
Mof_C 	C 	0.25598	0.14632	0.23187	0.403
Mof_C 	C 	0.24558	0.84111	0.26889	0.398
Mof_C 	C 	0.24639	0.89871	0.27516	-0.097
Mof_C 	C 	0.246	0.92262	0.34624	0.031
Mof_H 	H 	0.2446	0.9022	0.3908	0.01
Mof_C 	C 	0.24761	0.9745	0.35245	-0.094
Mof_H 	H 	0.2477	0.99	0.4012	0.061
Mof_C 	C 	0.24917	0.00567	0.28645	0.025
Mof_C 	C 	0.25164	0.05991	0.29039	-0.022
Mof_H 	H 	0.2519	0.0763	0.3385	0.061
Mof_C 	C 	0.25367	0.08893	0.22639	-0.097
Mof_C 	C 	0.25203	0.065	0.15469	0.033
Mof_H 	H 	0.2522	0.0854	0.11	0.024
Mof_C 	C 	0.2502	0.01268	0.14875	-0.093
Mof_H 	H 	0.2495	0.997	0.1001	0.073
Mof_C 	C 	0.24938	0.98203	0.21437	0.031
Mof_C 	C 	0.24735	0.92767	0.21061	-0.026
Mof_H 	H 	0.2467	0.9112	0.1625	0.068
Mof_H 	H 	0.1991	0.7908	0.4476	0.405
Mof_H 	H 	0.2193	0.8107	0.5282	0.417
Mof_H 	H 	0.1757	0.7677	0.5242	0.414
Mof_Zn	Zn	0.23894	0.74856	0.83255	1.235
Mof_O 	O 	0.32261	0.74275	0.70376	-0.451
Mof_O 	O 	0.3165	0.74691	0.82941	-0.49
Mof_O 	O 	0.67082	0.75971	0.67175	-0.495
Mof_O 	O 	0.66498	0.75355	0.79677	-0.46
Mof_O 	O 	0.22283	0.76426	0.9384	-0.634
Mof_C 	C 	0.64632	0.75598	0.73187	0.406
Mof_C 	C 	0.34111	0.74558	0.76889	0.395
Mof_C 	C 	0.39871	0.74639	0.77516	-0.096
Mof_C 	C 	0.42262	0.746	0.84624	0.023
Mof_H 	H 	0.4022	0.7446	0.8908	0.009
Mof_C 	C 	0.4745	0.74761	0.85245	-0.092
Mof_H 	H 	0.49	0.7477	0.9012	0.049
Mof_C 	C 	0.50567	0.74917	0.78645	0.015
Mof_C 	C 	0.55991	0.75164	0.79039	-0.018
Mof_H 	H 	0.5763	0.7519	0.8385	0.052
Mof_C 	C 	0.58893	0.75367	0.72639	-0.109
Mof_C 	C 	0.565	0.75203	0.65469	0.036
Mof_H 	H 	0.5854	0.7522	0.61	0.007
Mof_C 	C 	0.51268	0.7502	0.64875	-0.102
Mof_H 	H 	0.497	0.7495	0.6001	0.063
Mof_C 	C 	0.48203	0.74938	0.71437	0.031
Mof_C 	C 	0.42767	0.74735	0.71061	-0.031
Mof_H 	H 	0.4112	0.7467	0.6625	0.062
Mof_H 	H 	0.2908	0.6991	0.9476	0.318
Mof_H 	H 	0.3107	0.7193	0.0282	0.357
Mof_H 	H 	0.2677	0.6757	0.0242	0.364
Mof_Zn	Zn	0.76106	0.25144	0.83255	1.235
Mof_O 	O 	0.67739	0.25725	0.70376	-0.451
Mof_O 	O 	0.6835	0.25309	0.82941	-0.49
Mof_O 	O 	0.32918	0.24029	0.67175	-0.495
Mof_O 	O 	0.33502	0.24645	0.79677	-0.46
Mof_O 	O 	0.77717	0.23574	0.9384	-0.634
Mof_C 	C 	0.35368	0.24402	0.73187	0.406
Mof_C 	C 	0.65889	0.25442	0.76889	0.395
Mof_C 	C 	0.60129	0.25361	0.77516	-0.096
Mof_C 	C 	0.57738	0.254	0.84624	0.023
Mof_H 	H 	0.5978	0.2554	0.8908	0.009
Mof_C 	C 	0.5255	0.25239	0.85245	-0.092
Mof_H 	H 	0.51	0.2523	0.9012	0.049
Mof_C 	C 	0.49433	0.25083	0.78645	0.015
Mof_C 	C 	0.44009	0.24836	0.79039	-0.018
Mof_H 	H 	0.4237	0.2481	0.8385	0.052
Mof_C 	C 	0.41107	0.24633	0.72639	-0.109
Mof_C 	C 	0.435	0.24797	0.65469	0.036
Mof_H 	H 	0.4146	0.2478	0.61	0.007
Mof_C 	C 	0.48732	0.2498	0.64875	-0.102
Mof_H 	H 	0.503	0.2505	0.6001	0.063
Mof_C 	C 	0.51797	0.25062	0.71437	0.031
Mof_C 	C 	0.57233	0.25265	0.71061	-0.031
Mof_H 	H 	0.5888	0.2533	0.6625	0.062
Mof_H 	H 	0.7092	0.3009	0.9476	0.318
Mof_H 	H 	0.6893	0.2807	0.0282	0.357
Mof_H 	H 	0.7323	0.3243	0.0242	0.364
Mof_Zn	Zn	0.25144	0.23894	0.33255	1.236
Mof_O 	O 	0.25725	0.32261	0.20376	-0.448
Mof_O 	O 	0.25309	0.3165	0.32941	-0.495
Mof_O 	O 	0.24029	0.67082	0.17175	-0.481
Mof_O 	O 	0.24645	0.66498	0.29677	-0.453
Mof_O 	O 	0.23574	0.22283	0.4384	-0.635
Mof_C 	C 	0.24402	0.64632	0.23187	0.403
Mof_C 	C 	0.25442	0.34111	0.26889	0.398
Mof_C 	C 	0.25361	0.39871	0.27516	-0.097
Mof_C 	C 	0.254	0.42262	0.34624	0.031
Mof_H 	H 	0.2554	0.4022	0.3908	0.01
Mof_C 	C 	0.25239	0.4745	0.35245	-0.094
Mof_H 	H 	0.2523	0.49	0.4012	0.061
Mof_C 	C 	0.25083	0.50567	0.28645	0.025
Mof_C 	C 	0.24836	0.55991	0.29039	-0.022
Mof_H 	H 	0.2481	0.5763	0.3385	0.061
Mof_C 	C 	0.24633	0.58893	0.22639	-0.097
Mof_C 	C 	0.24797	0.565	0.15469	0.033
Mof_H 	H 	0.2478	0.5854	0.11	0.024
Mof_C 	C 	0.2498	0.51268	0.14875	-0.093
Mof_H 	H 	0.2505	0.497	0.1001	0.074
Mof_C 	C 	0.25062	0.48203	0.21437	0.032
Mof_C 	C 	0.25265	0.42767	0.21061	-0.026
Mof_H 	H 	0.2533	0.4112	0.1625	0.068
Mof_H 	H 	0.3009	0.2908	0.4476	0.405
Mof_H 	H 	0.2807	0.3107	0.5282	0.417
Mof_H 	H 	0.3243	0.2677	0.5242	0.414
Mof_Zn	Zn	0.74856	0.76106	0.33255	1.236
Mof_O 	O 	0.74275	0.67739	0.20376	-0.448
Mof_O 	O 	0.74691	0.6835	0.32941	-0.495
Mof_O 	O 	0.75971	0.32918	0.17175	-0.481
Mof_O 	O 	0.75355	0.33502	0.29677	-0.453
Mof_O 	O 	0.76426	0.77717	0.4384	-0.635
Mof_C 	C 	0.75598	0.35368	0.23187	0.403
Mof_C 	C 	0.74558	0.65889	0.26889	0.398
Mof_C 	C 	0.74639	0.60129	0.27516	-0.097
Mof_C 	C 	0.746	0.57738	0.34624	0.031
Mof_H 	H 	0.7446	0.5978	0.3908	0.01
Mof_C 	C 	0.74761	0.5255	0.35245	-0.094
Mof_H 	H 	0.7477	0.51	0.4012	0.061
Mof_C 	C 	0.74917	0.49433	0.28645	0.025
Mof_C 	C 	0.75164	0.44009	0.29039	-0.022
Mof_H 	H 	0.7519	0.4237	0.3385	0.061
Mof_C 	C 	0.75367	0.41107	0.22639	-0.097
Mof_C 	C 	0.75203	0.435	0.15469	0.033
Mof_H 	H 	0.7522	0.4146	0.11	0.024
Mof_C 	C 	0.7502	0.48732	0.14875	-0.093
Mof_H 	H 	0.7495	0.503	0.1001	0.074
Mof_C 	C 	0.74938	0.51797	0.21437	0.032
Mof_C 	C 	0.74735	0.57233	0.21061	-0.026
Mof_H 	H 	0.7467	0.5888	0.1625	0.068
Mof_H 	H 	0.6991	0.7092	0.4476	0.405
Mof_H 	H 	0.7193	0.6893	0.5282	0.417
Mof_H 	H 	0.6757	0.7323	0.5242	0.414
Mof_Zn	Zn	0.26106	0.24856	0.16745	1.236
Mof_O 	O 	0.17739	0.24275	0.29624	-0.45
Mof_O 	O 	0.1835	0.24691	0.17059	-0.482
Mof_O 	O 	0.82918	0.25971	0.32825	-0.493
Mof_O 	O 	0.83502	0.25355	0.20323	-0.451
Mof_O 	O 	0.27717	0.26426	0.0616	-0.586
Mof_C 	C 	0.85368	0.25598	0.26813	0.404
Mof_C 	C 	0.15889	0.24558	0.23111	0.396
Mof_C 	C 	0.10129	0.24639	0.22484	-0.093
Mof_C 	C 	0.07738	0.246	0.15376	0.032
Mof_H 	H 	0.0978	0.2446	0.1092	0.025
Mof_C 	C 	0.0255	0.24761	0.14755	-0.091
Mof_H 	H 	0.01	0.2477	0.0988	0.073
Mof_C 	C 	0.99433	0.24917	0.21355	0.028
Mof_C 	C 	0.94009	0.25164	0.20961	-0.023
Mof_H 	H 	0.9237	0.2519	0.1615	0.067
Mof_C 	C 	0.91107	0.25367	0.27361	-0.1
Mof_C 	C 	0.935	0.25203	0.34531	0.032
Mof_H 	H 	0.9146	0.2522	0.39	0.009
Mof_C 	C 	0.98732	0.2502	0.35125	-0.096
Mof_H 	H 	0.003	0.2495	0.3999	0.062
Mof_C 	C 	0.01797	0.24938	0.28563	0.028
Mof_C 	C 	0.07233	0.24735	0.28939	-0.026
Mof_H 	H 	0.0888	0.2467	0.3375	0.061
Mof_H 	H 	0.2092	0.1991	0.0524	0.286
Mof_H 	H 	0.1893	0.2193	0.9718	0.271
Mof_H 	H 	0.2323	0.1757	0.9758	0.259
Mof_Zn	Zn	0.73894	0.75144	0.16745	1.236
Mof_O 	O 	0.82261	0.75725	0.29624	-0.45
Mof_O 	O 	0.8165	0.75309	0.17059	-0.482
Mof_O 	O 	0.17082	0.74029	0.32825	-0.493
Mof_O 	O 	0.16498	0.74645	0.20323	-0.451
Mof_O 	O 	0.72283	0.73574	0.0616	-0.586
Mof_C 	C 	0.14632	0.74402	0.26813	0.404
Mof_C 	C 	0.84111	0.75442	0.23111	0.396
Mof_C 	C 	0.89871	0.75361	0.22484	-0.093
Mof_C 	C 	0.92262	0.754	0.15376	0.032
Mof_H 	H 	0.9022	0.7554	0.1092	0.025
Mof_C 	C 	0.9745	0.75239	0.14755	-0.091
Mof_H 	H 	0.99	0.7523	0.0988	0.073
Mof_C 	C 	0.00567	0.75083	0.21355	0.028
Mof_C 	C 	0.05991	0.74836	0.20961	-0.023
Mof_H 	H 	0.0763	0.7481	0.1615	0.067
Mof_C 	C 	0.08893	0.74633	0.27361	-0.1
Mof_C 	C 	0.065	0.74797	0.34531	0.032
Mof_H 	H 	0.0854	0.7478	0.39	0.009
Mof_C 	C 	0.01268	0.7498	0.35125	-0.096
Mof_H 	H 	0.997	0.7505	0.3999	0.062
Mof_C 	C 	0.98203	0.75062	0.28563	0.028
Mof_C 	C 	0.92767	0.75265	0.28939	-0.026
Mof_H 	H 	0.9112	0.7533	0.3375	0.061
Mof_H 	H 	0.7908	0.8009	0.0524	0.286
Mof_H 	H 	0.8107	0.7807	0.9718	0.271
Mof_H 	H 	0.7677	0.8243	0.9758	0.259
Mof_Zn	Zn	0.24856	0.73894	0.66745	1.236
Mof_O 	O 	0.24275	0.82261	0.79624	-0.457
Mof_O 	O 	0.24691	0.8165	0.67059	-0.496
Mof_O 	O 	0.25971	0.17082	0.82825	-0.489
Mof_O 	O 	0.25355	0.16498	0.70323	-0.454
Mof_O 	O 	0.26426	0.72283	0.5616	-0.636
Mof_C 	C 	0.25598	0.14632	0.76813	0.401
Mof_C 	C 	0.24558	0.84111	0.73111	0.4
Mof_C 	C 	0.24639	0.89871	0.72484	-0.105
Mof_C 	C 	0.246	0.92262	0.65376	0.035
Mof_H 	H 	0.2446	0.9022	0.6092	0.008
Mof_C 	C 	0.24761	0.9745	0.64755	-0.1
Mof_H 	H 	0.2477	0.99	0.5988	0.063
Mof_C 	C 	0.24917	0.00567	0.71355	0.027
Mof_C 	C 	0.25164	0.05991	0.70961	-0.027
Mof_H 	H 	0.2519	0.0763	0.6615	0.061
Mof_C 	C 	0.25367	0.08893	0.77361	-0.1
Mof_C 	C 	0.25203	0.065	0.84531	0.024
Mof_H 	H 	0.2522	0.0854	0.89	0.009
Mof_C 	C 	0.2502	0.01268	0.85125	-0.093
Mof_H 	H 	0.2495	0.997	0.8999	0.05
Mof_C 	C 	0.24938	0.98203	0.78563	0.019
Mof_C 	C 	0.24735	0.92767	0.78939	-0.022
Mof_H 	H 	0.2467	0.9112	0.8375	0.053
Mof_H 	H 	0.1991	0.7908	0.5524	0.405
Mof_H 	H 	0.2193	0.8107	0.4718	0.417
Mof_H 	H 	0.1757	0.7677	0.4758	0.414
Mof_Zn	Zn	0.75144	0.26106	0.66745	1.236
Mof_O 	O 	0.75725	0.17739	0.79624	-0.457
Mof_O 	O 	0.75309	0.1835	0.67059	-0.496
Mof_O 	O 	0.74029	0.82918	0.82825	-0.489
Mof_O 	O 	0.74645	0.83502	0.70323	-0.454
Mof_O 	O 	0.73574	0.27717	0.5616	-0.636
Mof_C 	C 	0.74402	0.85368	0.76813	0.401
Mof_C 	C 	0.75442	0.15889	0.73111	0.4
Mof_C 	C 	0.75361	0.10129	0.72484	-0.105
Mof_C 	C 	0.754	0.07738	0.65376	0.035
Mof_H 	H 	0.7554	0.0978	0.6092	0.008
Mof_C 	C 	0.75239	0.0255	0.64755	-0.1
Mof_H 	H 	0.7523	0.01	0.5988	0.063
Mof_C 	C 	0.75083	0.99433	0.71355	0.027
Mof_C 	C 	0.74836	0.94009	0.70961	-0.027
Mof_H 	H 	0.7481	0.9237	0.6615	0.061
Mof_C 	C 	0.74633	0.91107	0.77361	-0.1
Mof_C 	C 	0.74797	0.935	0.84531	0.024
Mof_H 	H 	0.7478	0.9146	0.89	0.009
Mof_C 	C 	0.7498	0.98732	0.85125	-0.093
Mof_H 	H 	0.7505	0.003	0.8999	0.05
Mof_C 	C 	0.75062	0.01797	0.78563	0.019
Mof_C 	C 	0.75265	0.07233	0.78939	-0.022
Mof_H 	H 	0.7533	0.0888	0.8375	0.053
Mof_H 	H 	0.8009	0.2092	0.5524	0.405
Mof_H 	H 	0.7807	0.1893	0.4718	0.417
Mof_H 	H 	0.8243	0.2323	0.4758	0.414
Mof_C 	C 	0.75983	0.2531	-0	0.976
Mof_C 	C 	0.71916	0.29316	-0	-1.837
Mof_C 	C 	0.24017	0.7469	-0	0.976
Mof_C 	C 	0.28084	0.70684	-0	-1.837
Mof_C 	C 	0.7469	0.75983	0.5	1.088
Mof_C 	C 	0.70684	0.71916	0.5	-2.438
Mof_C 	C 	0.2531	0.24017	0.5	1.088
Mof_C 	C 	0.29316	0.28084	0.5	-2.438
Mof_C 	C 	0.74017	0.7531	-0	0.977
Mof_C 	C 	0.78084	0.79316	-0	-1.84
Mof_C 	C 	0.25983	0.2469	-0	0.977
Mof_C 	C 	0.21916	0.20684	-0	-1.84
Mof_C 	C 	0.7531	0.25983	0.5	1.088
Mof_C 	C 	0.79316	0.21916	0.5	-2.438
Mof_C 	C 	0.2469	0.74017	0.5	1.088
Mof_C 	C 	0.20684	0.78084	0.5	-2.438
_end
