data_functionalizedCrystal
_audit_creation_method	'EQeq! by Chris Wilmer'
_symmetry_space_group_name_H-M	'P1'
_symmetry_Int_Tables_number	1
_symmetry_cell_setting	triclinic
loop_
_symmetry_equiv_pos_as_xyz
  x,y,z
_cell_length_a	6.885
_cell_length_b	8.5229
_cell_length_c	11.384
_cell_angle_alpha	95.411
_cell_angle_beta	90.8
_cell_angle_gamma	108.87
loop_
_atom_site_label
_atom_site_type_symbol
_atom_site_fract_x
_atom_site_fract_y
_atom_site_fract_z
_atom_site_charge
Mof_U 	U 	0.34297	0.16988	0.32921	-0.021
Mof_O 	O 	0.9718	0.0904	0.3467	-0.13
Mof_O 	O 	0.7591	0.0836	0.5895	-0.146
Mof_O 	O 	0.6612	0.1124	0.3434	-0.171
Mof_O 	O 	0.7915	0.6451	0.77035	-0.208
Mof_O 	O 	0.0247	0.5313	0.81941	-0.427
Mof_C 	C 	0.8836	0.3684	0.5609	-0.052
Mof_O 	O 	0.6708	0.2634	0.71581	-0.198
Mof_C 	C 	0.9529	0.5315	0.6161	0.058
Mof_C 	C 	0.7596	0.2291	0.6288	0.307
Mof_C 	C 	0.8475	0.1662	0.3764	0.253
Mof_C 	C 	0.9162	0.5688	0.7452	0.386
Mof_C 	C 	0.9306	0.3376	0.4442	0.099
Mof_U 	U 	0.65703	0.83012	0.67079	0.024
Mof_O 	O 	0.0282	0.9096	0.6533	-0.201
Mof_O 	O 	0.2409	0.9164	0.4105	-0.181
Mof_O 	O 	0.3388	0.8876	0.6566	-0.174
Mof_O 	O 	0.2085	0.3549	0.22965	-0.268
Mof_O 	O 	0.9753	0.4687	0.18059	-0.371
Mof_C 	C 	0.1164	0.6316	0.4391	0.026
Mof_O 	O 	0.3292	0.7366	0.28419	-0.241
Mof_C 	C 	0.0471	0.4685	0.3839	-0.123
Mof_C 	C 	0.2404	0.7709	0.3712	0.272
Mof_C 	C 	0.1525	0.8338	0.6236	0.301
Mof_C 	C 	0.0838	0.4312	0.2548	0.286
Mof_C 	C 	0.0694	0.6624	0.5558	-0.097
Mof_Co	Co	-2.26074e-17	0.5	-0	0.997
_end
