# CIF file generated by openbabel 3.1.0, see https://openbabel.org
data_I
_chemical_name_common 'image0'
_cell_length_a 6.654
_cell_length_b 8.939
_cell_length_c 11.505
_cell_angle_alpha 94.2
_cell_angle_beta 90.57
_cell_angle_gamma 107.12
_space_group_name_H-M_alt 'P 1'
_space_group_name_Hall 'P 1'
loop_
    _symmetry_equiv_pos_as_xyz
    x,y,z
loop_
    _atom_site_label
    _atom_site_type_symbol
    _atom_site_fract_x
    _atom_site_fract_y
    _atom_site_fract_z
    _atom_site_occupancy
    Zr1      Zr       0.16896    0.27749    0.90169    1.000
    Zr2      Zr       0.77480    0.55838    0.64844    1.000
    P1       P        0.70970    0.38320    0.91433    1.000
    P2       P        0.23410    0.45580    0.63912    1.000
    P3       P        0.85990    0.90210    0.82960    1.000
    P4       P        0.00610    0.12760    0.16430    1.000
    F1       F        0.68100    0.33770    0.57930    1.000
    O1       O        0.48100    0.28010    0.90140    1.000
    O2       O        0.74410    0.49370    0.02680    1.000
    O3       O        0.85080    0.27380    0.91900    1.000
    O4       O        0.76620    0.48150    0.81040    1.000
    O5       O        0.20620    0.36420    0.51870    1.000
    O6       O        0.46250    0.56010    0.65700    1.000
    O7       O        0.08900    0.56260    0.64450    1.000
    O8       O        0.18170    0.34140    0.73370    1.000
    O9       O        0.05720    0.04520    0.83060    1.000
    O10      O        0.85230    0.81410    0.93630    1.000
    O11      O        0.87010    0.79290    0.71820    1.000
    O12      O        0.66500    0.96740    0.81880    1.000
    O13      O        0.78990    0.16840    0.14940    1.000
    Zr3      Zr       0.83104    0.72251    0.09831    1.000
    Zr4      Zr       0.22520    0.44162    0.35156    1.000
    P5       P        0.29030    0.61680    0.08567    1.000
    P6       P        0.76590    0.54420    0.36088    1.000
    P7       P        0.14010    0.09790    0.17040    1.000
    P8       P        0.99390    0.87240    0.83570    1.000
    F2       F        0.31900    0.66230    0.42070    1.000
    O14      O        0.51900    0.71990    0.09860    1.000
    O15      O        0.25590    0.50630    0.97320    1.000
    O16      O        0.14920    0.72620    0.08100    1.000
    O17      O        0.23380    0.51850    0.18960    1.000
    O18      O        0.79380    0.63580    0.48130    1.000
    O19      O        0.53750    0.43990    0.34300    1.000
    O20      O        0.91100    0.43740    0.35550    1.000
    O21      O        0.81830    0.65860    0.26630    1.000
    O22      O        0.94280    0.95480    0.16940    1.000
    O23      O        0.14770    0.18590    0.06370    1.000
    O24      O        0.12990    0.20710    0.28180    1.000
    O25      O        0.33500    0.03260    0.18120    1.000
    O26      O        0.21010    0.83160    0.85060    1.000
