# CIF file generated by openbabel 3.1.0, see https://openbabel.org
data_I
_chemical_name_common 'image0'
_cell_length_a 17.564
_cell_length_b 25.629
_cell_length_c 20.8
_cell_angle_alpha 90
_cell_angle_beta 90
_cell_angle_gamma 90
_space_group_name_H-M_alt 'P 1'
_space_group_name_Hall 'P 1'
loop_
    _symmetry_equiv_pos_as_xyz
    x,y,z
loop_
    _atom_site_label
    _atom_site_type_symbol
    _atom_site_fract_x
    _atom_site_fract_y
    _atom_site_fract_z
    _atom_site_occupancy
    Co1      Co       0.99689    0.68198    0.56165    1.000
    O1       O        0.06700    0.62160    0.51710    1.000
    O2       O        0.11980    0.68640    0.55880    1.000
    O3       O        0.82700    0.69552    0.61470    1.000
    O4       O        0.89500    0.65940    0.53560    1.000
    O5       O        0.56430    0.30783    0.21720    1.000
    O6       O        0.49550    0.35590    0.14710    1.000
    C1       C        0.12030    0.64860    0.52680    1.000
    C2       C        0.20080    0.62770    0.50970    1.000
    C3       C        0.26060    0.65600    0.51390    1.000
    H1       H        0.25480    0.68930    0.53090    1.000
    C4       C        0.33320    0.64120    0.49520    1.000
    H2       H        0.37400    0.66420    0.49800    1.000
    C5       C        0.34240    0.59210    0.47270    1.000
    C6       C        0.28240    0.55780    0.47290    1.000
    H3       H        0.28790    0.52320    0.46030    1.000
    C7       C        0.21110    0.57850    0.49370    1.000
    H4       H        0.16960    0.55600    0.49590    1.000
    C8       C        0.83130    0.66970    0.57230    1.000
    C9       C        0.76200    0.64120    0.53690    1.000
    C10      C        0.76420    0.61470    0.48380    1.000
    H5       H        0.81080    0.60990    0.46330    1.000
    C11      C        0.69750    0.59260    0.45590    1.000
    H6       H        0.69880    0.57790    0.41500    1.000
    C12      C        0.62970    0.59380    0.49160    1.000
    C13      C        0.62940    0.61960    0.54910    1.000
    H7       H        0.58430    0.62200    0.57230    1.000
    C14      C        0.69510    0.64230    0.57370    1.000
    H8       H        0.69470    0.65810    0.61400    1.000
    C15      C        0.52430    0.34670    0.20300    1.000
    C16      C        0.51550    0.38600    0.25350    1.000
    C17      C        0.46060    0.42690    0.24530    1.000
    H9       H        0.42860    0.42690    0.20960    1.000
    C18      C        0.45540    0.46510    0.28890    1.000
    H10      H        0.42010    0.49150    0.28200    1.000
    C19      C        0.50140    0.46760    0.34600    1.000
    C20      C        0.55670    0.42520    0.35220    1.000
    H11      H        0.58910    0.42390    0.38750    1.000
    C21      C        0.56050    0.38760    0.30590    1.000
    H12      H        0.59670    0.36140    0.31080    1.000
    C22      C        0.42090    0.57020    0.45330    1.000
    C23      C        0.48650    0.59040    0.47960    1.000
    H13      H        0.48250    0.61730    0.50940    1.000
    C24      C        0.55950    0.57180    0.46320    1.000
    C25      C        0.56300    0.53160    0.42180    1.000
    H14      H        0.61030    0.51720    0.41260    1.000
    C26      C        0.49640    0.50960    0.39100    1.000
    C27      C        0.42700    0.53070    0.41170    1.000
    H15      H        0.38240    0.51620    0.39550    1.000
    Co2      Co       0.50311    0.31802    0.06165    1.000
    O7       O        0.43300    0.37840    0.01710    1.000
    O8       O        0.38020    0.31360    0.05880    1.000
    O9       O        0.67300    0.30448    0.11470    1.000
    O10      O        0.60500    0.34060    0.03560    1.000
    O11      O        0.93570    0.69217    0.71720    1.000
    O12      O        0.00450    0.64410    0.64710    1.000
    C28      C        0.37970    0.35140    0.02680    1.000
    C29      C        0.29920    0.37230    0.00970    1.000
    C30      C        0.23940    0.34400    0.01390    1.000
    H16      H        0.24520    0.31070    0.03090    1.000
    C31      C        0.16680    0.35880    0.99520    1.000
    H17      H        0.12600    0.33580    0.99800    1.000
    C32      C        0.15760    0.40790    0.97270    1.000
    C33      C        0.21760    0.44220    0.97290    1.000
    H18      H        0.21210    0.47680    0.96030    1.000
    C34      C        0.28890    0.42150    0.99370    1.000
    H19      H        0.33040    0.44400    0.99590    1.000
    C35      C        0.66870    0.33030    0.07230    1.000
    C36      C        0.73800    0.35880    0.03690    1.000
    C37      C        0.73580    0.38530    0.98380    1.000
    H20      H        0.68920    0.39010    0.96330    1.000
    C38      C        0.80250    0.40740    0.95590    1.000
    H21      H        0.80120    0.42210    0.91500    1.000
    C39      C        0.87030    0.40620    0.99160    1.000
    C40      C        0.87060    0.38040    0.04910    1.000
    H22      H        0.91570    0.37800    0.07230    1.000
    C41      C        0.80490    0.35770    0.07370    1.000
    H23      H        0.80530    0.34190    0.11400    1.000
    C42      C        0.97570    0.65330    0.70300    1.000
    C43      C        0.98450    0.61400    0.75350    1.000
    C44      C        0.03940    0.57310    0.74530    1.000
    H24      H        0.07140    0.57310    0.70960    1.000
    C45      C        0.04460    0.53490    0.78890    1.000
    H25      H        0.07990    0.50850    0.78200    1.000
    C46      C        0.99860    0.53240    0.84600    1.000
    C47      C        0.94330    0.57480    0.85220    1.000
    H26      H        0.91090    0.57610    0.88750    1.000
    C48      C        0.93950    0.61240    0.80590    1.000
    H27      H        0.90330    0.63860    0.81080    1.000
    C49      C        0.07910    0.42980    0.95330    1.000
    C50      C        0.01350    0.40960    0.97960    1.000
    H28      H        0.01750    0.38270    0.00940    1.000
    C51      C        0.94050    0.42820    0.96320    1.000
    C52      C        0.93700    0.46840    0.92180    1.000
    H29      H        0.88970    0.48280    0.91260    1.000
    C53      C        0.00360    0.49040    0.89100    1.000
    C54      C        0.07300    0.46930    0.91170    1.000
    H30      H        0.11760    0.48380    0.89550    1.000
    Co3      Co       0.99689    0.81802    0.56165    1.000
    O13      O        0.06700    0.87840    0.51710    1.000
    O14      O        0.11980    0.81360    0.55880    1.000
    O15      O        0.82700    0.80448    0.61470    1.000
    O16      O        0.89500    0.84060    0.53560    1.000
    O17      O        0.56430    0.19217    0.21720    1.000
    O18      O        0.49550    0.14410    0.14710    1.000
    C55      C        0.12030    0.85140    0.52680    1.000
    C56      C        0.20080    0.87230    0.50970    1.000
    C57      C        0.26060    0.84400    0.51390    1.000
    H31      H        0.25480    0.81070    0.53090    1.000
    C58      C        0.33320    0.85880    0.49520    1.000
    H32      H        0.37400    0.83580    0.49800    1.000
    C59      C        0.34240    0.90790    0.47270    1.000
    C60      C        0.28240    0.94220    0.47290    1.000
    H33      H        0.28790    0.97680    0.46030    1.000
    C61      C        0.21110    0.92150    0.49370    1.000
    H34      H        0.16960    0.94400    0.49590    1.000
    C62      C        0.83130    0.83030    0.57230    1.000
    C63      C        0.76200    0.85880    0.53690    1.000
    C64      C        0.76420    0.88530    0.48380    1.000
    H35      H        0.81080    0.89010    0.46330    1.000
    C65      C        0.69750    0.90740    0.45590    1.000
    H36      H        0.69880    0.92210    0.41500    1.000
    C66      C        0.62970    0.90620    0.49160    1.000
    C67      C        0.62940    0.88040    0.54910    1.000
    H37      H        0.58430    0.87800    0.57230    1.000
    C68      C        0.69510    0.85770    0.57370    1.000
    H38      H        0.69470    0.84190    0.61400    1.000
    C69      C        0.52430    0.15330    0.20300    1.000
    C70      C        0.51550    0.11400    0.25350    1.000
    C71      C        0.46060    0.07310    0.24530    1.000
    H39      H        0.42860    0.07310    0.20960    1.000
    C72      C        0.45540    0.03490    0.28890    1.000
    H40      H        0.42010    0.00850    0.28200    1.000
    C73      C        0.50140    0.03240    0.34600    1.000
    C74      C        0.55670    0.07480    0.35220    1.000
    H41      H        0.58910    0.07610    0.38750    1.000
    C75      C        0.56050    0.11240    0.30590    1.000
    H42      H        0.59670    0.13860    0.31080    1.000
    C76      C        0.42090    0.92980    0.45330    1.000
    C77      C        0.48650    0.90960    0.47960    1.000
    H43      H        0.48250    0.88270    0.50940    1.000
    C78      C        0.55950    0.92820    0.46320    1.000
    C79      C        0.56300    0.96840    0.42180    1.000
    H44      H        0.61030    0.98280    0.41260    1.000
    C80      C        0.49640    0.99040    0.39100    1.000
    C81      C        0.42700    0.96930    0.41170    1.000
    H45      H        0.38240    0.98380    0.39550    1.000
    Co4      Co       0.50311    0.18198    0.06165    1.000
    O19      O        0.43300    0.12160    0.01710    1.000
    O20      O        0.38020    0.18640    0.05880    1.000
    O21      O        0.67300    0.19552    0.11470    1.000
    O22      O        0.60500    0.15940    0.03560    1.000
    O23      O        0.93570    0.80783    0.71720    1.000
    O24      O        0.00450    0.85590    0.64710    1.000
    C82      C        0.37970    0.14860    0.02680    1.000
    C83      C        0.29920    0.12770    0.00970    1.000
    C84      C        0.23940    0.15600    0.01390    1.000
    H46      H        0.24520    0.18930    0.03090    1.000
    C85      C        0.16680    0.14120    0.99520    1.000
    H47      H        0.12600    0.16420    0.99800    1.000
    C86      C        0.15760    0.09210    0.97270    1.000
    C87      C        0.21760    0.05780    0.97290    1.000
    H48      H        0.21210    0.02320    0.96030    1.000
    C88      C        0.28890    0.07850    0.99370    1.000
    H49      H        0.33040    0.05600    0.99590    1.000
    C89      C        0.66870    0.16970    0.07230    1.000
    C90      C        0.73800    0.14120    0.03690    1.000
    C91      C        0.73580    0.11470    0.98380    1.000
    H50      H        0.68920    0.10990    0.96330    1.000
    C92      C        0.80250    0.09260    0.95590    1.000
    H51      H        0.80120    0.07790    0.91500    1.000
    C93      C        0.87030    0.09380    0.99160    1.000
    C94      C        0.87060    0.11960    0.04910    1.000
    H52      H        0.91570    0.12200    0.07230    1.000
    C95      C        0.80490    0.14230    0.07370    1.000
    H53      H        0.80530    0.15810    0.11400    1.000
    C96      C        0.97570    0.84670    0.70300    1.000
    C97      C        0.98450    0.88600    0.75350    1.000
    C98      C        0.03940    0.92690    0.74530    1.000
    H54      H        0.07140    0.92690    0.70960    1.000
    C99      C        0.04460    0.96510    0.78890    1.000
    H55      H        0.07990    0.99150    0.78200    1.000
    C100     C        0.99860    0.96760    0.84600    1.000
    C101     C        0.94330    0.92520    0.85220    1.000
    H56      H        0.91090    0.92390    0.88750    1.000
    C102     C        0.93950    0.88760    0.80590    1.000
    H57      H        0.90330    0.86140    0.81080    1.000
    C103     C        0.07910    0.07020    0.95330    1.000
    C104     C        0.01350    0.09040    0.97960    1.000
    H58      H        0.01750    0.11730    0.00940    1.000
    C105     C        0.94050    0.07180    0.96320    1.000
    C106     C        0.93700    0.03160    0.92180    1.000
    H59      H        0.88970    0.01720    0.91260    1.000
    C107     C        0.00360    0.00960    0.89100    1.000
    C108     C        0.07300    0.03070    0.91170    1.000
    H60      H        0.11760    0.01620    0.89550    1.000
    Co5      Co       0.88638    0.75000    0.66226    1.000
    O25      O        0.98120    0.75000    0.60110    1.000
    Co6      Co       0.61362    0.25000    0.16226    1.000
    O26      O        0.51880    0.25000    0.10110    1.000
    Co7      Co       0.00311    0.18198    0.43835    1.000
    O27      O        0.93300    0.12160    0.48290    1.000
    O28      O        0.88020    0.18640    0.44120    1.000
    O29      O        0.17300    0.19552    0.38530    1.000
    O30      O        0.10500    0.15940    0.46440    1.000
    O31      O        0.43570    0.80783    0.78280    1.000
    O32      O        0.50450    0.85590    0.85290    1.000
    C109     C        0.87970    0.14860    0.47320    1.000
    C110     C        0.79920    0.12770    0.49030    1.000
    C111     C        0.73940    0.15600    0.48610    1.000
    H61      H        0.74520    0.18930    0.46910    1.000
    C112     C        0.66680    0.14120    0.50480    1.000
    H62      H        0.62600    0.16420    0.50200    1.000
    C113     C        0.65760    0.09210    0.52730    1.000
    C114     C        0.71760    0.05780    0.52710    1.000
    H63      H        0.71210    0.02320    0.53970    1.000
    C115     C        0.78890    0.07850    0.50630    1.000
    H64      H        0.83040    0.05600    0.50410    1.000
    C116     C        0.16870    0.16970    0.42770    1.000
    C117     C        0.23800    0.14120    0.46310    1.000
    C118     C        0.23580    0.11470    0.51620    1.000
    H65      H        0.18920    0.10990    0.53670    1.000
    C119     C        0.30250    0.09260    0.54410    1.000
    H66      H        0.30120    0.07790    0.58500    1.000
    C120     C        0.37030    0.09380    0.50840    1.000
    C121     C        0.37060    0.11960    0.45090    1.000
    H67      H        0.41570    0.12200    0.42770    1.000
    C122     C        0.30490    0.14230    0.42630    1.000
    H68      H        0.30530    0.15810    0.38600    1.000
    C123     C        0.47570    0.84670    0.79700    1.000
    C124     C        0.48450    0.88600    0.74650    1.000
    C125     C        0.53940    0.92690    0.75470    1.000
    H69      H        0.57140    0.92690    0.79040    1.000
    C126     C        0.54460    0.96510    0.71110    1.000
    H70      H        0.57990    0.99150    0.71800    1.000
    C127     C        0.49860    0.96760    0.65400    1.000
    C128     C        0.44330    0.92520    0.64780    1.000
    H71      H        0.41090    0.92390    0.61250    1.000
    C129     C        0.43950    0.88760    0.69410    1.000
    H72      H        0.40330    0.86140    0.68920    1.000
    C130     C        0.57910    0.07020    0.54670    1.000
    C131     C        0.51350    0.09040    0.52040    1.000
    H73      H        0.51750    0.11730    0.49060    1.000
    C132     C        0.44050    0.07180    0.53680    1.000
    C133     C        0.43700    0.03160    0.57820    1.000
    H74      H        0.38970    0.01720    0.58740    1.000
    C134     C        0.50360    0.00960    0.60900    1.000
    C135     C        0.57300    0.03070    0.58830    1.000
    H75      H        0.61760    0.01620    0.60450    1.000
    Co8      Co       0.49689    0.81802    0.93835    1.000
    O33      O        0.56700    0.87840    0.98290    1.000
    O34      O        0.61980    0.81360    0.94120    1.000
    O35      O        0.32700    0.80448    0.88530    1.000
    O36      O        0.39500    0.84060    0.96440    1.000
    O37      O        0.06430    0.19217    0.28280    1.000
    O38      O        0.99550    0.14410    0.35290    1.000
    C136     C        0.62030    0.85140    0.97320    1.000
    C137     C        0.70080    0.87230    0.99030    1.000
    C138     C        0.76060    0.84400    0.98610    1.000
    H76      H        0.75480    0.81070    0.96910    1.000
    C139     C        0.83320    0.85880    0.00480    1.000
    H77      H        0.87400    0.83580    0.00200    1.000
    C140     C        0.84240    0.90790    0.02730    1.000
    C141     C        0.78240    0.94220    0.02710    1.000
    H78      H        0.78790    0.97680    0.03970    1.000
    C142     C        0.71110    0.92150    0.00630    1.000
    H79      H        0.66960    0.94400    0.00410    1.000
    C143     C        0.33130    0.83030    0.92770    1.000
    C144     C        0.26200    0.85880    0.96310    1.000
    C145     C        0.26420    0.88530    0.01620    1.000
    H80      H        0.31080    0.89010    0.03670    1.000
    C146     C        0.19750    0.90740    0.04410    1.000
    H81      H        0.19880    0.92210    0.08500    1.000
    C147     C        0.12970    0.90620    0.00840    1.000
    C148     C        0.12940    0.88040    0.95090    1.000
    H82      H        0.08430    0.87800    0.92770    1.000
    C149     C        0.19510    0.85770    0.92630    1.000
    H83      H        0.19470    0.84190    0.88600    1.000
    C150     C        0.02430    0.15330    0.29700    1.000
    C151     C        0.01550    0.11400    0.24650    1.000
    C152     C        0.96060    0.07310    0.25470    1.000
    H84      H        0.92860    0.07310    0.29040    1.000
    C153     C        0.95540    0.03490    0.21110    1.000
    H85      H        0.92010    0.00850    0.21800    1.000
    C154     C        0.00140    0.03240    0.15400    1.000
    C155     C        0.05670    0.07480    0.14780    1.000
    H86      H        0.08910    0.07610    0.11250    1.000
    C156     C        0.06050    0.11240    0.19410    1.000
    H87      H        0.09670    0.13860    0.18920    1.000
    C157     C        0.92090    0.92980    0.04670    1.000
    C158     C        0.98650    0.90960    0.02040    1.000
    H88      H        0.98250    0.88270    0.99060    1.000
    C159     C        0.05950    0.92820    0.03680    1.000
    C160     C        0.06300    0.96840    0.07820    1.000
    H89      H        0.11030    0.98280    0.08740    1.000
    C161     C        0.99640    0.99040    0.10900    1.000
    C162     C        0.92700    0.96930    0.08830    1.000
    H90      H        0.88240    0.98380    0.10450    1.000
    Co9      Co       0.00311    0.31802    0.43835    1.000
    O39      O        0.93300    0.37840    0.48290    1.000
    O40      O        0.88020    0.31360    0.44120    1.000
    O41      O        0.17300    0.30448    0.38530    1.000
    O42      O        0.10500    0.34060    0.46440    1.000
    O43      O        0.43570    0.69217    0.78280    1.000
    O44      O        0.50450    0.64410    0.85290    1.000
    C163     C        0.87970    0.35140    0.47320    1.000
    C164     C        0.79920    0.37230    0.49030    1.000
    C165     C        0.73940    0.34400    0.48610    1.000
    H91      H        0.74520    0.31070    0.46910    1.000
    C166     C        0.66680    0.35880    0.50480    1.000
    H92      H        0.62600    0.33580    0.50200    1.000
    C167     C        0.65760    0.40790    0.52730    1.000
    C168     C        0.71760    0.44220    0.52710    1.000
    H93      H        0.71210    0.47680    0.53970    1.000
    C169     C        0.78890    0.42150    0.50630    1.000
    H94      H        0.83040    0.44400    0.50410    1.000
    C170     C        0.16870    0.33030    0.42770    1.000
    C171     C        0.23800    0.35880    0.46310    1.000
    C172     C        0.23580    0.38530    0.51620    1.000
    H95      H        0.18920    0.39010    0.53670    1.000
    C173     C        0.30250    0.40740    0.54410    1.000
    H96      H        0.30120    0.42210    0.58500    1.000
    C174     C        0.37030    0.40620    0.50840    1.000
    C175     C        0.37060    0.38040    0.45090    1.000
    H97      H        0.41570    0.37800    0.42770    1.000
    C176     C        0.30490    0.35770    0.42630    1.000
    H98      H        0.30530    0.34190    0.38600    1.000
    C177     C        0.47570    0.65330    0.79700    1.000
    C178     C        0.48450    0.61400    0.74650    1.000
    C179     C        0.53940    0.57310    0.75470    1.000
    H99      H        0.57140    0.57310    0.79040    1.000
    C180     C        0.54460    0.53490    0.71110    1.000
    H100     H        0.57990    0.50850    0.71800    1.000
    C181     C        0.49860    0.53240    0.65400    1.000
    C182     C        0.44330    0.57480    0.64780    1.000
    H101     H        0.41090    0.57610    0.61250    1.000
    C183     C        0.43950    0.61240    0.69410    1.000
    H102     H        0.40330    0.63860    0.68920    1.000
    C184     C        0.57910    0.42980    0.54670    1.000
    C185     C        0.51350    0.40960    0.52040    1.000
    H103     H        0.51750    0.38270    0.49060    1.000
    C186     C        0.44050    0.42820    0.53680    1.000
    C187     C        0.43700    0.46840    0.57820    1.000
    H104     H        0.38970    0.48280    0.58740    1.000
    C188     C        0.50360    0.49040    0.60900    1.000
    C189     C        0.57300    0.46930    0.58830    1.000
    H105     H        0.61760    0.48380    0.60450    1.000
    Co10     Co       0.49689    0.68198    0.93835    1.000
    O45      O        0.56700    0.62160    0.98290    1.000
    O46      O        0.61980    0.68640    0.94120    1.000
    O47      O        0.32700    0.69552    0.88530    1.000
    O48      O        0.39500    0.65940    0.96440    1.000
    O49      O        0.06430    0.30783    0.28280    1.000
    O50      O        0.99550    0.35590    0.35290    1.000
    C190     C        0.62030    0.64860    0.97320    1.000
    C191     C        0.70080    0.62770    0.99030    1.000
    C192     C        0.76060    0.65600    0.98610    1.000
    H106     H        0.75480    0.68930    0.96910    1.000
    C193     C        0.83320    0.64120    0.00480    1.000
    H107     H        0.87400    0.66420    0.00200    1.000
    C194     C        0.84240    0.59210    0.02730    1.000
    C195     C        0.78240    0.55780    0.02710    1.000
    H108     H        0.78790    0.52320    0.03970    1.000
    C196     C        0.71110    0.57850    0.00630    1.000
    H109     H        0.66960    0.55600    0.00410    1.000
    C197     C        0.33130    0.66970    0.92770    1.000
    C198     C        0.26200    0.64120    0.96310    1.000
    C199     C        0.26420    0.61470    0.01620    1.000
    H110     H        0.31080    0.60990    0.03670    1.000
    C200     C        0.19750    0.59260    0.04410    1.000
    H111     H        0.19880    0.57790    0.08500    1.000
    C201     C        0.12970    0.59380    0.00840    1.000
    C202     C        0.12940    0.61960    0.95090    1.000
    H112     H        0.08430    0.62200    0.92770    1.000
    C203     C        0.19510    0.64230    0.92630    1.000
    H113     H        0.19470    0.65810    0.88600    1.000
    C204     C        0.02430    0.34670    0.29700    1.000
    C205     C        0.01550    0.38600    0.24650    1.000
    C206     C        0.96060    0.42690    0.25470    1.000
    H114     H        0.92860    0.42690    0.29040    1.000
    C207     C        0.95540    0.46510    0.21110    1.000
    H115     H        0.92010    0.49150    0.21800    1.000
    C208     C        0.00140    0.46760    0.15400    1.000
    C209     C        0.05670    0.42520    0.14780    1.000
    H116     H        0.08910    0.42390    0.11250    1.000
    C210     C        0.06050    0.38760    0.19410    1.000
    H117     H        0.09670    0.36140    0.18920    1.000
    C211     C        0.92090    0.57020    0.04670    1.000
    C212     C        0.98650    0.59040    0.02040    1.000
    H118     H        0.98250    0.61730    0.99060    1.000
    C213     C        0.05950    0.57180    0.03680    1.000
    C214     C        0.06300    0.53160    0.07820    1.000
    H119     H        0.11030    0.51720    0.08740    1.000
    C215     C        0.99640    0.50960    0.10900    1.000
    C216     C        0.92700    0.53070    0.08830    1.000
    H120     H        0.88240    0.51620    0.10450    1.000
    Co11     Co       0.11362    0.25000    0.33774    1.000
    O51      O        0.01880    0.25000    0.39890    1.000
    Co12     Co       0.38638    0.75000    0.83774    1.000
    O52      O        0.48120    0.75000    0.89890    1.000
