data_functionalizedCrystal
_audit_creation_method	'EQeq! by Chris Wilmer'
_symmetry_space_group_name_H-M	'P1'
_symmetry_Int_Tables_number	1
_symmetry_cell_setting	triclinic
loop_
_symmetry_equiv_pos_as_xyz
  x,y,z
_cell_length_a	10.458
_cell_length_b	12.274
_cell_length_c	12.401
_cell_angle_alpha	86.14
_cell_angle_beta	79.87
_cell_angle_gamma	76.58
loop_
_atom_site_label
_atom_site_type_symbol
_atom_site_fract_x
_atom_site_fract_y
_atom_site_fract_z
_atom_site_charge
Mof_O 	O 	0.1345	0.9012	0.9756	-0.519
Mof_La	La	0.95736	0.12531	0.82907	1.879
Mof_Zn	Zn	0.18644	0.35029	0.19024	1.213
Mof_O 	O 	0.1864	0.2608	0.0468	-0.448
Mof_N 	N 	0.1718	0.394	0.3587	-0.226
Mof_C 	C 	0.0117	0.4499	0.8727	0
Mof_O 	O 	0.0398	0.1579	0.448	-0.266
Mof_O 	O 	0.9468	0.2808	0.676	-0.432
Mof_N 	N 	0.6092	0.7257	0.8268	-0.226
Mof_O 	O 	0.1477	0.1758	0.6669	-0.366
Mof_C 	C 	0.1279	0.3819	0.9005	-0.145
Mof_C 	C 	0.8774	0.4174	0.8876	0.349
Mof_C 	C 	0.144	0.2675	0.9585	0.44
Mof_C 	C 	0.127	0.3213	0.434	-0.004
Mof_C 	C 	0.0899	0.2253	0.3851	0.295
Mof_C 	C 	0.3862	0.7452	0.9225	-0.041
Mof_H 	H 	0.3266	0.7189	0.977	0.044
Mof_C 	C 	0.2073	0.4814	0.3929	0.082
Mof_H 	H 	0.2368	0.5323	0.3409	0.002
Mof_N 	N 	0.0071	0.5546	0.8317	-0.227
Mof_C 	C 	0.3433	0.84	0.8606	-0.096
Mof_C 	C 	0.2419	0.4249	0.8795	0.067
Mof_H 	H 	0.322	0.3817	0.8961	0.003
Mof_C 	C 	0.1172	0.5948	0.8132	0.086
Mof_H 	H 	0.1126	0.6676	0.7854	-0.002
Mof_C 	C 	0.117	0.3344	0.5455	-0.079
Mof_C 	C 	0.2009	0.9058	0.882	0.433
Mof_C 	C 	0.5186	0.6901	0.9027	0.022
Mof_H 	H 	0.5462	0.6253	0.9438	0.017
Mof_C 	C 	0.2373	0.5312	0.8341	-0.142
Mof_H 	H 	0.314	0.5592	0.818	0.083
Mof_C 	C 	0.1584	0.4245	0.5787	0.037
Mof_H 	H 	0.1565	0.4341	0.6528	0.023
Mof_C 	C 	0.2022	0.4996	0.5017	-0.122
Mof_H 	H 	0.2278	0.5615	0.523	0.076
Mof_C 	C 	0.0664	0.2569	0.6341	0.345
Mof_C 	C 	0.435	0.8749	0.7803	-0.036
Mof_H 	H 	0.4086	0.937	0.7355	0.054
Mof_C 	C 	0.5654	0.8176	0.7669	0.022
Mof_H 	H 	0.6266	0.8435	0.7136	0.008
Mof_O 	O 	0.7785	0.4947	0.8728	-0.431
Mof_O 	O 	0.1122	0.2209	0.2824	-0.419
Mof_O 	O 	0.1262	0.1848	0.9143	-0.456
Mof_O 	O 	0.1579	0.9645	0.8032	-0.463
Mof_O 	O 	0.8721	0.3191	0.9127	-0.432
Mof_O 	O 	0.8655	0.0988	0.0244	-0.52
Mof_La	La	0.04264	0.87469	0.17093	1.878
Mof_Zn	Zn	0.81356	0.64971	0.80976	1.212
Mof_O 	O 	0.8136	0.7392	0.9532	-0.449
Mof_N 	N 	0.8282	0.606	0.6413	-0.226
Mof_C 	C 	0.9883	0.5501	0.1273	0
Mof_O 	O 	0.9602	0.8421	0.552	-0.266
Mof_O 	O 	0.0532	0.7192	0.324	-0.432
Mof_N 	N 	0.3908	0.2743	0.1732	-0.226
Mof_O 	O 	0.8523	0.8242	0.3331	-0.366
Mof_C 	C 	0.8721	0.6181	0.0995	-0.145
Mof_C 	C 	0.1226	0.5826	0.1124	0.349
Mof_C 	C 	0.856	0.7325	0.0415	0.44
Mof_C 	C 	0.873	0.6787	0.566	-0.004
Mof_C 	C 	0.9101	0.7747	0.6149	0.295
Mof_C 	C 	0.6138	0.2548	0.0775	-0.041
Mof_H 	H 	0.6734	0.2811	0.023	0.044
Mof_C 	C 	0.7927	0.5186	0.6071	0.082
Mof_H 	H 	0.7632	0.4677	0.6591	0.002
Mof_N 	N 	0.9929	0.4454	0.1683	-0.227
Mof_C 	C 	0.6567	0.16	0.1394	-0.096
Mof_C 	C 	0.7581	0.5751	0.1205	0.067
Mof_H 	H 	0.678	0.6183	0.1039	0.003
Mof_C 	C 	0.8828	0.4052	0.1868	0.086
Mof_H 	H 	0.8874	0.3324	0.2146	-0.002
Mof_C 	C 	0.883	0.6656	0.4545	-0.079
Mof_C 	C 	0.7991	0.0942	0.118	0.433
Mof_C 	C 	0.4814	0.3099	0.0973	0.022
Mof_H 	H 	0.4538	0.3747	0.0562	0.017
Mof_C 	C 	0.7627	0.4688	0.1659	-0.142
Mof_H 	H 	0.686	0.4408	0.182	0.083
Mof_C 	C 	0.8416	0.5755	0.4213	0.037
Mof_H 	H 	0.8435	0.5659	0.3472	0.023
Mof_C 	C 	0.7978	0.5004	0.4983	-0.122
Mof_H 	H 	0.7722	0.4385	0.477	0.076
Mof_C 	C 	0.9336	0.7431	0.3659	0.345
Mof_C 	C 	0.565	0.1251	0.2197	-0.036
Mof_H 	H 	0.5914	0.063	0.2645	0.054
Mof_C 	C 	0.4346	0.1824	0.2331	0.022
Mof_H 	H 	0.3734	0.1565	0.2864	0.008
Mof_O 	O 	0.2215	0.5053	0.1272	-0.431
Mof_O 	O 	0.8878	0.7791	0.7176	-0.419
Mof_O 	O 	0.8738	0.8152	0.0857	-0.456
Mof_O 	O 	0.8421	0.0355	0.1968	-0.463
Mof_O 	O 	0.1279	0.6809	0.0873	-0.432
_end
