data_functionalizedCrystal
_audit_creation_method	'EQeq! by Chris Wilmer'
_symmetry_space_group_name_H-M	'P1'
_symmetry_Int_Tables_number	1
_symmetry_cell_setting	triclinic
loop_
_symmetry_equiv_pos_as_xyz
  x,y,z
_cell_length_a	16.634
_cell_length_b	16.634
_cell_length_c	18.194
_cell_angle_alpha	90
_cell_angle_beta	90
_cell_angle_gamma	120
loop_
_atom_site_label
_atom_site_type_symbol
_atom_site_fract_x
_atom_site_fract_y
_atom_site_fract_z
_atom_site_charge
Mof_Ni	Ni	8e-05	0.32066	0.14951	1.096
Mof_Ni	Ni	0.32058	0.99992	0.14951	1.096
Mof_Ni	Ni	0.67905	0.6791	0.7683	1.111
Mof_Ni	Ni	0.3209	0.99995	0.7683	1.098
Mof_Ni	Ni	0.67934	0.67942	0.14951	1.113
Mof_Ni	Ni	5e-05	0.32095	0.7683	1.097
Mof_H 	H 	0.4523	0.1079	0.6457	-0.006
Mof_H 	H 	0.4596	0.0565	0.0151	-0.002
Mof_H 	H 	0.1948	0.8885	0.6463	0.001
Mof_H 	H 	0.3664	0.1368	0.4056	0.035
Mof_H 	H 	0.1409	0.1382	0.7632	0.069
Mof_H 	H 	0.7617	0.6227	0.0165	0.059
Mof_H 	H 	0.4912	0.7768	0.7555	0.042
Mof_H 	H 	0.6556	0.5477	0.6457	0.018
Mof_H 	H 	0.5445	0.6009	0.9021	0.048
Mof_H 	H 	0.8864	0.3453	0.5171	0.121
Mof_H 	H 	0.1331	0.4258	0.4056	0.039
Mof_H 	H 	0.2665	0.0845	0.901	0.053
Mof_H 	H 	0.8644	0.2278	0.2781	0.044
Mof_H 	H 	0.1954	0.888	0.5154	0.113
Mof_H 	H 	0.3991	0.9436	0.9021	0.106
Mof_H 	H 	0.1812	0.9088	0.9015	0.043
Mof_H 	H 	0.1115	0.3063	0.6463	0.008
Mof_H 	H 	0.5402	0.5947	0.016	0.057
Mof_H 	H 	0.5772	0.7098	0.2804	0.016
Mof_H 	H 	0.817	0.7337	0.0168	0.057
Mof_H 	H 	0.6167	0.7576	0.9019	0.052
Mof_H 	H 	0.8618	0.0027	0.7632	0.047
Mof_H 	H 	0.2424	0.8591	0.9019	0.052
Mof_H 	H 	0.6937	0.8052	0.6463	0.023
Mof_H 	H 	0.1326	0.4228	0.2804	0.045
Mof_H 	H 	0.5997	0.5454	0.9012	0.049
Mof_H 	H 	0.6926	0.8046	0.5154	0.074
Mof_H 	H 	0.9457	0.4003	0.9012	0.132
Mof_H 	H 	0.3773	0.139	0.0165	0.052
Mof_H 	H 	0.7294	0.8169	0.0178	0.05
Mof_H 	H 	0.3777	0.138	0.9007	0.049
Mof_H 	H 	0.0912	0.2724	0.9015	0.051
Mof_H 	H 	0.2232	0.7144	0.7555	0.041
Mof_H 	H 	0.7704	0.6336	0.4056	0.075
Mof_H 	H 	0.7748	0.4895	0.1566	0.042
Mof_H 	H 	0.862	0.2397	0.9007	0.051
Mof_H 	H 	0.4902	0.7769	0.1588	0.039
Mof_H 	H 	0.9968	0.8584	0.1558	0.091
Mof_H 	H 	0.2663	0.0833	0.0168	0.056
Mof_H 	H 	0.112	0.3074	0.5154	0.12
Mof_H 	H 	0.5969	0.5404	0.0151	0.059
Mof_H 	H 	0.2411	0.8597	0.0182	0.052
Mof_H 	H 	0.2867	0.5098	0.1588	0.04
Mof_H 	H 	0.7147	0.2252	0.1566	0.042
Mof_H 	H 	0.7147	0.2248	0.7596	0.046
Mof_H 	H 	0.5742	0.7073	0.4056	0.074
Mof_H 	H 	0.2927	0.8669	0.4056	0.036
Mof_H 	H 	0.7722	0.6366	0.2781	0.024
Mof_H 	H 	0.0545	0.4598	0.016	-0.031
Mof_H 	H 	0.9435	0.4031	0.0151	-0.001
Mof_H 	H 	0.7752	0.4899	0.7596	0.045
Mof_H 	H 	0.2231	0.7133	0.1588	0.037
Mof_H 	H 	0.6547	0.5411	0.5171	0.081
Mof_H 	H 	0.6186	0.7589	0.0182	0.052
Mof_H 	H 	0.4053	0.9455	0.016	-0.032
Mof_H 	H 	0.3634	0.1356	0.2781	0.041
Mof_H 	H 	0.1409	0.3833	0.9019	0.055
Mof_H 	H 	0.2902	0.8674	0.2804	0.044
Mof_H 	H 	0.8616	0.0032	0.1558	0.086
Mof_H 	H 	0.7603	0.6223	0.9007	0.055
Mof_H 	H 	0.1416	0.1384	0.1558	0.106
Mof_H 	H 	0.8921	0.3444	0.6457	-0.006
Mof_H 	H 	0.5105	0.2853	0.1566	0.039
Mof_H 	H 	0.4589	0.1136	0.5171	0.121
Mof_H 	H 	0.5101	0.2853	0.7596	0.043
Mof_H 	H 	0.861	0.2383	0.0165	0.056
Mof_H 	H 	0.9167	0.183	0.0168	0.063
Mof_H 	H 	0.9973	0.8591	0.7632	0.074
Mof_H 	H 	0.7276	0.8188	0.9015	0.05
Mof_H 	H 	0.2856	0.5088	0.7555	0.044
Mof_H 	H 	0.1403	0.3814	0.0182	0.054
Mof_H 	H 	0.4546	0.0543	0.9012	0.133
Mof_H 	H 	0.8632	0.2296	0.4056	0.041
Mof_H 	H 	0.818	0.7335	0.901	0.055
Mof_H 	H 	0.0875	0.2706	0.0178	0.05
Mof_H 	H 	0.0564	0.4555	0.9021	0.105
Mof_H 	H 	0.9155	0.182	0.901	0.058
Mof_H 	H 	0.1831	0.9125	0.0178	0.043
Mof_C 	C 	0.3062	0.5742	0.1585	0.063
Mof_C 	C 	0.0841	0.0816	0.1565	-0.123
Mof_C 	C 	0.4682	0.6057	0.7623	0.356
Mof_C 	C 	0.3218	0.0816	0.9992	-0.038
Mof_C 	C 	0.2387	0.6017	0.7596	-0.121
Mof_C 	C 	0.0002	0.3288	0.4231	-0.105
Mof_C 	C 	0.7311	0.4255	0.7621	0.058
Mof_C 	C 	0.3924	0.8611	0.1519	0.348
Mof_C 	C 	0.2678	0.6947	0.7579	0.058
Mof_C 	C 	0.5983	0.598	0.999	-0.064
Mof_C 	C 	0.7318	0.6512	0.3044	0.059
Mof_C 	C 	0.4687	0.6076	0.1519	0.344
Mof_C 	C 	0.241	0.9158	0.0003	-0.06
Mof_C 	C 	0.2401	0.9143	0.9192	-0.061
Mof_C 	C 	0.6055	0.4651	0.7648	0.324
Mof_C 	C 	0.9975	0.9159	0.1565	-0.049
Mof_C 	C 	0.3988	0.6369	0.1583	-0.127
Mof_C 	C 	0.6016	0.2385	0.1547	-0.125
Mof_C 	C 	0.6369	0.3984	0.1547	-0.128
Mof_C 	C 	0.3053	0.5731	0.7579	0.057
Mof_C 	C 	0.3631	0.7619	0.1583	-0.13
Mof_C 	C 	0.9158	0.9158	0.762	-0.113
Mof_C 	C 	0.9184	0.2402	0.9992	-0.045
Mof_C 	C 	0.9194	0.2697	0.3805	0.019
Mof_C 	C 	0.1389	0.5313	0.1519	0.348
Mof_C 	C 	0.0835	0.0815	0.7625	-0.001
Mof_C 	C 	0.3983	0.637	0.7596	-0.119
Mof_C 	C 	0.3503	0.0806	0.3805	0.019
Mof_C 	C 	0.1728	0.9996	0.7639	0.161
Mof_C 	C 	0.6158	0.6928	0.3811	-0.114
Mof_C 	C 	0.8264	0.8265	0.1558	0.246
Mof_C 	C 	0.3977	0.9992	0.9197	-0.259
Mof_C 	C 	0.7597	0.364	0.7638	-0.116
Mof_C 	C 	0.0671	0.3143	0.5426	-0.245
Mof_C 	C 	0.0001	0.1736	0.1558	0.144
Mof_C 	C 	0.9184	0.0025	0.1565	-0.016
Mof_C 	C 	0.9315	0.3373	0.543	-0.219
Mof_C 	C 	0.998	0.9165	0.7625	0.007
Mof_C 	C 	0.5745	0.3056	0.7621	0.059
Mof_C 	C 	0.2381	0.6012	0.1583	-0.13
Mof_C 	C 	0.0668	0.3142	0.6198	0.111
Mof_C 	C 	0.6057	0.4663	0.1531	0.334
Mof_C 	C 	0.0842	-1.15805e-32	0.762	-0.016
Mof_C 	C 	0.6858	0.7526	0.6198	0.058
Mof_C 	C 	0.1735	0.9999	0.1558	0.143
Mof_C 	C 	0.2474	0.9332	0.6198	0.109
Mof_C 	C 	0.402	0.0003	0.999	0.177
Mof_C 	C 	0.6752	0.6747	0.5085	0.06
Mof_C 	C 	0.0769	0.3828	0.3061	-0.019
Mof_C 	C 	0.5749	0.3053	0.1554	0.066
Mof_C 	C 	0.9996	0.0848	0.1569	0.07
Mof_C 	C 	0.6742	0.7599	0.9192	-0.058
Mof_C 	C 	0.5349	0.1404	0.7648	0.319
Mof_C 	C 	0.5337	0.1394	0.1531	0.332
Mof_C 	C 	0.363	0.7613	0.7596	-0.121
Mof_C 	C 	0.6947	0.2696	0.1554	0.066
Mof_C 	C 	0.6712	0.6714	0.4231	0.046
Mof_C 	C 	0.9995	0.3248	0.5085	0.221
Mof_C 	C 	0.4058	0.0685	0.543	-0.22
Mof_C 	C 	0.0004	0.1732	0.7639	0.217
Mof_C 	C 	0.8606	0.3943	0.1531	0.332
Mof_C 	C 	0.3488	0.0806	0.3044	0.008
Mof_C 	C 	0.3253	0.0005	0.5085	0.221
Mof_C 	C 	0.7598	0.6782	0.9992	-0.065
Mof_C 	C 	0.0842	0.3252	0.0003	-0.059
Mof_C 	C 	0.3059	0.9231	0.3061	-0.024
Mof_C 	C 	0.6015	0.6023	0.9197	-0.039
Mof_C 	C 	0.6633	0.5997	0.6184	0.075
Mof_C 	C 	0.1375	0.5318	0.7623	0.356
Mof_C 	C 	0.0857	0.3258	0.9192	-0.065
Mof_C 	C 	0.6748	0.759	0.0003	-0.059
Mof_C 	C 	0.9152	0.9148	0.1569	-0.053
Mof_C 	C 	0.3072	0.923	0.3811	-0.014
Mof_C 	C 	0.9194	0.2682	0.3044	0.011
Mof_C 	C 	0.9185	0.002	0.7625	0.111
Mof_C 	C 	0.6172	0.6941	0.3061	0.074
Mof_C 	C 	0.9997	0.4017	0.999	0.172
Mof_C 	C 	0.0008	0.3985	0.9197	-0.257
Mof_C 	C 	0.8268	0.8272	0.7639	0.259
Mof_C 	C 	0.7303	0.6497	0.3805	-0.101
Mof_C 	C 	0.6857	0.7528	0.5426	-0.113
Mof_C 	C 	0.2472	0.9329	0.5426	-0.249
Mof_C 	C 	0.3286	0.9998	0.4231	-0.11
Mof_C 	C 	0.9364	0.3367	0.6184	0.165
Mof_C 	C 	0.268	0.6938	0.1585	0.064
Mof_C 	C 	0.4003	0.0636	0.6184	0.164
Mof_C 	C 	0.7304	0.4251	0.1554	0.066
Mof_C 	C 	0.077	0.3842	0.3811	-0.015
Mof_C 	C 	0.9183	0.2397	0.9185	-0.034
Mof_C 	C 	2.23827e-18	0.0842	0.762	-0.108
Mof_C 	C 	0.0852	0.0004	0.1569	0.046
Mof_C 	C 	0.8596	0.3945	0.7648	0.319
Mof_C 	C 	0.3214	0.0817	0.9185	-0.035
Mof_C 	C 	0.6627	0.5942	0.543	-0.121
Mof_C 	C 	0.6944	0.2689	0.7621	0.057
Mof_C 	C 	0.636	0.3957	0.7638	-0.119
Mof_C 	C 	0.7615	0.3631	0.1547	-0.125
Mof_C 	C 	0.4269	0.7322	0.7579	0.057
Mof_C 	C 	0.6043	0.2403	0.7638	-0.116
Mof_C 	C 	0.7603	0.6786	0.9185	-0.056
Mof_C 	C 	0.4258	0.732	0.1585	0.064
Mof_C 	C 	0.3943	0.8625	0.7623	0.356
Mof_N 	N 	0.674	0.6738	0.2676	-0.202
Mof_N 	N 	0.6776	0.6779	0.0337	-0.168
Mof_N 	N 	0.3262	0.0002	0.2676	-0.153
Mof_N 	N 	0.6743	0.6753	0.6564	-0.215
Mof_N 	N 	0.6797	0.6807	0.8872	-0.167
Mof_N 	N 	0.001	0.3203	0.8872	-0.157
Mof_N 	N 	0.0003	0.3224	0.0337	-0.219
Mof_N 	N 	0.001	0.3257	0.6564	-0.259
Mof_N 	N 	0.9998	0.326	0.2676	-0.153
Mof_N 	N 	0.3247	0.999	0.6564	-0.26
Mof_N 	N 	0.3193	0.999	0.8872	-0.157
Mof_N 	N 	0.3221	0.9997	0.0337	-0.221
Mof_O 	O 	0.0817	0.5626	0.1609	-0.242
Mof_O 	O 	0.7489	0.8271	0.1547	-0.348
Mof_O 	O 	0.9219	0.172	0.7649	-0.301
Mof_O 	O 	0.5509	0.6659	0.7689	-0.41
Mof_O 	O 	0.7493	0.8286	0.7626	-0.348
Mof_O 	O 	0.6661	0.5511	0.7699	-0.393
Mof_O 	O 	0.3341	0.885	0.7689	-0.416
Mof_O 	O 	0.9192	0.4812	0.7599	-0.21
Mof_O 	O 	0.3337	0.8855	0.149	-0.419
Mof_O 	O 	0.0824	0.5627	0.7568	-0.256
Mof_O 	O 	0.4374	0.5191	0.1609	-0.226
Mof_O 	O 	0.6657	0.5512	0.1474	-0.396
Mof_O 	O 	0.4803	0.9176	0.7568	-0.255
Mof_O 	O 	0.1145	0.4482	0.149	-0.417
Mof_O 	O 	0.4809	0.9183	0.1609	-0.241
Mof_O 	O 	0.8261	0.7486	0.1554	-0.342
Mof_O 	O 	0.885	0.3339	0.7699	-0.379
Mof_O 	O 	0.5518	0.6663	0.149	-0.411
Mof_O 	O 	0.9225	0.1739	0.1554	-0.293
Mof_O 	O 	0.8855	0.3343	0.1474	-0.383
Mof_O 	O 	0.115	0.4491	0.7689	-0.415
Mof_O 	O 	0.0793	0.2507	0.7626	-0.333
Mof_O 	O 	0.4373	0.5197	0.7568	-0.239
Mof_O 	O 	0.562	0.0808	0.7599	-0.209
Mof_O 	O 	0.1729	0.9218	0.1547	-0.333
Mof_O 	O 	0.4488	0.1145	0.1474	-0.384
Mof_O 	O 	0.5603	0.0786	0.158	-0.205
Mof_O 	O 	0.5183	0.4397	0.158	-0.224
Mof_O 	O 	0.4489	0.115	0.7699	-0.381
Mof_O 	O 	0.1714	0.9207	0.7626	-0.332
Mof_O 	O 	0.5188	0.438	0.7599	-0.225
Mof_O 	O 	0.0782	0.2511	0.1547	-0.322
Mof_O 	O 	0.2501	0.0781	0.7649	-0.294
Mof_O 	O 	0.828	0.7499	0.7649	-0.338
Mof_O 	O 	0.9214	0.4817	0.158	-0.206
Mof_O 	O 	0.2514	0.0775	0.1554	-0.297
_end
