data_functionalizedCrystal
_audit_creation_method	'EQeq! by Chris Wilmer'
_symmetry_space_group_name_H-M	'P1'
_symmetry_Int_Tables_number	1
_symmetry_cell_setting	triclinic
loop_
_symmetry_equiv_pos_as_xyz
  x,y,z
_cell_length_a	20.9049
_cell_length_b	14.6808
_cell_length_c	14.2515
_cell_angle_alpha	90
_cell_angle_beta	108.043
_cell_angle_gamma	90
loop_
_atom_site_label
_atom_site_type_symbol
_atom_site_fract_x
_atom_site_fract_y
_atom_site_fract_z
_atom_site_charge
Mof_Ag	Ag	0.67945	0.16716	0.70914	0.592
Mof_N 	N 	0.77997	0.0966	0.7811	-0.206
Mof_N 	N 	0.05015	0.3935	0.1727	-0.198
Mof_N 	N 	0.37768	0.9684	0.3238	-0.201
Mof_N 	N 	0.65322	0.7582	0.3407	-0.195
Mof_S 	S 	0.09909	0.80167	0.85682	-0.07
Mof_S 	S 	0.65248	0.29312	0.58638	-0.091
Mof_C 	C 	0.82832	0.0558	0.8018	0.091
Mof_C 	C 	0.88997	0.0039	0.8342	-0.08
Mof_C 	C 	0.95073	0.0446	0.838	0.058
Mof_H 	H 	0.9519	0.1052	0.8151	0.009
Mof_C 	C 	0.00927	0.9956	0.8755	-0.171
Mof_H 	H 	0.0511	0.0229	0.879	0.081
Mof_C 	C 	0.00785	0.9074	0.9082	0.087
Mof_C 	C 	0.94671	0.8672	0.9022	-0.113
Mof_H 	H 	0.9455	0.8061	0.9234	0.059
Mof_C 	C 	0.888	0.9152	0.8659	0.015
Mof_H 	H 	0.8462	0.8877	0.8624	0.018
Mof_C 	C 	0.07201	0.8553	0.9524	-0.192
Mof_H 	H 	0.0649	0.8082	0.9979	0.074
Mof_H 	H 	0.1075	0.8973	0.991	0.084
Mof_C 	C 	0.16567	0.7281	0.9327	-0.195
Mof_H 	H 	0.1891	0.6989	0.89	0.081
Mof_H 	H 	0.1989	0.7662	0.9816	0.082
Mof_C 	C 	0.14068	0.6555	0.9864	0.1
Mof_C 	C 	0.14102	0.6678	0.0831	-0.135
Mof_H 	H 	0.1583	0.7229	0.1163	0.061
Mof_C 	C 	0.11678	0.6015	0.132	0.008
Mof_H 	H 	0.1161	0.6113	0.1976	0.014
Mof_C 	C 	0.09337	0.5203	0.0835	-0.066
Mof_C 	C 	0.09377	0.5055	0.9876	0.012
Mof_H 	H 	0.0781	0.4495	0.9552	0.015
Mof_C 	C 	0.11723	0.5733	0.94	-0.136
Mof_H 	H 	0.1174	0.5637	0.8742	0.064
Mof_C 	C 	0.069	0.4494	0.1333	0.084
Mof_C 	C 	0.40573	0.0297	0.3639	0.093
Mof_C 	C 	0.4436	0.1064	0.4152	-0.067
Mof_C 	C 	0.46712	0.1711	0.3633	0.014
Mof_H 	H 	0.4565	0.1665	0.2936	0.02
Mof_C 	C 	0.50596	0.2422	0.4131	-0.133
Mof_H 	H 	0.5222	0.2866	0.3776	0.071
Mof_C 	C 	0.52157	0.2497	0.515	0.1
Mof_C 	C 	0.4969	0.1856	0.5659	-0.134
Mof_H 	H 	0.5069	0.1909	0.6354	0.06
Mof_C 	C 	0.45779	0.1137	0.5167	0.015
Mof_H 	H 	0.4409	0.0699	0.5521	0.02
Mof_C 	C 	0.56548	0.3257	0.569	-0.187
Mof_H 	H 	0.5583	0.3359	0.6337	0.07
Mof_H 	H 	0.5546	0.3828	0.5303	0.084
Mof_C 	C 	0.69451	0.3934	0.6515	-0.182
Mof_H 	H 	0.6766	0.4075	0.7065	0.07
Mof_H 	H 	0.7432	0.3809	0.6798	0.067
Mof_C 	C 	0.68439	0.474	0.584	0.109
Mof_C 	C 	0.71663	0.4773	0.5123	-0.131
Mof_H 	H 	0.7451	0.4285	0.5069	0.072
Mof_C 	C 	0.7078	0.5504	0.449	0.013
Mof_H 	H 	0.7298	0.5521	0.3999	0.02
Mof_C 	C 	0.6665	0.6213	0.4577	-0.065
Mof_C 	C 	0.63364	0.6188	0.5284	0.012
Mof_H 	H 	0.6052	0.6677	0.5338	0.026
Mof_C 	C 	0.64252	0.5451	0.5908	-0.135
Mof_H 	H 	0.6197	0.5429	0.6389	0.069
Mof_C 	C 	0.65792	0.6982	0.3922	0.083
Mof_Ag	Ag	0.32055	0.16716	0.79086	0.59
Mof_N 	N 	0.22003	0.0966	0.7189	-0.204
Mof_N 	N 	0.94985	0.3935	0.3273	-0.186
Mof_N 	N 	0.62232	0.9684	0.1762	-0.201
Mof_N 	N 	0.34678	0.7582	0.1593	-0.195
Mof_S 	S 	0.90091	0.80167	0.64318	-0.049
Mof_S 	S 	0.34752	0.29312	0.91362	-0.092
Mof_C 	C 	0.17168	0.0558	0.6982	0.084
Mof_C 	C 	0.11003	0.0039	0.6658	-0.067
Mof_C 	C 	0.04927	0.0446	0.662	-0.017
Mof_H 	H 	0.0481	0.1052	0.6849	0.021
Mof_C 	C 	0.99073	0.9956	0.6245	-0.104
Mof_H 	H 	0.9489	0.0229	0.621	0.068
Mof_C 	C 	0.99215	0.9074	0.5918	0.139
Mof_C 	C 	0.05329	0.8672	0.5978	-0.184
Mof_H 	H 	0.0545	0.8061	0.5766	0.07
Mof_C 	C 	0.112	0.9152	0.6341	0.031
Mof_H 	H 	0.1538	0.8877	0.6376	0.011
Mof_C 	C 	0.92799	0.8553	0.5476	-0.214
Mof_H 	H 	0.9351	0.8082	0.5021	0.09
Mof_H 	H 	0.8925	0.8973	0.509	0.091
Mof_C 	C 	0.83433	0.7281	0.5673	-0.201
Mof_H 	H 	0.8109	0.6989	0.61	0.083
Mof_H 	H 	0.8011	0.7662	0.5184	0.083
Mof_C 	C 	0.85932	0.6555	0.5136	0.106
Mof_C 	C 	0.85898	0.6678	0.4169	-0.136
Mof_H 	H 	0.8417	0.7229	0.3837	0.062
Mof_C 	C 	0.88322	0.6015	0.368	0.013
Mof_H 	H 	0.8839	0.6113	0.3024	0.018
Mof_C 	C 	0.90663	0.5203	0.4165	-0.063
Mof_C 	C 	0.90623	0.5055	0.5124	0.019
Mof_H 	H 	0.9219	0.4495	0.5448	0.023
Mof_C 	C 	0.88277	0.5733	0.56	-0.134
Mof_H 	H 	0.8826	0.5637	0.6258	0.068
Mof_C 	C 	0.931	0.4494	0.3667	0.097
Mof_C 	C 	0.59427	0.0297	0.1361	0.093
Mof_C 	C 	0.5564	0.1064	0.0848	-0.065
Mof_C 	C 	0.53288	0.1711	0.1367	0.013
Mof_H 	H 	0.5435	0.1665	0.2064	0.021
Mof_C 	C 	0.49404	0.2422	0.0869	-0.131
Mof_H 	H 	0.4778	0.2866	0.1224	0.07
Mof_C 	C 	0.47843	0.2497	0.985	0.098
Mof_C 	C 	0.5031	0.1856	0.9341	-0.133
Mof_H 	H 	0.4931	0.1909	0.8646	0.059
Mof_C 	C 	0.54221	0.1137	0.9833	0.013
Mof_H 	H 	0.5591	0.0699	0.9479	0.02
Mof_C 	C 	0.43452	0.3257	0.931	-0.185
Mof_H 	H 	0.4417	0.3359	0.8663	0.07
Mof_H 	H 	0.4454	0.3828	0.9697	0.083
Mof_C 	C 	0.30549	0.3934	0.8485	-0.181
Mof_H 	H 	0.3234	0.4075	0.7935	0.07
Mof_H 	H 	0.2568	0.3809	0.8202	0.066
Mof_C 	C 	0.31561	0.474	0.916	0.108
Mof_C 	C 	0.28337	0.4773	0.9877	-0.132
Mof_H 	H 	0.2549	0.4285	0.9931	0.071
Mof_C 	C 	0.2922	0.5504	0.051	0.014
Mof_H 	H 	0.2702	0.5521	0.1001	0.021
Mof_C 	C 	0.3335	0.6213	0.0423	-0.064
Mof_C 	C 	0.36636	0.6188	0.9716	0.011
Mof_H 	H 	0.3948	0.6677	0.9662	0.026
Mof_C 	C 	0.35748	0.5451	0.9092	-0.135
Mof_H 	H 	0.3803	0.5429	0.8611	0.069
Mof_C 	C 	0.34208	0.6982	0.1078	0.083
Mof_Ag	Ag	0.32055	0.83284	0.29086	0.59
Mof_N 	N 	0.22003	0.9034	0.2189	-0.204
Mof_N 	N 	0.94985	0.6065	0.8273	-0.186
Mof_N 	N 	0.62232	0.0316	0.6762	-0.201
Mof_N 	N 	0.34678	0.2418	0.6593	-0.195
Mof_S 	S 	0.90091	0.19833	0.14318	-0.049
Mof_S 	S 	0.34752	0.70688	0.41362	-0.092
Mof_C 	C 	0.17168	0.9442	0.1982	0.085
Mof_C 	C 	0.11003	0.9961	0.1658	-0.067
Mof_C 	C 	0.04927	0.9554	0.162	-0.016
Mof_H 	H 	0.0481	0.8948	0.1849	0.021
Mof_C 	C 	0.99073	0.0044	0.1245	-0.104
Mof_H 	H 	0.9489	0.9771	0.121	0.067
Mof_C 	C 	0.99215	0.0926	0.0918	0.138
Mof_C 	C 	0.05329	0.1328	0.0978	-0.183
Mof_H 	H 	0.0545	0.1939	0.0766	0.07
Mof_C 	C 	0.112	0.0848	0.1341	0.031
Mof_H 	H 	0.1538	0.1123	0.1376	0.012
Mof_C 	C 	0.92799	0.1447	0.0476	-0.214
Mof_H 	H 	0.9351	0.1918	0.0021	0.09
Mof_H 	H 	0.8925	0.1027	0.009	0.091
Mof_C 	C 	0.83433	0.2719	0.0673	-0.202
Mof_H 	H 	0.8109	0.3011	0.11	0.083
Mof_H 	H 	0.8011	0.2338	0.0184	0.084
Mof_C 	C 	0.85932	0.3445	0.0136	0.107
Mof_C 	C 	0.85898	0.3322	0.9169	-0.137
Mof_H 	H 	0.8417	0.2771	0.8837	0.062
Mof_C 	C 	0.88322	0.3985	0.868	0.014
Mof_H 	H 	0.8839	0.3887	0.8024	0.018
Mof_C 	C 	0.90663	0.4797	0.9165	-0.063
Mof_C 	C 	0.90623	0.4945	0.0124	0.019
Mof_H 	H 	0.9219	0.5505	0.0448	0.023
Mof_C 	C 	0.88277	0.4267	0.06	-0.135
Mof_H 	H 	0.8826	0.4363	0.1258	0.068
Mof_C 	C 	0.931	0.5506	0.8667	0.097
Mof_C 	C 	0.59427	0.9703	0.6361	0.093
Mof_C 	C 	0.5564	0.8936	0.5848	-0.067
Mof_C 	C 	0.53288	0.8289	0.6367	0.014
Mof_H 	H 	0.5435	0.8335	0.7064	0.02
Mof_C 	C 	0.49404	0.7578	0.5869	-0.133
Mof_H 	H 	0.4778	0.7134	0.6224	0.07
Mof_C 	C 	0.47843	0.7503	0.485	0.1
Mof_C 	C 	0.5031	0.8144	0.4341	-0.134
Mof_H 	H 	0.4931	0.8091	0.3646	0.06
Mof_C 	C 	0.54221	0.8863	0.4833	0.015
Mof_H 	H 	0.5591	0.9301	0.4479	0.02
Mof_C 	C 	0.43452	0.6743	0.431	-0.186
Mof_H 	H 	0.4417	0.6641	0.3663	0.07
Mof_H 	H 	0.4454	0.6172	0.4697	0.084
Mof_C 	C 	0.30549	0.6066	0.3485	-0.181
Mof_H 	H 	0.3234	0.5925	0.2935	0.07
Mof_H 	H 	0.2568	0.6191	0.3202	0.066
Mof_C 	C 	0.31561	0.526	0.416	0.108
Mof_C 	C 	0.28337	0.5227	0.4877	-0.131
Mof_H 	H 	0.2549	0.5715	0.4931	0.071
Mof_C 	C 	0.2922	0.4496	0.551	0.013
Mof_H 	H 	0.2702	0.4479	0.6001	0.021
Mof_C 	C 	0.3335	0.3787	0.5423	-0.064
Mof_C 	C 	0.36636	0.3812	0.4716	0.012
Mof_H 	H 	0.3948	0.3323	0.4662	0.026
Mof_C 	C 	0.35748	0.4549	0.4092	-0.135
Mof_H 	H 	0.3803	0.4571	0.3611	0.069
Mof_C 	C 	0.34208	0.3018	0.6078	0.083
Mof_Ag	Ag	0.67945	0.83284	0.20914	0.591
Mof_N 	N 	0.77997	0.9034	0.2811	-0.206
Mof_N 	N 	0.05015	0.6065	0.6727	-0.198
Mof_N 	N 	0.37768	0.0316	0.8238	-0.201
Mof_N 	N 	0.65322	0.2418	0.8407	-0.195
Mof_S 	S 	0.09909	0.19833	0.35682	-0.069
Mof_S 	S 	0.65248	0.70688	0.08638	-0.091
Mof_C 	C 	0.82832	0.9442	0.3018	0.091
Mof_C 	C 	0.88997	0.9961	0.3342	-0.08
Mof_C 	C 	0.95073	0.9554	0.338	0.057
Mof_H 	H 	0.9519	0.8948	0.3151	0.009
Mof_C 	C 	0.00927	0.0044	0.3755	-0.171
Mof_H 	H 	0.0511	0.9771	0.379	0.082
Mof_C 	C 	0.00785	0.0926	0.4082	0.087
Mof_C 	C 	0.94671	0.1328	0.4022	-0.113
Mof_H 	H 	0.9455	0.1939	0.4234	0.06
Mof_C 	C 	0.888	0.0848	0.3659	0.015
Mof_H 	H 	0.8462	0.1123	0.3624	0.018
Mof_C 	C 	0.07201	0.1447	0.4524	-0.192
Mof_H 	H 	0.0649	0.1918	0.4979	0.074
Mof_H 	H 	0.1075	0.1027	0.491	0.085
Mof_C 	C 	0.16567	0.2719	0.4327	-0.196
Mof_H 	H 	0.1891	0.3011	0.39	0.081
Mof_H 	H 	0.1989	0.2338	0.4816	0.082
Mof_C 	C 	0.14068	0.3445	0.4864	0.103
Mof_C 	C 	0.14102	0.3322	0.5831	-0.138
Mof_H 	H 	0.1583	0.2771	0.6163	0.061
Mof_C 	C 	0.11678	0.3985	0.632	0.01
Mof_H 	H 	0.1161	0.3887	0.6976	0.013
Mof_C 	C 	0.09337	0.4797	0.5835	-0.069
Mof_C 	C 	0.09377	0.4945	0.4876	0.015
Mof_H 	H 	0.0781	0.5505	0.4552	0.014
Mof_C 	C 	0.11723	0.4267	0.44	-0.139
Mof_H 	H 	0.1174	0.4363	0.3742	0.065
Mof_C 	C 	0.069	0.5506	0.6333	0.085
Mof_C 	C 	0.40573	0.9703	0.8639	0.093
Mof_C 	C 	0.4436	0.8936	0.9152	-0.068
Mof_C 	C 	0.46712	0.8289	0.8633	0.015
Mof_H 	H 	0.4565	0.8335	0.7936	0.02
Mof_C 	C 	0.50596	0.7578	0.9131	-0.134
Mof_H 	H 	0.5222	0.7134	0.8776	0.071
Mof_C 	C 	0.52157	0.7503	0.015	0.101
Mof_C 	C 	0.4969	0.8144	0.0659	-0.135
Mof_H 	H 	0.5069	0.8091	0.1354	0.06
Mof_C 	C 	0.45779	0.8863	0.0167	0.016
Mof_H 	H 	0.4409	0.9301	0.0521	0.019
Mof_C 	C 	0.56548	0.6743	0.069	-0.187
Mof_H 	H 	0.5583	0.6641	0.1337	0.071
Mof_H 	H 	0.5546	0.6172	0.0303	0.084
Mof_C 	C 	0.69451	0.6066	0.1515	-0.182
Mof_H 	H 	0.6766	0.5925	0.2065	0.07
Mof_H 	H 	0.7432	0.6191	0.1798	0.066
Mof_C 	C 	0.68439	0.526	0.084	0.109
Mof_C 	C 	0.71663	0.5227	0.0123	-0.131
Mof_H 	H 	0.7451	0.5715	0.0069	0.072
Mof_C 	C 	0.7078	0.4496	0.949	0.013
Mof_H 	H 	0.7298	0.4479	0.8999	0.02
Mof_C 	C 	0.6665	0.3787	0.9577	-0.065
Mof_C 	C 	0.63364	0.3812	0.0284	0.013
Mof_H 	H 	0.6052	0.3323	0.0338	0.026
Mof_C 	C 	0.64252	0.4549	0.0908	-0.135
Mof_H 	H 	0.6197	0.4571	0.1389	0.069
Mof_C 	C 	0.65792	0.3018	0.8922	0.083
Mof_Ag	Ag	-2.7337e-17	0.71152	0.75	0.531
Mof_Ag	Ag	-6.83426e-18	0.28848	0.25	0.532
_end
