data_functionalizedCrystal
_audit_creation_method	'EQeq! by Chris Wilmer'
_symmetry_space_group_name_H-M	'P1'
_symmetry_Int_Tables_number	1
_symmetry_cell_setting	triclinic
loop_
_symmetry_equiv_pos_as_xyz
  x,y,z
_cell_length_a	20.3661
_cell_length_b	20.3661
_cell_length_c	20.3661
_cell_angle_alpha	90
_cell_angle_beta	90
_cell_angle_gamma	90
loop_
_atom_site_label
_atom_site_type_symbol
_atom_site_fract_x
_atom_site_fract_y
_atom_site_fract_z
_atom_site_charge
Mof_La	La	0.74276	0.14555	0.01269	1.666
Mof_O 	O 	0.8351	0.2085	0.96	-0.503
Mof_O 	O 	0.884	0.2958	0.9158	-0.487
Mof_O 	O 	0.6423	0.2026	0.053	-0.513
Mof_O 	O 	0.5796	0.2896	0.076	-0.481
Mof_N 	N 	0.735	0.2757	0.0008	-0.186
Mof_C 	C 	0.8393	0.2691	0.9479	0.376
Mof_C 	C 	0.7836	0.3111	0.9741	-0.087
Mof_C 	C 	0.7819	0.3787	0.97	-0.006
Mof_H 	H 	0.8163	0.4018	0.9506	-0.001
Mof_C 	C 	0.7282	0.4114	0.9952	-0.083
Mof_H 	H 	0.7263	0.457	0.9939	0.022
Mof_C 	C 	0.6769	0.3754	0.0224	-0.01
Mof_H 	H 	0.6398	0.3963	0.0388	0.009
Mof_C 	C 	0.6825	0.3081	0.0245	-0.085
Mof_C 	C 	0.6305	0.2636	0.0533	0.369
Mof_La	La	0.75724	0.85445	0.51269	1.666
Mof_O 	O 	0.6649	0.7915	0.46	-0.503
Mof_O 	O 	0.616	0.7042	0.4158	-0.487
Mof_O 	O 	0.8577	0.7974	0.553	-0.513
Mof_O 	O 	0.9204	0.7104	0.576	-0.48
Mof_N 	N 	0.765	0.7243	0.5008	-0.186
Mof_C 	C 	0.6607	0.7309	0.4479	0.376
Mof_C 	C 	0.7164	0.6889	0.4741	-0.087
Mof_C 	C 	0.7181	0.6213	0.47	-0.006
Mof_H 	H 	0.6837	0.5982	0.4506	-0.001
Mof_C 	C 	0.7718	0.5886	0.4952	-0.084
Mof_H 	H 	0.7737	0.543	0.4939	0.022
Mof_C 	C 	0.8231	0.6246	0.5224	-0.009
Mof_H 	H 	0.8602	0.6037	0.5388	0.009
Mof_C 	C 	0.8175	0.6919	0.5245	-0.085
Mof_C 	C 	0.8695	0.7364	0.5533	0.369
Mof_La	La	0.25724	0.64555	0.48731	1.665
Mof_O 	O 	0.1649	0.7085	0.54	-0.503
Mof_O 	O 	0.116	0.7958	0.5842	-0.487
Mof_O 	O 	0.3577	0.7026	0.447	-0.513
Mof_O 	O 	0.4204	0.7896	0.424	-0.481
Mof_N 	N 	0.265	0.7757	0.4992	-0.186
Mof_C 	C 	0.1607	0.7691	0.5521	0.376
Mof_C 	C 	0.2164	0.8111	0.5259	-0.087
Mof_C 	C 	0.2181	0.8787	0.53	-0.006
Mof_H 	H 	0.1837	0.9018	0.5494	-0.001
Mof_C 	C 	0.2718	0.9114	0.5048	-0.084
Mof_H 	H 	0.2737	0.957	0.5061	0.021
Mof_C 	C 	0.3231	0.8754	0.4776	-0.009
Mof_H 	H 	0.3602	0.8963	0.4612	0.009
Mof_C 	C 	0.3175	0.8081	0.4755	-0.085
Mof_C 	C 	0.3695	0.7636	0.4467	0.369
Mof_La	La	0.24276	0.35445	0.98731	1.663
Mof_O 	O 	0.3351	0.2915	0.04	-0.502
Mof_O 	O 	0.384	0.2042	0.0842	-0.486
Mof_O 	O 	0.1423	0.2974	0.947	-0.513
Mof_O 	O 	0.0796	0.2104	0.924	-0.481
Mof_N 	N 	0.235	0.2243	0.9992	-0.188
Mof_C 	C 	0.3393	0.2309	0.0521	0.375
Mof_C 	C 	0.2836	0.1889	0.0259	-0.083
Mof_C 	C 	0.2819	0.1213	0.03	-0.01
Mof_H 	H 	0.3163	0.0982	0.0494	0.001
Mof_C 	C 	0.2282	0.0886	0.0048	-0.076
Mof_H 	H 	0.2263	0.043	0.0061	0.02
Mof_C 	C 	0.1769	0.1246	0.9776	-0.015
Mof_H 	H 	0.1398	0.1037	0.9612	0.011
Mof_C 	C 	0.1825	0.1919	0.9755	-0.083
Mof_C 	C 	0.1305	0.2364	0.9467	0.368
Mof_La	La	0.01269	0.74276	0.14555	1.666
Mof_O 	O 	0.96	0.8351	0.2085	-0.503
Mof_O 	O 	0.9158	0.884	0.2958	-0.487
Mof_O 	O 	0.053	0.6423	0.2026	-0.513
Mof_O 	O 	0.076	0.5796	0.2896	-0.481
Mof_N 	N 	0.0008	0.735	0.2757	-0.186
Mof_C 	C 	0.9479	0.8393	0.2691	0.376
Mof_C 	C 	0.9741	0.7836	0.3111	-0.087
Mof_C 	C 	0.97	0.7819	0.3787	-0.006
Mof_H 	H 	0.9506	0.8163	0.4018	-0.001
Mof_C 	C 	0.9952	0.7282	0.4114	-0.083
Mof_H 	H 	0.9939	0.7263	0.457	0.022
Mof_C 	C 	0.0224	0.6769	0.3754	-0.01
Mof_H 	H 	0.0388	0.6398	0.3963	0.009
Mof_C 	C 	0.0245	0.6825	0.3081	-0.085
Mof_C 	C 	0.0533	0.6305	0.2636	0.369
Mof_La	La	0.51269	0.75724	0.85445	1.666
Mof_O 	O 	0.46	0.6649	0.7915	-0.503
Mof_O 	O 	0.4158	0.616	0.7042	-0.487
Mof_O 	O 	0.553	0.8577	0.7974	-0.513
Mof_O 	O 	0.576	0.9204	0.7104	-0.48
Mof_N 	N 	0.5008	0.765	0.7243	-0.186
Mof_C 	C 	0.4479	0.6607	0.7309	0.376
Mof_C 	C 	0.4741	0.7164	0.6889	-0.087
Mof_C 	C 	0.47	0.7181	0.6213	-0.006
Mof_H 	H 	0.4506	0.6837	0.5982	-0.001
Mof_C 	C 	0.4952	0.7718	0.5886	-0.084
Mof_H 	H 	0.4939	0.7737	0.543	0.022
Mof_C 	C 	0.5224	0.8231	0.6246	-0.009
Mof_H 	H 	0.5388	0.8602	0.6037	0.009
Mof_C 	C 	0.5245	0.8175	0.6919	-0.085
Mof_C 	C 	0.5533	0.8695	0.7364	0.369
Mof_La	La	0.48731	0.25724	0.64555	1.665
Mof_O 	O 	0.54	0.1649	0.7085	-0.503
Mof_O 	O 	0.5842	0.116	0.7958	-0.487
Mof_O 	O 	0.447	0.3577	0.7026	-0.513
Mof_O 	O 	0.424	0.4204	0.7896	-0.481
Mof_N 	N 	0.4992	0.265	0.7757	-0.186
Mof_C 	C 	0.5521	0.1607	0.7691	0.376
Mof_C 	C 	0.5259	0.2164	0.8111	-0.087
Mof_C 	C 	0.53	0.2181	0.8787	-0.006
Mof_H 	H 	0.5494	0.1837	0.9018	-0.001
Mof_C 	C 	0.5048	0.2718	0.9114	-0.084
Mof_H 	H 	0.5061	0.2737	0.957	0.021
Mof_C 	C 	0.4776	0.3231	0.8754	-0.009
Mof_H 	H 	0.4612	0.3602	0.8963	0.009
Mof_C 	C 	0.4755	0.3175	0.8081	-0.085
Mof_C 	C 	0.4467	0.3695	0.7636	0.369
Mof_La	La	0.98731	0.24276	0.35445	1.663
Mof_O 	O 	0.04	0.3351	0.2915	-0.502
Mof_O 	O 	0.0842	0.384	0.2042	-0.486
Mof_O 	O 	0.947	0.1423	0.2974	-0.513
Mof_O 	O 	0.924	0.0796	0.2104	-0.481
Mof_N 	N 	0.9992	0.235	0.2243	-0.188
Mof_C 	C 	0.0521	0.3393	0.2309	0.375
Mof_C 	C 	0.0259	0.2836	0.1889	-0.083
Mof_C 	C 	0.03	0.2819	0.1213	-0.01
Mof_H 	H 	0.0494	0.3163	0.0982	0.001
Mof_C 	C 	0.0048	0.2282	0.0886	-0.076
Mof_H 	H 	0.0061	0.2263	0.043	0.02
Mof_C 	C 	0.9776	0.1769	0.1246	-0.015
Mof_H 	H 	0.9612	0.1398	0.1037	0.011
Mof_C 	C 	0.9755	0.1825	0.1919	-0.083
Mof_C 	C 	0.9467	0.1305	0.2364	0.368
Mof_La	La	0.14555	0.01269	0.74276	1.666
Mof_O 	O 	0.2085	0.96	0.8351	-0.503
Mof_O 	O 	0.2958	0.9158	0.884	-0.487
Mof_O 	O 	0.2026	0.053	0.6423	-0.513
Mof_O 	O 	0.2896	0.076	0.5796	-0.481
Mof_N 	N 	0.2757	0.0008	0.735	-0.186
Mof_C 	C 	0.2691	0.9479	0.8393	0.376
Mof_C 	C 	0.3111	0.9741	0.7836	-0.087
Mof_C 	C 	0.3787	0.97	0.7819	-0.006
Mof_H 	H 	0.4018	0.9506	0.8163	-0.001
Mof_C 	C 	0.4114	0.9952	0.7282	-0.083
Mof_H 	H 	0.457	0.9939	0.7263	0.022
Mof_C 	C 	0.3754	0.0224	0.6769	-0.01
Mof_H 	H 	0.3963	0.0388	0.6398	0.009
Mof_C 	C 	0.3081	0.0245	0.6825	-0.085
Mof_C 	C 	0.2636	0.0533	0.6305	0.369
Mof_La	La	0.85445	0.51269	0.75724	1.666
Mof_O 	O 	0.7915	0.46	0.6649	-0.503
Mof_O 	O 	0.7042	0.4158	0.616	-0.487
Mof_O 	O 	0.7974	0.553	0.8577	-0.513
Mof_O 	O 	0.7104	0.576	0.9204	-0.48
Mof_N 	N 	0.7243	0.5008	0.765	-0.186
Mof_C 	C 	0.7309	0.4479	0.6607	0.376
Mof_C 	C 	0.6889	0.4741	0.7164	-0.087
Mof_C 	C 	0.6213	0.47	0.7181	-0.006
Mof_H 	H 	0.5982	0.4506	0.6837	-0.001
Mof_C 	C 	0.5886	0.4952	0.7718	-0.084
Mof_H 	H 	0.543	0.4939	0.7737	0.022
Mof_C 	C 	0.6246	0.5224	0.8231	-0.009
Mof_H 	H 	0.6037	0.5388	0.8602	0.009
Mof_C 	C 	0.6919	0.5245	0.8175	-0.085
Mof_C 	C 	0.7364	0.5533	0.8695	0.369
Mof_La	La	0.64555	0.48731	0.25724	1.665
Mof_O 	O 	0.7085	0.54	0.1649	-0.503
Mof_O 	O 	0.7958	0.5842	0.116	-0.487
Mof_O 	O 	0.7026	0.447	0.3577	-0.513
Mof_O 	O 	0.7896	0.424	0.4204	-0.481
Mof_N 	N 	0.7757	0.4992	0.265	-0.186
Mof_C 	C 	0.7691	0.5521	0.1607	0.376
Mof_C 	C 	0.8111	0.5259	0.2164	-0.087
Mof_C 	C 	0.8787	0.53	0.2181	-0.006
Mof_H 	H 	0.9018	0.5494	0.1837	-0.001
Mof_C 	C 	0.9114	0.5048	0.2718	-0.084
Mof_H 	H 	0.957	0.5061	0.2737	0.021
Mof_C 	C 	0.8754	0.4776	0.3231	-0.009
Mof_H 	H 	0.8963	0.4612	0.3602	0.009
Mof_C 	C 	0.8081	0.4755	0.3175	-0.085
Mof_C 	C 	0.7636	0.4467	0.3695	0.369
Mof_La	La	0.35445	0.98731	0.24276	1.663
Mof_O 	O 	0.2915	0.04	0.3351	-0.502
Mof_O 	O 	0.2042	0.0842	0.384	-0.486
Mof_O 	O 	0.2974	0.947	0.1423	-0.513
Mof_O 	O 	0.2104	0.924	0.0796	-0.481
Mof_N 	N 	0.2243	0.9992	0.235	-0.188
Mof_C 	C 	0.2309	0.0521	0.3393	0.375
Mof_C 	C 	0.1889	0.0259	0.2836	-0.083
Mof_C 	C 	0.1213	0.03	0.2819	-0.01
Mof_H 	H 	0.0982	0.0494	0.3163	0.001
Mof_C 	C 	0.0886	0.0048	0.2282	-0.076
Mof_H 	H 	0.043	0.0061	0.2263	0.02
Mof_C 	C 	0.1246	0.9776	0.1769	-0.015
Mof_H 	H 	0.1037	0.9612	0.1398	0.011
Mof_C 	C 	0.1919	0.9755	0.1825	-0.083
Mof_C 	C 	0.2364	0.9467	0.1305	0.368
Mof_La	La	0.25724	0.85445	0.98731	1.666
Mof_O 	O 	0.1649	0.7915	0.04	-0.503
Mof_O 	O 	0.116	0.7042	0.0842	-0.487
Mof_O 	O 	0.3577	0.7974	0.947	-0.513
Mof_O 	O 	0.4204	0.7104	0.924	-0.481
Mof_N 	N 	0.265	0.7243	0.9992	-0.186
Mof_C 	C 	0.1607	0.7309	0.0521	0.376
Mof_C 	C 	0.2164	0.6889	0.0259	-0.087
Mof_C 	C 	0.2181	0.6213	0.03	-0.006
Mof_H 	H 	0.1837	0.5982	0.0494	-0.001
Mof_C 	C 	0.2718	0.5886	0.0048	-0.083
Mof_H 	H 	0.2737	0.543	0.0061	0.022
Mof_C 	C 	0.3231	0.6246	0.9776	-0.01
Mof_H 	H 	0.3602	0.6037	0.9612	0.009
Mof_C 	C 	0.3175	0.6919	0.9755	-0.085
Mof_C 	C 	0.3695	0.7364	0.9467	0.369
Mof_La	La	0.24276	0.14555	0.48731	1.666
Mof_O 	O 	0.3351	0.2085	0.54	-0.503
Mof_O 	O 	0.384	0.2958	0.5842	-0.487
Mof_O 	O 	0.1423	0.2026	0.447	-0.513
Mof_O 	O 	0.0796	0.2896	0.424	-0.48
Mof_N 	N 	0.235	0.2757	0.4992	-0.186
Mof_C 	C 	0.3393	0.2691	0.5521	0.376
Mof_C 	C 	0.2836	0.3111	0.5259	-0.087
Mof_C 	C 	0.2819	0.3787	0.53	-0.006
Mof_H 	H 	0.3163	0.4018	0.5494	-0.001
Mof_C 	C 	0.2282	0.4114	0.5048	-0.084
Mof_H 	H 	0.2263	0.457	0.5061	0.022
Mof_C 	C 	0.1769	0.3754	0.4776	-0.009
Mof_H 	H 	0.1398	0.3963	0.4612	0.009
Mof_C 	C 	0.1825	0.3081	0.4755	-0.085
Mof_C 	C 	0.1305	0.2636	0.4467	0.369
Mof_La	La	0.74276	0.35445	0.51269	1.665
Mof_O 	O 	0.8351	0.2915	0.46	-0.503
Mof_O 	O 	0.884	0.2042	0.4158	-0.487
Mof_O 	O 	0.6423	0.2974	0.553	-0.513
Mof_O 	O 	0.5796	0.2104	0.576	-0.481
Mof_N 	N 	0.735	0.2243	0.5008	-0.186
Mof_C 	C 	0.8393	0.2309	0.4479	0.376
Mof_C 	C 	0.7836	0.1889	0.4741	-0.087
Mof_C 	C 	0.7819	0.1213	0.47	-0.006
Mof_H 	H 	0.8163	0.0982	0.4506	-0.001
Mof_C 	C 	0.7282	0.0886	0.4952	-0.084
Mof_H 	H 	0.7263	0.043	0.4939	0.021
Mof_C 	C 	0.6769	0.1246	0.5224	-0.009
Mof_H 	H 	0.6398	0.1037	0.5388	0.009
Mof_C 	C 	0.6825	0.1919	0.5245	-0.085
Mof_C 	C 	0.6305	0.2364	0.5533	0.369
Mof_La	La	0.75724	0.64555	0.01269	1.663
Mof_O 	O 	0.6649	0.7085	0.96	-0.502
Mof_O 	O 	0.616	0.7958	0.9158	-0.486
Mof_O 	O 	0.8577	0.7026	0.053	-0.513
Mof_O 	O 	0.9204	0.7896	0.076	-0.481
Mof_N 	N 	0.765	0.7757	0.0008	-0.188
Mof_C 	C 	0.6607	0.7691	0.9479	0.375
Mof_C 	C 	0.7164	0.8111	0.9741	-0.083
Mof_C 	C 	0.7181	0.8787	0.97	-0.01
Mof_H 	H 	0.6837	0.9018	0.9506	0.001
Mof_C 	C 	0.7718	0.9114	0.9952	-0.076
Mof_H 	H 	0.7737	0.957	0.9939	0.02
Mof_C 	C 	0.8231	0.8754	0.0224	-0.015
Mof_H 	H 	0.8602	0.8963	0.0388	0.011
Mof_C 	C 	0.8175	0.8081	0.0245	-0.083
Mof_C 	C 	0.8695	0.7636	0.0533	0.368
Mof_La	La	0.98731	0.25724	0.85445	1.666
Mof_O 	O 	0.04	0.1649	0.7915	-0.503
Mof_O 	O 	0.0842	0.116	0.7042	-0.487
Mof_O 	O 	0.947	0.3577	0.7974	-0.513
Mof_O 	O 	0.924	0.4204	0.7104	-0.481
Mof_N 	N 	0.9992	0.265	0.7243	-0.186
Mof_C 	C 	0.0521	0.1607	0.7309	0.376
Mof_C 	C 	0.0259	0.2164	0.6889	-0.087
Mof_C 	C 	0.03	0.2181	0.6213	-0.006
Mof_H 	H 	0.0494	0.1837	0.5982	-0.001
Mof_C 	C 	0.0048	0.2718	0.5886	-0.083
Mof_H 	H 	0.0061	0.2737	0.543	0.022
Mof_C 	C 	0.9776	0.3231	0.6246	-0.01
Mof_H 	H 	0.9612	0.3602	0.6037	0.009
Mof_C 	C 	0.9755	0.3175	0.6919	-0.085
Mof_C 	C 	0.9467	0.3695	0.7364	0.369
Mof_La	La	0.48731	0.24276	0.14555	1.666
Mof_O 	O 	0.54	0.3351	0.2085	-0.503
Mof_O 	O 	0.5842	0.384	0.2958	-0.487
Mof_O 	O 	0.447	0.1423	0.2026	-0.513
Mof_O 	O 	0.424	0.0796	0.2896	-0.48
Mof_N 	N 	0.4992	0.235	0.2757	-0.186
Mof_C 	C 	0.5521	0.3393	0.2691	0.376
Mof_C 	C 	0.5259	0.2836	0.3111	-0.087
Mof_C 	C 	0.53	0.2819	0.3787	-0.006
Mof_H 	H 	0.5494	0.3163	0.4018	-0.001
Mof_C 	C 	0.5048	0.2282	0.4114	-0.084
Mof_H 	H 	0.5061	0.2263	0.457	0.022
Mof_C 	C 	0.4776	0.1769	0.3754	-0.009
Mof_H 	H 	0.4612	0.1398	0.3963	0.009
Mof_C 	C 	0.4755	0.1825	0.3081	-0.085
Mof_C 	C 	0.4467	0.1305	0.2636	0.369
Mof_La	La	0.51269	0.74276	0.35445	1.665
Mof_O 	O 	0.46	0.8351	0.2915	-0.503
Mof_O 	O 	0.4158	0.884	0.2042	-0.487
Mof_O 	O 	0.553	0.6423	0.2974	-0.513
Mof_O 	O 	0.576	0.5796	0.2104	-0.481
Mof_N 	N 	0.5008	0.735	0.2243	-0.186
Mof_C 	C 	0.4479	0.8393	0.2309	0.376
Mof_C 	C 	0.4741	0.7836	0.1889	-0.087
Mof_C 	C 	0.47	0.7819	0.1213	-0.006
Mof_H 	H 	0.4506	0.8163	0.0982	-0.001
Mof_C 	C 	0.4952	0.7282	0.0886	-0.084
Mof_H 	H 	0.4939	0.7263	0.043	0.021
Mof_C 	C 	0.5224	0.6769	0.1246	-0.009
Mof_H 	H 	0.5388	0.6398	0.1037	0.009
Mof_C 	C 	0.5245	0.6825	0.1919	-0.085
Mof_C 	C 	0.5533	0.6305	0.2364	0.369
Mof_La	La	0.01269	0.75724	0.64555	1.663
Mof_O 	O 	0.96	0.6649	0.7085	-0.502
Mof_O 	O 	0.9158	0.616	0.7958	-0.486
Mof_O 	O 	0.053	0.8577	0.7026	-0.513
Mof_O 	O 	0.076	0.9204	0.7896	-0.481
Mof_N 	N 	0.0008	0.765	0.7757	-0.188
Mof_C 	C 	0.9479	0.6607	0.7691	0.375
Mof_C 	C 	0.9741	0.7164	0.8111	-0.083
Mof_C 	C 	0.97	0.7181	0.8787	-0.01
Mof_H 	H 	0.9506	0.6837	0.9018	0.001
Mof_C 	C 	0.9952	0.7718	0.9114	-0.076
Mof_H 	H 	0.9939	0.7737	0.957	0.02
Mof_C 	C 	0.0224	0.8231	0.8754	-0.015
Mof_H 	H 	0.0388	0.8602	0.8963	0.011
Mof_C 	C 	0.0245	0.8175	0.8081	-0.083
Mof_C 	C 	0.0533	0.8695	0.7636	0.368
Mof_La	La	0.85445	0.98731	0.25724	1.666
Mof_O 	O 	0.7915	0.04	0.1649	-0.503
Mof_O 	O 	0.7042	0.0842	0.116	-0.487
Mof_O 	O 	0.7974	0.947	0.3577	-0.513
Mof_O 	O 	0.7104	0.924	0.4204	-0.481
Mof_N 	N 	0.7243	0.9992	0.265	-0.186
Mof_C 	C 	0.7309	0.0521	0.1607	0.376
Mof_C 	C 	0.6889	0.0259	0.2164	-0.087
Mof_C 	C 	0.6213	0.03	0.2181	-0.006
Mof_H 	H 	0.5982	0.0494	0.1837	-0.001
Mof_C 	C 	0.5886	0.0048	0.2718	-0.083
Mof_H 	H 	0.543	0.0061	0.2737	0.022
Mof_C 	C 	0.6246	0.9776	0.3231	-0.01
Mof_H 	H 	0.6037	0.9612	0.3602	0.009
Mof_C 	C 	0.6919	0.9755	0.3175	-0.085
Mof_C 	C 	0.7364	0.9467	0.3695	0.369
Mof_La	La	0.14555	0.48731	0.24276	1.666
Mof_O 	O 	0.2085	0.54	0.3351	-0.503
Mof_O 	O 	0.2958	0.5842	0.384	-0.487
Mof_O 	O 	0.2026	0.447	0.1423	-0.513
Mof_O 	O 	0.2896	0.424	0.0796	-0.48
Mof_N 	N 	0.2757	0.4992	0.235	-0.186
Mof_C 	C 	0.2691	0.5521	0.3393	0.376
Mof_C 	C 	0.3111	0.5259	0.2836	-0.087
Mof_C 	C 	0.3787	0.53	0.2819	-0.006
Mof_H 	H 	0.4018	0.5494	0.3163	-0.001
Mof_C 	C 	0.4114	0.5048	0.2282	-0.084
Mof_H 	H 	0.457	0.5061	0.2263	0.022
Mof_C 	C 	0.3754	0.4776	0.1769	-0.009
Mof_H 	H 	0.3963	0.4612	0.1398	0.009
Mof_C 	C 	0.3081	0.4755	0.1825	-0.085
Mof_C 	C 	0.2636	0.4467	0.1305	0.369
Mof_La	La	0.35445	0.51269	0.74276	1.665
Mof_O 	O 	0.2915	0.46	0.8351	-0.503
Mof_O 	O 	0.2042	0.4158	0.884	-0.487
Mof_O 	O 	0.2974	0.553	0.6423	-0.513
Mof_O 	O 	0.2104	0.576	0.5796	-0.481
Mof_N 	N 	0.2243	0.5008	0.735	-0.186
Mof_C 	C 	0.2309	0.4479	0.8393	0.376
Mof_C 	C 	0.1889	0.4741	0.7836	-0.087
Mof_C 	C 	0.1213	0.47	0.7819	-0.006
Mof_H 	H 	0.0982	0.4506	0.8163	-0.001
Mof_C 	C 	0.0886	0.4952	0.7282	-0.084
Mof_H 	H 	0.043	0.4939	0.7263	0.021
Mof_C 	C 	0.1246	0.5224	0.6769	-0.009
Mof_H 	H 	0.1037	0.5388	0.6398	0.009
Mof_C 	C 	0.1919	0.5245	0.6825	-0.085
Mof_C 	C 	0.2364	0.5533	0.6305	0.369
Mof_La	La	0.64555	0.01269	0.75724	1.663
Mof_O 	O 	0.7085	0.96	0.6649	-0.502
Mof_O 	O 	0.7958	0.9158	0.616	-0.486
Mof_O 	O 	0.7026	0.053	0.8577	-0.513
Mof_O 	O 	0.7896	0.076	0.9204	-0.481
Mof_N 	N 	0.7757	0.0008	0.765	-0.188
Mof_C 	C 	0.7691	0.9479	0.6607	0.375
Mof_C 	C 	0.8111	0.9741	0.7164	-0.083
Mof_C 	C 	0.8787	0.97	0.7181	-0.01
Mof_H 	H 	0.9018	0.9506	0.6837	0.001
Mof_C 	C 	0.9114	0.9952	0.7718	-0.076
Mof_H 	H 	0.957	0.9939	0.7737	0.02
Mof_C 	C 	0.8754	0.0224	0.8231	-0.015
Mof_H 	H 	0.8963	0.0388	0.8602	0.011
Mof_C 	C 	0.8081	0.0245	0.8175	-0.083
Mof_C 	C 	0.7636	0.0533	0.8695	0.368
_end
