data_functionalizedCrystal
_audit_creation_method	'EQeq! by Chris Wilmer'
_symmetry_space_group_name_H-M	'P1'
_symmetry_Int_Tables_number	1
_symmetry_cell_setting	triclinic
loop_
_symmetry_equiv_pos_as_xyz
  x,y,z
_cell_length_a	9.315
_cell_length_b	13.2
_cell_length_c	15.455
_cell_angle_alpha	90
_cell_angle_beta	106.816
_cell_angle_gamma	90
loop_
_atom_site_label
_atom_site_type_symbol
_atom_site_fract_x
_atom_site_fract_y
_atom_site_fract_z
_atom_site_charge
Mof_Cd	Cd	0.57147	0.87376	0.11081	0.468
Mof_Cd	Cd	0.64416	0.39874	0.43875	0.454
Mof_Cd	Cd	0.74499	0.58403	0.25685	0.496
Mof_Cd	Cd	0.92853	0.37376	0.88919	0.465
Mof_Cd	Cd	0.85584	0.89874	0.56125	0.453
Mof_Cd	Cd	0.75501	0.08403	0.74315	0.495
Mof_Cd	Cd	0.42853	0.12624	0.88919	0.467
Mof_Cd	Cd	0.35584	0.60126	0.56125	0.453
Mof_Cd	Cd	0.25501	0.41597	0.74315	0.495
Mof_Cd	Cd	0.07147	0.62624	0.11081	0.464
Mof_Cd	Cd	0.14416	0.10126	0.43875	0.453
Mof_Cd	Cd	0.24499	0.91597	0.25685	0.495
Mof_C 	C 	0.7823	0.8921	0.9792	0.014
Mof_C 	C 	0.4512	0.7062	0.4063	0.011
Mof_C 	C 	0.8408	0.8032	0.0376	0.298
Mof_C 	C 	0.9678	0.9268	0.8835	0.274
Mof_C 	C 	0.5395	0.7746	0.2671	0.298
Mof_C 	C 	0.5155	0.7032	0.3361	-0.001
Mof_C 	C 	0.8351	0.9404	0.9153	0.02
Mof_C 	C 	0.3816	0.7885	0.4481	0.283
Mof_C 	C 	0.7177	0.3921	0.0208	0.019
Mof_C 	C 	0.0488	0.2062	0.5937	0.011
Mof_C 	C 	0.6592	0.3032	0.9624	0.295
Mof_C 	C 	0.5322	0.4268	0.1165	0.279
Mof_C 	C 	0.9605	0.2746	0.7329	0.296
Mof_C 	C 	0.9845	0.2032	0.6639	-0.001
Mof_C 	C 	0.6649	0.4404	0.0847	0.017
Mof_C 	C 	0.1184	0.2885	0.5519	0.283
Mof_C 	C 	0.2177	0.1079	0.0208	0.014
Mof_C 	C 	0.5488	0.2938	0.5937	0.011
Mof_C 	C 	0.1592	0.1968	0.9624	0.298
Mof_C 	C 	0.0322	0.0732	0.1165	0.274
Mof_C 	C 	0.4605	0.2254	0.7329	0.298
Mof_C 	C 	0.4845	0.2968	0.6639	-0.001
Mof_C 	C 	0.1649	0.0596	0.0847	0.02
Mof_C 	C 	0.6184	0.2115	0.5519	0.283
Mof_C 	C 	0.2823	0.6079	0.9792	0.019
Mof_C 	C 	0.9512	0.7938	0.4063	0.011
Mof_C 	C 	0.3408	0.6968	0.0376	0.295
Mof_C 	C 	0.4678	0.5732	0.8835	0.279
Mof_C 	C 	0.0395	0.7254	0.2671	0.296
Mof_C 	C 	0.0155	0.7968	0.3361	-0.001
Mof_C 	C 	0.3351	0.5596	0.9153	0.017
Mof_C 	C 	0.8816	0.7115	0.4481	0.283
Mof_N 	N 	0.7383	0.0164	0.8804	-0.076
Mof_N 	N 	0.6307	0.0143	0.9214	-0.058
Mof_N 	N 	0.6566	0.9396	0.9833	-0.077
Mof_N 	N 	0.5405	0.5565	0.401	-0.062
Mof_N 	N 	0.5705	0.6088	0.3355	-0.078
Mof_N 	N 	0.4687	0.6142	0.4447	-0.089
Mof_N 	N 	0.7617	0.5164	0.1196	-0.074
Mof_N 	N 	0.8693	0.5143	0.0786	-0.056
Mof_N 	N 	0.8434	0.4396	0.0167	-0.078
Mof_N 	N 	0.9595	0.0565	0.599	-0.062
Mof_N 	N 	0.9295	0.1088	0.6645	-0.078
Mof_N 	N 	0.0313	0.1142	0.5553	-0.089
Mof_N 	N 	0.2617	0.9836	0.1196	-0.076
Mof_N 	N 	0.3693	0.9857	0.0786	-0.058
Mof_N 	N 	0.3434	0.0604	0.0167	-0.077
Mof_N 	N 	0.4595	0.4435	0.599	-0.062
Mof_N 	N 	0.4295	0.3912	0.6645	-0.078
Mof_N 	N 	0.5313	0.3858	0.5553	-0.089
Mof_N 	N 	0.2383	0.4836	0.8804	-0.074
Mof_N 	N 	0.1307	0.4857	0.9214	-0.056
Mof_N 	N 	0.1566	0.5604	0.9833	-0.078
Mof_N 	N 	0.0405	0.9435	0.401	-0.062
Mof_N 	N 	0.0705	0.8912	0.3355	-0.078
Mof_N 	N 	0.9687	0.8858	0.4447	-0.089
Mof_Cl	Cl	0.80542	0.40133	0.32989	-0.321
Mof_Cl	Cl	0.69458	0.90133	0.67011	-0.321
Mof_Cl	Cl	0.19458	0.59867	0.67011	-0.321
Mof_Cl	Cl	0.30542	0.09867	0.32989	-0.321
Mof_O 	O 	0.6305	0.746	0.2252	-0.271
Mof_O 	O 	0.4724	0.8575	0.2507	-0.268
Mof_O 	O 	0.0551	0.8501	0.914	-0.165
Mof_O 	O 	0.9497	0.7557	0.0218	-0.224
Mof_O 	O 	0.3893	0.8774	0.4207	-0.217
Mof_O 	O 	0.7811	0.7791	0.0964	-0.241
Mof_O 	O 	0.9955	0.9875	0.8307	-0.226
Mof_O 	O 	0.3216	0.7632	0.5074	-0.238
Mof_O 	O 	0.8695	0.246	0.7748	-0.271
Mof_O 	O 	0.0276	0.3575	0.7493	-0.266
Mof_O 	O 	0.4449	0.3501	0.086	-0.17
Mof_O 	O 	0.5503	0.2557	0.9782	-0.225
Mof_O 	O 	0.1107	0.3774	0.5793	-0.217
Mof_O 	O 	0.7189	0.2791	0.9036	-0.241
Mof_O 	O 	0.5045	0.4875	0.1693	-0.228
Mof_O 	O 	0.1784	0.2632	0.4926	-0.238
Mof_O 	O 	0.3695	0.254	0.7748	-0.271
Mof_O 	O 	0.5276	0.1425	0.7493	-0.268
Mof_O 	O 	0.9449	0.1499	0.086	-0.165
Mof_O 	O 	0.0503	0.2443	0.9782	-0.224
Mof_O 	O 	0.6107	0.1226	0.5793	-0.217
Mof_O 	O 	0.2189	0.2209	0.9036	-0.241
Mof_O 	O 	0.0045	0.0125	0.1693	-0.226
Mof_O 	O 	0.6784	0.2368	0.4926	-0.238
Mof_O 	O 	0.1305	0.754	0.2252	-0.271
Mof_O 	O 	0.9724	0.6425	0.2507	-0.266
Mof_O 	O 	0.5551	0.6499	0.914	-0.17
Mof_O 	O 	0.4497	0.7443	0.0218	-0.225
Mof_O 	O 	0.8893	0.6226	0.4207	-0.217
Mof_O 	O 	0.2811	0.7209	0.0964	-0.241
Mof_O 	O 	0.4955	0.5125	0.8307	-0.228
Mof_O 	O 	0.8216	0.7368	0.5074	-0.238
_end
