# CIF file generated by openbabel 3.1.0, see https://openbabel.org
data_I
_chemical_name_common 'AQODOA_clean'
_cell_length_a 6.442
_cell_length_b 8.91
_cell_length_c 24.416
_cell_angle_alpha 90
_cell_angle_beta 97.291
_cell_angle_gamma 90
_space_group_name_H-M_alt 'P 1'
_space_group_name_Hall 'P 1'
loop_
    _symmetry_equiv_pos_as_xyz
    x,y,z
loop_
    _atom_site_label
    _atom_site_type_symbol
    _atom_site_fract_x
    _atom_site_fract_y
    _atom_site_fract_z
    _atom_site_occupancy
    Ag1      Ag       0.22426    0.50257    0.69422    1.000
    Ag2      Ag       0.77574    0.00257    0.80578    1.000
    Ag3      Ag       0.77574    0.49743    0.30578    1.000
    Ag4      Ag       0.22426    0.99743    0.19422    1.000
    H1       H        0.57700    0.70130    0.76350    1.000
    H2       H        0.42930    0.81020    0.72620    1.000
    H3       H        0.74550    0.49360    0.72200    1.000
    H4       H        0.70560    0.46880    0.65790    1.000
    H5       H        0.53800    0.19390    0.49440    1.000
    H6       H        0.36890    0.77410    0.62780    1.000
    H7       H        0.47750    0.64140    0.60020    1.000
    H8       H        0.63710    0.01690    0.43570    1.000
    H9       H        0.84780    0.64820    0.59600    1.000
    H10      H        0.98050    0.78520    0.62100    1.000
    H11      H        0.95310    0.70720    0.75910    1.000
    H12      H        0.04270    0.82040    0.71890    1.000
    H13      H        0.76030    0.26420    0.57370    1.000
    H14      H        0.81860    0.98540    0.66250    1.000
    H15      H        0.57640    0.98540    0.66480    1.000
    H16      H        0.42300    0.20130    0.73650    1.000
    H17      H        0.57070    0.31020    0.77380    1.000
    H18      H        0.25450    0.99360    0.77800    1.000
    H19      H        0.29440    0.96880    0.84210    1.000
    H20      H        0.46200    0.69390    0.00560    1.000
    H21      H        0.63110    0.27410    0.87220    1.000
    H22      H        0.52250    0.14140    0.89980    1.000
    H23      H        0.36290    0.51690    0.06430    1.000
    H24      H        0.15220    0.14820    0.90400    1.000
    H25      H        0.01950    0.28520    0.87900    1.000
    H26      H        0.04690    0.20720    0.74090    1.000
    H27      H        0.95730    0.32040    0.78110    1.000
    H28      H        0.23970    0.76420    0.92630    1.000
    H29      H        0.18140    0.48540    0.83750    1.000
    H30      H        0.42360    0.48540    0.83520    1.000
    H31      H        0.42300    0.29870    0.23650    1.000
    H32      H        0.57070    0.18980    0.27380    1.000
    H33      H        0.25450    0.50640    0.27800    1.000
    H34      H        0.29440    0.53120    0.34210    1.000
    H35      H        0.46200    0.80610    0.50560    1.000
    H36      H        0.63110    0.22590    0.37220    1.000
    H37      H        0.52250    0.35860    0.39980    1.000
    H38      H        0.36290    0.98310    0.56430    1.000
    H39      H        0.15220    0.35180    0.40400    1.000
    H40      H        0.01950    0.21480    0.37900    1.000
    H41      H        0.04690    0.29280    0.24090    1.000
    H42      H        0.95730    0.17960    0.28110    1.000
    H43      H        0.23970    0.73580    0.42630    1.000
    H44      H        0.18140    0.01460    0.33750    1.000
    H45      H        0.42360    0.01460    0.33520    1.000
    H46      H        0.57700    0.79870    0.26350    1.000
    H47      H        0.42930    0.68980    0.22620    1.000
    H48      H        0.74550    0.00640    0.22200    1.000
    H49      H        0.70560    0.03120    0.15790    1.000
    H50      H        0.53800    0.30610    0.99440    1.000
    H51      H        0.36890    0.72590    0.12780    1.000
    H52      H        0.47750    0.85860    0.10020    1.000
    H53      H        0.63710    0.48310    0.93570    1.000
    H54      H        0.84780    0.85180    0.09600    1.000
    H55      H        0.98050    0.71480    0.12100    1.000
    H56      H        0.95310    0.79280    0.25910    1.000
    H57      H        0.04270    0.67960    0.21890    1.000
    H58      H        0.76030    0.23580    0.07370    1.000
    H59      H        0.81860    0.51460    0.16250    1.000
    H60      H        0.57640    0.51460    0.16480    1.000
    C1       C        0.55560    0.75020    0.72780    1.000
    C2       C        0.99590    0.13160    0.56010    1.000
    C3       C        0.72140    0.54460    0.68660    1.000
    C4       C        0.66950    0.14990    0.50170    1.000
    C5       C        0.49560    0.71440    0.62990    1.000
    C6       C        0.72940    0.04500    0.46640    1.000
    C7       C        0.86240    0.72100    0.62580    1.000
    C8       C        0.93050    0.97770    0.47560    1.000
    C9       C        0.92470    0.75590    0.72340    1.000
    C10      C        0.80420    0.19340    0.54960    1.000
    C11      C        0.69960    0.92200    0.66700    1.000
    C12      C        0.44440    0.25020    0.77220    1.000
    C13      C        0.00410    0.63160    0.93990    1.000
    C14      C        0.27860    0.04460    0.81340    1.000
    C15      C        0.33050    0.64990    0.99830    1.000
    C16      C        0.50440    0.21440    0.87010    1.000
    C17      C        0.27060    0.54500    0.03360    1.000
    C18      C        0.13760    0.22100    0.87420    1.000
    C19      C        0.06950    0.47770    0.02440    1.000
    C20      C        0.07530    0.25590    0.77660    1.000
    C21      C        0.19580    0.69340    0.95040    1.000
    C22      C        0.30040    0.42200    0.83300    1.000
    C23      C        0.44440    0.24980    0.27220    1.000
    C24      C        0.00410    0.86840    0.43990    1.000
    C25      C        0.27860    0.45540    0.31340    1.000
    C26      C        0.33050    0.85010    0.49830    1.000
    C27      C        0.50440    0.28560    0.37010    1.000
    C28      C        0.27060    0.95500    0.53360    1.000
    C29      C        0.13760    0.27900    0.37420    1.000
    C30      C        0.06950    0.02230    0.52440    1.000
    C31      C        0.07530    0.24410    0.27660    1.000
    C32      C        0.19580    0.80660    0.45040    1.000
    C33      C        0.30040    0.07800    0.33300    1.000
    C34      C        0.55560    0.74980    0.22780    1.000
    C35      C        0.99590    0.36840    0.06010    1.000
    C36      C        0.72140    0.95540    0.18660    1.000
    C37      C        0.66950    0.35010    0.00170    1.000
    C38      C        0.49560    0.78560    0.12990    1.000
    C39      C        0.72940    0.45500    0.96640    1.000
    C40      C        0.86240    0.77900    0.12580    1.000
    C41      C        0.93050    0.52230    0.97560    1.000
    C42      C        0.92470    0.74410    0.22340    1.000
    C43      C        0.80420    0.30660    0.04960    1.000
    C44      C        0.69960    0.57800    0.16700    1.000
    S1       S        0.15810    0.18750    0.62145    1.000
    S2       S        0.84190    0.68750    0.87855    1.000
    S3       S        0.84190    0.81250    0.37855    1.000
    S4       S        0.15810    0.31250    0.12145    1.000
    N1       N        0.52660    0.63410    0.68390    1.000
    N2       N        0.73370    0.84900    0.72240    1.000
    N3       N        0.90450    0.64080    0.67970    1.000
    N4       N        0.67210    0.81220    0.62260    1.000
    N5       N        0.47340    0.13410    0.81610    1.000
    N6       N        0.26630    0.34900    0.77760    1.000
    N7       N        0.09550    0.14080    0.82030    1.000
    N8       N        0.32790    0.31220    0.87740    1.000
    N9       N        0.47340    0.36590    0.31610    1.000
    N10      N        0.26630    0.15100    0.27760    1.000
    N11      N        0.09550    0.35920    0.32030    1.000
    N12      N        0.32790    0.18780    0.37740    1.000
    N13      N        0.52660    0.86590    0.18390    1.000
    N14      N        0.73370    0.65100    0.22240    1.000
    N15      N        0.90450    0.85920    0.17970    1.000
    N16      N        0.67210    0.68780    0.12260    1.000
    O1       O        0.03430    0.29850    0.64680    1.000
    O2       O        0.19850    0.05500    0.65560    1.000
    O3       O        0.34770    0.25180    0.60510    1.000
    O4       O        0.96570    0.79850    0.85320    1.000
    O5       O        0.80150    0.55500    0.84440    1.000
    O6       O        0.65230    0.75180    0.89490    1.000
    O7       O        0.96570    0.70150    0.35320    1.000
    O8       O        0.80150    0.94500    0.34440    1.000
    O9       O        0.65230    0.74820    0.39490    1.000
    O10      O        0.03430    0.20150    0.14680    1.000
    O11      O        0.19850    0.44500    0.15560    1.000
    O12      O        0.34770    0.24820    0.10510    1.000
