# CIF file generated by openbabel 3.1.0, see https://openbabel.org
data_I
_chemical_name_common 'image0'
_cell_length_a 18.348
_cell_length_b 18.348
_cell_length_c 34.631
_cell_angle_alpha 90
_cell_angle_beta 90
_cell_angle_gamma 120
_space_group_name_H-M_alt 'P 1'
_space_group_name_Hall 'P 1'
loop_
    _symmetry_equiv_pos_as_xyz
    x,y,z
loop_
    _atom_site_label
    _atom_site_type_symbol
    _atom_site_fract_x
    _atom_site_fract_y
    _atom_site_fract_z
    _atom_site_occupancy
    O1       O        0.70400    0.14440    0.16416    1.000
    O2       O        0.74480    0.10120    0.11235    1.000
    N1       N        0.76200    0.31120    0.24280    1.000
    C1       C        0.59590    0.06040    0.07392    1.000
    H1       H        0.63440    0.04940    0.06160    1.000
    C2       C        0.61210    0.09240    0.11085    1.000
    C3       C        0.69300    0.11350    0.13075    1.000
    C4       C        0.85250    0.38440    0.24270    1.000
    C5       C        0.72380    0.31970    0.28030    1.000
    O3       O        0.37067    0.47773    0.49749    1.000
    O4       O        0.41147    0.43453    0.44568    1.000
    N2       N        0.42867    0.64453    0.57613    1.000
    C6       C        0.26257    0.39373    0.40725    1.000
    H2       H        0.30107    0.38273    0.39493    1.000
    C7       C        0.27877    0.42573    0.44418    1.000
    C8       C        0.35967    0.44683    0.46408    1.000
    C9       C        0.51917    0.71773    0.57603    1.000
    C10      C        0.39047    0.65303    0.61363    1.000
    O5       O        0.03733    0.81107    0.83083    1.000
    O6       O        0.07813    0.76787    0.77902    1.000
    N3       N        0.09533    0.97787    0.90947    1.000
    C11      C        0.92923    0.72707    0.74059    1.000
    H3       H        0.96773    0.71607    0.72827    1.000
    C12      C        0.94543    0.75907    0.77752    1.000
    C13      C        0.02633    0.78017    0.79742    1.000
    C14      C        0.18583    0.05107    0.90937    1.000
    C15      C        0.05713    0.98637    0.94697    1.000
    O7       O        0.85560    0.55960    0.16416    1.000
    O8       O        0.89880    0.64360    0.11235    1.000
    N4       N        0.68880    0.45080    0.24280    1.000
    C16      C        0.93960    0.53550    0.07392    1.000
    H4       H        0.95060    0.58500    0.06160    1.000
    C17      C        0.90760    0.51970    0.11085    1.000
    C18      C        0.88650    0.57950    0.13075    1.000
    C19      C        0.61560    0.46810    0.24270    1.000
    C20      C        0.68030    0.40410    0.28030    1.000
    O9       O        0.52227    0.89293    0.49749    1.000
    O10      O        0.56547    0.97693    0.44568    1.000
    N5       N        0.35547    0.78413    0.57613    1.000
    C21      C        0.60627    0.86883    0.40725    1.000
    H5       H        0.61727    0.91833    0.39493    1.000
    C22      C        0.57427    0.85303    0.44418    1.000
    C23      C        0.55317    0.91283    0.46408    1.000
    C24      C        0.28227    0.80143    0.57603    1.000
    C25      C        0.34697    0.73743    0.61363    1.000
    O11      O        0.18893    0.22627    0.83083    1.000
    O12      O        0.23213    0.31027    0.77902    1.000
    N6       N        0.02213    0.11747    0.90947    1.000
    C26      C        0.27293    0.20217    0.74059    1.000
    H6       H        0.28393    0.25167    0.72827    1.000
    C27      C        0.24093    0.18637    0.77752    1.000
    C28      C        0.21983    0.24617    0.79742    1.000
    C29      C        0.94893    0.13477    0.90937    1.000
    C30      C        0.01363    0.07077    0.94697    1.000
    O13      O        0.44040    0.29600    0.16416    1.000
    O14      O        0.35640    0.25520    0.11235    1.000
    N7       N        0.54920    0.23800    0.24280    1.000
    C31      C        0.46450    0.40410    0.07392    1.000
    H7       H        0.41500    0.36560    0.06160    1.000
    C32      C        0.48030    0.38790    0.11085    1.000
    C33      C        0.42050    0.30700    0.13075    1.000
    C34      C        0.53190    0.14750    0.24270    1.000
    C35      C        0.59590    0.27620    0.28030    1.000
    O15      O        0.10707    0.62933    0.49749    1.000
    O16      O        0.02307    0.58853    0.44568    1.000
    N8       N        0.21587    0.57133    0.57613    1.000
    C36      C        0.13117    0.73743    0.40725    1.000
    H8       H        0.08167    0.69893    0.39493    1.000
    C37      C        0.14697    0.72123    0.44418    1.000
    C38      C        0.08717    0.64033    0.46408    1.000
    C39      C        0.19857    0.48083    0.57603    1.000
    C40      C        0.26257    0.60953    0.61363    1.000
    O17      O        0.77373    0.96267    0.83083    1.000
    O18      O        0.68973    0.92187    0.77902    1.000
    N9       N        0.88253    0.90467    0.90947    1.000
    C41      C        0.79783    0.07077    0.74059    1.000
    H9       H        0.74833    0.03227    0.72827    1.000
    C42      C        0.81363    0.05457    0.77752    1.000
    C43      C        0.75383    0.97367    0.79742    1.000
    C44      C        0.86523    0.81417    0.90937    1.000
    C45      C        0.92923    0.94287    0.94697    1.000
    O19      O        0.14440    0.70400    0.83584    1.000
    O20      O        0.10120    0.74480    0.88765    1.000
    N10      N        0.31120    0.76200    0.75720    1.000
    C46      C        0.06040    0.59590    0.92608    1.000
    H10      H        0.04940    0.63440    0.93840    1.000
    C47      C        0.09240    0.61210    0.88915    1.000
    C48      C        0.11350    0.69300    0.86925    1.000
    C49      C        0.38440    0.85250    0.75730    1.000
    C50      C        0.31970    0.72380    0.71970    1.000
    O21      O        0.81107    0.03733    0.16917    1.000
    O22      O        0.76787    0.07813    0.22098    1.000
    N11      N        0.97787    0.09533    0.09053    1.000
    C51      C        0.72707    0.92923    0.25941    1.000
    H11      H        0.71607    0.96773    0.27173    1.000
    C52      C        0.75907    0.94543    0.22248    1.000
    C53      C        0.78017    0.02633    0.20258    1.000
    C54      C        0.05107    0.18583    0.09063    1.000
    C55      C        0.98637    0.05713    0.05303    1.000
    O23      O        0.47773    0.37067    0.50251    1.000
    O24      O        0.43453    0.41147    0.55432    1.000
    N12      N        0.64453    0.42867    0.42387    1.000
    C56      C        0.39373    0.26257    0.59275    1.000
    H12      H        0.38273    0.30107    0.60507    1.000
    C57      C        0.42573    0.27877    0.55582    1.000
    C58      C        0.44683    0.35967    0.53592    1.000
    C59      C        0.71773    0.51917    0.42397    1.000
    C60      C        0.65303    0.39047    0.38637    1.000
    O25      O        0.55960    0.85560    0.83584    1.000
    O26      O        0.64360    0.89880    0.88765    1.000
    N13      N        0.45080    0.68880    0.75720    1.000
    C61      C        0.53550    0.93960    0.92608    1.000
    H13      H        0.58500    0.95060    0.93840    1.000
    C62      C        0.51970    0.90760    0.88915    1.000
    C63      C        0.57950    0.88650    0.86925    1.000
    C64      C        0.46810    0.61560    0.75730    1.000
    C65      C        0.40410    0.68030    0.71970    1.000
    O27      O        0.22627    0.18893    0.16917    1.000
    O28      O        0.31027    0.23213    0.22098    1.000
    N14      N        0.11747    0.02213    0.09053    1.000
    C66      C        0.20217    0.27293    0.25941    1.000
    H14      H        0.25167    0.28393    0.27173    1.000
    C67      C        0.18637    0.24093    0.22248    1.000
    C68      C        0.24617    0.21983    0.20258    1.000
    C69      C        0.13477    0.94893    0.09063    1.000
    C70      C        0.07077    0.01363    0.05303    1.000
    O29      O        0.89293    0.52227    0.50251    1.000
    O30      O        0.97693    0.56547    0.55432    1.000
    N15      N        0.78413    0.35547    0.42387    1.000
    C71      C        0.86883    0.60627    0.59275    1.000
    H15      H        0.91833    0.61727    0.60507    1.000
    C72      C        0.85303    0.57427    0.55582    1.000
    C73      C        0.91283    0.55317    0.53592    1.000
    C74      C        0.80143    0.28227    0.42397    1.000
    C75      C        0.73743    0.34697    0.38637    1.000
    O31      O        0.29600    0.44040    0.83584    1.000
    O32      O        0.25520    0.35640    0.88765    1.000
    N16      N        0.23800    0.54920    0.75720    1.000
    C76      C        0.40410    0.46450    0.92608    1.000
    H16      H        0.36560    0.41500    0.93840    1.000
    C77      C        0.38790    0.48030    0.88915    1.000
    C78      C        0.30700    0.42050    0.86925    1.000
    C79      C        0.14750    0.53190    0.75730    1.000
    C80      C        0.27620    0.59590    0.71970    1.000
    O33      O        0.96267    0.77373    0.16917    1.000
    O34      O        0.92187    0.68973    0.22098    1.000
    N17      N        0.90467    0.88253    0.09053    1.000
    C81      C        0.07077    0.79783    0.25941    1.000
    H17      H        0.03227    0.74833    0.27173    1.000
    C82      C        0.05457    0.81363    0.22248    1.000
    C83      C        0.97367    0.75383    0.20258    1.000
    C84      C        0.81417    0.86523    0.09063    1.000
    C85      C        0.94287    0.92923    0.05303    1.000
    O35      O        0.62933    0.10707    0.50251    1.000
    O36      O        0.58853    0.02307    0.55432    1.000
    N18      N        0.57133    0.21587    0.42387    1.000
    C86      C        0.73743    0.13117    0.59275    1.000
    H18      H        0.69893    0.08167    0.60507    1.000
    C87      C        0.72123    0.14697    0.55582    1.000
    C88      C        0.64033    0.08717    0.53592    1.000
    C89      C        0.48083    0.19857    0.42397    1.000
    C90      C        0.60953    0.26257    0.38637    1.000
    O37      O        0.29600    0.85560    0.83584    1.000
    O38      O        0.25520    0.89880    0.88765    1.000
    N19      N        0.23800    0.68880    0.75720    1.000
    C91      C        0.40410    0.93960    0.92608    1.000
    H19      H        0.36560    0.95060    0.93840    1.000
    C92      C        0.38790    0.90760    0.88915    1.000
    C93      C        0.30700    0.88650    0.86925    1.000
    C94      C        0.14750    0.61560    0.75730    1.000
    C95      C        0.27620    0.68030    0.71970    1.000
    O39      O        0.96267    0.18893    0.16917    1.000
    O40      O        0.92187    0.23213    0.22098    1.000
    N20      N        0.90467    0.02213    0.09053    1.000
    C96      C        0.07077    0.27293    0.25941    1.000
    H20      H        0.03227    0.28393    0.27173    1.000
    C97      C        0.05457    0.24093    0.22248    1.000
    C98      C        0.97367    0.21983    0.20258    1.000
    C99      C        0.81417    0.94893    0.09063    1.000
    C100     C        0.94287    0.01363    0.05303    1.000
    O41      O        0.62933    0.52227    0.50251    1.000
    O42      O        0.58853    0.56547    0.55432    1.000
    N21      N        0.57133    0.35547    0.42387    1.000
    C101     C        0.73743    0.60627    0.59275    1.000
    H21      H        0.69893    0.61727    0.60507    1.000
    C102     C        0.72123    0.57427    0.55582    1.000
    C103     C        0.64033    0.55317    0.53592    1.000
    C104     C        0.48083    0.28227    0.42397    1.000
    C105     C        0.60953    0.34697    0.38637    1.000
    O43      O        0.14440    0.44040    0.83584    1.000
    O44      O        0.10120    0.35640    0.88765    1.000
    N22      N        0.31120    0.54920    0.75720    1.000
    C106     C        0.06040    0.46450    0.92608    1.000
    H22      H        0.04940    0.41500    0.93840    1.000
    C107     C        0.09240    0.48030    0.88915    1.000
    C108     C        0.11350    0.42050    0.86925    1.000
    C109     C        0.38440    0.53190    0.75730    1.000
    C110     C        0.31970    0.59590    0.71970    1.000
    O45      O        0.81107    0.77373    0.16917    1.000
    O46      O        0.76787    0.68973    0.22098    1.000
    N23      N        0.97787    0.88253    0.09053    1.000
    C111     C        0.72707    0.79783    0.25941    1.000
    H23      H        0.71607    0.74833    0.27173    1.000
    C112     C        0.75907    0.81363    0.22248    1.000
    C113     C        0.78017    0.75383    0.20258    1.000
    C114     C        0.05107    0.86523    0.09063    1.000
    C115     C        0.98637    0.92923    0.05303    1.000
    O47      O        0.47773    0.10707    0.50251    1.000
    O48      O        0.43453    0.02307    0.55432    1.000
    N24      N        0.64453    0.21587    0.42387    1.000
    C116     C        0.39373    0.13117    0.59275    1.000
    H24      H        0.38273    0.08167    0.60507    1.000
    C117     C        0.42573    0.14697    0.55582    1.000
    C118     C        0.44683    0.08717    0.53592    1.000
    C119     C        0.71773    0.19857    0.42397    1.000
    C120     C        0.65303    0.26257    0.38637    1.000
    O49      O        0.55960    0.70400    0.83584    1.000
    O50      O        0.64360    0.74480    0.88765    1.000
    N25      N        0.45080    0.76200    0.75720    1.000
    C121     C        0.53550    0.59590    0.92608    1.000
    H25      H        0.58500    0.63440    0.93840    1.000
    C122     C        0.51970    0.61210    0.88915    1.000
    C123     C        0.57950    0.69300    0.86925    1.000
    C124     C        0.46810    0.85250    0.75730    1.000
    C125     C        0.40410    0.72380    0.71970    1.000
    O51      O        0.22627    0.03733    0.16917    1.000
    O52      O        0.31027    0.07813    0.22098    1.000
    N26      N        0.11747    0.09533    0.09053    1.000
    C126     C        0.20217    0.92923    0.25941    1.000
    H26      H        0.25167    0.96773    0.27173    1.000
    C127     C        0.18637    0.94543    0.22248    1.000
    C128     C        0.24617    0.02633    0.20258    1.000
    C129     C        0.13477    0.18583    0.09063    1.000
    C130     C        0.07077    0.05713    0.05303    1.000
    O53      O        0.89293    0.37067    0.50251    1.000
    O54      O        0.97693    0.41147    0.55432    1.000
    N27      N        0.78413    0.42867    0.42387    1.000
    C131     C        0.86883    0.26257    0.59275    1.000
    H27      H        0.91833    0.30107    0.60507    1.000
    C132     C        0.85303    0.27877    0.55582    1.000
    C133     C        0.91283    0.35967    0.53592    1.000
    C134     C        0.80143    0.51917    0.42397    1.000
    C135     C        0.73743    0.39047    0.38637    1.000
    O55      O        0.85560    0.29600    0.16416    1.000
    O56      O        0.89880    0.25520    0.11235    1.000
    N28      N        0.68880    0.23800    0.24280    1.000
    C136     C        0.93960    0.40410    0.07392    1.000
    H28      H        0.95060    0.36560    0.06160    1.000
    C137     C        0.90760    0.38790    0.11085    1.000
    C138     C        0.88650    0.30700    0.13075    1.000
    C139     C        0.61560    0.14750    0.24270    1.000
    C140     C        0.68030    0.27620    0.28030    1.000
    O57      O        0.52227    0.62933    0.49749    1.000
    O58      O        0.56547    0.58853    0.44568    1.000
    N29      N        0.35547    0.57133    0.57613    1.000
    C141     C        0.60627    0.73743    0.40725    1.000
    H29      H        0.61727    0.69893    0.39493    1.000
    C142     C        0.57427    0.72123    0.44418    1.000
    C143     C        0.55317    0.64033    0.46408    1.000
    C144     C        0.28227    0.48083    0.57603    1.000
    C145     C        0.34697    0.60953    0.61363    1.000
    O59      O        0.18893    0.96267    0.83083    1.000
    O60      O        0.23213    0.92187    0.77902    1.000
    N30      N        0.02213    0.90467    0.90947    1.000
    C146     C        0.27293    0.07077    0.74059    1.000
    H30      H        0.28393    0.03227    0.72827    1.000
    C147     C        0.24093    0.05457    0.77752    1.000
    C148     C        0.21983    0.97367    0.79742    1.000
    C149     C        0.94893    0.81417    0.90937    1.000
    C150     C        0.01363    0.94287    0.94697    1.000
    O61      O        0.44040    0.14440    0.16416    1.000
    O62      O        0.35640    0.10120    0.11235    1.000
    N31      N        0.54920    0.31120    0.24280    1.000
    C151     C        0.46450    0.06040    0.07392    1.000
    H31      H        0.41500    0.04940    0.06160    1.000
    C152     C        0.48030    0.09240    0.11085    1.000
    C153     C        0.42050    0.11350    0.13075    1.000
    C154     C        0.53190    0.38440    0.24270    1.000
    C155     C        0.59590    0.31970    0.28030    1.000
    O63      O        0.10707    0.47773    0.49749    1.000
    O64      O        0.02307    0.43453    0.44568    1.000
    N32      N        0.21587    0.64453    0.57613    1.000
    C156     C        0.13117    0.39373    0.40725    1.000
    H32      H        0.08167    0.38273    0.39493    1.000
    C157     C        0.14697    0.42573    0.44418    1.000
    C158     C        0.08717    0.44683    0.46408    1.000
    C159     C        0.19857    0.71773    0.57603    1.000
    C160     C        0.26257    0.65303    0.61363    1.000
    O65      O        0.77373    0.81107    0.83083    1.000
    O66      O        0.68973    0.76787    0.77902    1.000
    N33      N        0.88253    0.97787    0.90947    1.000
    C161     C        0.79783    0.72707    0.74059    1.000
    H33      H        0.74833    0.71607    0.72827    1.000
    C162     C        0.81363    0.75907    0.77752    1.000
    C163     C        0.75383    0.78017    0.79742    1.000
    C164     C        0.86523    0.05107    0.90937    1.000
    C165     C        0.92923    0.98637    0.94697    1.000
    O67      O        0.70400    0.55960    0.16416    1.000
    O68      O        0.74480    0.64360    0.11235    1.000
    N34      N        0.76200    0.45080    0.24280    1.000
    C166     C        0.59590    0.53550    0.07392    1.000
    H34      H        0.63440    0.58500    0.06160    1.000
    C167     C        0.61210    0.51970    0.11085    1.000
    C168     C        0.69300    0.57950    0.13075    1.000
    C169     C        0.85250    0.46810    0.24270    1.000
    C170     C        0.72380    0.40410    0.28030    1.000
    O69      O        0.37067    0.89293    0.49749    1.000
    O70      O        0.41147    0.97693    0.44568    1.000
    N35      N        0.42867    0.78413    0.57613    1.000
    C171     C        0.26257    0.86883    0.40725    1.000
    H35      H        0.30107    0.91833    0.39493    1.000
    C172     C        0.27877    0.85303    0.44418    1.000
    C173     C        0.35967    0.91283    0.46408    1.000
    C174     C        0.51917    0.80143    0.57603    1.000
    C175     C        0.39047    0.73743    0.61363    1.000
    O71      O        0.03733    0.22627    0.83083    1.000
    O72      O        0.07813    0.31027    0.77902    1.000
    N36      N        0.09533    0.11747    0.90947    1.000
    C176     C        0.92923    0.20217    0.74059    1.000
    H36      H        0.96773    0.25167    0.72827    1.000
    C177     C        0.94543    0.18637    0.77752    1.000
    C178     C        0.02633    0.24617    0.79742    1.000
    C179     C        0.18583    0.13477    0.90937    1.000
    C180     C        0.05713    0.07077    0.94697    1.000
    Zn1      Zn       0.80414    0.19586    0.20159    1.000
    O73      O        0.76208    0.23792    0.24354    1.000
    C181     C        0.69910    0.30090    0.20980    1.000
    Zn2      Zn       0.47081    0.52919    0.53492    1.000
    O74      O        0.42875    0.57125    0.57687    1.000
    C182     C        0.36577    0.63423    0.54313    1.000
    Zn3      Zn       0.13747    0.86253    0.86826    1.000
    O75      O        0.09541    0.90459    0.91021    1.000
    C183     C        0.03243    0.96757    0.87647    1.000
    Zn4      Zn       0.80414    0.60828    0.20159    1.000
    O76      O        0.76208    0.52416    0.24354    1.000
    C184     C        0.69910    0.39820    0.20980    1.000
    Zn5      Zn       0.47081    0.94162    0.53492    1.000
    O77      O        0.42875    0.85749    0.57687    1.000
    C185     C        0.36577    0.73153    0.54313    1.000
    Zn6      Zn       0.13747    0.27495    0.86826    1.000
    O78      O        0.09541    0.19083    0.91021    1.000
    C186     C        0.03243    0.06487    0.87647    1.000
    Zn7      Zn       0.39172    0.19586    0.20159    1.000
    O79      O        0.47584    0.23792    0.24354    1.000
    C187     C        0.60180    0.30090    0.20980    1.000
    Zn8      Zn       0.05838    0.52919    0.53492    1.000
    O80      O        0.14251    0.57125    0.57687    1.000
    C188     C        0.26847    0.63423    0.54313    1.000
    Zn9      Zn       0.72505    0.86253    0.86826    1.000
    O81      O        0.80917    0.90459    0.91021    1.000
    C189     C        0.93513    0.96757    0.87647    1.000
    Zn10     Zn       0.19586    0.80414    0.79841    1.000
    O82      O        0.23792    0.76208    0.75646    1.000
    C190     C        0.30090    0.69910    0.79020    1.000
    Zn11     Zn       0.86253    0.13747    0.13174    1.000
    O83      O        0.90459    0.09541    0.08979    1.000
    C191     C        0.96757    0.03243    0.12353    1.000
    Zn12     Zn       0.52919    0.47081    0.46508    1.000
    O84      O        0.57125    0.42875    0.42313    1.000
    C192     C        0.63423    0.36577    0.45687    1.000
    Zn13     Zn       0.60828    0.80414    0.79841    1.000
    O85      O        0.52416    0.76208    0.75646    1.000
    C193     C        0.39820    0.69910    0.79020    1.000
    Zn14     Zn       0.27495    0.13747    0.13174    1.000
    O86      O        0.19083    0.09541    0.08979    1.000
    C194     C        0.06487    0.03243    0.12353    1.000
    Zn15     Zn       0.94162    0.47081    0.46508    1.000
    O87      O        0.85749    0.42875    0.42313    1.000
    C195     C        0.73153    0.36577    0.45687    1.000
    Zn16     Zn       0.19586    0.39172    0.79841    1.000
    O88      O        0.23792    0.47584    0.75646    1.000
    C196     C        0.30090    0.60180    0.79020    1.000
    Zn17     Zn       0.86253    0.72505    0.13174    1.000
    O89      O        0.90459    0.80917    0.08979    1.000
    C197     C        0.96757    0.93513    0.12353    1.000
    Zn18     Zn       0.52919    0.05838    0.46508    1.000
    O90      O        0.57125    0.14251    0.42313    1.000
    C198     C        0.63423    0.26847    0.45687    1.000
    C199     C        0.50575    0.01150    0.01600    1.000
    C200     C        0.52205    0.04410    0.05460    1.000
    C201     C        0.55415    0.10830    0.12960    1.000
    H37      H        0.56480    0.12960    0.15460    1.000
    C202     C        0.17242    0.34483    0.34933    1.000
    C203     C        0.18872    0.37743    0.38793    1.000
    C204     C        0.22082    0.44163    0.46293    1.000
    H38      H        0.23147    0.46293    0.48793    1.000
    C205     C        0.83908    0.67817    0.68267    1.000
    C206     C        0.85538    0.71077    0.72127    1.000
    C207     C        0.88748    0.77497    0.79627    1.000
    H39      H        0.89813    0.79627    0.82127    1.000
    C208     C        0.98850    0.49425    0.01600    1.000
    C209     C        0.95590    0.47795    0.05460    1.000
    C210     C        0.89170    0.44585    0.12960    1.000
    H40      H        0.87040    0.43520    0.15460    1.000
    C211     C        0.65517    0.82758    0.34933    1.000
    C212     C        0.62257    0.81128    0.38793    1.000
    C213     C        0.55837    0.77918    0.46293    1.000
    H41      H        0.53707    0.76853    0.48793    1.000
    C214     C        0.32183    0.16092    0.68267    1.000
    C215     C        0.28923    0.14462    0.72127    1.000
    C216     C        0.22503    0.11252    0.79627    1.000
    H42      H        0.20373    0.10187    0.82127    1.000
    C217     C        0.50575    0.49425    0.01600    1.000
    C218     C        0.52205    0.47795    0.05460    1.000
    C219     C        0.55415    0.44585    0.12960    1.000
    H43      H        0.56480    0.43520    0.15460    1.000
    C220     C        0.17242    0.82758    0.34933    1.000
    C221     C        0.18872    0.81128    0.38793    1.000
    C222     C        0.22082    0.77918    0.46293    1.000
    H44      H        0.23147    0.76853    0.48793    1.000
    C223     C        0.83908    0.16092    0.68267    1.000
    C224     C        0.85538    0.14462    0.72127    1.000
    C225     C        0.88748    0.11252    0.79627    1.000
    H45      H        0.89813    0.10187    0.82127    1.000
    C226     C        0.01150    0.50575    0.98400    1.000
    C227     C        0.04410    0.52205    0.94540    1.000
    C228     C        0.10830    0.55415    0.87040    1.000
    H46      H        0.12960    0.56480    0.84540    1.000
    C229     C        0.67817    0.83908    0.31733    1.000
    C230     C        0.71077    0.85538    0.27873    1.000
    C231     C        0.77497    0.88748    0.20373    1.000
    H47      H        0.79627    0.89813    0.17873    1.000
    C232     C        0.34483    0.17242    0.65067    1.000
    C233     C        0.37743    0.18872    0.61207    1.000
    C234     C        0.44163    0.22082    0.53707    1.000
    H48      H        0.46293    0.23147    0.51207    1.000
    C235     C        0.49425    0.98850    0.98400    1.000
    C236     C        0.47795    0.95590    0.94540    1.000
    C237     C        0.44585    0.89170    0.87040    1.000
    H49      H        0.43520    0.87040    0.84540    1.000
    C238     C        0.16092    0.32183    0.31733    1.000
    C239     C        0.14462    0.28923    0.27873    1.000
    C240     C        0.11252    0.22503    0.20373    1.000
    H50      H        0.10187    0.20373    0.17873    1.000
    C241     C        0.82758    0.65517    0.65067    1.000
    C242     C        0.81128    0.62257    0.61207    1.000
    C243     C        0.77918    0.55837    0.53707    1.000
    H51      H        0.76853    0.53707    0.51207    1.000
    C244     C        0.49425    0.50575    0.98400    1.000
    C245     C        0.47795    0.52205    0.94540    1.000
    C246     C        0.44585    0.55415    0.87040    1.000
    H52      H        0.43520    0.56480    0.84540    1.000
    C247     C        0.16092    0.83908    0.31733    1.000
    C248     C        0.14462    0.85538    0.27873    1.000
    C249     C        0.11252    0.88748    0.20373    1.000
    H53      H        0.10187    0.89813    0.17873    1.000
    C250     C        0.82758    0.17242    0.65067    1.000
    C251     C        0.81128    0.18872    0.61207    1.000
    C252     C        0.77918    0.22082    0.53707    1.000
    H54      H        0.76853    0.23147    0.51207    1.000
