data_functionalizedCrystal
_audit_creation_method	'EQeq! by Chris Wilmer'
_symmetry_space_group_name_H-M	'P1'
_symmetry_Int_Tables_number	1
_symmetry_cell_setting	triclinic
loop_
_symmetry_equiv_pos_as_xyz
  x,y,z
_cell_length_a	16.648
_cell_length_b	14.23
_cell_length_c	9.2846
_cell_angle_alpha	90
_cell_angle_beta	90
_cell_angle_gamma	90
loop_
_atom_site_label
_atom_site_type_symbol
_atom_site_fract_x
_atom_site_fract_y
_atom_site_fract_z
_atom_site_charge
Mof_Zn	Zn	0.57661	0.107	0.07395	1.238
Mof_P 	P 	0.43943	0.10469	0.8414	0.477
Mof_H 	H 	0.4157	0.1796	0.9237	-0.064
Mof_O 	O 	0.5267	0.098	0.884	-0.452
Mof_O 	O 	0.3939	0.016	0.8648	-0.447
Mof_O 	O 	0.4331	0.1389	0.6902	-0.432
Mof_O 	O 	0.5067	0.1637	0.2081	-0.506
Mof_O 	O 	0.1778	0.3354	0.4667	-0.479
Mof_H 	H 	0.3968	0.2338	0.233	-0.037
Mof_Zn	Zn	0.92339	0.893	0.57395	1.24
Mof_P 	P 	0.06057	0.89531	0.3414	0.477
Mof_H 	H 	0.0843	0.8204	0.4237	-0.064
Mof_O 	O 	0.9733	0.902	0.384	-0.452
Mof_O 	O 	0.1061	0.984	0.3648	-0.448
Mof_O 	O 	0.0669	0.8611	0.1902	-0.431
Mof_O 	O 	0.9933	0.8363	0.7081	-0.506
Mof_O 	O 	0.3222	0.6646	0.9667	-0.48
Mof_H 	H 	0.1032	0.7662	0.733	-0.038
Mof_Zn	Zn	0.42339	0.607	0.92605	1.24
Mof_P 	P 	0.56057	0.60469	0.1586	0.478
Mof_H 	H 	0.5843	0.6796	0.0763	-0.063
Mof_O 	O 	0.4733	0.598	0.116	-0.452
Mof_O 	O 	0.6061	0.516	0.1352	-0.448
Mof_O 	O 	0.5669	0.6389	0.3098	-0.431
Mof_O 	O 	0.4933	0.6637	0.7919	-0.505
Mof_O 	O 	0.8222	0.8354	0.5333	-0.48
Mof_H 	H 	0.6032	0.7338	0.767	-0.035
Mof_Zn	Zn	0.07661	0.393	0.42605	1.24
Mof_P 	P 	0.93943	0.39531	0.6586	0.478
Mof_H 	H 	0.9157	0.3204	0.5763	-0.064
Mof_O 	O 	0.0267	0.402	0.616	-0.452
Mof_O 	O 	0.8939	0.484	0.6352	-0.448
Mof_O 	O 	0.9331	0.3611	0.8098	-0.431
Mof_O 	O 	0.0067	0.3363	0.2919	-0.505
Mof_O 	O 	0.6778	0.1646	0.0333	-0.481
Mof_H 	H 	0.8968	0.2662	0.267	-0.035
Mof_Zn	Zn	0.42339	0.893	0.92605	1.239
Mof_P 	P 	0.56057	0.89531	0.1586	0.478
Mof_H 	H 	0.5843	0.8204	0.0763	-0.063
Mof_O 	O 	0.4733	0.902	0.116	-0.451
Mof_O 	O 	0.6061	0.984	0.1352	-0.446
Mof_O 	O 	0.5669	0.8611	0.3098	-0.431
Mof_O 	O 	0.4933	0.8363	0.7919	-0.506
Mof_O 	O 	0.8222	0.6646	0.5333	-0.479
Mof_H 	H 	0.6032	0.7662	0.767	-0.037
Mof_Zn	Zn	0.07661	0.107	0.42605	1.24
Mof_P 	P 	0.93943	0.10469	0.6586	0.477
Mof_H 	H 	0.9157	0.1796	0.5763	-0.064
Mof_O 	O 	0.0267	0.098	0.616	-0.452
Mof_O 	O 	0.8939	0.016	0.6352	-0.448
Mof_O 	O 	0.9331	0.1389	0.8098	-0.431
Mof_O 	O 	0.0067	0.1637	0.2919	-0.506
Mof_O 	O 	0.6778	0.3354	0.0333	-0.48
Mof_H 	H 	0.8968	0.2338	0.267	-0.038
Mof_Zn	Zn	0.57661	0.393	0.07395	1.24
Mof_P 	P 	0.43943	0.39531	0.8414	0.478
Mof_H 	H 	0.4157	0.3204	0.9237	-0.063
Mof_O 	O 	0.5267	0.402	0.884	-0.452
Mof_O 	O 	0.3939	0.484	0.8648	-0.448
Mof_O 	O 	0.4331	0.3611	0.6902	-0.431
Mof_O 	O 	0.5067	0.3363	0.2081	-0.505
Mof_O 	O 	0.1778	0.1646	0.4667	-0.48
Mof_H 	H 	0.3968	0.2662	0.233	-0.035
Mof_Zn	Zn	0.92339	0.607	0.57395	1.24
Mof_P 	P 	0.06057	0.60469	0.3414	0.478
Mof_H 	H 	0.0843	0.6796	0.4237	-0.064
Mof_O 	O 	0.9733	0.598	0.384	-0.452
Mof_O 	O 	0.1061	0.516	0.3648	-0.448
Mof_O 	O 	0.0669	0.6389	0.1902	-0.431
Mof_O 	O 	0.9933	0.6637	0.7081	-0.505
Mof_O 	O 	0.3222	0.8354	0.9667	-0.481
Mof_H 	H 	0.1032	0.7338	0.733	-0.035
Mof_Zn	Zn	0.40326	0.25	0.58651	1.25
Mof_P 	P 	0.47102	0.25	0.2618	0.583
Mof_P 	P 	0.22406	0.25	0.45	0.564
Mof_H 	H 	0.2511	0.25	0.3209	-0.075
Mof_O 	O 	0.4675	0.25	0.4178	-0.464
Mof_O 	O 	0.2923	0.25	0.5539	-0.46
Mof_Zn	Zn	0.09674	0.75	0.08651	1.25
Mof_P 	P 	0.02898	0.75	0.7618	0.582
Mof_P 	P 	0.27594	0.75	0.95	0.563
Mof_H 	H 	0.2489	0.75	0.8209	-0.075
Mof_O 	O 	0.0325	0.75	0.9178	-0.465
Mof_O 	O 	0.2077	0.75	0.0539	-0.458
Mof_Zn	Zn	0.59674	0.75	0.41349	1.25
Mof_P 	P 	0.52898	0.75	0.7382	0.583
Mof_P 	P 	0.77594	0.75	0.55	0.564
Mof_H 	H 	0.7489	0.75	0.6791	-0.075
Mof_O 	O 	0.5325	0.75	0.5822	-0.464
Mof_O 	O 	0.7077	0.75	0.4461	-0.46
Mof_Zn	Zn	0.90326	0.25	0.91349	1.25
Mof_P 	P 	0.97102	0.25	0.2382	0.582
Mof_P 	P 	0.72406	0.25	0.05	0.563
Mof_H 	H 	0.7511	0.25	0.1791	-0.075
Mof_O 	O 	0.9675	0.25	0.0822	-0.465
Mof_O 	O 	0.7923	0.25	0.9461	-0.458
_end
