data_functionalizedCrystal
_audit_creation_method	'EQeq! by Chris Wilmer'
_symmetry_space_group_name_H-M	'P1'
_symmetry_Int_Tables_number	1
_symmetry_cell_setting	triclinic
loop_
_symmetry_equiv_pos_as_xyz
  x,y,z
_cell_length_a	13.495
_cell_length_b	19.0164
_cell_length_c	25.9664
_cell_angle_alpha	81.0377
_cell_angle_beta	74.9385
_cell_angle_gamma	69.2172
loop_
_atom_site_label
_atom_site_type_symbol
_atom_site_fract_x
_atom_site_fract_y
_atom_site_fract_z
_atom_site_charge
Mof_Mg	Mg	0.57446	0.41916	0.19012	1.471
Mof_Mg	Mg	0.68679	0.58595	0.74243	1.477
Mof_Mg	Mg	0.71622	0.67882	0.63124	1.47
Mof_Mg	Mg	0.70182	0.27511	0.12591	1.478
Mof_Mg	Mg	0.18374	0.08084	0.30988	1.47
Mof_Mg	Mg	0.01517	0.91405	0.75757	1.476
Mof_Mg	Mg	0.02628	0.82118	0.86876	1.469
Mof_Mg	Mg	0.10284	0.22489	0.37409	1.478
Mof_Mg	Mg	0.42554	0.58084	0.80988	1.47
Mof_Mg	Mg	0.31321	0.41405	0.25757	1.476
Mof_Mg	Mg	0.28378	0.32118	0.36876	1.47
Mof_Mg	Mg	0.29818	0.72489	0.87409	1.478
Mof_Mg	Mg	0.81626	0.91916	0.69012	1.47
Mof_Mg	Mg	0.98483	0.08595	0.24243	1.476
Mof_Mg	Mg	0.97372	0.17882	0.13124	1.469
Mof_Mg	Mg	0.89716	0.77511	0.62591	1.478
Mof_H 	H 	0.7043	0.5012	0.0106	0.123
Mof_H 	H 	0.5759	0.5198	0.0208	0.128
Mof_H 	H 	0.7351	0.3958	0.965	0.037
Mof_H 	H 	0.6071	0.4101	0.9775	0.029
Mof_H 	H 	0.7152	0.5081	0.9093	0.032
Mof_H 	H 	0.5855	0.5311	0.9259	0.023
Mof_H 	H 	0.587	0.4358	0.879	0.133
Mof_H 	H 	0.7163	0.3987	0.8699	0.138
Mof_H 	H 	0.4996	0.2831	0.0899	0.149
Mof_H 	H 	0.5089	0.2134	0.1336	0.153
Mof_H 	H 	0.3658	0.2422	0.085	0.001
Mof_H 	H 	0.3028	0.3145	0.1189	0.015
Mof_H 	H 	0.3595	0.1648	0.1666	0.024
Mof_H 	H 	0.2867	0.2387	0.1977	0.046
Mof_H 	H 	0.1503	0.2583	0.1515	0.131
Mof_H 	H 	0.2233	0.1858	0.119	0.11
Mof_H 	H 	0.8596	0.3929	0.6375	0.136
Mof_H 	H 	0.768	0.428	0.6034	0.126
Mof_H 	H 	0.9842	0.4356	0.5724	0.022
Mof_H 	H 	0.8924	0.4859	0.5409	0.03
Mof_H 	H 	0.8801	0.378	0.514	0.035
Mof_H 	H 	0.9624	0.3246	0.5498	0.025
Mof_H 	H 	0.0254	0.4229	0.4635	0.131
Mof_H 	H 	0.105	0.3585	0.4955	0.12
Mof_H 	H 	0.9453	0.527	0.7274	0.145
Mof_H 	H 	0.8939	0.5785	0.7771	0.15
Mof_H 	H 	0.0913	0.5208	0.7554	0.001
Mof_H 	H 	0.0909	0.5819	0.7055	0.015
Mof_H 	H 	0.0217	0.6806	0.7614	0.046
Mof_H 	H 	0.0008	0.6252	0.813	0.032
Mof_H 	H 	0.2133	0.621	0.7506	0.127
Mof_H 	H 	0.1948	0.5623	0.8003	0.109
Mof_H 	H 	0.2161	0.9988	0.4894	0.11
Mof_H 	H 	0.1165	0.9802	0.4792	0.115
Mof_H 	H 	0.0959	0.1042	0.535	0.044
Mof_H 	H 	0.9947	0.0899	0.5225	0.031
Mof_H 	H 	0.1326	0.9919	0.5907	0.016
Mof_H 	H 	0.0425	0.9689	0.5741	0.006
Mof_H 	H 	0.9018	0.0642	0.621	0.138
Mof_H 	H 	0.9849	0.1013	0.6301	0.143
Mof_H 	H 	0.8726	0.2169	0.4101	0.147
Mof_H 	H 	0.8559	0.2866	0.3664	0.151
Mof_H 	H 	0.693	0.2578	0.415	0.002
Mof_H 	H 	0.7362	0.1855	0.3811	0.015
Mof_H 	H 	0.6909	0.3352	0.3334	0.023
Mof_H 	H 	0.7231	0.2613	0.3023	0.046
Mof_H 	H 	0.5601	0.2417	0.3485	0.13
Mof_H 	H 	0.5281	0.3142	0.381	0.11
Mof_H 	H 	0.89	0.1071	0.8625	0.138
Mof_H 	H 	0.7994	0.072	0.8966	0.127
Mof_H 	H 	0.9922	0.0644	0.9276	0.02
Mof_H 	H 	0.9192	0.0141	0.9591	0.027
Mof_H 	H 	0.7721	0.122	0.986	0.035
Mof_H 	H 	0.8368	0.1754	0.9502	0.026
Mof_H 	H 	0.9118	0.0771	0.0365	0.129
Mof_H 	H 	0.959	0.1415	0.0045	0.118
Mof_H 	H 	0.1997	0.973	0.7726	0.144
Mof_H 	H 	0.2495	0.9215	0.7229	0.15
Mof_H 	H 	0.3675	0.9792	0.7446	-0.001
Mof_H 	H 	0.3783	0.9181	0.7945	0.014
Mof_H 	H 	0.4637	0.8194	0.7386	0.048
Mof_H 	H 	0.439	0.8748	0.687	0.034
Mof_H 	H 	0.5849	0.879	0.7494	0.126
Mof_H 	H 	0.5574	0.9377	0.6997	0.108
Mof_H 	H 	0.2957	0.4988	0.9894	0.123
Mof_H 	H 	0.4241	0.4802	0.9792	0.128
Mof_H 	H 	0.2649	0.6042	0.035	0.037
Mof_H 	H 	0.3929	0.5899	0.0225	0.029
Mof_H 	H 	0.2848	0.4919	0.0907	0.032
Mof_H 	H 	0.4145	0.4689	0.0741	0.023
Mof_H 	H 	0.413	0.5642	0.121	0.133
Mof_H 	H 	0.2837	0.6013	0.1301	0.138
Mof_H 	H 	0.5004	0.7169	0.9101	0.149
Mof_H 	H 	0.4911	0.7866	0.8664	0.153
Mof_H 	H 	0.6342	0.7578	0.915	0.001
Mof_H 	H 	0.6972	0.6855	0.8811	0.015
Mof_H 	H 	0.6405	0.8352	0.8334	0.024
Mof_H 	H 	0.7133	0.7613	0.8023	0.046
Mof_H 	H 	0.8497	0.7417	0.8485	0.131
Mof_H 	H 	0.7767	0.8142	0.881	0.11
Mof_H 	H 	0.1404	0.6071	0.3625	0.136
Mof_H 	H 	0.232	0.572	0.3966	0.126
Mof_H 	H 	0.0158	0.5644	0.4276	0.022
Mof_H 	H 	0.1076	0.5141	0.4591	0.03
Mof_H 	H 	0.1199	0.622	0.486	0.035
Mof_H 	H 	0.0376	0.6754	0.4502	0.025
Mof_H 	H 	0.9746	0.5771	0.5365	0.131
Mof_H 	H 	0.895	0.6415	0.5045	0.12
Mof_H 	H 	0.0547	0.473	0.2726	0.145
Mof_H 	H 	0.1061	0.4215	0.2229	0.15
Mof_H 	H 	0.9087	0.4792	0.2446	0.001
Mof_H 	H 	0.9091	0.4181	0.2945	0.015
Mof_H 	H 	0.9783	0.3194	0.2386	0.046
Mof_H 	H 	0.9992	0.3748	0.187	0.032
Mof_H 	H 	0.7867	0.379	0.2494	0.127
Mof_H 	H 	0.8052	0.4377	0.1997	0.109
Mof_H 	H 	0.7839	0.0012	0.5106	0.11
Mof_H 	H 	0.8835	0.0198	0.5208	0.115
Mof_H 	H 	0.9041	0.8958	0.465	0.044
Mof_H 	H 	0.0053	0.9101	0.4775	0.031
Mof_H 	H 	0.8674	0.0081	0.4093	0.016
Mof_H 	H 	0.9575	0.0311	0.4259	0.006
Mof_H 	H 	0.0982	0.9358	0.379	0.138
Mof_H 	H 	0.0151	0.8987	0.3699	0.143
Mof_H 	H 	0.1274	0.7831	0.5899	0.147
Mof_H 	H 	0.1441	0.7134	0.6336	0.151
Mof_H 	H 	0.307	0.7422	0.585	0.002
Mof_H 	H 	0.2638	0.8145	0.6189	0.015
Mof_H 	H 	0.3091	0.6648	0.6666	0.023
Mof_H 	H 	0.2769	0.7387	0.6977	0.046
Mof_H 	H 	0.4399	0.7583	0.6515	0.13
Mof_H 	H 	0.4719	0.6858	0.619	0.11
Mof_H 	H 	0.11	0.8929	0.1375	0.138
Mof_H 	H 	0.2006	0.928	0.1034	0.127
Mof_H 	H 	0.0078	0.9356	0.0724	0.02
Mof_H 	H 	0.0808	0.9859	0.0409	0.027
Mof_H 	H 	0.2279	0.878	0.014	0.035
Mof_H 	H 	0.1632	0.8246	0.0498	0.026
Mof_H 	H 	0.0882	0.9229	0.9635	0.129
Mof_H 	H 	0.041	0.8585	0.9955	0.118
Mof_H 	H 	0.8003	0.027	0.2274	0.144
Mof_H 	H 	0.7505	0.0785	0.2771	0.15
Mof_H 	H 	0.6325	0.0208	0.2554	-0.001
Mof_H 	H 	0.6217	0.0819	0.2055	0.014
Mof_H 	H 	0.5363	0.1806	0.2614	0.048
Mof_H 	H 	0.561	0.1252	0.313	0.034
Mof_H 	H 	0.4151	0.121	0.2506	0.126
Mof_H 	H 	0.4426	0.0623	0.3003	0.108
Mof_C 	C 	0.6475	0.4291	0.0709	0.482
Mof_C 	C 	0.64626	0.47828	0.0174	-0.348
Mof_C 	C 	0.6626	0.4353	0.9703	-0.005
Mof_C 	C 	0.6539	0.488	0.919	-0.002
Mof_C 	C 	0.6557	0.4471	0.8723	-0.377
Mof_C 	C 	0.66882	0.49346	0.8209	0.443
Mof_C 	C 	0.45913	0.31414	0.166	0.548
Mof_C 	C 	0.4629	0.2655	0.1251	-0.453
Mof_C 	C 	0.3547	0.2626	0.1196	0.05
Mof_C 	C 	0.30517	0.21546	0.1634	-0.003
Mof_C 	C 	0.2046	0.2074	0.154	-0.403
Mof_C 	C 	0.15234	0.15882	0.1959	0.537
Mof_C 	C 	0.78664	0.50772	0.6422	0.479
Mof_C 	C 	0.82936	0.43598	0.6131	-0.363
Mof_C 	C 	0.91738	0.43764	0.5622	-0.008
Mof_C 	C 	0.94452	0.37286	0.5277	-0
Mof_C 	C 	0.03849	0.37172	0.4815	-0.361
Mof_C 	C 	0.05835	0.3165	0.4406	0.453
Mof_C 	C 	0.8817	0.641	0.7042	0.544
Mof_C 	C 	0.9395	0.5749	0.7403	-0.431
Mof_C 	C 	0.0512	0.5722	0.7422	0.053
Mof_C 	C 	0.05006	0.62908	0.7778	-0.021
Mof_C 	C 	0.1656	0.6151	0.7859	-0.394
Mof_C 	C 	0.1708	0.6671	0.8229	0.544
Mof_C 	C 	0.1475	0.0709	0.4291	0.475
Mof_C 	C 	0.14194	0.02172	0.4826	-0.316
Mof_C 	C 	0.0682	0.0647	0.5297	-0.026
Mof_C 	C 	0.0609	0.012	0.581	0.042
Mof_C 	C 	0.9751	0.0529	0.6277	-0.4
Mof_C 	C 	0.98318	0.00654	0.6791	0.443
Mof_C 	C 	0.93927	0.18586	0.334	0.541
Mof_C 	C 	0.8535	0.2345	0.3749	-0.449
Mof_C 	C 	0.7369	0.2374	0.3804	0.047
Mof_C 	C 	0.68403	0.28454	0.3366	-0.002
Mof_C 	C 	0.566	0.2926	0.346	-0.403
Mof_C 	C 	0.50706	0.34118	0.3041	0.537
Mof_C 	C 	0.93656	0.99228	0.8578	0.486
Mof_C 	C 	0.87844	0.06402	0.8869	-0.374
Mof_C 	C 	0.91722	0.06236	0.9378	-0.003
Mof_C 	C 	0.84508	0.12714	0.9723	-0.001
Mof_C 	C 	0.89171	0.12828	0.0185	-0.361
Mof_C 	C 	0.81545	0.1835	0.0594	0.448
Mof_C 	C 	0.2269	0.859	0.7958	0.546
Mof_C 	C 	0.2547	0.9251	0.7597	-0.436
Mof_C 	C 	0.3656	0.9278	0.7578	0.058
Mof_C 	C 	0.45694	0.87092	0.7222	-0.025
Mof_C 	C 	0.5666	0.8849	0.7141	-0.391
Mof_C 	C 	0.6608	0.8329	0.6771	0.543
Mof_C 	C 	0.3525	0.5709	0.9291	0.482
Mof_C 	C 	0.35374	0.52172	0.9826	-0.348
Mof_C 	C 	0.3374	0.5647	0.0297	-0.005
Mof_C 	C 	0.3461	0.512	0.081	-0.002
Mof_C 	C 	0.3443	0.5529	0.1277	-0.377
Mof_C 	C 	0.33118	0.50654	0.1791	0.443
Mof_C 	C 	0.54087	0.68586	0.834	0.548
Mof_C 	C 	0.5371	0.7345	0.8749	-0.453
Mof_C 	C 	0.6453	0.7374	0.8804	0.05
Mof_C 	C 	0.69483	0.78454	0.8366	-0.003
Mof_C 	C 	0.7954	0.7926	0.846	-0.403
Mof_C 	C 	0.84766	0.84118	0.8041	0.537
Mof_C 	C 	0.21336	0.49228	0.3578	0.479
Mof_C 	C 	0.17064	0.56402	0.3869	-0.363
Mof_C 	C 	0.08262	0.56236	0.4378	-0.008
Mof_C 	C 	0.05548	0.62714	0.4723	-0
Mof_C 	C 	0.96151	0.62828	0.5185	-0.361
Mof_C 	C 	0.94165	0.6835	0.5594	0.453
Mof_C 	C 	0.1183	0.359	0.2958	0.544
Mof_C 	C 	0.0605	0.4251	0.2597	-0.431
Mof_C 	C 	0.9488	0.4278	0.2578	0.053
Mof_C 	C 	0.94994	0.37092	0.2222	-0.021
Mof_C 	C 	0.8344	0.3849	0.2141	-0.394
Mof_C 	C 	0.8292	0.3329	0.1771	0.544
Mof_C 	C 	0.8525	0.9291	0.5709	0.475
Mof_C 	C 	0.85806	0.97828	0.5174	-0.316
Mof_C 	C 	0.9318	0.9353	0.4703	-0.026
Mof_C 	C 	0.9391	0.988	0.419	0.042
Mof_C 	C 	0.0249	0.9471	0.3723	-0.4
Mof_C 	C 	0.01682	0.99346	0.3209	0.443
Mof_C 	C 	0.06073	0.81414	0.666	0.541
Mof_C 	C 	0.1465	0.7655	0.6251	-0.449
Mof_C 	C 	0.2631	0.7626	0.6196	0.047
Mof_C 	C 	0.31597	0.71546	0.6634	-0.002
Mof_C 	C 	0.434	0.7074	0.654	-0.403
Mof_C 	C 	0.49294	0.65882	0.6959	0.537
Mof_C 	C 	0.06344	0.00772	0.1422	0.486
Mof_C 	C 	0.12156	0.93598	0.1131	-0.374
Mof_C 	C 	0.08278	0.93764	0.0622	-0.003
Mof_C 	C 	0.15492	0.87286	0.0277	-0.001
Mof_C 	C 	0.10829	0.87172	0.9815	-0.361
Mof_C 	C 	0.18455	0.8165	0.9406	0.448
Mof_C 	C 	0.7731	0.141	0.2042	0.546
Mof_C 	C 	0.7453	0.0749	0.2403	-0.436
Mof_C 	C 	0.6344	0.0722	0.2422	0.058
Mof_C 	C 	0.54306	0.12908	0.2778	-0.025
Mof_C 	C 	0.4334	0.1151	0.2859	-0.391
Mof_C 	C 	0.3392	0.1671	0.3229	0.543
Mof_O 	O 	0.60552	0.4634	0.11276	-0.553
Mof_O 	O 	0.68916	0.35942	0.06766	-0.525
Mof_O 	O 	0.59059	0.52391	0.79631	-0.648
Mof_O 	O 	0.75673	0.50643	0.80211	-0.456
Mof_O 	O 	0.5446	0.33047	0.16353	-0.687
Mof_O 	O 	0.37303	0.33771	0.20023	-0.529
Mof_O 	O 	0.19382	0.12988	0.23528	-0.582
Mof_O 	O 	0.06686	0.14977	0.18911	-0.7
Mof_O 	O 	0.75431	0.50079	0.69199	-0.525
Mof_O 	O 	0.78287	0.5687	0.61396	-0.552
Mof_O 	O 	0.1554	0.28975	0.41265	-0.673
Mof_O 	O 	0.98545	0.29589	0.43521	-0.463
Mof_O 	O 	0.78917	0.6443	0.69976	-0.682
Mof_O 	O 	0.92958	0.68554	0.6809	-0.537
Mof_O 	O 	0.08473	0.71274	0.8464	-0.567
Mof_O 	O 	0.26409	0.66059	0.82823	-0.692
Mof_O 	O 	0.18168	0.0366	0.38724	-0.549
Mof_O 	O 	0.11624	0.14058	0.43234	-0.521
Mof_O 	O 	0.91081	0.97609	0.70369	-0.643
Mof_O 	O 	0.06527	0.99357	0.69789	-0.459
Mof_O 	O 	0.0386	0.16953	0.33647	-0.681
Mof_O 	O 	0.91097	0.16229	0.29977	-0.529
Mof_O 	O 	0.55898	0.37012	0.26472	-0.582
Mof_O 	O 	0.40574	0.35023	0.31089	-0.703
Mof_O 	O 	0.94709	0.99921	0.80801	-0.523
Mof_O 	O 	0.96553	0.9313	0.88604	-0.549
Mof_O 	O 	0.8578	0.21025	0.08735	-0.673
Mof_O 	O 	0.71655	0.20411	0.06479	-0.459
Mof_O 	O 	0.13323	0.8557	0.80024	-0.685
Mof_O 	O 	0.29602	0.81446	0.8191	-0.54
Mof_O 	O 	0.64387	0.78726	0.6536	-0.565
Mof_O 	O 	0.75291	0.83941	0.67177	-0.691
Mof_O 	O 	0.39448	0.5366	0.88724	-0.553
Mof_O 	O 	0.31084	0.64058	0.93234	-0.525
Mof_O 	O 	0.40941	0.47609	0.20369	-0.648
Mof_O 	O 	0.24327	0.49357	0.19789	-0.456
Mof_O 	O 	0.4554	0.66953	0.83647	-0.687
Mof_O 	O 	0.62697	0.66229	0.79977	-0.529
Mof_O 	O 	0.80618	0.87012	0.76472	-0.582
Mof_O 	O 	0.93314	0.85023	0.81089	-0.7
Mof_O 	O 	0.24569	0.49921	0.30801	-0.525
Mof_O 	O 	0.21713	0.4313	0.38604	-0.552
Mof_O 	O 	0.8446	0.71025	0.58735	-0.673
Mof_O 	O 	0.01455	0.70411	0.56479	-0.463
Mof_O 	O 	0.21083	0.3557	0.30024	-0.682
Mof_O 	O 	0.07042	0.31446	0.3191	-0.537
Mof_O 	O 	0.91527	0.28726	0.1536	-0.567
Mof_O 	O 	0.73591	0.33941	0.17177	-0.692
Mof_O 	O 	0.81832	0.9634	0.61276	-0.549
Mof_O 	O 	0.88376	0.85942	0.56766	-0.521
Mof_O 	O 	0.08919	0.02391	0.29631	-0.643
Mof_O 	O 	0.93473	0.00643	0.30211	-0.459
Mof_O 	O 	0.9614	0.83047	0.66353	-0.681
Mof_O 	O 	0.08903	0.83771	0.70023	-0.529
Mof_O 	O 	0.44102	0.62988	0.73528	-0.582
Mof_O 	O 	0.59426	0.64977	0.68911	-0.703
Mof_O 	O 	0.05291	0.00079	0.19199	-0.523
Mof_O 	O 	0.03447	0.0687	0.11396	-0.549
Mof_O 	O 	0.1422	0.78975	0.91265	-0.673
Mof_O 	O 	0.28345	0.79589	0.93521	-0.459
Mof_O 	O 	0.86677	0.1443	0.19976	-0.685
Mof_O 	O 	0.70398	0.18554	0.1809	-0.54
Mof_O 	O 	0.35613	0.21274	0.3464	-0.565
Mof_O 	O 	0.24709	0.16059	0.32823	-0.691
_end
