data_functionalizedCrystal
_audit_creation_method	'EQeq! by Chris Wilmer'
_symmetry_space_group_name_H-M	'P1'
_symmetry_Int_Tables_number	1
_symmetry_cell_setting	triclinic
loop_
_symmetry_equiv_pos_as_xyz
  x,y,z
_cell_length_a	8.457
_cell_length_b	13.812
_cell_length_c	10.189
_cell_angle_alpha	90
_cell_angle_beta	91.2
_cell_angle_gamma	90
loop_
_atom_site_label
_atom_site_type_symbol
_atom_site_fract_x
_atom_site_fract_y
_atom_site_fract_z
_atom_site_charge
Mof_Zn	Zn	0.21635	0.57367	0.97524	1.185
Mof_Zn	Zn	0.71798	0.86908	0.08593	1.273
Mof_P 	P 	0.24516	0.61313	0.66127	0.607
Mof_P 	P 	0.74904	0.03712	0.29524	0.608
Mof_P 	P 	0.90554	0.69373	0.96407	0.368
Mof_P 	P 	0.40634	0.77324	0.99437	0.355
Mof_O 	O 	0.3529	0.67534	0.0423	-0.295
Mof_O 	O 	0.0014	0.75428	0.8668	-0.35
Mof_O 	O 	0.9984	0.60622	0.0099	-0.268
Mof_O 	O 	0.2574	0.83941	0.964	-0.383
Mof_H 	H 	0.17	0.812	0.93	0.214
Mof_O 	O 	0.5008	0.82737	0.0992	-0.288
Mof_O 	O 	0.7705	0.93575	0.2473	-0.376
Mof_O 	O 	0.586	0.0748	0.241	-0.374
Mof_H 	H 	0.547	0.129	0.277	0.252
Mof_O 	O 	0.85	0.75455	0.078	-0.305
Mof_O 	O 	0.2538	0.55817	0.7876	-0.488
Mof_O 	O 	0.5005	0.76504	0.8671	-0.333
Mof_O 	O 	0.7581	0.65198	0.885	-0.365
Mof_H 	H 	0.674	0.692	0.881	0.204
Mof_O 	O 	0.3777	0.6912	0.6554	-0.377
Mof_H 	H 	0.426	0.723	0.722	0.253
Mof_O 	O 	0.8784	0.1013	0.2326	-0.365
Mof_H 	H 	0.931	0.149	0.274	0.266
Mof_O 	O 	0.7575	0.04476	0.4415	-0.431
Mof_O 	O 	0.086	0.6699	0.6478	-0.385
Mof_H 	H 	0.049	0.701	0.718	0.242
Mof_O 	O 	0.2608	0.55504	0.5382	-0.413
Mof_Zn	Zn	0.21635	0.42633	0.47524	1.242
Mof_Zn	Zn	0.71798	0.13092	0.58593	1.247
Mof_P 	P 	0.24516	0.38687	0.16127	0.604
Mof_P 	P 	0.74904	0.96288	0.79524	0.619
Mof_P 	P 	0.90554	0.30627	0.46407	0.551
Mof_P 	P 	0.40634	0.22676	0.49437	0.543
Mof_O 	O 	0.3529	0.32466	0.5423	-0.439
Mof_O 	O 	0.0014	0.24572	0.3668	-0.351
Mof_O 	O 	0.9984	0.39378	0.5099	-0.404
Mof_O 	O 	0.2574	0.16059	0.464	-0.371
Mof_H 	H 	0.17	0.188	0.43	0.234
Mof_O 	O 	0.5008	0.17263	0.5992	-0.411
Mof_O 	O 	0.7705	0.06425	0.7473	-0.425
Mof_O 	O 	0.586	0.9252	0.741	-0.401
Mof_H 	H 	0.547	0.871	0.777	0.246
Mof_O 	O 	0.85	0.24545	0.578	-0.429
Mof_O 	O 	0.2538	0.44183	0.2876	-0.444
Mof_O 	O 	0.5005	0.23496	0.3671	-0.333
Mof_O 	O 	0.7581	0.34802	0.385	-0.354
Mof_H 	H 	0.674	0.308	0.381	0.226
Mof_O 	O 	0.3777	0.3088	0.1554	-0.35
Mof_H 	H 	0.426	0.277	0.222	0.257
Mof_O 	O 	0.8784	0.8987	0.7326	-0.392
Mof_H 	H 	0.931	0.851	0.774	0.262
Mof_O 	O 	0.7575	0.95524	0.9415	-0.494
Mof_O 	O 	0.086	0.3301	0.1478	-0.357
Mof_H 	H 	0.049	0.299	0.218	0.246
Mof_O 	O 	0.2608	0.44496	0.0382	-0.353
_end
