data_functionalizedCrystal
_audit_creation_method	'EQeq! by Chris Wilmer'
_symmetry_space_group_name_H-M	'P1'
_symmetry_Int_Tables_number	1
_symmetry_cell_setting	triclinic
loop_
_symmetry_equiv_pos_as_xyz
  x,y,z
_cell_length_a	11.1414
_cell_length_b	11.1414
_cell_length_c	18.662
_cell_angle_alpha	93.4858
_cell_angle_beta	93.4858
_cell_angle_gamma	114.961
loop_
_atom_site_label
_atom_site_type_symbol
_atom_site_fract_x
_atom_site_fract_y
_atom_site_fract_z
_atom_site_charge
Mof_Cd	Cd	0.36918	0.135	0.41017	0.441
Mof_Cd	Cd	0.135	0.36918	0.91017	0.44
Mof_Cd	Cd	0.865	0.63082	0.08983	0.44
Mof_Cd	Cd	0.63082	0.865	0.58983	0.441
Mof_H 	H 	0.8417	0.0115	0.0732	0.053
Mof_H 	H 	0.5654	0.3986	0.0543	0.014
Mof_H 	H 	0.9365	0.8489	0.9603	0.035
Mof_H 	H 	0.3986	0.5654	0.5543	0.013
Mof_H 	H 	0.7158	0.2476	0.1189	0.28
Mof_H 	H 	0.2945	0.5855	0.1707	0.095
Mof_H 	H 	0.7553	0.5723	0.5356	0.091
Mof_H 	H 	0.1842	0.7386	0.061	0.01
Mof_H 	H 	0.9374	0.8208	0.7638	0.048
Mof_H 	H 	0.0263	0.3905	0.5963	0.112
Mof_H 	H 	0.1583	0.9885	0.9268	0.053
Mof_H 	H 	0.3905	0.0263	0.0963	0.112
Mof_H 	H 	0.5723	0.7553	0.0356	0.09
Mof_H 	H 	0.1664	0.4374	0.0767	0.009
Mof_H 	H 	0.2476	0.7158	0.6189	0.281
Mof_H 	H 	0.1511	0.0635	0.5397	0.03
Mof_H 	H 	0.1659	0.6217	0.2973	0.066
Mof_H 	H 	0.8158	0.2614	0.939	0.01
Mof_H 	H 	0.2447	0.4277	0.4644	0.091
Mof_H 	H 	0.2842	0.7524	0.8811	0.28
Mof_H 	H 	0.2614	0.8158	0.439	0.011
Mof_H 	H 	0.9633	0.2849	0.1684	0.049
Mof_H 	H 	0.4374	0.1664	0.5767	0.008
Mof_H 	H 	0.8208	0.9374	0.2638	0.047
Mof_H 	H 	0.9885	0.1583	0.4268	0.055
Mof_H 	H 	0.8489	0.9365	0.4603	0.03
Mof_H 	H 	0.7055	0.4145	0.8293	0.095
Mof_H 	H 	0.8336	0.5626	0.9233	0.009
Mof_H 	H 	0.3783	0.8341	0.2027	0.066
Mof_H 	H 	0.8217	0.4081	0.338	0.269
Mof_H 	H 	0.4346	0.6014	0.9457	0.014
Mof_H 	H 	0.6968	0.1196	0.1565	0.27
Mof_H 	H 	0.0635	0.1511	0.0397	0.035
Mof_H 	H 	0.9737	0.6095	0.4037	0.112
Mof_H 	H 	0.5919	0.1783	0.162	0.269
Mof_H 	H 	0.3032	0.8804	0.8435	0.27
Mof_H 	H 	0.1196	0.6968	0.6565	0.27
Mof_H 	H 	0.6217	0.1659	0.7973	0.066
Mof_H 	H 	0.0626	0.1792	0.2362	0.048
Mof_H 	H 	0.0367	0.7151	0.8316	0.049
Mof_H 	H 	0.4277	0.2447	0.9644	0.09
Mof_H 	H 	0.4145	0.7055	0.3293	0.095
Mof_H 	H 	0.1792	0.0626	0.7362	0.047
Mof_H 	H 	0.7524	0.2842	0.3811	0.281
Mof_H 	H 	0.5626	0.8336	0.4233	0.008
Mof_H 	H 	0.8341	0.3783	0.7027	0.066
Mof_H 	H 	0.2849	0.9633	0.6684	0.05
Mof_H 	H 	0.6095	0.9737	0.9037	0.112
Mof_H 	H 	0.4081	0.8217	0.838	0.269
Mof_H 	H 	0.1783	0.5919	0.662	0.269
Mof_H 	H 	0.5855	0.2945	0.6707	0.095
Mof_H 	H 	0.8804	0.3032	0.3435	0.27
Mof_H 	H 	0.6014	0.4346	0.4457	0.013
Mof_H 	H 	0.7151	0.0367	0.3316	0.05
Mof_H 	H 	0.7386	0.1842	0.561	0.011
Mof_H 	H 	0.0115	0.8417	0.5732	0.055
Mof_C 	C 	0.5028	0.2488	0.5683	0.094
Mof_C 	C 	0.2108	0.4716	0.32466	0.007
Mof_C 	C 	0.5938	0.401	0.0084	0.084
Mof_C 	C 	0.0244	0.3316	0.2077	-0.044
Mof_C 	C 	0.53302	0.14658	0.78454	-0.057
Mof_C 	C 	0.915	0.731	0.7521	-0.021
Mof_C 	C 	0.1637	0.6517	0.6315	-0.786
Mof_C 	C 	0.46698	0.85342	0.21546	-0.057
Mof_C 	C 	0.8633	0.0783	0.0422	-0.015
Mof_C 	C 	0.5101	0.3081	0.9547	-0.145
Mof_C 	C 	0.8363	0.3483	0.3685	-0.786
Mof_C 	C 	0.6517	0.1637	0.1315	-0.786
Mof_C 	C 	0.73367	0.75033	0.15749	0.309
Mof_C 	C 	0.3316	0.0244	0.7077	-0.047
Mof_C 	C 	0.3483	0.8363	0.8685	-0.786
Mof_C 	C 	0.4646	0.055	0.72624	-0.052
Mof_C 	C 	0.3081	0.5101	0.4547	-0.148
Mof_C 	C 	0.6745	0.4085	0.8748	-0.152
Mof_C 	C 	0.564	0.9832	0.9422	-0.201
Mof_C 	C 	0.7892	0.5284	0.67534	0.007
Mof_C 	C 	0.9832	0.564	0.4422	-0.202
Mof_C 	C 	0.9756	0.6684	0.7923	-0.044
Mof_C 	C 	0.6919	0.4899	0.5453	-0.148
Mof_C 	C 	0.945	0.5354	0.77376	-0.052
Mof_C 	C 	0.156	0.9852	0.5235	0.025
Mof_C 	C 	0.0791	0.5747	0.5644	0.23
Mof_C 	C 	0.4666	0.0068	0.3192	0.283
Mof_C 	C 	0.0584	0.6348	0.5046	0.02
Mof_C 	C 	0.599	0.4062	0.4916	0.087
Mof_C 	C 	0.055	0.4646	0.22624	-0.052
Mof_C 	C 	0.731	0.915	0.2521	-0.019
Mof_C 	C 	0.6348	0.0584	0.0046	0.019
Mof_C 	C 	0.17888	0.33772	0.30532	-0.073
Mof_C 	C 	0.4899	0.6919	0.0453	-0.145
Mof_C 	C 	0.4253	0.9209	0.9356	0.229
Mof_C 	C 	0.44908	0.68972	0.1148	0.091
Mof_C 	C 	0.1367	0.9217	0.9578	-0.015
Mof_C 	C 	0.75033	0.73367	0.65749	0.308
Mof_C 	C 	0.4085	0.6745	0.3748	-0.153
Mof_C 	C 	0.1494	0.7832	0.0318	0.108
Mof_C 	C 	0.0168	0.436	0.5578	-0.202
Mof_C 	C 	0.5284	0.7892	0.17534	0.008
Mof_C 	C 	0.5334	0.9932	0.6808	0.283
Mof_C 	C 	0.55092	0.31028	0.8852	0.091
Mof_C 	C 	0.0783	0.8633	0.5422	-0.019
Mof_C 	C 	0.68972	0.44908	0.6148	0.093
Mof_C 	C 	0.85342	0.46698	0.71546	-0.057
Mof_C 	C 	0.7832	0.1494	0.5318	0.104
Mof_C 	C 	0.9209	0.4253	0.4356	0.23
Mof_C 	C 	0.3652	0.9416	0.9954	0.019
Mof_C 	C 	0.26633	0.24967	0.84251	0.309
Mof_C 	C 	0.4062	0.599	0.9916	0.084
Mof_C 	C 	0.2488	0.5028	0.0683	0.093
Mof_C 	C 	0.8506	0.2168	0.9682	0.108
Mof_C 	C 	0.6684	0.9756	0.2923	-0.047
Mof_C 	C 	0.5354	0.945	0.27376	-0.052
Mof_C 	C 	0.2168	0.8506	0.4682	0.104
Mof_C 	C 	0.7512	0.4972	0.9317	0.093
Mof_C 	C 	0.5747	0.0791	0.0644	0.229
Mof_C 	C 	0.9932	0.5334	0.1808	0.282
Mof_C 	C 	0.4716	0.2108	0.82466	0.008
Mof_C 	C 	0.0148	0.844	0.9765	0.015
Mof_C 	C 	0.9852	0.156	0.0235	0.015
Mof_C 	C 	0.66228	0.82112	0.19468	-0.074
Mof_C 	C 	0.269	0.085	0.7479	-0.019
Mof_C 	C 	0.0068	0.4666	0.8192	0.282
Mof_C 	C 	0.33772	0.17888	0.80532	-0.074
Mof_C 	C 	0.82112	0.66228	0.69468	-0.073
Mof_C 	C 	0.5915	0.3255	0.6252	-0.153
Mof_C 	C 	0.085	0.269	0.2479	-0.021
Mof_C 	C 	0.436	0.0168	0.0578	-0.201
Mof_C 	C 	0.3255	0.5915	0.1252	-0.152
Mof_C 	C 	0.4972	0.7512	0.4317	0.094
Mof_C 	C 	0.14658	0.53302	0.28454	-0.057
Mof_C 	C 	0.9217	0.1367	0.4578	-0.019
Mof_C 	C 	0.844	0.0148	0.4765	0.025
Mof_C 	C 	0.24967	0.26633	0.34251	0.308
Mof_C 	C 	0.9416	0.3652	0.4954	0.02
Mof_C 	C 	0.31028	0.55092	0.3852	0.093
Mof_C 	C 	0.401	0.5938	0.5084	0.087
Mof_N 	N 	0.11842	0.77778	0.50611	-0.122
Mof_N 	N 	0.28579	0.50501	0.00187	-0.158
Mof_N 	N 	0.97683	0.24317	0.97709	-0.143
Mof_N 	N 	0.77778	0.11842	0.00611	-0.124
Mof_N 	N 	0.22222	0.88158	0.99389	-0.124
Mof_N 	N 	0.71421	0.49499	0.99813	-0.158
Mof_N 	N 	0.75683	0.02317	0.52291	-0.146
Mof_N 	N 	0.49499	0.71421	0.49813	-0.159
Mof_N 	N 	0.24317	0.97683	0.47709	-0.146
Mof_N 	N 	0.88158	0.22222	0.49389	-0.122
Mof_N 	N 	0.50501	0.28579	0.50187	-0.159
Mof_N 	N 	0.02317	0.75683	0.02291	-0.143
Mof_O 	O 	0.81768	0.83572	0.62937	-0.283
Mof_O 	O 	0.34686	0.98054	0.30291	-0.256
Mof_O 	O 	0.01946	0.65314	0.19709	-0.255
Mof_O 	O 	0.52998	0.08062	0.37439	-0.295
Mof_O 	O 	0.98054	0.34686	0.80291	-0.255
Mof_O 	O 	0.65314	0.01946	0.69709	-0.256
Mof_O 	O 	0.37247	0.30993	0.34348	-0.273
Mof_O 	O 	0.62753	0.69007	0.65652	-0.273
Mof_O 	O 	0.16428	0.18232	0.87063	-0.283
Mof_O 	O 	0.83572	0.81768	0.12937	-0.283
Mof_O 	O 	0.08062	0.52998	0.87439	-0.295
Mof_O 	O 	0.18232	0.16428	0.37063	-0.283
Mof_O 	O 	0.69007	0.62753	0.15652	-0.273
Mof_O 	O 	0.30993	0.37247	0.84348	-0.273
Mof_O 	O 	0.91938	0.47002	0.12561	-0.295
Mof_O 	O 	0.47002	0.91938	0.62561	-0.295
_end
