# CIF file generated by openbabel 3.1.0, see https://openbabel.org
data_I
_chemical_name_common 'image0'
_cell_length_a 8.7156
_cell_length_b 34.0813
_cell_length_c 8.636
_cell_angle_alpha 90
_cell_angle_beta 107.632
_cell_angle_gamma 90
_space_group_name_H-M_alt 'P 1'
_space_group_name_Hall 'P 1'
loop_
    _symmetry_equiv_pos_as_xyz
    x,y,z
loop_
    _atom_site_label
    _atom_site_type_symbol
    _atom_site_fract_x
    _atom_site_fract_y
    _atom_site_fract_z
    _atom_site_occupancy
    Cu1      Cu       0.74952    0.20351    0.48285    1.000
    Cu2      Cu       0.73860    0.04560    0.49861    1.000
    O1       O        0.89530    0.15372    0.61227    1.000
    O2       O        0.85006    0.09001    0.62846    1.000
    O3       O        0.62165    0.16010    0.36067    1.000
    O4       O        0.61226    0.09510    0.34028    1.000
    O5       O        0.62391    0.20611    0.64438    1.000
    O6       O        0.58961    0.24830    0.82738    1.000
    O7       O        0.87528    0.24614    0.61822    1.000
    O8       O        0.86017    0.28751    0.81236    1.000
    O9       O        0.90657    0.04066    0.38405    1.000
    O10      O        0.08905    0.99978    0.34410    1.000
    O11      O        0.57042    0.04195    0.61404    1.000
    O12      O        0.37925    0.99977    0.62772    1.000
    C1       C        0.81870    0.12330    0.56340    1.000
    C2       C        0.66990    0.12598    0.40740    1.000
    C3       C        0.81230    0.25867    0.72170    1.000
    C4       C        0.66200    0.23633    0.73470    1.000
    C5       C        0.00050    0.01128    0.42130    1.000
    C6       C        0.48510    0.01208    0.56990    1.000
    Cu3      Cu       0.25048    0.70351    0.01715    1.000
    Cu4      Cu       0.26140    0.54560    0.00139    1.000
    O13      O        0.10470    0.65372    0.88773    1.000
    O14      O        0.14994    0.59001    0.87154    1.000
    O15      O        0.37835    0.66010    0.13933    1.000
    O16      O        0.38774    0.59510    0.15972    1.000
    O17      O        0.37609    0.70611    0.85562    1.000
    O18      O        0.41039    0.74830    0.67262    1.000
    O19      O        0.12472    0.74614    0.88178    1.000
    O20      O        0.13983    0.78751    0.68764    1.000
    O21      O        0.09343    0.54066    0.11595    1.000
    O22      O        0.91095    0.49978    0.15590    1.000
    O23      O        0.42958    0.54195    0.88596    1.000
    O24      O        0.62075    0.49977    0.87228    1.000
    C7       C        0.18130    0.62330    0.93660    1.000
    C8       C        0.33010    0.62598    0.09260    1.000
    C9       C        0.18770    0.75867    0.77830    1.000
    C10      C        0.33800    0.73633    0.76530    1.000
    C11      C        0.99950    0.51128    0.07870    1.000
    C12      C        0.51490    0.51208    0.93010    1.000
    Cu5      Cu       0.25048    0.79649    0.51715    1.000
    Cu6      Cu       0.26140    0.95440    0.50139    1.000
    O25      O        0.10470    0.84628    0.38773    1.000
    O26      O        0.14994    0.90999    0.37154    1.000
    O27      O        0.37835    0.83990    0.63933    1.000
    O28      O        0.38774    0.90490    0.65972    1.000
    O29      O        0.37609    0.79389    0.35562    1.000
    O30      O        0.41039    0.75170    0.17262    1.000
    O31      O        0.12472    0.75386    0.38178    1.000
    O32      O        0.13983    0.71249    0.18764    1.000
    O33      O        0.09343    0.95934    0.61595    1.000
    O34      O        0.91095    0.00022    0.65590    1.000
    O35      O        0.42958    0.95805    0.38596    1.000
    O36      O        0.62075    0.00023    0.37228    1.000
    C13      C        0.18130    0.87670    0.43660    1.000
    C14      C        0.33010    0.87402    0.59260    1.000
    C15      C        0.18770    0.74133    0.27830    1.000
    C16      C        0.33800    0.76367    0.26530    1.000
    C17      C        0.99950    0.98872    0.57870    1.000
    C18      C        0.51490    0.98792    0.43010    1.000
    Cu7      Cu       0.74952    0.29649    0.98285    1.000
    Cu8      Cu       0.73860    0.45440    0.99861    1.000
    O37      O        0.89530    0.34628    0.11227    1.000
    O38      O        0.85006    0.40999    0.12846    1.000
    O39      O        0.62165    0.33990    0.86067    1.000
    O40      O        0.61226    0.40490    0.84028    1.000
    O41      O        0.62391    0.29389    0.14438    1.000
    O42      O        0.58961    0.25170    0.32738    1.000
    O43      O        0.87528    0.25386    0.11822    1.000
    O44      O        0.86017    0.21249    0.31236    1.000
    O45      O        0.90657    0.45934    0.88405    1.000
    O46      O        0.08905    0.50022    0.84410    1.000
    O47      O        0.57042    0.45805    0.11404    1.000
    O48      O        0.37925    0.50023    0.12772    1.000
    C19      C        0.81870    0.37670    0.06340    1.000
    C20      C        0.66990    0.37402    0.90740    1.000
    C21      C        0.81230    0.24133    0.22170    1.000
    C22      C        0.66200    0.26367    0.23470    1.000
    C23      C        0.00050    0.48872    0.92130    1.000
    C24      C        0.48510    0.48792    0.06990    1.000
