# CIF file generated by openbabel 3.1.0, see https://openbabel.org
data_I
_chemical_name_common 'image0'
_cell_length_a 12.6528
_cell_length_b 5.1909
_cell_length_c 21.1457
_cell_angle_alpha 90
_cell_angle_beta 95.088
_cell_angle_gamma 90
_space_group_name_H-M_alt 'P 1'
_space_group_name_Hall 'P 1'
loop_
    _symmetry_equiv_pos_as_xyz
    x,y,z
loop_
    _atom_site_label
    _atom_site_type_symbol
    _atom_site_fract_x
    _atom_site_fract_y
    _atom_site_fract_z
    _atom_site_occupancy
    Zn1      Zn       0.00597    0.21510    0.07054    1.000
    Zn2      Zn       0.99888    0.73311    0.17272    1.000
    Zn3      Zn       0.39935    0.77804    0.05465    1.000
    P1       P        0.13998    0.73232    0.05251    1.000
    P2       P        0.87328    0.24183    0.18659    1.000
    P3       P        0.47221    0.70089    0.91682    1.000
    O1       O        0.11566    0.44570    0.04952    1.000
    O2       O        0.11773    0.85730    0.98692    1.000
    O3       O        0.96283    0.37470    0.15073    1.000
    O4       O        0.06544    0.87020    0.09755    1.000
    O5       O        0.89830    0.29630    0.25764    1.000
    O6       O        0.87660    0.95550    0.17088    1.000
    O7       O        0.39430    0.67090    0.96735    1.000
    O8       O        0.56889    0.86120    0.93865    1.000
    O9       O        0.50500    0.43930    0.89308    1.000
    O10      O        0.25407    0.78020    0.07987    1.000
    O11      O        0.76807    0.36220    0.16567    1.000
    H1       H        0.72270    0.24950    0.16070    1.000
    O12      O        0.41077    0.85010    0.85977    1.000
    H2       H        0.35260    0.78310    0.85110    1.000
    Zn4      Zn       0.99403    0.71510    0.42946    1.000
    Zn5      Zn       0.00112    0.23311    0.32728    1.000
    Zn6      Zn       0.60065    0.27804    0.44535    1.000
    P4       P        0.86002    0.23232    0.44749    1.000
    P5       P        0.12672    0.74183    0.31341    1.000
    P6       P        0.52779    0.20089    0.58318    1.000
    O13      O        0.88434    0.94570    0.45048    1.000
    O14      O        0.88227    0.35730    0.51308    1.000
    O15      O        0.03717    0.87470    0.34927    1.000
    O16      O        0.93456    0.37020    0.40245    1.000
    O17      O        0.10170    0.79630    0.24236    1.000
    O18      O        0.12340    0.45550    0.32912    1.000
    O19      O        0.60570    0.17090    0.53265    1.000
    O20      O        0.43111    0.36120    0.56135    1.000
    O21      O        0.49500    0.93930    0.60692    1.000
    O22      O        0.74593    0.28020    0.42013    1.000
    O23      O        0.23193    0.86220    0.33433    1.000
    H3       H        0.27730    0.74950    0.33930    1.000
    O24      O        0.58923    0.35010    0.64023    1.000
    H4       H        0.64740    0.28310    0.64890    1.000
    Zn7      Zn       0.99403    0.78490    0.92946    1.000
    Zn8      Zn       0.00112    0.26689    0.82728    1.000
    Zn9      Zn       0.60065    0.22196    0.94535    1.000
    P7       P        0.86002    0.26768    0.94749    1.000
    P8       P        0.12672    0.75817    0.81341    1.000
    P9       P        0.52779    0.29911    0.08318    1.000
    O25      O        0.88434    0.55430    0.95048    1.000
    O26      O        0.88227    0.14270    0.01308    1.000
    O27      O        0.03717    0.62530    0.84927    1.000
    O28      O        0.93456    0.12980    0.90245    1.000
    O29      O        0.10170    0.70370    0.74236    1.000
    O30      O        0.12340    0.04450    0.82912    1.000
    O31      O        0.60570    0.32910    0.03265    1.000
    O32      O        0.43111    0.13880    0.06135    1.000
    O33      O        0.49500    0.56070    0.10692    1.000
    O34      O        0.74593    0.21980    0.92013    1.000
    O35      O        0.23193    0.63780    0.83433    1.000
    H5       H        0.27730    0.75050    0.83930    1.000
    O36      O        0.58923    0.14990    0.14023    1.000
    H6       H        0.64740    0.21690    0.14890    1.000
    Zn10     Zn       0.00597    0.28490    0.57054    1.000
    Zn11     Zn       0.99888    0.76689    0.67272    1.000
    Zn12     Zn       0.39935    0.72196    0.55465    1.000
    P10      P        0.13998    0.76768    0.55251    1.000
    P11      P        0.87328    0.25817    0.68659    1.000
    P12      P        0.47221    0.79911    0.41682    1.000
    O37      O        0.11566    0.05430    0.54952    1.000
    O38      O        0.11773    0.64270    0.48692    1.000
    O39      O        0.96283    0.12530    0.65073    1.000
    O40      O        0.06544    0.62980    0.59755    1.000
    O41      O        0.89830    0.20370    0.75764    1.000
    O42      O        0.87660    0.54450    0.67088    1.000
    O43      O        0.39430    0.82910    0.46735    1.000
    O44      O        0.56889    0.63880    0.43865    1.000
    O45      O        0.50500    0.06070    0.39308    1.000
    O46      O        0.25407    0.71980    0.57987    1.000
    O47      O        0.76807    0.13780    0.66567    1.000
    H7       H        0.72270    0.25050    0.66070    1.000
    O48      O        0.41077    0.64990    0.35977    1.000
    H8       H        0.35260    0.71690    0.35110    1.000
