# CIF file generated by openbabel 3.1.0, see https://openbabel.org
data_I
_chemical_name_common 'FALQOA_clean'
_cell_length_a 7.3817
_cell_length_b 13.6319
_cell_length_c 13.6319
_cell_angle_alpha 120
_cell_angle_beta 90
_cell_angle_gamma 90
_space_group_name_H-M_alt 'P 1'
_space_group_name_Hall 'P 1'
loop_
    _symmetry_equiv_pos_as_xyz
    x,y,z
loop_
    _atom_site_label
    _atom_site_type_symbol
    _atom_site_fract_x
    _atom_site_fract_y
    _atom_site_fract_z
    _atom_site_occupancy
    Nd1      Nd       0.33992    0.33333    0.66666    1.000
    Nd2      Nd       0.66008    0.66667    0.33334    1.000
    Cu1      Cu       0.00000    0.50000    0.50000    1.000
    Cu2      Cu       0.00000    0.00000    0.50000    1.000
    Cu3      Cu       0.00000    0.50000    0.00000    1.000
    H1       H        0.86020    0.35430    0.32520    1.000
    H2       H        0.95210    0.20440    0.34920    1.000
    H3       H        0.76660    0.26950    0.45170    1.000
    H4       H        0.64240    0.21440    0.28050    1.000
    H5       H        0.53970    0.33030    0.33090    1.000
    H6       H        0.49510    0.24620    0.37450    1.000
    H7       H        0.99740    0.20970    0.20820    1.000
    H8       H        0.09460    0.12830    0.24150    1.000
    H9       H        0.19950    0.23180    0.24900    1.000
    H10      H        0.86020    0.97090    0.64570    1.000
    H11      H        0.95210    0.14480    0.79560    1.000
    H12      H        0.76660    0.18220    0.73050    1.000
    H13      H        0.64240    0.06610    0.78560    1.000
    H14      H        0.53970    0.00060    0.66970    1.000
    H15      H        0.49510    0.12830    0.75380    1.000
    H16      H        0.99740    0.99850    0.79030    1.000
    H17      H        0.09460    0.11320    0.87170    1.000
    H18      H        0.19950    0.01720    0.76820    1.000
    H19      H        0.86020    0.67480    0.02910    1.000
    H20      H        0.95210    0.65080    0.85520    1.000
    H21      H        0.76660    0.54830    0.81780    1.000
    H22      H        0.64240    0.71950    0.93390    1.000
    H23      H        0.53970    0.66910    0.99940    1.000
    H24      H        0.49510    0.62550    0.87170    1.000
    H25      H        0.99740    0.79180    0.00150    1.000
    H26      H        0.09460    0.75850    0.88680    1.000
    H27      H        0.19950    0.75100    0.98280    1.000
    H28      H        0.13980    0.64570    0.67480    1.000
    H29      H        0.04790    0.79560    0.65080    1.000
    H30      H        0.23340    0.73050    0.54830    1.000
    H31      H        0.35760    0.78560    0.71950    1.000
    H32      H        0.46030    0.66970    0.66910    1.000
    H33      H        0.50490    0.75380    0.62550    1.000
    H34      H        0.00260    0.79030    0.79180    1.000
    H35      H        0.90540    0.87170    0.75850    1.000
    H36      H        0.80050    0.76820    0.75100    1.000
    H37      H        0.13980    0.02910    0.35430    1.000
    H38      H        0.04790    0.85520    0.20440    1.000
    H39      H        0.23340    0.81780    0.26950    1.000
    H40      H        0.35760    0.93390    0.21440    1.000
    H41      H        0.46030    0.99940    0.33030    1.000
    H42      H        0.50490    0.87170    0.24620    1.000
    H43      H        0.00260    0.00150    0.20970    1.000
    H44      H        0.90540    0.88680    0.12830    1.000
    H45      H        0.80050    0.98280    0.23180    1.000
    H46      H        0.13980    0.32520    0.97090    1.000
    H47      H        0.04790    0.34920    0.14480    1.000
    H48      H        0.23340    0.45170    0.18220    1.000
    H49      H        0.35760    0.28050    0.06610    1.000
    H50      H        0.46030    0.33090    0.00060    1.000
    H51      H        0.50490    0.37450    0.12830    1.000
    H52      H        0.00260    0.20820    0.99850    1.000
    H53      H        0.90540    0.24150    0.11320    1.000
    H54      H        0.80050    0.24900    0.01720    1.000
    C1       C        0.13830    0.27570    0.45520    1.000
    C2       C        0.03530    0.26170    0.35190    1.000
    C3       C        0.73000    0.32940    0.43600    1.000
    C4       C        0.68430    0.42850    0.55150    1.000
    C5       C        0.58950    0.27530    0.34770    1.000
    C6       C        0.08400    0.20540    0.25850    1.000
    C7       C        0.13830    0.17950    0.72430    1.000
    C8       C        0.03530    0.09020    0.73830    1.000
    C9       C        0.73000    0.10660    0.67060    1.000
    C10      C        0.68430    0.12300    0.57150    1.000
    C11      C        0.58950    0.07240    0.72470    1.000
    C12      C        0.08400    0.05310    0.79460    1.000
    C13      C        0.13830    0.54480    0.82050    1.000
    C14      C        0.03530    0.64810    0.90980    1.000
    C15      C        0.73000    0.56400    0.89340    1.000
    C16      C        0.68430    0.44850    0.87700    1.000
    C17      C        0.58950    0.65230    0.92760    1.000
    C18      C        0.08400    0.74150    0.94690    1.000
    C19      C        0.86170    0.72430    0.54480    1.000
    C20      C        0.96470    0.73830    0.64810    1.000
    C21      C        0.27000    0.67060    0.56400    1.000
    C22      C        0.31570    0.57150    0.44850    1.000
    C23      C        0.41050    0.72470    0.65230    1.000
    C24      C        0.91600    0.79460    0.74150    1.000
    C25      C        0.86170    0.82050    0.27570    1.000
    C26      C        0.96470    0.90980    0.26170    1.000
    C27      C        0.27000    0.89340    0.32940    1.000
    C28      C        0.31570    0.87700    0.42850    1.000
    C29      C        0.41050    0.92760    0.27530    1.000
    C30      C        0.91600    0.94690    0.20540    1.000
    C31      C        0.86170    0.45520    0.17950    1.000
    C32      C        0.96470    0.35190    0.09020    1.000
    C33      C        0.27000    0.43600    0.10660    1.000
    C34      C        0.31570    0.55150    0.12300    1.000
    C35      C        0.41050    0.34770    0.07240    1.000
    C36      C        0.91600    0.25850    0.05310    1.000
    N1       N        0.89400    0.35026    0.38732    1.000
    N2       N        0.89400    0.03706    0.64974    1.000
    N3       N        0.89400    0.61268    0.96294    1.000
    N4       N        0.10600    0.64974    0.61268    1.000
    N5       N        0.10600    0.96294    0.35026    1.000
    N6       N        0.10600    0.38732    0.03706    1.000
    O1       O        0.24280    0.19966    0.44439    1.000
    O2       O        0.12110    0.36586    0.54767    1.000
    O3       O        0.78730    0.51428    0.59293    1.000
    O4       O        0.54960    0.41960    0.60070    1.000
    O5       O        0.24280    0.24473    0.80034    1.000
    O6       O        0.12110    0.18181    0.63414    1.000
    O7       O        0.78730    0.07865    0.48572    1.000
    O8       O        0.54960    0.18110    0.58040    1.000
    O9       O        0.24280    0.55561    0.75527    1.000
    O10      O        0.12110    0.45233    0.81819    1.000
    O11      O        0.78730    0.40707    0.92135    1.000
    O12      O        0.54960    0.39930    0.81890    1.000
    O13      O        0.75720    0.80034    0.55561    1.000
    O14      O        0.87890    0.63414    0.45233    1.000
    O15      O        0.21270    0.48572    0.40707    1.000
    O16      O        0.45040    0.58040    0.39930    1.000
    O17      O        0.75720    0.75527    0.19966    1.000
    O18      O        0.87890    0.81819    0.36586    1.000
    O19      O        0.21270    0.92135    0.51428    1.000
    O20      O        0.45040    0.81890    0.41960    1.000
    O21      O        0.75720    0.44439    0.24473    1.000
    O22      O        0.87890    0.54767    0.18181    1.000
    O23      O        0.21270    0.59293    0.07865    1.000
    O24      O        0.45040    0.60070    0.18110    1.000
