data_functionalizedCrystal
_audit_creation_method	'EQeq! by Chris Wilmer'
_symmetry_space_group_name_H-M	'P1'
_symmetry_Int_Tables_number	1
_symmetry_cell_setting	triclinic
loop_
_symmetry_equiv_pos_as_xyz
  x,y,z
_cell_length_a	7.3336
_cell_length_b	10.1252
_cell_length_c	18.1829
_cell_angle_alpha	90
_cell_angle_beta	90
_cell_angle_gamma	94.493
loop_
_atom_site_label
_atom_site_type_symbol
_atom_site_fract_x
_atom_site_fract_y
_atom_site_fract_z
_atom_site_charge
Mof_Cu	Cu	0.86677	0.21792	0.90624	0.923
Mof_Cu	Cu	0.04748	0.93336	0.93158	0.947
Mof_Cu	Cu	0.63323	0.28208	0.40624	0.921
Mof_Cu	Cu	0.45252	0.56664	0.43158	0.95
Mof_Cu	Cu	0.13323	0.78208	0.09376	0.922
Mof_Cu	Cu	0.95252	0.06664	0.06842	0.946
Mof_Cu	Cu	0.36677	0.71792	0.59376	0.921
Mof_Cu	Cu	0.54748	0.43336	0.56842	0.95
Mof_H 	H 	0.77	0.021	0.964	0.347
Mof_H 	H 	0.7864	0.1676	0.6936	0.045
Mof_H 	H 	0.7813	0.939	0.513	0.027
Mof_H 	H 	0.9451	0.7986	0.7068	0.032
Mof_H 	H 	0.73	0.479	0.464	0.347
Mof_H 	H 	0.7136	0.3324	0.1936	0.041
Mof_H 	H 	0.7187	0.561	0.013	0.026
Mof_H 	H 	0.5549	0.7014	0.2068	0.029
Mof_H 	H 	0.23	0.979	0.036	0.347
Mof_H 	H 	0.2136	0.8324	0.3064	0.045
Mof_H 	H 	0.2187	0.061	0.487	0.027
Mof_H 	H 	0.0549	0.2014	0.2932	0.032
Mof_H 	H 	0.27	0.521	0.536	0.347
Mof_H 	H 	0.2864	0.6676	0.8064	0.041
Mof_H 	H 	0.2813	0.439	0.987	0.026
Mof_H 	H 	0.4451	0.2986	0.7932	0.029
Mof_C 	C 	0.8725	0.9859	0.713	-0.129
Mof_C 	C 	0.8081	0.0879	0.6711	0.067
Mof_C 	C 	0.7759	0.0721	0.5963	-0.137
Mof_C 	C 	0.8044	0.9515	0.5629	0.071
Mof_C 	C 	0.8674	0.8507	0.6049	-0.151
Mof_C 	C 	0.902	0.8673	0.6795	0.071
Mof_C 	C 	0.9062	0.0106	0.7929	0.388
Mof_C 	C 	0.7043	0.1826	0.5547	0.386
Mof_C 	C 	0.6275	0.5141	0.213	-0.141
Mof_C 	C 	0.6919	0.4121	0.1711	0.075
Mof_C 	C 	0.7241	0.4279	0.0963	-0.136
Mof_C 	C 	0.6956	0.5485	0.0629	0.068
Mof_C 	C 	0.6326	0.6493	0.1049	-0.152
Mof_C 	C 	0.598	0.6327	0.1795	0.075
Mof_C 	C 	0.5938	0.4894	0.2929	0.399
Mof_C 	C 	0.7957	0.3174	0.0547	0.382
Mof_C 	C 	0.1275	0.0141	0.287	-0.129
Mof_C 	C 	0.1919	0.9121	0.3289	0.067
Mof_C 	C 	0.2241	0.9279	0.4037	-0.137
Mof_C 	C 	0.1956	0.0485	0.4371	0.071
Mof_C 	C 	0.1326	0.1493	0.3951	-0.151
Mof_C 	C 	0.098	0.1327	0.3205	0.071
Mof_C 	C 	0.0938	0.9894	0.2071	0.388
Mof_C 	C 	0.2957	0.8174	0.4453	0.386
Mof_C 	C 	0.3725	0.4859	0.787	-0.141
Mof_C 	C 	0.3081	0.5879	0.8289	0.075
Mof_C 	C 	0.2759	0.5721	0.9037	-0.136
Mof_C 	C 	0.3044	0.4515	0.9371	0.068
Mof_C 	C 	0.3674	0.3507	0.8951	-0.152
Mof_C 	C 	0.402	0.3673	0.8205	0.075
Mof_C 	C 	0.4062	0.5106	0.7071	0.399
Mof_C 	C 	0.2043	0.6826	0.9453	0.382
Mof_S 	S 	0.88384	0.69198	0.56601	0.535
Mof_S 	S 	0.61616	0.80802	0.06601	0.533
Mof_S 	S 	0.11616	0.30802	0.43399	0.535
Mof_S 	S 	0.38384	0.19198	0.93399	0.533
Mof_O 	O 	0.8845	0.1251	0.81456	-0.418
Mof_O 	O 	0.9525	0.9155	0.83188	-0.383
Mof_O 	O 	0.6592	0.1632	0.48856	-0.426
Mof_O 	O 	0.6939	0.2899	0.5902	-0.391
Mof_O 	O 	0.0507	0.6436	0.59533	-0.342
Mof_O 	O 	0.7254	0.6156	0.5953	-0.384
Mof_O 	O 	0.8821	0.7037	0.48713	-0.301
Mof_O 	O 	0.8716	0.0566	0.96515	-0.773
Mof_O 	O 	0.6155	0.3749	0.31456	-0.421
Mof_O 	O 	0.5475	0.5845	0.33188	-0.39
Mof_O 	O 	0.8408	0.3368	0.98856	-0.422
Mof_O 	O 	0.8061	0.2101	0.0902	-0.392
Mof_O 	O 	0.4493	0.8564	0.09533	-0.339
Mof_O 	O 	0.7746	0.8844	0.0953	-0.381
Mof_O 	O 	0.6179	0.7963	0.98713	-0.301
Mof_O 	O 	0.6284	0.4434	0.46515	-0.774
Mof_O 	O 	0.1155	0.8749	0.18544	-0.418
Mof_O 	O 	0.0475	0.0845	0.16812	-0.383
Mof_O 	O 	0.3408	0.8368	0.51144	-0.426
Mof_O 	O 	0.3061	0.7101	0.4098	-0.391
Mof_O 	O 	0.9493	0.3564	0.40467	-0.342
Mof_O 	O 	0.2746	0.3844	0.4047	-0.384
Mof_O 	O 	0.1179	0.2963	0.51287	-0.301
Mof_O 	O 	0.1284	0.9434	0.03485	-0.773
Mof_O 	O 	0.3845	0.6251	0.68544	-0.421
Mof_O 	O 	0.4525	0.4155	0.66812	-0.39
Mof_O 	O 	0.1592	0.6632	0.01144	-0.422
Mof_O 	O 	0.1939	0.7899	0.9098	-0.392
Mof_O 	O 	0.5507	0.1436	0.90467	-0.339
Mof_O 	O 	0.2254	0.1156	0.9047	-0.381
Mof_O 	O 	0.3821	0.2037	0.01287	-0.301
Mof_O 	O 	0.3716	0.5566	0.53485	-0.774
_end
