data_functionalizedCrystal
_audit_creation_method	'EQeq! by Chris Wilmer'
_symmetry_space_group_name_H-M	'P1'
_symmetry_Int_Tables_number	1
_symmetry_cell_setting	triclinic
loop_
_symmetry_equiv_pos_as_xyz
  x,y,z
_cell_length_a	10.242
_cell_length_b	13.1436
_cell_length_c	13.1436
_cell_angle_alpha	94.736
_cell_angle_beta	109.488
_cell_angle_gamma	109.488
loop_
_atom_site_label
_atom_site_type_symbol
_atom_site_fract_x
_atom_site_fract_y
_atom_site_fract_z
_atom_site_charge
Mof_Zn	Zn	0.52228	0.94023	0.83841	1.233
Mof_Zn	Zn	0.97772	0.16159	0.05977	1.226
Mof_Zn	Zn	0.47772	0.05977	0.16159	1.233
Mof_Zn	Zn	0.02228	0.83841	0.94023	1.226
Mof_P 	P 	0.65448	0.16455	0.02211	0.425
Mof_P 	P 	0.84552	0.97789	0.83545	0.436
Mof_P 	P 	0.34552	0.83545	0.97789	0.424
Mof_P 	P 	0.15448	0.02211	0.16455	0.435
Mof_H 	H 	0.6363	0.2327	0.8173	0.045
Mof_H 	H 	0.7282	0.4007	0.7659	0.054
Mof_H 	H 	0.8758	0.5609	0.0757	0.049
Mof_H 	H 	0.7981	0.3935	0.1311	0.062
Mof_H 	H 	0.8637	0.1827	0.7673	0.044
Mof_H 	H 	0.7718	0.2341	0.5993	0.053
Mof_H 	H 	0.6242	0.9243	0.4391	0.048
Mof_H 	H 	0.7019	0.8689	0.6065	0.06
Mof_H 	H 	0.3637	0.7673	0.1827	0.045
Mof_H 	H 	0.2718	0.5993	0.2341	0.054
Mof_H 	H 	0.1242	0.4391	0.9243	0.049
Mof_H 	H 	0.2019	0.6065	0.8689	0.062
Mof_H 	H 	0.1363	0.8173	0.2327	0.044
Mof_H 	H 	0.2282	0.7659	0.4007	0.053
Mof_H 	H 	0.3758	0.0757	0.5609	0.048
Mof_H 	H 	0.2981	0.1311	0.3935	0.06
Mof_C 	C 	0.7108	0.295	0.9798	-0.04
Mof_C 	C 	0.6874	0.2982	0.871	-0.045
Mof_C 	C 	0.7403	0.4	0.8392	-0.02
Mof_C 	C 	0.8084	0.496	0.916	-0.055
Mof_C 	C 	0.8294	0.4945	0.0235	-0.023
Mof_C 	C 	0.7816	0.3934	0.057	-0.054
Mof_C 	C 	0.8648	0.6053	0.8821	0.328
Mof_C 	C 	0.7892	0.0202	0.705	-0.057
Mof_C 	C 	0.8126	0.129	0.7018	-0.041
Mof_C 	C 	0.7597	0.1608	0.6	-0.018
Mof_C 	C 	0.6916	0.084	0.504	-0.07
Mof_C 	C 	0.6706	0.9765	0.5055	-0.009
Mof_C 	C 	0.7184	0.943	0.6066	-0.041
Mof_C 	C 	0.6352	0.1179	0.3947	0.331
Mof_C 	C 	0.2892	0.705	0.0202	-0.04
Mof_C 	C 	0.3126	0.7018	0.129	-0.045
Mof_C 	C 	0.2597	0.6	0.1608	-0.02
Mof_C 	C 	0.1916	0.504	0.084	-0.055
Mof_C 	C 	0.1706	0.5055	0.9765	-0.023
Mof_C 	C 	0.2184	0.6066	0.943	-0.054
Mof_C 	C 	0.1352	0.3947	0.1179	0.328
Mof_C 	C 	0.2108	0.9798	0.295	-0.057
Mof_C 	C 	0.1874	0.871	0.2982	-0.041
Mof_C 	C 	0.2403	0.8392	0.4	-0.018
Mof_C 	C 	0.3084	0.916	0.496	-0.07
Mof_C 	C 	0.3294	0.0235	0.4945	-0.009
Mof_C 	C 	0.2816	0.057	0.3934	-0.041
Mof_C 	C 	0.3648	0.8821	0.6053	0.331
Mof_O 	O 	0.5427	0.08079	0.91801	-0.447
Mof_O 	O 	0.7919	0.13888	0.07812	-0.478
Mof_O 	O 	0.5825	0.17951	0.10369	-0.425
Mof_O 	O 	0.8644	0.6061	0.7877	-0.279
Mof_O 	O 	0.9146	0.6913	0.9569	-0.447
Mof_O 	O 	0.9573	0.08199	0.91921	-0.449
Mof_O 	O 	0.7081	0.92188	0.86112	-0.473
Mof_O 	O 	0.9175	0.89631	0.82049	-0.42
Mof_O 	O 	0.6356	0.2123	0.3939	-0.283
Mof_O 	O 	0.5854	0.0431	0.3087	-0.455
Mof_O 	O 	0.4573	0.91921	0.08199	-0.447
Mof_O 	O 	0.2081	0.86112	0.92188	-0.478
Mof_O 	O 	0.4175	0.82049	0.89631	-0.425
Mof_O 	O 	0.1356	0.3939	0.2123	-0.279
Mof_O 	O 	0.0854	0.3087	0.0431	-0.447
Mof_O 	O 	0.0427	0.91801	0.08079	-0.449
Mof_O 	O 	0.2919	0.07812	0.13888	-0.473
Mof_O 	O 	0.0825	0.10369	0.17951	-0.42
Mof_O 	O 	0.3644	0.7877	0.6061	-0.283
Mof_O 	O 	0.4146	0.9569	0.6913	-0.455
Mof_H 	H 	0.1748	0.9909	0.7533	0.136
Mof_H 	H 	0.1142	0.0836	0.7218	0.151
Mof_H 	H 	0.2801	0.1019	0.7389	0.151
Mof_H 	H 	0.3261	0.0978	0.9182	0.102
Mof_H 	H 	0.3252	0.2467	0.0091	0.153
Mof_H 	H 	0.3858	0.2782	0.9164	0.161
Mof_H 	H 	0.2199	0.2611	0.8981	0.159
Mof_H 	H 	0.1739	0.0818	0.9022	0.1
Mof_C 	C 	0.2004	0.0693	0.7637	-0.356
Mof_C 	C 	0.2996	0.2363	0.9307	-0.389
Mof_N 	N 	0.25	0.1177	0.8823	-0.132
Mof_H 	H 	0.8252	0.0091	0.2467	0.136
Mof_H 	H 	0.8858	0.9164	0.2782	0.151
Mof_H 	H 	0.7199	0.8981	0.2611	0.151
Mof_H 	H 	0.6739	0.9022	0.0818	0.102
Mof_H 	H 	0.6748	0.7533	0.9909	0.153
Mof_H 	H 	0.6142	0.7218	0.0836	0.161
Mof_H 	H 	0.7801	0.7389	0.1019	0.159
Mof_H 	H 	0.8261	0.9182	0.0978	0.1
Mof_C 	C 	0.7996	0.9307	0.2363	-0.356
Mof_C 	C 	0.7004	0.7637	0.0693	-0.389
Mof_N 	N 	0.75	0.8823	0.1177	-0.132
_end
