# CIF file generated by openbabel 3.1.0, see https://openbabel.org
data_I
_chemical_name_common 'NIGFIT_clean'
_cell_length_a 10.8894
_cell_length_b 10.8894
_cell_length_c 19.6803
_cell_angle_alpha 75.7156
_cell_angle_beta 75.7156
_cell_angle_gamma 64.6726
_space_group_name_H-M_alt 'P 1'
_space_group_name_Hall 'P 1'
loop_
    _symmetry_equiv_pos_as_xyz
    x,y,z
loop_
    _atom_site_label
    _atom_site_type_symbol
    _atom_site_fract_x
    _atom_site_fract_y
    _atom_site_fract_z
    _atom_site_occupancy
    Er1      Er       0.59459    0.25507    0.08330    1.000
    Er2      Er       0.74493    0.40541    0.41670    1.000
    Er3      Er       0.40541    0.74493    0.91670    1.000
    Er4      Er       0.25507    0.59459    0.58330    1.000
    H1       H        0.20150    0.31190    0.27550    1.000
    H2       H        0.16940    0.40080    0.46680    1.000
    H3       H        0.51940    0.34400    0.32750    1.000
    H4       H        0.68810    0.79850    0.22450    1.000
    H5       H        0.59920    0.83060    0.03320    1.000
    H6       H        0.65600    0.48060    0.17250    1.000
    H7       H        0.79850    0.68810    0.72450    1.000
    H8       H        0.83060    0.59920    0.53320    1.000
    H9       H        0.48060    0.65600    0.67250    1.000
    H10      H        0.31190    0.20150    0.77550    1.000
    H11      H        0.40080    0.16940    0.96680    1.000
    H12      H        0.34400    0.51940    0.82750    1.000
    C1       C        0.45340    0.29820    0.21730    1.000
    C2       C        0.01700    0.36820    0.39150    1.000
    C3       C        0.41550    0.40670    0.45640    1.000
    C4       C        0.37360    0.32120    0.28970    1.000
    C5       C        0.24050    0.32710    0.30800    1.000
    C6       C        0.16410    0.35530    0.37400    1.000
    C7       C        0.22070    0.38070    0.42260    1.000
    C8       C        0.35390    0.37610    0.40490    1.000
    C9       C        0.43020    0.34680    0.33920    1.000
    C10      C        0.70180    0.54660    0.28270    1.000
    C11      C        0.63180    0.98300    0.10850    1.000
    C12      C        0.59330    0.58450    0.04360    1.000
    C13      C        0.67880    0.62640    0.21030    1.000
    C14      C        0.67290    0.75950    0.19200    1.000
    C15      C        0.64470    0.83590    0.12600    1.000
    C16      C        0.61930    0.77930    0.07740    1.000
    C17      C        0.62390    0.64610    0.09510    1.000
    C18      C        0.65320    0.56980    0.16080    1.000
    C19      C        0.54660    0.70180    0.78270    1.000
    C20      C        0.98300    0.63180    0.60850    1.000
    C21      C        0.58450    0.59330    0.54360    1.000
    C22      C        0.62640    0.67880    0.71030    1.000
    C23      C        0.75950    0.67290    0.69200    1.000
    C24      C        0.83590    0.64470    0.62600    1.000
    C25      C        0.77930    0.61930    0.57740    1.000
    C26      C        0.64610    0.62390    0.59510    1.000
    C27      C        0.56980    0.65320    0.66080    1.000
    C28      C        0.29820    0.45340    0.71730    1.000
    C29      C        0.36820    0.01700    0.89150    1.000
    C30      C        0.40670    0.41550    0.95640    1.000
    C31      C        0.32120    0.37360    0.78970    1.000
    C32      C        0.32710    0.24050    0.80800    1.000
    C33      C        0.35530    0.16410    0.87400    1.000
    C34      C        0.38070    0.22070    0.92260    1.000
    C35      C        0.37610    0.35390    0.90490    1.000
    C36      C        0.34680    0.43020    0.83920    1.000
    O1       O        0.39500    0.29340    0.17030    1.000
    O2       O        0.57700    0.28340    0.20360    1.000
    O3       O        0.97150    0.33270    0.35030    1.000
    O4       O        0.94190    0.41050    0.44590    1.000
    O5       O        0.35060    0.41780    0.51840    1.000
    O6       O        0.52850    0.41990    0.43410    1.000
    O7       O        0.70660    0.60500    0.32970    1.000
    O8       O        0.71660    0.42300    0.29640    1.000
    O9       O        0.66730    0.02850    0.14970    1.000
    O10      O        0.58950    0.05810    0.05410    1.000
    O11      O        0.58220    0.64940    0.98160    1.000
    O12      O        0.58010    0.47150    0.06590    1.000
    O13      O        0.60500    0.70660    0.82970    1.000
    O14      O        0.42300    0.71660    0.79640    1.000
    O15      O        0.02850    0.66730    0.64970    1.000
    O16      O        0.05810    0.58950    0.55410    1.000
    O17      O        0.64940    0.58220    0.48160    1.000
    O18      O        0.47150    0.58010    0.56590    1.000
    O19      O        0.29340    0.39500    0.67030    1.000
    O20      O        0.28340    0.57700    0.70360    1.000
    O21      O        0.33270    0.97150    0.85030    1.000
    O22      O        0.41050    0.94190    0.94590    1.000
    O23      O        0.41780    0.35060    0.01840    1.000
    O24      O        0.41990    0.52850    0.93410    1.000
