data_functionalizedCrystal
_audit_creation_method	'EQeq! by Chris Wilmer'
_symmetry_space_group_name_H-M	'P1'
_symmetry_Int_Tables_number	1
_symmetry_cell_setting	triclinic
loop_
_symmetry_equiv_pos_as_xyz
  x,y,z
_cell_length_a	6.0928
_cell_length_b	12.1183
_cell_length_c	22.577
_cell_angle_alpha	90
_cell_angle_beta	90
_cell_angle_gamma	90.6431
loop_
_atom_site_label
_atom_site_type_symbol
_atom_site_fract_x
_atom_site_fract_y
_atom_site_fract_z
_atom_site_charge
Mof_Eu	Eu	0.54648	0.05679	0.35076	1.772
Mof_Eu	Eu	0.04648	0.55679	0.14924	1.801
Mof_Eu	Eu	0.95352	0.44321	0.85076	1.911
Mof_Eu	Eu	0.45352	0.94321	0.64924	1.962
Mof_Cu	Cu	0.5	0	-0	0.89
Mof_Cu	Cu	3.58333e-19	0.5	0.5	0.912
Mof_H 	H 	0.8255	0.3891	0.6167	0.048
Mof_H 	H 	0.1745	0.6109	0.3833	0.04
Mof_H 	H 	0.96	0.0746	0.1792	0.06
Mof_H 	H 	0.5716	0.1065	0.7877	0.027
Mof_H 	H 	0.46	0.5746	0.3208	0.062
Mof_H 	H 	0.4284	0.8935	0.2123	0.034
Mof_H 	H 	0.0716	0.6065	0.7123	0.017
Mof_H 	H 	0.953	0.768	0.656	0.023
Mof_H 	H 	0.9284	0.3935	0.2877	0.078
Mof_H 	H 	0.04	0.9254	0.8208	0.059
Mof_H 	H 	0.3255	0.8891	0.8833	0.043
Mof_H 	H 	0.047	0.232	0.344	-0.005
Mof_H 	H 	0.54	0.4254	0.6792	0.059
Mof_H 	H 	0.547	0.732	0.156	0.017
Mof_H 	H 	0.6745	0.1109	0.1167	0.054
Mof_H 	H 	0.453	0.268	0.844	0.015
Mof_C 	C 	0.5676	0.8672	0.2209	0.029
Mof_C 	C 	0.9406	0.0312	0.1456	0.009
Mof_C 	C 	0.4755	0.5426	0.8119	0.428
Mof_C 	C 	0.8554	0.7231	0.6891	0.03
Mof_C 	C 	0.7186	0.3026	0.4221	0.397
Mof_C 	C 	0.837	0.2791	0.7365	0.365
Mof_C 	C 	0.337	0.7791	0.7635	0.362
Mof_C 	C 	0.231	0.9467	0.8918	0.048
Mof_C 	C 	0.6115	0.6186	0.7722	-0.055
Mof_C 	C 	0.7814	0.1974	0.9221	0.409
Mof_C 	C 	0.6751	0.6534	0.4921	0.291
Mof_C 	C 	0.4573	0.2845	0.2561	-0.007
Mof_C 	C 	0.731	0.4467	0.6082	0.023
Mof_C 	C 	0.0676	0.3672	0.2791	-0.048
Mof_C 	C 	0.8768	0.9094	0.0485	-0.009
Mof_C 	C 	0.2186	0.8026	0.0779	0.4
Mof_C 	C 	0.0481	0.8887	0.0873	-0.074
Mof_C 	C 	0.5481	0.3887	0.4127	-0.051
Mof_C 	C 	0.2814	0.6974	0.5779	0.409
Mof_C 	C 	0.6232	0.5906	0.5485	-0.013
Mof_C 	C 	0.269	0.5533	0.3918	0.022
Mof_C 	C 	0.3768	0.4094	0.4515	-0.02
Mof_C 	C 	0.8249	0.8466	0.9921	0.317
Mof_C 	C 	0.4406	0.5312	0.3544	0.009
Mof_C 	C 	0.3885	0.3814	0.2278	-0.057
Mof_C 	C 	0.9324	0.6328	0.7209	0.045
Mof_C 	C 	0.0594	0.9688	0.8544	0.024
Mof_C 	C 	0.0245	0.9574	0.3119	0.344
Mof_C 	C 	0.1751	0.1534	0.0079	0.254
Mof_C 	C 	0.9573	0.7845	0.2439	0.015
Mof_C 	C 	0.5427	0.7155	0.7439	-0.009
Mof_C 	C 	0.1115	0.1186	0.7278	-0.072
Mof_C 	C 	0.1232	0.0906	0.9515	0.005
Mof_C 	C 	0.9519	0.1113	0.9127	-0.055
Mof_C 	C 	0.5245	0.4574	0.1881	0.42
Mof_C 	C 	0.3249	0.3466	0.5079	0.293
Mof_C 	C 	0.1446	0.2769	0.3109	0.055
Mof_C 	C 	0.4324	0.1328	0.7791	0.022
Mof_C 	C 	0.0427	0.2155	0.7561	-0.012
Mof_C 	C 	0.3554	0.2231	0.8109	0.033
Mof_C 	C 	0.163	0.7209	0.2635	0.329
Mof_C 	C 	0.5594	0.4688	0.6456	0.009
Mof_C 	C 	0.769	0.0533	0.1082	-0.017
Mof_C 	C 	0.4519	0.6113	0.5873	-0.058
Mof_C 	C 	0.6446	0.7769	0.1891	0.037
Mof_C 	C 	0.8885	0.8814	0.2722	-0.01
Mof_C 	C 	0.663	0.2209	0.2365	0.355
Mof_C 	C 	0.9755	0.0426	0.6881	0.45
Mof_N 	N 	0.3166	0.083	0.7373	-0.181
Mof_N 	N 	0.7373	0.9921	0.0596	-0.16
Mof_N 	N 	0.2627	0.0079	0.9404	-0.2
Mof_N 	N 	0.3373	0.2332	0.2971	-0.192
Mof_N 	N 	0.6627	0.7668	0.7029	-0.187
Mof_N 	N 	0.5814	0.4491	0.3648	-0.088
Mof_N 	N 	0.1627	0.2668	0.7971	-0.19
Mof_N 	N 	0.0814	0.9491	0.1352	-0.085
Mof_N 	N 	0.9186	0.0509	0.8648	-0.103
Mof_N 	N 	0.2373	0.4921	0.4404	-0.189
Mof_N 	N 	0.6834	0.917	0.2627	-0.166
Mof_N 	N 	0.4186	0.5509	0.6352	-0.091
Mof_N 	N 	0.8373	0.7332	0.2029	-0.179
Mof_N 	N 	0.1834	0.417	0.2373	-0.162
Mof_N 	N 	0.7627	0.5079	0.5596	-0.182
Mof_N 	N 	0.8166	0.583	0.7627	-0.177
Mof_O 	O 	0.9205	0.9967	0.3551	-0.45
Mof_O 	O 	0.3784	0.828	0.0449	-0.351
Mof_O 	O 	0.2418	0.7461	0.3121	-0.288
Mof_O 	O 	0.7418	0.2461	0.1879	-0.287
Mof_O 	O 	0.7227	0.1463	0.2701	-0.455
Mof_O 	O 	0.7582	0.2539	0.6879	-0.297
Mof_O 	O 	0.718	0.4796	0.2008	-0.471
Mof_O 	O 	0.8168	0.611	0.4589	-0.341
Mof_O 	O 	0.7773	0.3537	0.7701	-0.468
Mof_O 	O 	0.0738	0.2417	0.0173	-0.306
Mof_O 	O 	0.6832	0.889	0.9589	-0.336
Mof_O 	O 	0.5738	0.7417	0.4827	-0.283
Mof_O 	O 	0.7998	0.2872	0.8946	-0.518
Mof_O 	O 	0.7002	0.2128	0.3946	-0.508
Mof_O 	O 	0.2773	0.8537	0.7299	-0.466
Mof_O 	O 	0.5795	0.5033	0.8551	-0.528
Mof_O 	O 	0.2227	0.6463	0.2299	-0.453
Mof_O 	O 	0.4262	0.2583	0.5173	-0.297
Mof_O 	O 	0.9262	0.7583	0.9827	-0.27
Mof_O 	O 	0.6216	0.172	0.9551	-0.331
Mof_O 	O 	0.0795	0.0033	0.6449	-0.569
Mof_O 	O 	0.218	0.9796	0.2992	-0.448
Mof_O 	O 	0.2002	0.7128	0.1054	-0.521
Mof_O 	O 	0.282	0.5204	0.7992	-0.495
Mof_O 	O 	0.2998	0.7872	0.6054	-0.531
Mof_O 	O 	0.8784	0.328	0.4551	-0.333
Mof_O 	O 	0.782	0.0204	0.7008	-0.517
Mof_O 	O 	0.1832	0.389	0.5411	-0.364
Mof_O 	O 	0.1216	0.672	0.5449	-0.355
Mof_O 	O 	0.3168	0.111	0.0411	-0.366
Mof_O 	O 	0.4205	0.4967	0.1449	-0.521
Mof_O 	O 	0.2582	0.7539	0.8121	-0.294
_end
