data_functionalizedCrystal
_audit_creation_method	'EQeq! by Chris Wilmer'
_symmetry_space_group_name_H-M	'P1'
_symmetry_Int_Tables_number	1
_symmetry_cell_setting	triclinic
loop_
_symmetry_equiv_pos_as_xyz
  x,y,z
_cell_length_a	8.7198
_cell_length_b	18.4218
_cell_length_c	9.2725
_cell_angle_alpha	90
_cell_angle_beta	108.248
_cell_angle_gamma	90
loop_
_atom_site_label
_atom_site_type_symbol
_atom_site_fract_x
_atom_site_fract_y
_atom_site_fract_z
_atom_site_charge
Mof_C 	C 	0.7279	0.0455	0.4493	0.474
Mof_C 	C 	0.5644	0.082	0.4085	-0.082
Mof_C 	C 	0.4859	0.0854	0.1208	-0.061
Mof_C 	C 	0.3049	0.0647	0.074	0.488
Mof_C 	C 	0.8072	0.1821	0.8301	-0.085
Mof_C 	C 	0.8501	0.1216	0.9505	0.393
Mof_N 	N 	0.5327	0.1281	0.2668	-0.078
Mof_O 	O 	0.7701	0.0108	0.5759	-0.586
Mof_O 	O 	0.8162	0.0524	0.3642	-0.627
Mof_O 	O 	0.2556	0.032	0.9479	-0.562
Mof_O 	O 	0.2323	0.079	0.1633	-0.545
Mof_O 	O 	0.9195	0.0646	0.9188	-0.679
Mof_O 	O 	0.8215	0.1322	0.0776	-0.47
Mof_Pr	Pr	0.0089	0.976	0.7821	2.452
Mof_C 	C 	0.2721	0.5455	0.5507	0.478
Mof_C 	C 	0.4356	0.582	0.5915	-0.082
Mof_C 	C 	0.5141	0.5854	0.8792	-0.062
Mof_C 	C 	0.6951	0.5647	0.926	0.501
Mof_C 	C 	0.1928	0.6821	0.1699	-0.085
Mof_C 	C 	0.1499	0.6216	0.0495	0.39
Mof_N 	N 	0.4673	0.6281	0.7332	-0.078
Mof_O 	O 	0.2299	0.5108	0.4241	-0.592
Mof_O 	O 	0.1838	0.5524	0.6358	-0.631
Mof_O 	O 	0.7444	0.532	0.0521	-0.579
Mof_O 	O 	0.7677	0.579	0.8367	-0.553
Mof_O 	O 	0.0805	0.5646	0.0812	-0.686
Mof_O 	O 	0.1785	0.6322	0.9224	-0.469
Mof_Pr	Pr	0.9911	0.476	0.2179	2.487
Mof_C 	C 	0.2721	0.9545	0.5507	0.475
Mof_C 	C 	0.4356	0.918	0.5915	-0.081
Mof_C 	C 	0.5141	0.9146	0.8792	-0.061
Mof_C 	C 	0.6951	0.9353	0.926	0.488
Mof_C 	C 	0.1928	0.8179	0.1699	-0.085
Mof_C 	C 	0.1499	0.8784	0.0495	0.393
Mof_N 	N 	0.4673	0.8719	0.7332	-0.078
Mof_O 	O 	0.2299	0.9892	0.4241	-0.586
Mof_O 	O 	0.1838	0.9476	0.6358	-0.627
Mof_O 	O 	0.7444	0.968	0.0521	-0.562
Mof_O 	O 	0.7677	0.921	0.8367	-0.545
Mof_O 	O 	0.0805	0.9354	0.0812	-0.679
Mof_O 	O 	0.1785	0.8678	0.9224	-0.47
Mof_Pr	Pr	0.9911	0.024	0.2179	2.452
Mof_C 	C 	0.7279	0.4545	0.4493	0.478
Mof_C 	C 	0.5644	0.418	0.4085	-0.082
Mof_C 	C 	0.4859	0.4146	0.1208	-0.062
Mof_C 	C 	0.3049	0.4353	0.074	0.501
Mof_C 	C 	0.8072	0.3179	0.8301	-0.085
Mof_C 	C 	0.8501	0.3784	0.9505	0.39
Mof_N 	N 	0.5327	0.3719	0.2668	-0.078
Mof_O 	O 	0.7701	0.4892	0.5759	-0.592
Mof_O 	O 	0.8162	0.4476	0.3642	-0.631
Mof_O 	O 	0.2556	0.468	0.9479	-0.579
Mof_O 	O 	0.2323	0.421	0.1633	-0.553
Mof_O 	O 	0.9195	0.4354	0.9188	-0.686
Mof_O 	O 	0.8215	0.3678	0.0776	-0.469
Mof_Pr	Pr	0.0089	0.524	0.7821	2.487
Mof_N 	N 	0.7804	0.25	0.9156	-0.072
Mof_N 	N 	0.2196	0.75	0.0844	-0.072
_end
