# CIF file generated by openbabel 3.1.0, see https://openbabel.org
data_I
_chemical_name_common 'image0'
_cell_length_a 11.8325
_cell_length_b 14.5026
_cell_length_c 21.1003
_cell_angle_alpha 90
_cell_angle_beta 100.648
_cell_angle_gamma 90
_space_group_name_H-M_alt 'P 1'
_space_group_name_Hall 'P 1'
loop_
    _symmetry_equiv_pos_as_xyz
    x,y,z
loop_
    _atom_site_label
    _atom_site_type_symbol
    _atom_site_fract_x
    _atom_site_fract_y
    _atom_site_fract_z
    _atom_site_occupancy
    Cd1      Cd       0.57079    0.22745    0.94922    1.000
    N1       N        0.92460    0.85570    0.24770    1.000
    C1       C        0.11000    0.48000    0.01900    1.000
    O1       O        0.64830    0.10540    0.01750    1.000
    O2       O        0.69190    0.24530    0.05180    1.000
    O3       O        0.98370    0.47150    0.39600    1.000
    O4       O        0.00650    0.33700    0.35510    1.000
    O5       O        0.37340    0.09900    0.01000    1.000
    O6       O        0.40550    0.24360    0.98700    1.000
    C2       C        0.85000    0.89000    0.19000    1.000
    C3       C        0.79100    0.82800    0.15200    1.000
    H1       H        0.74200    0.84890    0.11510    1.000
    C4       C        0.80400    0.73400    0.16300    1.000
    H2       H        0.76110    0.69230    0.13490    1.000
    C5       C        0.87800    0.70100    0.21700    1.000
    C6       C        0.94340    0.76300    0.25840    1.000
    H3       H        0.99830    0.74220    0.29280    1.000
    C7       C        0.69950    0.15930    0.06010    1.000
    C8       C        0.77030    0.12350    0.11930    1.000
    C9       C        0.78430    0.02830    0.12760    1.000
    H4       H        0.75030    0.98850    0.09500    1.000
    C10      C        0.85040    0.99150    0.18580    1.000
    C11      C        0.89440    0.05120    0.23170    1.000
    H5       H        0.93910    0.02790    0.26920    1.000
    C12      C        0.87790    0.14800    0.22720    1.000
    H6       H        0.90840    0.18680    0.26110    1.000
    C13      C        0.81680    0.18160    0.17230    1.000
    H7       H        0.80430    0.24480    0.16860    1.000
    C14      C        0.98740    0.42100    0.35140    1.000
    C15      C        0.96630    0.46630    0.28650    1.000
    C16      C        0.94560    0.55980    0.27760    1.000
    H8       H        0.94250    0.59620    0.31360    1.000
    C17      C        0.93000    0.59930    0.22060    1.000
    C18      C        0.93560    0.55210    0.16830    1.000
    H9       H        0.93440    0.58200    0.12920    1.000
    C19      C        0.94380    0.45360    0.17250    1.000
    H10      H        0.92920    0.41640    0.13600    1.000
    C20      C        0.97490    0.41650    0.23430    1.000
    H11      H        0.00200    0.35630    0.23930    1.000
    C21      C        0.03750    0.41050    0.01280    1.000
    C22      C        0.07580    0.57320    0.00570    1.000
    H12      H        0.12910    0.62090    0.00940    1.000
    C23      C        0.35120    0.18340    0.00590    1.000
    C24      C        0.23710    0.20570    0.02210    1.000
    C25      C        0.19250    0.29410    0.01150    1.000
    H13      H        0.23640    0.33890    0.99590    1.000
    C26      C        0.08320    0.31820    0.02360    1.000
    C27      C        0.01590    0.24840    0.04570    1.000
    H14      H        0.94230    0.26290    0.05230    1.000
    C28      C        0.05490    0.16220    0.05740    1.000
    H15      H        0.01000    0.11750    0.07250    1.000
    C29      C        0.17240    0.13980    0.04550    1.000
    H16      H        0.20200    0.08080    0.05410    1.000
    C30      C        0.88000    0.89000    0.19000    1.000
    C31      C        0.85700    0.82800    0.13800    1.000
    H17      H        0.82450    0.84860    0.09710    1.000
    C32      C        0.88200    0.73500    0.14700    1.000
    H18      H        0.86720    0.69460    0.11180    1.000
    C33      C        0.92800    0.70200    0.20700    1.000
    H19      H        0.18890    0.46860    0.03370    1.000
    N2       N        0.89000    0.52000    0.98100    1.000
    Cd2      Cd       0.92921    0.72745    0.55078    1.000
    N3       N        0.57540    0.35570    0.25230    1.000
    C34      C        0.39000    0.98000    0.48100    1.000
    O7       O        0.85170    0.60540    0.48250    1.000
    O8       O        0.80810    0.74530    0.44820    1.000
    O9       O        0.51630    0.97150    0.10400    1.000
    O10      O        0.49350    0.83700    0.14490    1.000
    O11      O        0.12660    0.59900    0.49000    1.000
    O12      O        0.09450    0.74360    0.51300    1.000
    C35      C        0.65000    0.39000    0.31000    1.000
    C36      C        0.70900    0.32800    0.34800    1.000
    H20      H        0.75800    0.34890    0.38490    1.000
    C37      C        0.69600    0.23400    0.33700    1.000
    H21      H        0.73890    0.19230    0.36510    1.000
    C38      C        0.62200    0.20100    0.28300    1.000
    C39      C        0.55660    0.26300    0.24160    1.000
    H22      H        0.50170    0.24220    0.20720    1.000
    C40      C        0.80050    0.65930    0.43990    1.000
    C41      C        0.72970    0.62350    0.38070    1.000
    C42      C        0.71570    0.52830    0.37240    1.000
    H23      H        0.74970    0.48850    0.40500    1.000
    C43      C        0.64960    0.49150    0.31420    1.000
    C44      C        0.60560    0.55120    0.26830    1.000
    H24      H        0.56090    0.52790    0.23080    1.000
    C45      C        0.62210    0.64800    0.27280    1.000
    H25      H        0.59160    0.68680    0.23890    1.000
    C46      C        0.68320    0.68160    0.32770    1.000
    H26      H        0.69570    0.74480    0.33140    1.000
    C47      C        0.51260    0.92100    0.14860    1.000
    C48      C        0.53370    0.96630    0.21350    1.000
    C49      C        0.55440    0.05980    0.22240    1.000
    H27      H        0.55750    0.09620    0.18640    1.000
    C50      C        0.57000    0.09930    0.27940    1.000
    C51      C        0.56440    0.05210    0.33170    1.000
    H28      H        0.56560    0.08200    0.37080    1.000
    C52      C        0.55620    0.95360    0.32750    1.000
    H29      H        0.57080    0.91640    0.36400    1.000
    C53      C        0.52510    0.91650    0.26570    1.000
    H30      H        0.49800    0.85630    0.26070    1.000
    C54      C        0.46250    0.91050    0.48720    1.000
    C55      C        0.42420    0.07320    0.49430    1.000
    H31      H        0.37090    0.12090    0.49060    1.000
    C56      C        0.14880    0.68340    0.49410    1.000
    C57      C        0.26290    0.70570    0.47790    1.000
    C58      C        0.30750    0.79410    0.48850    1.000
    H32      H        0.26360    0.83890    0.50410    1.000
    C59      C        0.41680    0.81820    0.47640    1.000
    C60      C        0.48410    0.74840    0.45430    1.000
    H33      H        0.55770    0.76290    0.44770    1.000
    C61      C        0.44510    0.66220    0.44260    1.000
    H34      H        0.49000    0.61750    0.42750    1.000
    C62      C        0.32760    0.63980    0.45450    1.000
    H35      H        0.29800    0.58080    0.44590    1.000
    C63      C        0.62000    0.39000    0.31000    1.000
    C64      C        0.64300    0.32800    0.36200    1.000
    H36      H        0.67550    0.34860    0.40290    1.000
    C65      C        0.61800    0.23500    0.35300    1.000
    H37      H        0.63280    0.19460    0.38820    1.000
    C66      C        0.57200    0.20200    0.29300    1.000
    H38      H        0.31110    0.96860    0.46630    1.000
    N4       N        0.61000    0.02000    0.51900    1.000
    Cd3      Cd       0.42921    0.77255    0.05078    1.000
    N5       N        0.07540    0.14430    0.75230    1.000
    O13      O        0.35170    0.89460    0.98250    1.000
    O14      O        0.30810    0.75470    0.94820    1.000
    O15      O        0.01630    0.52850    0.60400    1.000
    O16      O        0.99350    0.66300    0.64490    1.000
    O17      O        0.62660    0.90100    0.99000    1.000
    O18      O        0.59450    0.75640    0.01300    1.000
    C67      C        0.15000    0.11000    0.81000    1.000
    C68      C        0.20900    0.17200    0.84800    1.000
    H39      H        0.25800    0.15110    0.88490    1.000
    C69      C        0.19600    0.26600    0.83700    1.000
    H40      H        0.23890    0.30770    0.86510    1.000
    C70      C        0.12200    0.29900    0.78300    1.000
    C71      C        0.05660    0.23700    0.74160    1.000
    H41      H        0.00170    0.25780    0.70720    1.000
    C72      C        0.30050    0.84070    0.93990    1.000
    C73      C        0.22970    0.87650    0.88070    1.000
    C74      C        0.21570    0.97170    0.87240    1.000
    H42      H        0.24970    0.01150    0.90500    1.000
    C75      C        0.14960    0.00850    0.81420    1.000
    C76      C        0.10560    0.94880    0.76830    1.000
    H43      H        0.06090    0.97210    0.73080    1.000
    C77      C        0.12210    0.85200    0.77280    1.000
    H44      H        0.09160    0.81320    0.73890    1.000
    C78      C        0.18320    0.81840    0.82770    1.000
    H45      H        0.19570    0.75520    0.83140    1.000
    C79      C        0.01260    0.57900    0.64860    1.000
    C80      C        0.03370    0.53370    0.71350    1.000
    C81      C        0.05440    0.44020    0.72240    1.000
    H46      H        0.05750    0.40380    0.68640    1.000
    C82      C        0.07000    0.40070    0.77940    1.000
    C83      C        0.06440    0.44790    0.83170    1.000
    H47      H        0.06560    0.41800    0.87080    1.000
    C84      C        0.05620    0.54640    0.82750    1.000
    H48      H        0.07080    0.58360    0.86400    1.000
    C85      C        0.02510    0.58350    0.76570    1.000
    H49      H        0.99800    0.64370    0.76070    1.000
    C86      C        0.96250    0.58950    0.98720    1.000
    C87      C        0.92420    0.42680    0.99430    1.000
    H50      H        0.87090    0.37910    0.99060    1.000
    C88      C        0.64880    0.81660    0.99410    1.000
    C89      C        0.76290    0.79430    0.97790    1.000
    C90      C        0.80750    0.70590    0.98850    1.000
    H51      H        0.76360    0.66110    0.00410    1.000
    C91      C        0.91680    0.68180    0.97640    1.000
    C92      C        0.98410    0.75160    0.95430    1.000
    H52      H        0.05770    0.73710    0.94770    1.000
    C93      C        0.94510    0.83780    0.94260    1.000
    H53      H        0.99000    0.88250    0.92750    1.000
    C94      C        0.82760    0.86020    0.95450    1.000
    H54      H        0.79800    0.91920    0.94590    1.000
    C95      C        0.12000    0.11000    0.81000    1.000
    C96      C        0.14300    0.17200    0.86200    1.000
    H55      H        0.17550    0.15140    0.90290    1.000
    C97      C        0.11800    0.26500    0.85300    1.000
    H56      H        0.13280    0.30540    0.88820    1.000
    C98      C        0.07200    0.29800    0.79300    1.000
    H57      H        0.81110    0.53140    0.96630    1.000
    Cd4      Cd       0.07079    0.27255    0.44922    1.000
    N6       N        0.42460    0.64430    0.74770    1.000
    O19      O        0.14830    0.39460    0.51750    1.000
    O20      O        0.19190    0.25470    0.55180    1.000
    O21      O        0.48370    0.02850    0.89600    1.000
    O22      O        0.50650    0.16300    0.85510    1.000
    O23      O        0.87340    0.40100    0.51000    1.000
    O24      O        0.90550    0.25640    0.48700    1.000
    C99      C        0.35000    0.61000    0.69000    1.000
    C100     C        0.29100    0.67200    0.65200    1.000
    H58      H        0.24200    0.65110    0.61510    1.000
    C101     C        0.30400    0.76600    0.66300    1.000
    H59      H        0.26110    0.80770    0.63490    1.000
    C102     C        0.37800    0.79900    0.71700    1.000
    C103     C        0.44340    0.73700    0.75840    1.000
    H60      H        0.49830    0.75780    0.79280    1.000
    C104     C        0.19950    0.34070    0.56010    1.000
    C105     C        0.27030    0.37650    0.61930    1.000
    C106     C        0.28430    0.47170    0.62760    1.000
    H61      H        0.25030    0.51150    0.59500    1.000
    C107     C        0.35040    0.50850    0.68580    1.000
    C108     C        0.39440    0.44880    0.73170    1.000
    H62      H        0.43910    0.47210    0.76920    1.000
    C109     C        0.37790    0.35200    0.72720    1.000
    H63      H        0.40840    0.31320    0.76110    1.000
    C110     C        0.31680    0.31840    0.67230    1.000
    H64      H        0.30430    0.25520    0.66860    1.000
    C111     C        0.48740    0.07900    0.85140    1.000
    C112     C        0.46630    0.03370    0.78650    1.000
    C113     C        0.44560    0.94020    0.77760    1.000
    H65      H        0.44250    0.90380    0.81360    1.000
    C114     C        0.43000    0.90070    0.72060    1.000
    C115     C        0.43560    0.94790    0.66830    1.000
    H66      H        0.43440    0.91800    0.62920    1.000
    C116     C        0.44380    0.04640    0.67250    1.000
    H67      H        0.42920    0.08360    0.63600    1.000
    C117     C        0.47490    0.08350    0.73430    1.000
    H68      H        0.50200    0.14370    0.73930    1.000
    C118     C        0.53750    0.08950    0.51280    1.000
    C119     C        0.57580    0.92680    0.50570    1.000
    H69      H        0.62910    0.87910    0.50940    1.000
    C120     C        0.85120    0.31660    0.50590    1.000
    C121     C        0.73710    0.29430    0.52210    1.000
    C122     C        0.69250    0.20590    0.51150    1.000
    H70      H        0.73640    0.16110    0.49590    1.000
    C123     C        0.58320    0.18180    0.52360    1.000
    C124     C        0.51590    0.25160    0.54570    1.000
    H71      H        0.44230    0.23710    0.55230    1.000
    C125     C        0.55490    0.33780    0.55740    1.000
    H72      H        0.51000    0.38250    0.57250    1.000
    C126     C        0.67240    0.36020    0.54550    1.000
    H73      H        0.70200    0.41920    0.55410    1.000
    C127     C        0.38000    0.61000    0.69000    1.000
    C128     C        0.35700    0.67200    0.63800    1.000
    H74      H        0.32450    0.65140    0.59710    1.000
    C129     C        0.38200    0.76500    0.64700    1.000
    H75      H        0.36720    0.80540    0.61180    1.000
    C130     C        0.42800    0.79800    0.70700    1.000
    H76      H        0.68890    0.03140    0.53370    1.000
    Cd5      Cd       0.50000    0.00000    0.00000    1.000
    Cd6      Cd       0.00000    0.50000    0.50000    1.000
