# CIF file generated by openbabel 3.1.0, see https://openbabel.org
data_I
_chemical_name_common 'image0'
_cell_length_a 10.1591
_cell_length_b 17.6487
_cell_length_c 22.6853
_cell_angle_alpha 90
_cell_angle_beta 99.592
_cell_angle_gamma 90
_space_group_name_H-M_alt 'P 1'
_space_group_name_Hall 'P 1'
loop_
    _symmetry_equiv_pos_as_xyz
    x,y,z
loop_
    _atom_site_label
    _atom_site_type_symbol
    _atom_site_fract_x
    _atom_site_fract_y
    _atom_site_fract_z
    _atom_site_occupancy
    Zn1      Zn       0.49309    0.80775    0.83316    1.000
    Zn2      Zn       0.67370    0.72506    0.72779    1.000
    O1       O        0.51180    0.69960    0.84742    1.000
    O2       O        0.52540    0.37580    0.73484    1.000
    O3       O        0.57440    0.65210    0.76595    1.000
    O4       O        0.44770    0.30630    0.80261    1.000
    O5       O        0.67300    0.84140    0.87182    1.000
    O6       O        0.76210    0.78340    0.80180    1.000
    O7       O        0.25600    0.79000    0.81397    1.000
    O8       O        0.37710    0.85310    0.88675    1.000
    O9       O        0.66260    0.69240    0.64460    1.000
    N1       N        0.49380    0.47160    0.98352    1.000
    N2       N        0.05280    0.98740    0.99340    1.000
    N3       N        0.61370    0.64580    0.55340    1.000
    C1       C        0.53950    0.64550    0.81620    1.000
    C2       C        0.52720    0.56830    0.84010    1.000
    C3       C        0.51790    0.55970    0.90020    1.000
    H1       H        0.52040    0.60170    0.92510    1.000
    C4       C        0.50460    0.48630    0.92270    1.000
    C5       C        0.49480    0.42520    0.88500    1.000
    H2       H        0.47970    0.37730    0.89970    1.000
    C6       C        0.50690    0.43330    0.82590    1.000
    C7       C        0.52330    0.50540    0.80460    1.000
    H3       H        0.53210    0.51150    0.76470    1.000
    C8       C        0.49350    0.36700    0.78440    1.000
    C9       C        0.76820    0.82370    0.84760    1.000
    C10      C        0.90320    0.85270    0.87500    1.000
    C11      C        0.91210    0.90440    0.92120    1.000
    H4       H        0.83510    0.92100    0.93430    1.000
    C12      C        0.26380    0.83100    0.85820    1.000
    C13      C        0.14230    0.85640    0.88090    1.000
    C14      C        0.15080    0.90790    0.92700    1.000
    H5       H        0.23360    0.92710    0.94420    1.000
    C15      C        0.03590    0.93170    0.94810    1.000
    C16      C        0.01720    0.83050    0.85340    1.000
    H6       H        0.01030    0.79820    0.82060    1.000
    C17      C        0.62500    0.63990    0.61040    1.000
    C18      C        0.64360    0.56180    0.63870    1.000
    H7       H        0.64800    0.56610    0.68110    1.000
    H8       H        0.72490    0.53980    0.63030    1.000
    H9       H        0.56950    0.53010    0.62240    1.000
    C19      C        0.59550    0.57960    0.51060    1.000
    H10      H        0.68130    0.56150    0.50440    1.000
    H11      H        0.54470    0.59540    0.47310    1.000
    H12      H        0.54880    0.53960    0.52710    1.000
    C20      C        0.60150    0.71920    0.53070    1.000
    H13      H        0.66980    0.75060    0.55270    1.000
    H14      H        0.51530    0.73910    0.53440    1.000
    H15      H        0.61100    0.71860    0.48930    1.000
    O10      O        0.59270    0.66930    0.64650    1.000
    Zn3      Zn       0.50691    0.30775    0.66684    1.000
    Zn4      Zn       0.32630    0.22506    0.77221    1.000
    O11      O        0.48820    0.19960    0.65258    1.000
    O12      O        0.47460    0.87580    0.76516    1.000
    O13      O        0.42560    0.15210    0.73405    1.000
    O14      O        0.55230    0.80630    0.69739    1.000
    O15      O        0.32700    0.34140    0.62818    1.000
    O16      O        0.23790    0.28340    0.69820    1.000
    O17      O        0.74400    0.29000    0.68603    1.000
    O18      O        0.62290    0.35310    0.61325    1.000
    O19      O        0.33740    0.19240    0.85540    1.000
    N4       N        0.50620    0.97160    0.51648    1.000
    N5       N        0.94720    0.48740    0.50660    1.000
    N6       N        0.38630    0.14580    0.94660    1.000
    C21      C        0.46050    0.14550    0.68380    1.000
    C22      C        0.47280    0.06830    0.65990    1.000
    C23      C        0.48210    0.05970    0.59980    1.000
    H16      H        0.47960    0.10170    0.57490    1.000
    C24      C        0.49540    0.98630    0.57730    1.000
    C25      C        0.50520    0.92520    0.61500    1.000
    H17      H        0.52030    0.87730    0.60030    1.000
    C26      C        0.49310    0.93330    0.67410    1.000
    C27      C        0.47670    0.00540    0.69540    1.000
    H18      H        0.46790    0.01150    0.73530    1.000
    C28      C        0.50650    0.86700    0.71560    1.000
    C29      C        0.23180    0.32370    0.65240    1.000
    C30      C        0.09680    0.35270    0.62500    1.000
    C31      C        0.08790    0.40440    0.57880    1.000
    H19      H        0.16490    0.42100    0.56570    1.000
    C32      C        0.73620    0.33100    0.64180    1.000
    C33      C        0.85770    0.35640    0.61910    1.000
    C34      C        0.84920    0.40790    0.57300    1.000
    H20      H        0.76640    0.42710    0.55580    1.000
    C35      C        0.96410    0.43170    0.55190    1.000
    C36      C        0.98280    0.33050    0.64660    1.000
    H21      H        0.98970    0.29820    0.67940    1.000
    C37      C        0.37500    0.13990    0.88960    1.000
    C38      C        0.35640    0.06180    0.86130    1.000
    H22      H        0.35200    0.06610    0.81890    1.000
    H23      H        0.27510    0.03980    0.86970    1.000
    H24      H        0.43050    0.03010    0.87760    1.000
    C39      C        0.40450    0.07960    0.98940    1.000
    H25      H        0.31870    0.06150    0.99560    1.000
    H26      H        0.45530    0.09540    0.02690    1.000
    H27      H        0.45120    0.03960    0.97290    1.000
    C40      C        0.39850    0.21920    0.96930    1.000
    H28      H        0.33020    0.25060    0.94730    1.000
    H29      H        0.48470    0.23910    0.96560    1.000
    H30      H        0.38900    0.21860    0.01070    1.000
    O20      O        0.40730    0.16930    0.85350    1.000
    Zn5      Zn       0.50691    0.19225    0.16684    1.000
    Zn6      Zn       0.32630    0.27494    0.27221    1.000
    O21      O        0.48820    0.30040    0.15258    1.000
    O22      O        0.47460    0.62420    0.26516    1.000
    O23      O        0.42560    0.34790    0.23405    1.000
    O24      O        0.55230    0.69370    0.19739    1.000
    O25      O        0.32700    0.15860    0.12818    1.000
    O26      O        0.23790    0.21660    0.19820    1.000
    O27      O        0.74400    0.21000    0.18603    1.000
    O28      O        0.62290    0.14690    0.11325    1.000
    O29      O        0.33740    0.30760    0.35540    1.000
    N7       N        0.50620    0.52840    0.01648    1.000
    N8       N        0.94720    0.01260    0.00660    1.000
    N9       N        0.38630    0.35420    0.44660    1.000
    C41      C        0.46050    0.35450    0.18380    1.000
    C42      C        0.47280    0.43170    0.15990    1.000
    C43      C        0.48210    0.44030    0.09980    1.000
    H31      H        0.47960    0.39830    0.07490    1.000
    C44      C        0.49540    0.51370    0.07730    1.000
    C45      C        0.50520    0.57480    0.11500    1.000
    H32      H        0.52030    0.62270    0.10030    1.000
    C46      C        0.49310    0.56670    0.17410    1.000
    C47      C        0.47670    0.49460    0.19540    1.000
    H33      H        0.46790    0.48850    0.23530    1.000
    C48      C        0.50650    0.63300    0.21560    1.000
    C49      C        0.23180    0.17630    0.15240    1.000
    C50      C        0.09680    0.14730    0.12500    1.000
    C51      C        0.08790    0.09560    0.07880    1.000
    H34      H        0.16490    0.07900    0.06570    1.000
    C52      C        0.73620    0.16900    0.14180    1.000
    C53      C        0.85770    0.14360    0.11910    1.000
    C54      C        0.84920    0.09210    0.07300    1.000
    H35      H        0.76640    0.07290    0.05580    1.000
    C55      C        0.96410    0.06830    0.05190    1.000
    C56      C        0.98280    0.16950    0.14660    1.000
    H36      H        0.98970    0.20180    0.17940    1.000
    C57      C        0.37500    0.36010    0.38960    1.000
    C58      C        0.35640    0.43820    0.36130    1.000
    H37      H        0.35200    0.43390    0.31890    1.000
    H38      H        0.27510    0.46020    0.36970    1.000
    H39      H        0.43050    0.46990    0.37760    1.000
    C59      C        0.40450    0.42040    0.48940    1.000
    H40      H        0.31870    0.43850    0.49560    1.000
    H41      H        0.45530    0.40460    0.52690    1.000
    H42      H        0.45120    0.46040    0.47290    1.000
    C60      C        0.39850    0.28080    0.46930    1.000
    H43      H        0.33020    0.24940    0.44730    1.000
    H44      H        0.48470    0.26090    0.46560    1.000
    H45      H        0.38900    0.28140    0.51070    1.000
    O30      O        0.40730    0.33070    0.35350    1.000
    Zn7      Zn       0.49309    0.69225    0.33316    1.000
    Zn8      Zn       0.67370    0.77494    0.22779    1.000
    O31      O        0.51180    0.80040    0.34742    1.000
    O32      O        0.52540    0.12420    0.23484    1.000
    O33      O        0.57440    0.84790    0.26595    1.000
    O34      O        0.44770    0.19370    0.30261    1.000
    O35      O        0.67300    0.65860    0.37182    1.000
    O36      O        0.76210    0.71660    0.30180    1.000
    O37      O        0.25600    0.71000    0.31397    1.000
    O38      O        0.37710    0.64690    0.38675    1.000
    O39      O        0.66260    0.80760    0.14460    1.000
    N10      N        0.49380    0.02840    0.48352    1.000
    N11      N        0.05280    0.51260    0.49340    1.000
    N12      N        0.61370    0.85420    0.05340    1.000
    C61      C        0.53950    0.85450    0.31620    1.000
    C62      C        0.52720    0.93170    0.34010    1.000
    C63      C        0.51790    0.94030    0.40020    1.000
    H46      H        0.52040    0.89830    0.42510    1.000
    C64      C        0.50460    0.01370    0.42270    1.000
    C65      C        0.49480    0.07480    0.38500    1.000
    H47      H        0.47970    0.12270    0.39970    1.000
    C66      C        0.50690    0.06670    0.32590    1.000
    C67      C        0.52330    0.99460    0.30460    1.000
    H48      H        0.53210    0.98850    0.26470    1.000
    C68      C        0.49350    0.13300    0.28440    1.000
    C69      C        0.76820    0.67630    0.34760    1.000
    C70      C        0.90320    0.64730    0.37500    1.000
    C71      C        0.91210    0.59560    0.42120    1.000
    H49      H        0.83510    0.57900    0.43430    1.000
    C72      C        0.26380    0.66900    0.35820    1.000
    C73      C        0.14230    0.64360    0.38090    1.000
    C74      C        0.15080    0.59210    0.42700    1.000
    H50      H        0.23360    0.57290    0.44420    1.000
    C75      C        0.03590    0.56830    0.44810    1.000
    C76      C        0.01720    0.66950    0.35340    1.000
    H51      H        0.01030    0.70180    0.32060    1.000
    C77      C        0.62500    0.86010    0.11040    1.000
    C78      C        0.64360    0.93820    0.13870    1.000
    H52      H        0.64800    0.93390    0.18110    1.000
    H53      H        0.72490    0.96020    0.13030    1.000
    H54      H        0.56950    0.96990    0.12240    1.000
    C79      C        0.59550    0.92040    0.01060    1.000
    H55      H        0.68130    0.93850    0.00440    1.000
    H56      H        0.54470    0.90460    0.97310    1.000
    H57      H        0.54880    0.96040    0.02710    1.000
    C80      C        0.60150    0.78080    0.03070    1.000
    H58      H        0.66980    0.74940    0.05270    1.000
    H59      H        0.51530    0.76090    0.03440    1.000
    H60      H        0.61100    0.78140    0.98930    1.000
    O40      O        0.59270    0.83070    0.14650    1.000
