data_functionalizedCrystal
_audit_creation_method	'EQeq! by Chris Wilmer'
_symmetry_space_group_name_H-M	'P1'
_symmetry_Int_Tables_number	1
_symmetry_cell_setting	triclinic
loop_
_symmetry_equiv_pos_as_xyz
  x,y,z
_cell_length_a	19.81
_cell_length_b	13.153
_cell_length_c	9.806
_cell_angle_alpha	90
_cell_angle_beta	113.196
_cell_angle_gamma	90
loop_
_atom_site_label
_atom_site_type_symbol
_atom_site_fract_x
_atom_site_fract_y
_atom_site_fract_z
_atom_site_charge
Mof_N 	N 	0.43144	0.2854	0.1181	-0.192
Mof_N 	N 	0.39779	0.2684	0.9707	-0.18
Mof_H 	H 	0.4082	0.301	0.9054	0.143
Mof_C 	C 	0.114	0.0527	0.5692	0.527
Mof_C 	C 	0.1909	0.0905	0.6081	-0.181
Mof_C 	C 	0.2319	0.1273	0.7476	0.061
Mof_H 	H 	0.2115	0.1296	0.8183	0.016
Mof_C 	C 	0.3032	0.161	0.7844	-0.08
Mof_C 	C 	0.3322	0.1592	0.6771	0.018
Mof_H 	H 	0.38	0.1817	0.7004	0.048
Mof_C 	C 	0.291	0.1246	0.5362	-0.117
Mof_H 	H 	0.3106	0.1257	0.4642	0.078
Mof_C 	C 	0.2209	0.0882	0.5014	0.078
Mof_H 	H 	0.1938	0.0623	0.4073	0.013
Mof_C 	C 	0.3462	0.195	0.9367	0.14
Mof_C 	C 	0.3464	0.1626	0.0695	-0.182
Mof_H 	H 	0.3169	0.1124	0.0842	0.101
Mof_C 	C 	0.3996	0.2197	0.1777	0.119
Mof_H 	H 	0.4116	0.2131	0.279	-0.013
Mof_O 	O 	0.08108	0.0843	0.647	-0.542
Mof_O 	O 	0.08805	0.9924	0.4629	-0.53
Mof_O 	O 	0.95931	0.8871	0.796	-0.149
Mof_N 	N 	0.93144	0.7854	0.1181	-0.134
Mof_N 	N 	0.89779	0.7684	0.9707	-0.179
Mof_H 	H 	0.9082	0.801	0.9054	0.164
Mof_C 	C 	0.614	0.5527	0.5692	0.569
Mof_C 	C 	0.6909	0.5905	0.6081	-0.201
Mof_C 	C 	0.7319	0.6273	0.7476	0.073
Mof_H 	H 	0.7115	0.6296	0.8183	0.009
Mof_C 	C 	0.8032	0.661	0.7844	-0.078
Mof_C 	C 	0.8322	0.6592	0.6771	0.02
Mof_H 	H 	0.88	0.6817	0.7004	0.076
Mof_C 	C 	0.791	0.6246	0.5362	-0.118
Mof_H 	H 	0.8106	0.6257	0.4642	0.089
Mof_C 	C 	0.7209	0.5882	0.5014	0.092
Mof_H 	H 	0.6938	0.5623	0.4073	0.005
Mof_C 	C 	0.8462	0.695	0.9367	0.147
Mof_C 	C 	0.8464	0.6626	0.0695	-0.167
Mof_H 	H 	0.8169	0.6124	0.0842	0.102
Mof_C 	C 	0.8996	0.7197	0.1777	0.123
Mof_H 	H 	0.9116	0.7131	0.279	0.021
Mof_O 	O 	0.58108	0.5843	0.647	-0.574
Mof_O 	O 	0.58805	0.4924	0.4629	-0.567
Mof_O 	O 	0.45931	0.3871	0.796	-0.286
Mof_N 	N 	0.56856	0.2854	0.3819	-0.195
Mof_N 	N 	0.60221	0.2684	0.5293	-0.18
Mof_H 	H 	0.5918	0.301	0.5946	0.143
Mof_C 	C 	0.886	0.0527	0.9308	0.502
Mof_C 	C 	0.8091	0.0905	0.8919	-0.161
Mof_C 	C 	0.7681	0.1273	0.7524	0.052
Mof_H 	H 	0.7885	0.1296	0.6817	0.02
Mof_C 	C 	0.6968	0.161	0.7156	-0.077
Mof_C 	C 	0.6678	0.1592	0.8229	0.017
Mof_H 	H 	0.62	0.1817	0.7996	0.048
Mof_C 	C 	0.709	0.1246	0.9638	-0.117
Mof_H 	H 	0.6894	0.1257	0.0358	0.081
Mof_C 	C 	0.7791	0.0882	0.9986	0.059
Mof_H 	H 	0.8062	0.0623	0.0927	0.024
Mof_C 	C 	0.6538	0.195	0.5633	0.145
Mof_C 	C 	0.6536	0.1626	0.4305	-0.189
Mof_H 	H 	0.6831	0.1124	0.4158	0.102
Mof_C 	C 	0.6004	0.2197	0.3223	0.121
Mof_H 	H 	0.5884	0.2131	0.221	-0.013
Mof_O 	O 	0.91892	0.0843	0.853	-0.461
Mof_O 	O 	0.91195	0.9924	0.0371	-0.456
Mof_O 	O 	0.04069	0.8871	0.704	-0.282
Mof_N 	N 	0.06856	0.7854	0.3819	-0.196
Mof_N 	N 	0.10221	0.7684	0.5293	-0.184
Mof_H 	H 	0.0918	0.801	0.5946	0.139
Mof_C 	C 	0.386	0.5527	0.9308	0.567
Mof_C 	C 	0.3091	0.5905	0.8919	-0.207
Mof_C 	C 	0.2681	0.6273	0.7524	0.081
Mof_H 	H 	0.2885	0.6296	0.6817	0.007
Mof_C 	C 	0.1968	0.661	0.7156	-0.098
Mof_C 	C 	0.1678	0.6592	0.8229	0.034
Mof_H 	H 	0.12	0.6817	0.7996	0.033
Mof_C 	C 	0.209	0.6246	0.9638	-0.143
Mof_H 	H 	0.1894	0.6257	0.0358	0.083
Mof_C 	C 	0.2791	0.5882	0.9986	0.096
Mof_H 	H 	0.3062	0.5623	0.0927	0.004
Mof_C 	C 	0.1538	0.695	0.5633	0.145
Mof_C 	C 	0.1536	0.6626	0.4305	-0.195
Mof_H 	H 	0.1831	0.6124	0.4158	0.099
Mof_C 	C 	0.1004	0.7197	0.3223	0.108
Mof_H 	H 	0.0884	0.7131	0.221	-0.027
Mof_O 	O 	0.41892	0.5843	0.853	-0.574
Mof_O 	O 	0.41195	0.4924	0.0371	-0.564
Mof_O 	O 	0.54069	0.3871	0.704	-0.285
Mof_N 	N 	0.56856	0.7146	0.8819	-0.197
Mof_N 	N 	0.60221	0.7316	0.0293	-0.179
Mof_H 	H 	0.5918	0.699	0.0946	0.144
Mof_C 	C 	0.886	0.9473	0.4308	0.511
Mof_C 	C 	0.8091	0.9095	0.3919	-0.168
Mof_C 	C 	0.7681	0.8727	0.2524	0.057
Mof_H 	H 	0.7885	0.8704	0.1817	0.018
Mof_C 	C 	0.6968	0.839	0.2156	-0.08
Mof_C 	C 	0.6678	0.8408	0.3229	0.018
Mof_H 	H 	0.62	0.8183	0.2996	0.048
Mof_C 	C 	0.709	0.8754	0.4638	-0.114
Mof_H 	H 	0.6894	0.8743	0.5358	0.076
Mof_C 	C 	0.7791	0.9118	0.4986	0.074
Mof_H 	H 	0.8062	0.9377	0.5927	0.014
Mof_C 	C 	0.6538	0.805	0.0633	0.151
Mof_C 	C 	0.6536	0.8374	0.9305	-0.198
Mof_H 	H 	0.6831	0.8876	0.9158	0.103
Mof_C 	C 	0.6004	0.7803	0.8223	0.124
Mof_H 	H 	0.5884	0.7869	0.721	-0.015
Mof_O 	O 	0.91892	0.9157	0.353	-0.461
Mof_O 	O 	0.91195	0.0076	0.5371	-0.461
Mof_O 	O 	0.04069	0.1129	0.204	-0.28
Mof_N 	N 	0.06856	0.2146	0.8819	-0.198
Mof_N 	N 	0.10221	0.2316	0.0293	-0.183
Mof_H 	H 	0.0918	0.199	0.0946	0.14
Mof_C 	C 	0.386	0.4473	0.4308	0.573
Mof_C 	C 	0.3091	0.4095	0.3919	-0.211
Mof_C 	C 	0.2681	0.3727	0.2524	0.085
Mof_H 	H 	0.2885	0.3704	0.1817	0.006
Mof_C 	C 	0.1968	0.339	0.2156	-0.101
Mof_C 	C 	0.1678	0.3408	0.3229	0.034
Mof_H 	H 	0.12	0.3183	0.2996	0.033
Mof_C 	C 	0.209	0.3754	0.4638	-0.14
Mof_H 	H 	0.1894	0.3743	0.5358	0.079
Mof_C 	C 	0.2791	0.4118	0.4986	0.102
Mof_H 	H 	0.3062	0.4377	0.5927	-0
Mof_C 	C 	0.1538	0.305	0.0633	0.152
Mof_C 	C 	0.1536	0.3374	0.9305	-0.204
Mof_H 	H 	0.1831	0.3876	0.9158	0.101
Mof_C 	C 	0.1004	0.2803	0.8223	0.111
Mof_H 	H 	0.0884	0.2869	0.721	-0.029
Mof_O 	O 	0.41892	0.4157	0.353	-0.575
Mof_O 	O 	0.41195	0.5076	0.5371	-0.568
Mof_O 	O 	0.54069	0.6129	0.204	-0.285
Mof_N 	N 	0.43144	0.7146	0.6181	-0.195
Mof_N 	N 	0.39779	0.7316	0.4707	-0.18
Mof_H 	H 	0.4082	0.699	0.4054	0.143
Mof_C 	C 	0.114	0.9473	0.0692	0.531
Mof_C 	C 	0.1909	0.9095	0.1081	-0.185
Mof_C 	C 	0.2319	0.8727	0.2476	0.064
Mof_H 	H 	0.2115	0.8704	0.3183	0.016
Mof_C 	C 	0.3032	0.839	0.2844	-0.083
Mof_C 	C 	0.3322	0.8408	0.1771	0.019
Mof_H 	H 	0.38	0.8183	0.2004	0.048
Mof_C 	C 	0.291	0.8754	0.0362	-0.115
Mof_H 	H 	0.3106	0.8743	0.9642	0.075
Mof_C 	C 	0.2209	0.9118	0.0014	0.084
Mof_H 	H 	0.1938	0.9377	0.9073	0.008
Mof_C 	C 	0.3462	0.805	0.4367	0.147
Mof_C 	C 	0.3464	0.8374	0.5695	-0.191
Mof_H 	H 	0.3169	0.8876	0.5842	0.103
Mof_C 	C 	0.3996	0.7803	0.6777	0.122
Mof_H 	H 	0.4116	0.7869	0.779	-0.015
Mof_O 	O 	0.08108	0.9157	0.147	-0.542
Mof_O 	O 	0.08805	0.0076	0.9629	-0.533
Mof_O 	O 	0.95931	0.1129	0.296	-0.145
Mof_N 	N 	0.93144	0.2146	0.6181	-0.137
Mof_N 	N 	0.89779	0.2316	0.4707	-0.177
Mof_H 	H 	0.9082	0.199	0.4054	0.165
Mof_C 	C 	0.614	0.4473	0.0692	0.576
Mof_C 	C 	0.6909	0.4095	0.1081	-0.204
Mof_C 	C 	0.7319	0.3727	0.2476	0.076
Mof_H 	H 	0.7115	0.3704	0.3183	0.009
Mof_C 	C 	0.8032	0.339	0.2844	-0.079
Mof_C 	C 	0.8322	0.3408	0.1771	0.018
Mof_H 	H 	0.88	0.3183	0.2004	0.079
Mof_C 	C 	0.791	0.3754	0.0362	-0.108
Mof_H 	H 	0.8106	0.3743	0.9642	0.081
Mof_C 	C 	0.7209	0.4118	0.0014	0.098
Mof_H 	H 	0.6938	0.4377	0.9073	-0
Mof_C 	C 	0.8462	0.305	0.4367	0.156
Mof_C 	C 	0.8464	0.3374	0.5695	-0.179
Mof_H 	H 	0.8169	0.3876	0.5842	0.105
Mof_C 	C 	0.8996	0.2803	0.6777	0.127
Mof_H 	H 	0.9116	0.2869	0.779	0.018
Mof_O 	O 	0.58108	0.4157	0.147	-0.575
Mof_O 	O 	0.58805	0.5076	0.9629	-0.573
Mof_O 	O 	0.45931	0.6129	0.296	-0.285
Mof_Er	Er	1.94024e-33	0.05874	0.75	1.713
Mof_N 	N 	2.4204e-17	0.8366	0.75	0.002
Mof_O 	O 	1.94024e-33	0.7453	0.75	-0.2
Mof_Er	Er	0.5	0.55874	0.75	2.088
Mof_N 	N 	0.5	0.3366	0.75	0.069
Mof_O 	O 	0.5	0.2453	0.75	-0.144
Mof_Er	Er	6.46746e-34	0.94126	0.25	1.711
Mof_N 	N 	6.46746e-34	0.1634	0.25	0.001
Mof_O 	O 	6.46746e-34	0.2547	0.25	-0.198
Mof_Er	Er	0.5	0.44126	0.25	2.089
Mof_N 	N 	0.5	0.6634	0.25	0.07
Mof_O 	O 	0.5	0.7547	0.25	-0.143
_end
