data_functionalizedCrystal
_audit_creation_method	'EQeq! by Chris Wilmer'
_symmetry_space_group_name_H-M	'P1'
_symmetry_Int_Tables_number	1
_symmetry_cell_setting	triclinic
loop_
_symmetry_equiv_pos_as_xyz
  x,y,z
_cell_length_a	24.0431
_cell_length_b	9.0516
_cell_length_c	18.7594
_cell_angle_alpha	90
_cell_angle_beta	114.506
_cell_angle_gamma	90
loop_
_atom_site_label
_atom_site_type_symbol
_atom_site_fract_x
_atom_site_fract_y
_atom_site_fract_z
_atom_site_charge
Mof_Er	Er	0.45715	0.69334	0.50415	1.79
Mof_Co	Co	0.28823	0.50929	0.16219	1.159
Mof_O 	O 	0.4215	0.6274	0.3768	-0.484
Mof_O 	O 	0.3768	0.5388	0.258	-0.431
Mof_O 	O 	0.3912	0.8743	0.445	-0.498
Mof_O 	O 	0.3029	0.9793	0.4256	-0.431
Mof_O 	O 	0.5396	0.8044	0.4816	-0.467
Mof_O 	O 	0.5468	0.5677	0.4961	-0.584
Mof_O 	O 	0.6164	0.3535	0.4592	-0.539
Mof_O 	O 	0.6683	0.3681	0.3873	-0.441
Mof_N 	N 	0.2698	0.6622	0.2305	-0.28
Mof_N 	N 	0.2415	0.8345	0.2937	-0.271
Mof_N 	N 	0.6412	0.823	0.4485	-0.258
Mof_H 	H 	0.6324	0.9081	0.4613	0.157
Mof_N 	N 	0.684	0.6547	0.4045	-0.264
Mof_C 	C 	0.3759	0.6189	0.3113	0.367
Mof_C 	C 	0.3189	0.6982	0.2966	-0.075
Mof_C 	C 	0.3017	0.8017	0.3364	-0.077
Mof_C 	C 	0.3339	0.8906	0.4065	0.376
Mof_C 	C 	0.2248	0.747	0.2311	0.318
Mof_C 	C 	0.1619	0.7467	0.1684	-0.853
Mof_H 	H 	0.1453	0.6486	0.1622	0.264
Mof_H 	H 	0.1628	0.7783	0.1201	0.265
Mof_H 	H 	0.1368	0.8129	0.1823	0.262
Mof_C 	C 	0.5655	0.6862	0.4798	0.371
Mof_C 	C 	0.617	0.6907	0.4568	-0.023
Mof_C 	C 	0.6446	0.588	0.43	-0.1
Mof_C 	C 	0.6419	0.4257	0.4245	0.426
Mof_C 	C 	0.681	0.7971	0.4172	0.349
Mof_C 	C 	0.7166	0.9164	0.4002	-0.895
Mof_H 	H 	0.7583	0.8851	0.4166	0.28
Mof_H 	H 	0.7154	0.0043	0.4281	0.301
Mof_H 	H 	0.6991	0.9363	0.345	0.282
Mof_Er	Er	0.95715	0.19334	0.50415	1.793
Mof_Co	Co	0.78823	0.00929	0.16219	1.159
Mof_O 	O 	0.9215	0.1274	0.3768	-0.483
Mof_O 	O 	0.8768	0.0388	0.258	-0.43
Mof_O 	O 	0.8912	0.3743	0.445	-0.497
Mof_O 	O 	0.8029	0.4793	0.4256	-0.43
Mof_O 	O 	0.0396	0.3044	0.4816	-0.466
Mof_O 	O 	0.0468	0.0677	0.4961	-0.583
Mof_O 	O 	0.1164	0.8535	0.4592	-0.539
Mof_O 	O 	0.1683	0.8681	0.3873	-0.441
Mof_N 	N 	0.7698	0.1622	0.2305	-0.28
Mof_N 	N 	0.7415	0.3345	0.2937	-0.271
Mof_N 	N 	0.1412	0.323	0.4485	-0.258
Mof_H 	H 	0.1324	0.4081	0.4613	0.157
Mof_N 	N 	0.184	0.1547	0.4045	-0.264
Mof_C 	C 	0.8759	0.1189	0.3113	0.367
Mof_C 	C 	0.8189	0.1982	0.2966	-0.075
Mof_C 	C 	0.8017	0.3017	0.3364	-0.077
Mof_C 	C 	0.8339	0.3906	0.4065	0.376
Mof_C 	C 	0.7248	0.247	0.2311	0.316
Mof_C 	C 	0.6619	0.2467	0.1684	-0.847
Mof_H 	H 	0.6453	0.1486	0.1622	0.261
Mof_H 	H 	0.6628	0.2783	0.1201	0.262
Mof_H 	H 	0.6368	0.3129	0.1823	0.259
Mof_C 	C 	0.0655	0.1862	0.4798	0.371
Mof_C 	C 	0.117	0.1907	0.4568	-0.023
Mof_C 	C 	0.1446	0.088	0.43	-0.101
Mof_C 	C 	0.1419	0.9257	0.4245	0.426
Mof_C 	C 	0.181	0.2971	0.4172	0.35
Mof_C 	C 	0.2166	0.4164	0.4002	-0.898
Mof_H 	H 	0.2583	0.3851	0.4166	0.281
Mof_H 	H 	0.2154	0.5043	0.4281	0.302
Mof_H 	H 	0.1991	0.4363	0.345	0.283
Mof_Er	Er	0.54285	0.69334	0.99585	1.789
Mof_Co	Co	0.71177	0.50929	0.33781	1.16
Mof_O 	O 	0.5785	0.6274	0.1232	-0.483
Mof_O 	O 	0.6232	0.5388	0.242	-0.43
Mof_O 	O 	0.6088	0.8743	0.055	-0.496
Mof_O 	O 	0.6971	0.9793	0.0744	-0.429
Mof_O 	O 	0.4604	0.8044	0.0184	-0.465
Mof_O 	O 	0.4532	0.5677	0.0039	-0.583
Mof_O 	O 	0.3836	0.3535	0.0408	-0.538
Mof_O 	O 	0.3317	0.3681	0.1127	-0.441
Mof_N 	N 	0.7302	0.6622	0.2695	-0.28
Mof_N 	N 	0.7585	0.8345	0.2063	-0.271
Mof_N 	N 	0.3588	0.823	0.0515	-0.258
Mof_H 	H 	0.3676	0.9081	0.0387	0.157
Mof_N 	N 	0.316	0.6547	0.0955	-0.263
Mof_C 	C 	0.6241	0.6189	0.1887	0.367
Mof_C 	C 	0.6811	0.6982	0.2034	-0.075
Mof_C 	C 	0.6983	0.8017	0.1636	-0.077
Mof_C 	C 	0.6661	0.8906	0.0935	0.375
Mof_C 	C 	0.7752	0.747	0.2689	0.317
Mof_C 	C 	0.8381	0.7467	0.3316	-0.85
Mof_H 	H 	0.8547	0.6486	0.3378	0.263
Mof_H 	H 	0.8372	0.7783	0.3799	0.263
Mof_H 	H 	0.8632	0.8129	0.3177	0.26
Mof_C 	C 	0.4345	0.6862	0.0202	0.371
Mof_C 	C 	0.383	0.6907	0.0432	-0.023
Mof_C 	C 	0.3554	0.588	0.07	-0.1
Mof_C 	C 	0.3581	0.4257	0.0755	0.426
Mof_C 	C 	0.319	0.7971	0.0828	0.349
Mof_C 	C 	0.2834	0.9164	0.0998	-0.889
Mof_H 	H 	0.2417	0.8851	0.0834	0.279
Mof_H 	H 	0.2846	0.0043	0.0719	0.298
Mof_H 	H 	0.3009	0.9363	0.155	0.28
Mof_Er	Er	0.04285	0.19334	0.99585	1.793
Mof_Co	Co	0.21177	0.00929	0.33781	1.159
Mof_O 	O 	0.0785	0.1274	0.1232	-0.482
Mof_O 	O 	0.1232	0.0388	0.242	-0.43
Mof_O 	O 	0.1088	0.3743	0.055	-0.496
Mof_O 	O 	0.1971	0.4793	0.0744	-0.429
Mof_O 	O 	0.9604	0.3044	0.0184	-0.467
Mof_O 	O 	0.9532	0.0677	0.0039	-0.585
Mof_O 	O 	0.8836	0.8535	0.0408	-0.539
Mof_O 	O 	0.8317	0.8681	0.1127	-0.441
Mof_N 	N 	0.2302	0.1622	0.2695	-0.28
Mof_N 	N 	0.2585	0.3345	0.2063	-0.271
Mof_N 	N 	0.8588	0.323	0.0515	-0.258
Mof_H 	H 	0.8676	0.4081	0.0387	0.156
Mof_N 	N 	0.816	0.1547	0.0955	-0.264
Mof_C 	C 	0.1241	0.1189	0.1887	0.367
Mof_C 	C 	0.1811	0.1982	0.2034	-0.075
Mof_C 	C 	0.1983	0.3017	0.1636	-0.077
Mof_C 	C 	0.1661	0.3906	0.0935	0.375
Mof_C 	C 	0.2752	0.247	0.2689	0.316
Mof_C 	C 	0.3381	0.2467	0.3316	-0.848
Mof_H 	H 	0.3547	0.1486	0.3378	0.262
Mof_H 	H 	0.3372	0.2783	0.3799	0.263
Mof_H 	H 	0.3632	0.3129	0.3177	0.26
Mof_C 	C 	0.9345	0.1862	0.0202	0.37
Mof_C 	C 	0.883	0.1907	0.0432	-0.023
Mof_C 	C 	0.8554	0.088	0.07	-0.103
Mof_C 	C 	0.8581	0.9257	0.0755	0.428
Mof_C 	C 	0.819	0.2971	0.0828	0.349
Mof_C 	C 	0.7834	0.4164	0.0998	-0.897
Mof_H 	H 	0.7417	0.3851	0.0834	0.28
Mof_H 	H 	0.7846	0.5043	0.0719	0.302
Mof_H 	H 	0.8009	0.4363	0.155	0.282
Mof_Er	Er	0.54285	0.30666	0.49585	1.791
Mof_Co	Co	0.71177	0.49071	0.83781	1.16
Mof_O 	O 	0.5785	0.3726	0.6232	-0.483
Mof_O 	O 	0.6232	0.4612	0.742	-0.43
Mof_O 	O 	0.6088	0.1257	0.555	-0.497
Mof_O 	O 	0.6971	0.0207	0.5744	-0.43
Mof_O 	O 	0.4604	0.1956	0.5184	-0.466
Mof_O 	O 	0.4532	0.4323	0.5039	-0.583
Mof_O 	O 	0.3836	0.6465	0.5408	-0.539
Mof_O 	O 	0.3317	0.6319	0.6127	-0.441
Mof_N 	N 	0.7302	0.3378	0.7695	-0.28
Mof_N 	N 	0.7585	0.1655	0.7063	-0.271
Mof_N 	N 	0.3588	0.177	0.5515	-0.258
Mof_H 	H 	0.3676	0.0919	0.5387	0.157
Mof_N 	N 	0.316	0.3453	0.5955	-0.264
Mof_C 	C 	0.6241	0.3811	0.6887	0.367
Mof_C 	C 	0.6811	0.3018	0.7034	-0.075
Mof_C 	C 	0.6983	0.1983	0.6636	-0.077
Mof_C 	C 	0.6661	0.1094	0.5935	0.376
Mof_C 	C 	0.7752	0.253	0.7689	0.318
Mof_C 	C 	0.8381	0.2533	0.8316	-0.853
Mof_H 	H 	0.8547	0.3514	0.8378	0.264
Mof_H 	H 	0.8372	0.2217	0.8799	0.265
Mof_H 	H 	0.8632	0.1871	0.8177	0.262
Mof_C 	C 	0.4345	0.3138	0.5202	0.371
Mof_C 	C 	0.383	0.3093	0.5432	-0.023
Mof_C 	C 	0.3554	0.412	0.57	-0.1
Mof_C 	C 	0.3581	0.5743	0.5755	0.426
Mof_C 	C 	0.319	0.2029	0.5828	0.349
Mof_C 	C 	0.2834	0.0836	0.5998	-0.895
Mof_H 	H 	0.2417	0.1149	0.5834	0.28
Mof_H 	H 	0.2846	0.9957	0.5719	0.301
Mof_H 	H 	0.3009	0.0637	0.655	0.282
Mof_Er	Er	0.04285	0.80666	0.49585	1.793
Mof_Co	Co	0.21177	0.99071	0.83781	1.159
Mof_O 	O 	0.0785	0.8726	0.6232	-0.483
Mof_O 	O 	0.1232	0.9612	0.742	-0.43
Mof_O 	O 	0.1088	0.6257	0.555	-0.497
Mof_O 	O 	0.1971	0.5207	0.5744	-0.43
Mof_O 	O 	0.9604	0.6956	0.5184	-0.466
Mof_O 	O 	0.9532	0.9323	0.5039	-0.583
Mof_O 	O 	0.8836	0.1465	0.5408	-0.539
Mof_O 	O 	0.8317	0.1319	0.6127	-0.441
Mof_N 	N 	0.2302	0.8378	0.7695	-0.28
Mof_N 	N 	0.2585	0.6655	0.7063	-0.271
Mof_N 	N 	0.8588	0.677	0.5515	-0.258
Mof_H 	H 	0.8676	0.5919	0.5387	0.157
Mof_N 	N 	0.816	0.8453	0.5955	-0.264
Mof_C 	C 	0.1241	0.8811	0.6887	0.367
Mof_C 	C 	0.1811	0.8018	0.7034	-0.075
Mof_C 	C 	0.1983	0.6983	0.6636	-0.077
Mof_C 	C 	0.1661	0.6094	0.5935	0.376
Mof_C 	C 	0.2752	0.753	0.7689	0.316
Mof_C 	C 	0.3381	0.7533	0.8316	-0.847
Mof_H 	H 	0.3547	0.8514	0.8378	0.261
Mof_H 	H 	0.3372	0.7217	0.8799	0.262
Mof_H 	H 	0.3632	0.6871	0.8177	0.259
Mof_C 	C 	0.9345	0.8138	0.5202	0.371
Mof_C 	C 	0.883	0.8093	0.5432	-0.023
Mof_C 	C 	0.8554	0.912	0.57	-0.101
Mof_C 	C 	0.8581	0.0743	0.5755	0.426
Mof_C 	C 	0.819	0.7029	0.5828	0.35
Mof_C 	C 	0.7834	0.5836	0.5998	-0.898
Mof_H 	H 	0.7417	0.6149	0.5834	0.281
Mof_H 	H 	0.7846	0.4957	0.5719	0.302
Mof_H 	H 	0.8009	0.5637	0.655	0.283
Mof_Er	Er	0.45715	0.30666	0.00415	1.789
Mof_Co	Co	0.28823	0.49071	0.66219	1.16
Mof_O 	O 	0.4215	0.3726	0.8768	-0.483
Mof_O 	O 	0.3768	0.4612	0.758	-0.43
Mof_O 	O 	0.3912	0.1257	0.945	-0.496
Mof_O 	O 	0.3029	0.0207	0.9256	-0.429
Mof_O 	O 	0.5396	0.1956	0.9816	-0.465
Mof_O 	O 	0.5468	0.4323	0.9961	-0.583
Mof_O 	O 	0.6164	0.6465	0.9592	-0.538
Mof_O 	O 	0.6683	0.6319	0.8873	-0.441
Mof_N 	N 	0.2698	0.3378	0.7305	-0.28
Mof_N 	N 	0.2415	0.1655	0.7937	-0.271
Mof_N 	N 	0.6412	0.177	0.9485	-0.258
Mof_H 	H 	0.6324	0.0919	0.9613	0.157
Mof_N 	N 	0.684	0.3453	0.9045	-0.263
Mof_C 	C 	0.3759	0.3811	0.8113	0.367
Mof_C 	C 	0.3189	0.3018	0.7966	-0.075
Mof_C 	C 	0.3017	0.1983	0.8364	-0.077
Mof_C 	C 	0.3339	0.1094	0.9065	0.375
Mof_C 	C 	0.2248	0.253	0.7311	0.317
Mof_C 	C 	0.1619	0.2533	0.6684	-0.85
Mof_H 	H 	0.1453	0.3514	0.6622	0.263
Mof_H 	H 	0.1628	0.2217	0.6201	0.263
Mof_H 	H 	0.1368	0.1871	0.6823	0.26
Mof_C 	C 	0.5655	0.3138	0.9798	0.371
Mof_C 	C 	0.617	0.3093	0.9568	-0.023
Mof_C 	C 	0.6446	0.412	0.93	-0.1
Mof_C 	C 	0.6419	0.5743	0.9245	0.426
Mof_C 	C 	0.681	0.2029	0.9172	0.349
Mof_C 	C 	0.7166	0.0836	0.9002	-0.889
Mof_H 	H 	0.7583	0.1149	0.9166	0.279
Mof_H 	H 	0.7154	0.9957	0.9281	0.298
Mof_H 	H 	0.6991	0.0637	0.845	0.28
Mof_Er	Er	0.95715	0.80666	0.00415	1.793
Mof_Co	Co	0.78823	0.99071	0.66219	1.159
Mof_O 	O 	0.9215	0.8726	0.8768	-0.482
Mof_O 	O 	0.8768	0.9612	0.758	-0.43
Mof_O 	O 	0.8912	0.6257	0.945	-0.496
Mof_O 	O 	0.8029	0.5207	0.9256	-0.429
Mof_O 	O 	0.0396	0.6956	0.9816	-0.467
Mof_O 	O 	0.0468	0.9323	0.9961	-0.585
Mof_O 	O 	0.1164	0.1465	0.9592	-0.539
Mof_O 	O 	0.1683	0.1319	0.8873	-0.441
Mof_N 	N 	0.7698	0.8378	0.7305	-0.28
Mof_N 	N 	0.7415	0.6655	0.7937	-0.271
Mof_N 	N 	0.1412	0.677	0.9485	-0.258
Mof_H 	H 	0.1324	0.5919	0.9613	0.156
Mof_N 	N 	0.184	0.8453	0.9045	-0.264
Mof_C 	C 	0.8759	0.8811	0.8113	0.367
Mof_C 	C 	0.8189	0.8018	0.7966	-0.075
Mof_C 	C 	0.8017	0.6983	0.8364	-0.077
Mof_C 	C 	0.8339	0.6094	0.9065	0.375
Mof_C 	C 	0.7248	0.753	0.7311	0.316
Mof_C 	C 	0.6619	0.7533	0.6684	-0.848
Mof_H 	H 	0.6453	0.8514	0.6622	0.262
Mof_H 	H 	0.6628	0.7217	0.6201	0.263
Mof_H 	H 	0.6368	0.6871	0.6823	0.26
Mof_C 	C 	0.0655	0.8138	0.9798	0.37
Mof_C 	C 	0.117	0.8093	0.9568	-0.023
Mof_C 	C 	0.1446	0.912	0.93	-0.103
Mof_C 	C 	0.1419	0.0743	0.9245	0.428
Mof_C 	C 	0.181	0.7029	0.9172	0.349
Mof_C 	C 	0.2166	0.5836	0.9002	-0.897
Mof_H 	H 	0.2583	0.6149	0.9166	0.28
Mof_H 	H 	0.2154	0.4957	0.9281	0.302
Mof_H 	H 	0.1991	0.5637	0.845	0.282
_end
