# CIF file generated by openbabel 3.1.0, see https://openbabel.org
data_I
_chemical_name_common 'image0'
_cell_length_a 12.989
_cell_length_b 13.8218
_cell_length_c 9.2766
_cell_angle_alpha 90
_cell_angle_beta 124.43
_cell_angle_gamma 90
_space_group_name_H-M_alt 'P 1'
_space_group_name_Hall 'P 1'
loop_
    _symmetry_equiv_pos_as_xyz
    x,y,z
loop_
    _atom_site_label
    _atom_site_type_symbol
    _atom_site_fract_x
    _atom_site_fract_y
    _atom_site_fract_z
    _atom_site_occupancy
    Zn1      Zn       0.72046    0.84978    0.38318    1.000
    N1       N        0.36740    0.73360    0.04390    1.000
    N2       N        0.54560    0.80060    0.23240    1.000
    N3       N        0.81540    0.96650    0.85350    1.000
    N4       N        0.72560    0.92820    0.58020    1.000
    N5       N        0.81160    0.90230    0.74880    1.000
    N6       N        0.34980    0.83230    0.04690    1.000
    C1       C        0.48510    0.71670    0.15720    1.000
    C2       C        0.68150    0.01280    0.59150    1.000
    N7       N        0.73500    0.03950    0.75670    1.000
    C3       C        0.54620    0.61980    0.19930    1.000
    H1       H        0.48490    0.57140    0.12820    1.000
    H2       H        0.58340    0.60540    0.32050    1.000
    H3       H        0.60960    0.62020    0.17630    1.000
    C4       C        0.58230    0.06960    0.43340    1.000
    H4       H        0.55940    0.03570    0.32890    1.000
    H5       H        0.61440    0.13230    0.43410    1.000
    H6       H        0.51030    0.07690    0.43680    1.000
    N8       N        0.45630    0.87130    0.16120    1.000
    Zn2      Zn       0.22046    0.34978    0.38318    1.000
    N9       N        0.86740    0.23360    0.04390    1.000
    N10      N        0.04560    0.30060    0.23240    1.000
    N11      N        0.31540    0.46650    0.85350    1.000
    N12      N        0.22560    0.42820    0.58020    1.000
    N13      N        0.31160    0.40230    0.74880    1.000
    N14      N        0.84980    0.33230    0.04690    1.000
    C5       C        0.98510    0.21670    0.15720    1.000
    C6       C        0.18150    0.51280    0.59150    1.000
    N15      N        0.23500    0.53950    0.75670    1.000
    C7       C        0.04620    0.11980    0.19930    1.000
    H7       H        0.98490    0.07140    0.12820    1.000
    H8       H        0.08340    0.10540    0.32050    1.000
    H9       H        0.10960    0.12020    0.17630    1.000
    C8       C        0.08230    0.56960    0.43340    1.000
    H10      H        0.05940    0.53570    0.32890    1.000
    H11      H        0.11440    0.63230    0.43410    1.000
    H12      H        0.01030    0.57690    0.43680    1.000
    N16      N        0.95630    0.37130    0.16120    1.000
    Zn3      Zn       0.72046    0.15022    0.88318    1.000
    N17      N        0.36740    0.26640    0.54390    1.000
    N18      N        0.54560    0.19940    0.73240    1.000
    N19      N        0.81540    0.03350    0.35350    1.000
    N20      N        0.72560    0.07180    0.08020    1.000
    N21      N        0.81160    0.09770    0.24880    1.000
    N22      N        0.34980    0.16770    0.54690    1.000
    C9       C        0.48510    0.28330    0.65720    1.000
    C10      C        0.68150    0.98720    0.09150    1.000
    N23      N        0.73500    0.96050    0.25670    1.000
    C11      C        0.54620    0.38020    0.69930    1.000
    H13      H        0.48490    0.42860    0.62820    1.000
    H14      H        0.58340    0.39460    0.82050    1.000
    H15      H        0.60960    0.37980    0.67630    1.000
    C12      C        0.58230    0.93040    0.93340    1.000
    H16      H        0.55940    0.96430    0.82890    1.000
    H17      H        0.61440    0.86770    0.93410    1.000
    H18      H        0.51030    0.92310    0.93680    1.000
    N24      N        0.45630    0.12870    0.66120    1.000
    Zn4      Zn       0.22046    0.65022    0.88318    1.000
    N25      N        0.86740    0.76640    0.54390    1.000
    N26      N        0.04560    0.69940    0.73240    1.000
    N27      N        0.31540    0.53350    0.35350    1.000
    N28      N        0.22560    0.57180    0.08020    1.000
    N29      N        0.31160    0.59770    0.24880    1.000
    N30      N        0.84980    0.66770    0.54690    1.000
    C13      C        0.98510    0.78330    0.65720    1.000
    C14      C        0.18150    0.48720    0.09150    1.000
    N31      N        0.23500    0.46050    0.25670    1.000
    C15      C        0.04620    0.88020    0.69930    1.000
    H19      H        0.98490    0.92860    0.62820    1.000
    H20      H        0.08340    0.89460    0.82050    1.000
    H21      H        0.10960    0.87980    0.67630    1.000
    C16      C        0.08230    0.43040    0.93340    1.000
    H22      H        0.05940    0.46430    0.82890    1.000
    H23      H        0.11440    0.36770    0.93410    1.000
    H24      H        0.01030    0.42310    0.93680    1.000
    N32      N        0.95630    0.62870    0.66120    1.000
