# CIF file generated by openbabel 3.1.0, see https://openbabel.org
data_I
_chemical_name_common 'image0'
_cell_length_a 9.2164
_cell_length_b 10.2248
_cell_length_c 12.6094
_cell_angle_alpha 98.098
_cell_angle_beta 106.227
_cell_angle_gamma 106.147
_space_group_name_H-M_alt 'P 1'
_space_group_name_Hall 'P 1'
loop_
    _symmetry_equiv_pos_as_xyz
    x,y,z
loop_
    _atom_site_label
    _atom_site_type_symbol
    _atom_site_fract_x
    _atom_site_fract_y
    _atom_site_fract_z
    _atom_site_occupancy
    Al1      Al       0.51309    0.19975    0.21989    1.000
    Al2      Al       0.21272    0.90005    0.48137    1.000
    Al3      Al       0.50107    0.70758    0.22639    1.000
    Al4      Al       0.78207    0.59730    0.51514    1.000
    O1       O        0.47990    0.19050    0.07516    1.000
    O2       O        0.33520    0.33350    0.98154    1.000
    H1       H        0.34100    0.40100    0.95100    1.000
    O3       O        0.63090    0.44590    0.10015    1.000
    O4       O        0.27660    0.95330    0.36684    1.000
    O5       O        0.43340    0.82170    0.29889    1.000
    O6       O        0.57790    0.06230    0.42891    1.000
    O7       O        0.72440    0.57530    0.63765    1.000
    O8       O        0.40690    0.03450    0.23094    1.000
    O9       O        0.54630    0.27590    0.91358    1.000
    O10      O        0.16190    0.72430    0.49898    1.000
    O11      O        0.70770    0.74910    0.28435    1.000
    O12      O        0.82850    0.77290    0.49465    1.000
    O13      O        0.28310    0.75720    0.71128    1.000
    O14      O        0.99370    0.64700    0.62148    1.000
    O15      O        0.00010    0.84990    0.37374    1.000
    O16      O        0.56810    0.68300    0.72679    1.000
    O17      O        0.17460    0.51940    0.58165    1.000
    O18      O        0.82790    0.98490    0.41858    1.000
    O19      O        0.42620    0.45440    0.57799    1.000
    O20      O        0.60470    0.46060    0.76782    1.000
    P1       P        0.50413    0.31559    0.01993    1.000
    P2       P        0.15230    0.66154    0.60088    1.000
    P3       P        0.57582    0.54145    0.67439    1.000
    P4       P        0.42842    0.96869    0.33447    1.000
    P5       P        0.84208    0.83939    0.39487    1.000
    Al5      Al       0.48691    0.80025    0.78011    1.000
    Al6      Al       0.78728    0.09995    0.51863    1.000
    Al7      Al       0.49893    0.29242    0.77361    1.000
    Al8      Al       0.21793    0.40270    0.48486    1.000
    O21      O        0.52010    0.80950    0.92484    1.000
    O22      O        0.66480    0.66650    0.01846    1.000
    H2       H        0.65900    0.59900    0.04900    1.000
    O23      O        0.36910    0.55410    0.89985    1.000
    O24      O        0.72340    0.04670    0.63316    1.000
    O25      O        0.56660    0.17830    0.70111    1.000
    O26      O        0.42210    0.93770    0.57109    1.000
    O27      O        0.27560    0.42470    0.36235    1.000
    O28      O        0.59310    0.96550    0.76906    1.000
    O29      O        0.45370    0.72410    0.08642    1.000
    O30      O        0.83810    0.27570    0.50102    1.000
    O31      O        0.29230    0.25090    0.71565    1.000
    O32      O        0.17150    0.22710    0.50535    1.000
    O33      O        0.71690    0.24280    0.28872    1.000
    O34      O        0.00630    0.35300    0.37852    1.000
    O35      O        0.99990    0.15010    0.62626    1.000
    O36      O        0.43190    0.31700    0.27321    1.000
    O37      O        0.82540    0.48060    0.41835    1.000
    O38      O        0.17210    0.01510    0.58142    1.000
    O39      O        0.57380    0.54560    0.42201    1.000
    O40      O        0.39530    0.53940    0.23218    1.000
    P6       P        0.49587    0.68441    0.98007    1.000
    P7       P        0.84770    0.33846    0.39912    1.000
    P8       P        0.42418    0.45855    0.32561    1.000
    P9       P        0.57158    0.03131    0.66553    1.000
    P10      P        0.15792    0.16061    0.60513    1.000
