data_functionalizedCrystal
_audit_creation_method	'EQeq! by Chris Wilmer'
_symmetry_space_group_name_H-M	'P1'
_symmetry_Int_Tables_number	1
_symmetry_cell_setting	triclinic
loop_
_symmetry_equiv_pos_as_xyz
  x,y,z
_cell_length_a	18.912
_cell_length_b	7.5956
_cell_length_c	13.8924
_cell_angle_alpha	90
_cell_angle_beta	90
_cell_angle_gamma	90
loop_
_atom_site_label
_atom_site_type_symbol
_atom_site_fract_x
_atom_site_fract_y
_atom_site_fract_z
_atom_site_charge
Mof_N 	N 	0.5751	0.3413	0.3973	-0.107
Mof_N 	N 	0.9085	0.3414	0.0748	-0.098
Mof_H 	H 	0.6963	0.3546	0.1706	0.054
Mof_H 	H 	0.7826	0.3544	0.2944	0.066
Mof_C 	C 	0.6198	0.3896	0.3319	0.101
Mof_H 	H 	0.6297	0.5074	0.3162	0.019
Mof_C 	C 	0.8616	0.3917	0.1377	0.096
Mof_H 	H 	0.8512	0.5095	0.1527	0.023
Mof_N 	N 	0.9249	0.6587	0.8973	-0.082
Mof_N 	N 	0.5915	0.6586	0.5748	-0.105
Mof_H 	H 	0.8037	0.6454	0.6706	0.063
Mof_H 	H 	0.7174	0.6456	0.7944	0.068
Mof_C 	C 	0.8802	0.6104	0.8319	0.109
Mof_H 	H 	0.8703	0.4926	0.8162	0.03
Mof_C 	C 	0.6384	0.6083	0.6377	0.1
Mof_H 	H 	0.6488	0.4905	0.6527	0.023
Mof_N 	N 	0.4249	0.8413	0.6027	-0.108
Mof_N 	N 	0.0915	0.8414	0.9252	-0.094
Mof_H 	H 	0.3037	0.8546	0.8294	0.074
Mof_H 	H 	0.2174	0.8544	0.7056	0.06
Mof_C 	C 	0.3802	0.8896	0.6681	0.139
Mof_H 	H 	0.3703	0.0074	0.6838	-0.004
Mof_C 	C 	0.1384	0.8917	0.8623	0.135
Mof_H 	H 	0.1488	0.0095	0.8473	0.002
Mof_N 	N 	0.0751	0.1587	0.1027	-0.11
Mof_N 	N 	0.4085	0.1586	0.4252	-0.103
Mof_H 	H 	0.1963	0.1454	0.3294	0.054
Mof_H 	H 	0.2826	0.1456	0.2056	0.048
Mof_C 	C 	0.1198	0.1104	0.1681	0.056
Mof_H 	H 	0.1297	0.9926	0.1838	0.041
Mof_C 	C 	0.3616	0.1083	0.3623	0.059
Mof_H 	H 	0.3512	0.9905	0.3473	0.046
Mof_N 	N 	0.4249	0.6587	0.6027	-0.107
Mof_N 	N 	0.0915	0.6586	0.9252	-0.093
Mof_H 	H 	0.3037	0.6454	0.8294	0.069
Mof_H 	H 	0.2174	0.6456	0.7056	0.056
Mof_C 	C 	0.3802	0.6104	0.6681	0.103
Mof_H 	H 	0.3703	0.4926	0.6838	0.021
Mof_C 	C 	0.1384	0.6083	0.8623	0.1
Mof_H 	H 	0.1488	0.4905	0.8473	0.025
Mof_N 	N 	0.0751	0.3413	0.1027	-0.115
Mof_N 	N 	0.4085	0.3414	0.4252	-0.107
Mof_H 	H 	0.1963	0.3546	0.3294	0.059
Mof_H 	H 	0.2826	0.3544	0.2056	0.053
Mof_C 	C 	0.1198	0.3896	0.1681	0.094
Mof_H 	H 	0.1297	0.5074	0.1838	0.014
Mof_C 	C 	0.3616	0.3917	0.3623	0.096
Mof_H 	H 	0.3512	0.5095	0.3473	0.02
Mof_N 	N 	0.5751	0.1587	0.3973	-0.104
Mof_N 	N 	0.9085	0.1586	0.0748	-0.094
Mof_H 	H 	0.6963	0.1454	0.1706	0.049
Mof_H 	H 	0.7826	0.1456	0.2944	0.06
Mof_C 	C 	0.6198	0.1104	0.3319	0.064
Mof_H 	H 	0.6297	0.9926	0.3162	0.046
Mof_C 	C 	0.8616	0.1083	0.1377	0.059
Mof_H 	H 	0.8512	0.9905	0.1527	0.049
Mof_N 	N 	0.9249	0.8413	0.8973	-0.083
Mof_N 	N 	0.5915	0.8414	0.5748	-0.107
Mof_H 	H 	0.8037	0.8546	0.6706	0.068
Mof_H 	H 	0.7174	0.8544	0.7944	0.072
Mof_C 	C 	0.8802	0.8896	0.8319	0.144
Mof_H 	H 	0.8703	0.0074	0.8162	0.006
Mof_C 	C 	0.6384	0.8917	0.6377	0.136
Mof_H 	H 	0.6488	0.0095	0.6527	-0.002
Mof_Cd	Cd	0.5	0.5	0.5	0.454
Mof_Cd	Cd	1.58119e-33	0.5	-0	0.373
Mof_Cd	Cd	0.5	0	0.5	0.434
Mof_Cd	Cd	-0	0	-0	0.354
Mof_Cl	Cl	0.50925	0.25	0.62795	-0.379
Mof_N 	N 	0.6503	0.25	0.2893	-0.127
Mof_N 	N 	0.8301	0.25	0.1785	-0.121
Mof_C 	C 	0.7027	0.25	0.211	-0.052
Mof_C 	C 	0.7765	0.25	0.2537	-0.062
Mof_Cl	Cl	0.99075	0.75	0.12795	-0.33
Mof_N 	N 	0.8497	0.75	0.7893	-0.133
Mof_N 	N 	0.6699	0.75	0.6785	-0.131
Mof_C 	C 	0.7973	0.75	0.711	-0.052
Mof_C 	C 	0.7235	0.75	0.7537	-0.057
Mof_Cl	Cl	0.49075	0.75	0.37205	-0.374
Mof_N 	N 	0.3497	0.75	0.7107	-0.133
Mof_N 	N 	0.1699	0.75	0.8215	-0.133
Mof_C 	C 	0.2973	0.75	0.789	-0.063
Mof_C 	C 	0.2235	0.75	0.7463	-0.044
Mof_Cl	Cl	0.00925	0.25	0.87205	-0.368
Mof_N 	N 	0.1503	0.25	0.2107	-0.126
Mof_N 	N 	0.3301	0.25	0.3215	-0.124
Mof_C 	C 	0.2027	0.25	0.289	-0.062
Mof_C 	C 	0.2765	0.25	0.2463	-0.05
_end
