# CIF file generated by openbabel 3.1.0, see https://openbabel.org
data_I
_chemical_name_common 'image0'
_cell_length_a 14.271
_cell_length_b 14.432
_cell_length_c 22.549
_cell_angle_alpha 90
_cell_angle_beta 99.86
_cell_angle_gamma 90
_space_group_name_H-M_alt 'P 1'
_space_group_name_Hall 'P 1'
loop_
    _symmetry_equiv_pos_as_xyz
    x,y,z
loop_
    _atom_site_label
    _atom_site_type_symbol
    _atom_site_fract_x
    _atom_site_fract_y
    _atom_site_fract_z
    _atom_site_occupancy
    Cd1      Cd       0.24488    0.25411    0.25854    1.000
    Cd2      Cd       0.31621    0.37472    0.13894    1.000
    C1       C        0.86710    0.63410    0.19727    1.000
    C2       C        0.93100    0.57250    0.16812    1.000
    C3       C        0.99710    0.51450    0.20175    1.000
    H1       H        0.00290    0.51310    0.24350    1.000
    C4       C        0.05440    0.45870    0.17307    1.000
    C5       C        0.04820    0.46370    0.11038    1.000
    H2       H        0.08850    0.42810    0.09130    1.000
    C6       C        0.98230    0.52130    0.07732    1.000
    C7       C        0.92320    0.57570    0.10586    1.000
    H3       H        0.87850    0.61430    0.08330    1.000
    C8       C        0.12360    0.39300    0.20837    1.000
    C9       C        0.98250    0.54870    0.01180    1.000
    H4       H        0.90480    0.51080    0.99240    1.000
    H5       H        0.97020    0.59920    0.99920    1.000
    C10      C        0.39500    0.40300    0.28642    1.000
    C11      C        0.45990    0.46820    0.32583    1.000
    C12      C        0.46440    0.46670    0.38819    1.000
    H6       H        0.42900    0.42340    0.40560    1.000
    C13      C        0.52140    0.52950    0.42413    1.000
    C14      C        0.57630    0.59200    0.39900    1.000
    H7       H        0.61510    0.63380    0.42330    1.000
    C15      C        0.57340    0.59210    0.33734    1.000
    C16      C        0.51550    0.53100    0.30074    1.000
    H8       H        0.51390    0.53190    0.25930    1.000
    C17      C        0.63550    0.65810    0.30990    1.000
    C18      C        0.53140    0.54710    0.49120    1.000
    H9       H        0.59710    0.54000    0.51070    1.000
    H10      H        0.51050    0.60930    0.49880    1.000
    O1       O        0.87810    0.63790    0.25392    1.000
    O2       O        0.80605    0.68110    0.16386    1.000
    O3       O        0.12190    0.37870    0.26221    1.000
    O4       O        0.18024    0.34882    0.17993    1.000
    O5       O        0.34960    0.34630    0.31252    1.000
    O6       O        0.39190    0.40970    0.23121    1.000
    O7       O        0.64160    0.64920    0.25610    1.000
    O8       O        0.67880    0.71960    0.34420    1.000
    O9       O        0.52660    0.51940    0.48720    1.000
    O10      O        0.96380    0.51660    0.01530    1.000
    Cd3      Cd       0.75512    0.75411    0.24146    1.000
    Cd4      Cd       0.68379    0.87472    0.36106    1.000
    C19      C        0.13290    0.13410    0.30273    1.000
    C20      C        0.06900    0.07250    0.33188    1.000
    C21      C        0.00290    0.01450    0.29825    1.000
    H11      H        0.99710    0.01310    0.25650    1.000
    C22      C        0.94560    0.95870    0.32693    1.000
    C23      C        0.95180    0.96370    0.38962    1.000
    H12      H        0.91150    0.92810    0.40870    1.000
    C24      C        0.01770    0.02130    0.42268    1.000
    C25      C        0.07680    0.07570    0.39414    1.000
    H13      H        0.12150    0.11430    0.41670    1.000
    C26      C        0.87640    0.89300    0.29163    1.000
    C27      C        0.01750    0.04870    0.48820    1.000
    H14      H        0.09520    0.01080    0.50760    1.000
    H15      H        0.02980    0.09920    0.50080    1.000
    C28      C        0.60500    0.90300    0.21358    1.000
    C29      C        0.54010    0.96820    0.17417    1.000
    C30      C        0.53560    0.96670    0.11181    1.000
    H16      H        0.57100    0.92340    0.09440    1.000
    C31      C        0.47860    0.02950    0.07587    1.000
    C32      C        0.42370    0.09200    0.10100    1.000
    H17      H        0.38490    0.13380    0.07670    1.000
    C33      C        0.42660    0.09210    0.16266    1.000
    C34      C        0.48450    0.03100    0.19926    1.000
    H18      H        0.48610    0.03190    0.24070    1.000
    C35      C        0.36450    0.15810    0.19010    1.000
    C36      C        0.46860    0.04710    0.00880    1.000
    H19      H        0.40290    0.04000    0.98930    1.000
    H20      H        0.48950    0.10930    0.00120    1.000
    O11      O        0.12190    0.13790    0.24608    1.000
    O12      O        0.19395    0.18110    0.33614    1.000
    O13      O        0.87810    0.87870    0.23779    1.000
    O14      O        0.81976    0.84882    0.32007    1.000
    O15      O        0.65040    0.84630    0.18748    1.000
    O16      O        0.60810    0.90970    0.26879    1.000
    O17      O        0.35840    0.14920    0.24390    1.000
    O18      O        0.32120    0.21960    0.15580    1.000
    O19      O        0.47340    0.01940    0.01280    1.000
    O20      O        0.03620    0.01660    0.48470    1.000
    Cd5      Cd       0.75512    0.74589    0.74146    1.000
    Cd6      Cd       0.68379    0.62528    0.86106    1.000
    C37      C        0.13290    0.36590    0.80273    1.000
    C38      C        0.06900    0.42750    0.83188    1.000
    C39      C        0.00290    0.48550    0.79825    1.000
    H21      H        0.99710    0.48690    0.75650    1.000
    C40      C        0.94560    0.54130    0.82693    1.000
    C41      C        0.95180    0.53630    0.88962    1.000
    H22      H        0.91150    0.57190    0.90870    1.000
    C42      C        0.01770    0.47870    0.92268    1.000
    C43      C        0.07680    0.42430    0.89414    1.000
    H23      H        0.12150    0.38570    0.91670    1.000
    C44      C        0.87640    0.60700    0.79163    1.000
    C45      C        0.01750    0.45130    0.98820    1.000
    H24      H        0.09520    0.48920    0.00760    1.000
    H25      H        0.02980    0.40080    0.00080    1.000
    C46      C        0.60500    0.59700    0.71358    1.000
    C47      C        0.54010    0.53180    0.67417    1.000
    C48      C        0.53560    0.53330    0.61181    1.000
    H26      H        0.57100    0.57660    0.59440    1.000
    C49      C        0.47860    0.47050    0.57587    1.000
    C50      C        0.42370    0.40800    0.60100    1.000
    H27      H        0.38490    0.36620    0.57670    1.000
    C51      C        0.42660    0.40790    0.66266    1.000
    C52      C        0.48450    0.46900    0.69926    1.000
    H28      H        0.48610    0.46810    0.74070    1.000
    C53      C        0.36450    0.34190    0.69010    1.000
    C54      C        0.46860    0.45290    0.50880    1.000
    H29      H        0.40290    0.46000    0.48930    1.000
    H30      H        0.48950    0.39070    0.50120    1.000
    O21      O        0.12190    0.36210    0.74608    1.000
    O22      O        0.19395    0.31890    0.83614    1.000
    O23      O        0.87810    0.62130    0.73779    1.000
    O24      O        0.81976    0.65118    0.82007    1.000
    O25      O        0.65040    0.65370    0.68748    1.000
    O26      O        0.60810    0.59030    0.76879    1.000
    O27      O        0.35840    0.35080    0.74390    1.000
    O28      O        0.32120    0.28040    0.65580    1.000
    O29      O        0.47340    0.48060    0.51280    1.000
    O30      O        0.03620    0.48340    0.98470    1.000
    Cd7      Cd       0.24488    0.24589    0.75854    1.000
    Cd8      Cd       0.31621    0.12528    0.63894    1.000
    C55      C        0.86710    0.86590    0.69727    1.000
    C56      C        0.93100    0.92750    0.66812    1.000
    C57      C        0.99710    0.98550    0.70175    1.000
    H31      H        0.00290    0.98690    0.74350    1.000
    C58      C        0.05440    0.04130    0.67307    1.000
    C59      C        0.04820    0.03630    0.61038    1.000
    H32      H        0.08850    0.07190    0.59130    1.000
    C60      C        0.98230    0.97870    0.57732    1.000
    C61      C        0.92320    0.92430    0.60586    1.000
    H33      H        0.87850    0.88570    0.58330    1.000
    C62      C        0.12360    0.10700    0.70837    1.000
    C63      C        0.98250    0.95130    0.51180    1.000
    H34      H        0.90480    0.98920    0.49240    1.000
    H35      H        0.97020    0.90080    0.49920    1.000
    C64      C        0.39500    0.09700    0.78642    1.000
    C65      C        0.45990    0.03180    0.82583    1.000
    C66      C        0.46440    0.03330    0.88819    1.000
    H36      H        0.42900    0.07660    0.90560    1.000
    C67      C        0.52140    0.97050    0.92413    1.000
    C68      C        0.57630    0.90800    0.89900    1.000
    H37      H        0.61510    0.86620    0.92330    1.000
    C69      C        0.57340    0.90790    0.83734    1.000
    C70      C        0.51550    0.96900    0.80074    1.000
    H38      H        0.51390    0.96810    0.75930    1.000
    C71      C        0.63550    0.84190    0.80990    1.000
    C72      C        0.53140    0.95290    0.99120    1.000
    H39      H        0.59710    0.96000    0.01070    1.000
    H40      H        0.51050    0.89070    0.99880    1.000
    O31      O        0.87810    0.86210    0.75392    1.000
    O32      O        0.80605    0.81890    0.66386    1.000
    O33      O        0.12190    0.12130    0.76221    1.000
    O34      O        0.18024    0.15118    0.67993    1.000
    O35      O        0.34960    0.15370    0.81252    1.000
    O36      O        0.39190    0.09030    0.73121    1.000
    O37      O        0.64160    0.85080    0.75610    1.000
    O38      O        0.67880    0.78040    0.84420    1.000
    O39      O        0.52660    0.98060    0.98720    1.000
    O40      O        0.96380    0.98340    0.51530    1.000
