data_functionalizedCrystal
_audit_creation_method	'EQeq! by Chris Wilmer'
_symmetry_space_group_name_H-M	'P1'
_symmetry_Int_Tables_number	1
_symmetry_cell_setting	triclinic
loop_
_symmetry_equiv_pos_as_xyz
  x,y,z
_cell_length_a	16.441
_cell_length_b	16.539
_cell_length_c	17.3292
_cell_angle_alpha	118.503
_cell_angle_beta	118.319
_cell_angle_gamma	90
loop_
_atom_site_label
_atom_site_type_symbol
_atom_site_fract_x
_atom_site_fract_y
_atom_site_fract_z
_atom_site_charge
Mof_Na	Na	0.37779	0.68759	0.38558	2.074
Mof_Na	Na	0.49155	0.47465	0.3837	2.167
Mof_Na	Na	0.5972	0.6748	0.3802	0.777
Mof_Na	Na	0.88146	0.48676	0.37372	2.04
Mof_Na	Na	0.00779	0.69799	0.38558	2.086
Mof_Na	Na	0.89215	0.90905	0.3837	2.152
Mof_Na	Na	0.783	0.7054	0.3802	0.772
Mof_Na	Na	0.49226	0.88696	0.37372	2.04
Mof_Na	Na	0.62221	0.30201	0.61442	2.073
Mof_Na	Na	0.50845	0.09095	0.6163	2.166
Mof_Na	Na	0.4028	0.2946	0.6198	0.776
Mof_Na	Na	0.11854	0.11304	0.62628	2.026
Mof_Na	Na	0.99221	0.31241	0.61442	2.086
Mof_Na	Na	0.10785	0.52535	0.6163	2.164
Mof_Na	Na	0.217	0.3252	0.6198	0.772
Mof_Na	Na	0.50774	0.51324	0.62628	2.041
Mof_Ni	Ni	0.93034	0.31543	0.24316	1.061
Mof_Ni	Ni	0.31004	0.30493	0.24524	1.057
Mof_Ni	Ni	0.31282	0.92773	0.24316	1.06
Mof_Ni	Ni	0.9352	0.94031	0.24524	1.054
Mof_Ni	Ni	0.06966	0.07227	0.75684	1.057
Mof_Ni	Ni	0.68996	0.05969	0.75476	1.057
Mof_Ni	Ni	0.68718	0.68457	0.75684	1.06
Mof_Ni	Ni	0.0648	0.69507	0.75476	1.058
Mof_H 	H 	0.1144	0.2212	0.2416	-0.055
Mof_H 	H 	0.1	0.1785	0.0008	-0.034
Mof_H 	H 	0.749	0.9297	0.869	-0.036
Mof_H 	H 	0.1272	0.0204	0.2416	-0.057
Mof_H 	H 	0.9008	0.8223	0.0008	-0.033
Mof_H 	H 	0.12	0.9393	0.869	-0.034
Mof_H 	H 	0.8856	0.9796	0.7584	-0.057
Mof_H 	H 	0.9	0.1777	0.9992	-0.031
Mof_H 	H 	0.251	0.0607	0.131	-0.036
Mof_H 	H 	0.8728	0.7788	0.7584	-0.054
Mof_H 	H 	0.0992	0.8215	0.9992	-0.031
Mof_H 	H 	0.88	0.0703	0.131	-0.033
Mof_C 	C 	0.1788	0.4126	0.2728	-0.103
Mof_C 	C 	0.0956	0.4163	0.2744	-0.102
Mof_C 	C 	0.1214	0.2818	0.2514	0.082
Mof_C 	C 	0.2491	0.4769	0.279	0.417
Mof_C 	C 	0.0373	0.4842	0.285	0.39
Mof_C 	C 	0.2522	0.1886	0.9508	-0.049
Mof_C 	C 	0.1562	0.189	0.0018	0.11
Mof_C 	C 	0.2723	0.1641	0.8674	0.364
Mof_C 	C 	0.6099	0.773	0.6402	-0.156
Mof_C 	C 	0.6135	0.8564	0.6404	-0.153
Mof_C 	C 	0.7061	0.8934	0.797	0.109
Mof_C 	C 	0.562	0.6667	0.5606	0.459
Mof_C 	C 	0.5652	0.8789	0.5576	0.453
Mof_C 	C 	0.3063	0.2353	0.0574	-0.078
Mof_C 	C 	0.4106	0.2753	0.1388	0.403
Mof_C 	C 	0.094	0.8602	0.2728	-0.104
Mof_C 	C 	0.1788	0.8581	0.2744	-0.102
Mof_C 	C 	0.13	0.9696	0.2514	0.087
Mof_C 	C 	0.0299	0.8021	0.279	0.422
Mof_C 	C 	0.2477	0.8008	0.285	0.391
Mof_C 	C 	0.6986	0.7622	0.9508	-0.039
Mof_C 	C 	0.8456	0.8128	0.0018	0.103
Mof_C 	C 	0.5951	0.7033	0.8674	0.362
Mof_C 	C 	0.0303	0.8672	0.6402	-0.148
Mof_C 	C 	0.0269	0.784	0.6404	-0.152
Mof_C 	C 	0.0909	0.9036	0.797	0.11
Mof_C 	C 	0.9986	0.8939	0.5606	0.444
Mof_C 	C 	0.9924	0.6787	0.5576	0.448
Mof_C 	C 	0.7511	0.8221	0.0574	-0.087
Mof_C 	C 	0.7282	0.8635	0.1388	0.405
Mof_C 	C 	0.8212	0.1398	0.7272	-0.102
Mof_C 	C 	0.9044	0.1419	0.7256	-0.103
Mof_C 	C 	0.8786	0.0304	0.7486	0.086
Mof_C 	C 	0.7509	0.1979	0.721	0.417
Mof_C 	C 	0.9627	0.1992	0.715	0.397
Mof_C 	C 	0.7478	0.2378	0.0492	-0.037
Mof_C 	C 	0.8438	0.1872	0.9982	0.102
Mof_C 	C 	0.7277	0.2967	0.1326	0.361
Mof_C 	C 	0.3901	0.1328	0.3598	-0.156
Mof_C 	C 	0.3865	0.216	0.3596	-0.153
Mof_C 	C 	0.2939	0.0964	0.203	0.109
Mof_C 	C 	0.438	0.1061	0.4394	0.459
Mof_C 	C 	0.4348	0.3213	0.4424	0.453
Mof_C 	C 	0.6937	0.1779	0.9426	-0.089
Mof_C 	C 	0.5894	0.1365	0.8612	0.406
Mof_C 	C 	0.906	0.5874	0.7272	-0.103
Mof_C 	C 	0.8212	0.5837	0.7256	-0.102
Mof_C 	C 	0.87	0.7182	0.7486	0.082
Mof_C 	C 	0.9701	0.5231	0.721	0.416
Mof_C 	C 	0.7523	0.5158	0.715	0.391
Mof_C 	C 	0.3014	0.8114	0.0492	-0.049
Mof_C 	C 	0.1544	0.811	0.9982	0.112
Mof_C 	C 	0.4049	0.8359	0.1326	0.364
Mof_C 	C 	0.9697	0.227	0.3598	-0.155
Mof_C 	C 	0.9731	0.1436	0.3596	-0.144
Mof_C 	C 	0.9091	0.1066	0.203	0.11
Mof_C 	C 	0.0014	0.3333	0.4394	0.454
Mof_C 	C 	0.0076	0.1211	0.4424	0.438
Mof_C 	C 	0.2489	0.7647	0.9426	-0.077
Mof_C 	C 	0.2718	0.7247	0.8612	0.403
Mof_N 	N 	0.1955	0.3271	0.258	-0.252
Mof_N 	N 	0.0603	0.3316	0.2598	-0.253
Mof_N 	N 	0.1573	0.1582	0.9136	-0.24
Mof_N 	N 	0.6704	0.7979	0.7416	-0.24
Mof_N 	N 	0.6748	0.9311	0.7404	-0.24
Mof_N 	N 	0.2422	0.2347	0.0876	-0.233
Mof_N 	N 	0.0625	0.9309	0.258	-0.251
Mof_N 	N 	0.1995	0.9282	0.2598	-0.253
Mof_N 	N 	0.7563	0.7554	0.9136	-0.236
Mof_N 	N 	0.0712	0.9437	0.7416	-0.238
Mof_N 	N 	0.0656	0.8093	0.7404	-0.24
Mof_N 	N 	0.8454	0.8529	0.0876	-0.232
Mof_N 	N 	0.8045	0.0691	0.742	-0.252
Mof_N 	N 	0.9397	0.0718	0.7402	-0.251
Mof_N 	N 	0.8427	0.2446	0.0864	-0.235
Mof_N 	N 	0.3296	0.0563	0.2584	-0.24
Mof_N 	N 	0.3252	0.1907	0.2596	-0.24
Mof_N 	N 	0.7578	0.1471	0.9124	-0.23
Mof_N 	N 	0.9375	0.6729	0.742	-0.253
Mof_N 	N 	0.8005	0.6684	0.7402	-0.252
Mof_N 	N 	0.2437	0.8418	0.0864	-0.239
Mof_N 	N 	0.9288	0.2021	0.2584	-0.239
Mof_N 	N 	0.9344	0.0689	0.2596	-0.238
Mof_N 	N 	0.1546	0.7653	0.9124	-0.232
Mof_O 	O 	0.31519	0.44269	0.26758	-0.736
Mof_O 	O 	0.241	0.5541	0.2906	-0.639
Mof_O 	O 	0.9559	0.453	0.2674	-0.705
Mof_O 	O 	0.0684	0.5701	0.314	-0.633
Mof_O 	O 	0.2037	0.1044	0.7744	-0.697
Mof_O 	O 	0.3535	0.1965	0.8902	-0.282
Mof_O 	O 	0.5829	0.6131	0.594	-0.883
Mof_O 	O 	0.5057	0.6374	0.4658	-1.04
Mof_O 	O 	0.4287	0.3135	0.23	-0.697
Mof_O 	O 	0.4714	0.271	0.1184	-0.306
Mof_O 	O 	0.58859	0.96759	0.59098	-0.888
Mof_O 	O 	0.5102	0.8153	0.4638	-1.025
Mof_O 	O 	0.5939	0.4984	0.3284	-0.653
Mof_O 	O 	0.5216	0.7355	0.2564	-0.56
Mof_O 	O 	0.95239	0.82489	0.26758	-0.739
Mof_O 	O 	0.0496	0.7365	0.2906	-0.641
Mof_O 	O 	0.3115	0.8144	0.2674	-0.706
Mof_O 	O 	0.2456	0.7439	0.314	-0.632
Mof_O 	O 	0.5707	0.67	0.7744	-0.696
Mof_O 	O 	0.5367	0.6937	0.8902	-0.28
Mof_O 	O 	0.0111	0.9809	0.594	-0.868
Mof_O 	O 	0.9601	0.8284	0.4658	-1.037
Mof_O 	O 	0.8013	0.9165	0.23	-0.699
Mof_O 	O 	0.647	0.8474	0.1184	-0.309
Mof_O 	O 	0.00239	0.62339	0.59098	-0.886
Mof_O 	O 	0.9536	0.6485	0.4638	-1.026
Mof_O 	O 	0.7345	0.83	0.3284	-0.651
Mof_O 	O 	0.7348	0.5209	0.2564	-0.559
Mof_O 	O 	0.68481	0.17511	0.73242	-0.736
Mof_O 	O 	0.759	0.2635	0.7094	-0.639
Mof_O 	O 	0.0441	0.1856	0.7326	-0.71
Mof_O 	O 	0.9316	0.2561	0.686	-0.634
Mof_O 	O 	0.7963	0.33	0.2256	-0.695
Mof_O 	O 	0.6465	0.3063	0.1098	-0.279
Mof_O 	O 	0.4171	0.0191	0.406	-0.883
Mof_O 	O 	0.4943	0.1716	0.5342	-1.04
Mof_O 	O 	0.5713	0.0835	0.77	-0.699
Mof_O 	O 	0.5286	0.1526	0.8816	-0.31
Mof_O 	O 	0.41141	0.37661	0.40902	-0.889
Mof_O 	O 	0.4898	0.3515	0.5362	-1.026
Mof_O 	O 	0.4061	0.17	0.6716	-0.653
Mof_O 	O 	0.4784	0.4791	0.7436	-0.56
Mof_O 	O 	0.04761	0.55731	0.73242	-0.736
Mof_O 	O 	0.9504	0.4459	0.7094	-0.64
Mof_O 	O 	0.6885	0.547	0.7326	-0.706
Mof_O 	O 	0.7544	0.4299	0.686	-0.632
Mof_O 	O 	0.4293	0.8956	0.2256	-0.697
Mof_O 	O 	0.4633	0.8035	0.1098	-0.283
Mof_O 	O 	0.9889	0.3869	0.406	-0.88
Mof_O 	O 	0.0399	0.3626	0.5342	-1.041
Mof_O 	O 	0.1987	0.6865	0.77	-0.697
Mof_O 	O 	0.353	0.729	0.8816	-0.306
Mof_O 	O 	0.99761	0.03241	0.40902	-0.874
Mof_O 	O 	0.0464	0.1847	0.5362	-1.023
Mof_O 	O 	0.2655	0.5016	0.6716	-0.652
Mof_O 	O 	0.2652	0.2645	0.7436	-0.559
_end
