data_functionalizedCrystal
_audit_creation_method	'EQeq! by Chris Wilmer'
_symmetry_space_group_name_H-M	'P1'
_symmetry_Int_Tables_number	1
_symmetry_cell_setting	triclinic
loop_
_symmetry_equiv_pos_as_xyz
  x,y,z
_cell_length_a	8.4517
_cell_length_b	25.326
_cell_length_c	17.748
_cell_angle_alpha	90
_cell_angle_beta	90
_cell_angle_gamma	90
loop_
_atom_site_label
_atom_site_type_symbol
_atom_site_fract_x
_atom_site_fract_y
_atom_site_fract_z
_atom_site_charge
Mof_Dy	Dy	0.66544	0.47616	0.7823	2.365
Mof_Dy	Dy	0.16544	0.52384	0.7177	2.366
Mof_Dy	Dy	0.16544	0.97616	0.21769	2.365
Mof_Dy	Dy	0.66544	0.02384	0.2823	2.367
Mof_Ag	Ag	0.46203	0.22732	0.55003	0.536
Mof_Ag	Ag	0.96203	0.77268	0.94997	0.533
Mof_Ag	Ag	0.96203	0.72732	0.44997	0.534
Mof_Ag	Ag	0.46203	0.27268	0.05003	0.536
Mof_H 	H 	0.059	0.404	0.1425	0.141
Mof_H 	H 	0.7129	0.371	0.3942	0.158
Mof_H 	H 	0.9644	0.4551	0.0079	0.072
Mof_H 	H 	0.2486	0.3391	0.1744	-0.018
Mof_H 	H 	0.4027	0.3611	0.9178	0.037
Mof_H 	H 	0.6917	0.2981	0.66	0.032
Mof_H 	H 	0.553	0.2958	0.4003	-0.016
Mof_H 	H 	0.8805	0.4342	0.5029	0.066
Mof_H 	H 	0.559	0.596	0.3575	0.142
Mof_H 	H 	0.2129	0.629	0.1058	0.158
Mof_H 	H 	0.4644	0.5449	0.4921	0.072
Mof_H 	H 	0.7486	0.6609	0.3256	-0.018
Mof_H 	H 	0.9027	0.6389	0.5822	0.036
Mof_H 	H 	0.1917	0.7019	0.84	0.033
Mof_H 	H 	0.053	0.7042	0.0997	-0.015
Mof_H 	H 	0.3805	0.5658	0.9971	0.066
Mof_H 	H 	0.559	0.904	0.8575	0.142
Mof_H 	H 	0.2129	0.871	0.6058	0.158
Mof_H 	H 	0.4644	0.9551	0.9921	0.073
Mof_H 	H 	0.7486	0.8391	0.8256	-0.018
Mof_H 	H 	0.9027	0.8611	0.0822	0.037
Mof_H 	H 	0.1917	0.7981	0.34	0.032
Mof_H 	H 	0.053	0.7958	0.5997	-0.015
Mof_H 	H 	0.3805	0.9342	0.4971	0.066
Mof_H 	H 	0.059	0.096	0.6425	0.142
Mof_H 	H 	0.7129	0.129	0.8942	0.158
Mof_H 	H 	0.9644	0.0449	0.5079	0.071
Mof_H 	H 	0.2486	0.1609	0.6744	-0.018
Mof_H 	H 	0.4027	0.1389	0.4178	0.037
Mof_H 	H 	0.6917	0.2019	0.16	0.032
Mof_H 	H 	0.553	0.2042	0.9003	-0.015
Mof_H 	H 	0.8805	0.0658	0.0029	0.066
Mof_C 	C 	0.0103	0.48246	0.87069	0.463
Mof_C 	C 	0.1057	0.44443	0.91661	-0.072
Mof_C 	C 	0.0536	0.43753	0.99017	-0.069
Mof_C 	C 	0.1388	0.40364	0.0363	0.095
Mof_C 	C 	0.2334	0.35368	0.1268	0.126
Mof_C 	C 	0.2621	0.3728	0.0085	0.023
Mof_C 	C 	0.3171	0.38033	0.936	-0.041
Mof_C 	C 	0.2417	0.41723	0.89108	-0.086
Mof_C 	C 	0.3098	0.42622	0.8135	0.457
Mof_C 	C 	0.8493	0.36563	0.7421	0.372
Mof_C 	C 	0.8116	0.36774	0.659	-0.085
Mof_C 	C 	0.7254	0.3257	0.62935	-0.071
Mof_C 	C 	0.6913	0.32604	0.5529	0.018
Mof_C 	C 	0.6052	0.31113	0.4409	0.135
Mof_C 	C 	0.7506	0.3657	0.5052	0.065
Mof_C 	C 	0.8407	0.40792	0.5343	-0.077
Mof_C 	C 	0.8677	0.4089	0.6114	-0.063
Mof_C 	C 	0.9522	0.4543	0.6448	0.38
Mof_C 	C 	0.5103	0.51754	0.62931	0.463
Mof_C 	C 	0.6057	0.55557	0.58339	-0.072
Mof_C 	C 	0.5536	0.56247	0.50983	-0.069
Mof_C 	C 	0.6388	0.59636	0.4637	0.096
Mof_C 	C 	0.7334	0.64632	0.3732	0.126
Mof_C 	C 	0.7621	0.6272	0.4915	0.023
Mof_C 	C 	0.8171	0.61967	0.564	-0.041
Mof_C 	C 	0.7417	0.58277	0.60892	-0.086
Mof_C 	C 	0.8098	0.57378	0.6865	0.457
Mof_C 	C 	0.3493	0.63437	0.7579	0.372
Mof_C 	C 	0.3116	0.63226	0.841	-0.085
Mof_C 	C 	0.2254	0.6743	0.87065	-0.071
Mof_C 	C 	0.1913	0.67396	0.9471	0.018
Mof_C 	C 	0.1052	0.68887	0.0591	0.134
Mof_C 	C 	0.2506	0.6343	0.9948	0.065
Mof_C 	C 	0.3407	0.59208	0.9657	-0.077
Mof_C 	C 	0.3677	0.5911	0.8886	-0.063
Mof_C 	C 	0.4522	0.5457	0.8552	0.38
Mof_C 	C 	0.5103	0.98246	0.12931	0.463
Mof_C 	C 	0.6057	0.94443	0.08339	-0.071
Mof_C 	C 	0.5536	0.93753	0.00983	-0.071
Mof_C 	C 	0.6388	0.90364	0.9637	0.097
Mof_C 	C 	0.7334	0.85368	0.8732	0.126
Mof_C 	C 	0.7621	0.8728	0.9915	0.023
Mof_C 	C 	0.8171	0.88033	0.064	-0.041
Mof_C 	C 	0.7417	0.91723	0.10892	-0.086
Mof_C 	C 	0.8098	0.92622	0.1865	0.457
Mof_C 	C 	0.3493	0.86563	0.2579	0.372
Mof_C 	C 	0.3116	0.86774	0.341	-0.085
Mof_C 	C 	0.2254	0.8257	0.37065	-0.071
Mof_C 	C 	0.1913	0.82604	0.4471	0.018
Mof_C 	C 	0.1052	0.81113	0.5591	0.135
Mof_C 	C 	0.2506	0.8657	0.4948	0.065
Mof_C 	C 	0.3407	0.90792	0.4657	-0.077
Mof_C 	C 	0.3677	0.9089	0.3886	-0.063
Mof_C 	C 	0.4522	0.9543	0.3552	0.38
Mof_C 	C 	0.0103	0.01754	0.37069	0.465
Mof_C 	C 	0.1057	0.05557	0.41661	-0.073
Mof_C 	C 	0.0536	0.06247	0.49017	-0.068
Mof_C 	C 	0.1388	0.09636	0.5363	0.096
Mof_C 	C 	0.2334	0.14632	0.6268	0.126
Mof_C 	C 	0.2621	0.1272	0.5085	0.023
Mof_C 	C 	0.3171	0.11967	0.436	-0.042
Mof_C 	C 	0.2417	0.08277	0.39108	-0.085
Mof_C 	C 	0.3098	0.07378	0.3135	0.457
Mof_C 	C 	0.8493	0.13437	0.2421	0.372
Mof_C 	C 	0.8116	0.13226	0.159	-0.085
Mof_C 	C 	0.7254	0.1743	0.12935	-0.071
Mof_C 	C 	0.6913	0.17396	0.0529	0.018
Mof_C 	C 	0.6052	0.18887	0.9409	0.135
Mof_C 	C 	0.7506	0.1343	0.0052	0.065
Mof_C 	C 	0.8407	0.09208	0.0343	-0.077
Mof_C 	C 	0.8677	0.0911	0.1114	-0.063
Mof_C 	C 	0.9522	0.0457	0.1448	0.38
Mof_N 	N 	0.1254	0.39066	0.11113	-0.228
Mof_N 	N 	0.3165	0.34021	0.06603	-0.214
Mof_N 	N 	0.5977	0.29215	0.51054	-0.215
Mof_N 	N 	0.694	0.35377	0.43495	-0.233
Mof_N 	N 	0.6254	0.60934	0.38887	-0.228
Mof_N 	N 	0.8165	0.65979	0.43397	-0.214
Mof_N 	N 	0.0977	0.70785	0.98946	-0.213
Mof_N 	N 	0.194	0.64623	0.06505	-0.233
Mof_N 	N 	0.6254	0.89066	0.88887	-0.228
Mof_N 	N 	0.8165	0.84021	0.93397	-0.213
Mof_N 	N 	0.0977	0.79215	0.48946	-0.214
Mof_N 	N 	0.194	0.85377	0.56505	-0.233
Mof_N 	N 	0.1254	0.10934	0.61113	-0.228
Mof_N 	N 	0.3165	0.15979	0.56603	-0.214
Mof_N 	N 	0.5977	0.20785	0.01054	-0.214
Mof_N 	N 	0.694	0.14623	0.93495	-0.233
Mof_O 	O 	0.8647	0.47572	0.87117	-0.544
Mof_O 	O 	0.0775	0.52186	0.83891	-0.565
Mof_O 	O 	0.2226	0.44061	0.75981	-0.549
Mof_O 	O 	0.4579	0.41927	0.80714	-0.537
Mof_O 	O 	0.7498	0.3895	0.78555	-0.497
Mof_O 	O 	0.9601	0.33926	0.76506	-0.286
Mof_O 	O 	0.9122	0.46974	0.71108	-0.606
Mof_O 	O 	0.0635	0.47635	0.61143	-0.472
Mof_O 	O 	0.3647	0.52428	0.62883	-0.544
Mof_O 	O 	0.5775	0.47814	0.66109	-0.565
Mof_O 	O 	0.7226	0.55939	0.74019	-0.549
Mof_O 	O 	0.9579	0.58073	0.69286	-0.538
Mof_O 	O 	0.2498	0.6105	0.71445	-0.497
Mof_O 	O 	0.4601	0.66074	0.73494	-0.287
Mof_O 	O 	0.4122	0.53026	0.78892	-0.606
Mof_O 	O 	0.5635	0.52365	0.88857	-0.472
Mof_O 	O 	0.3647	0.97572	0.12883	-0.544
Mof_O 	O 	0.5775	0.02186	0.16109	-0.565
Mof_O 	O 	0.7226	0.94061	0.24019	-0.549
Mof_O 	O 	0.9579	0.91927	0.19286	-0.537
Mof_O 	O 	0.2498	0.8895	0.21445	-0.497
Mof_O 	O 	0.4601	0.83926	0.23494	-0.287
Mof_O 	O 	0.4122	0.96974	0.28892	-0.605
Mof_O 	O 	0.5635	0.97635	0.38857	-0.472
Mof_O 	O 	0.8647	0.02428	0.37117	-0.545
Mof_O 	O 	0.0775	0.97814	0.33891	-0.566
Mof_O 	O 	0.2226	0.05939	0.25981	-0.549
Mof_O 	O 	0.4579	0.08073	0.30714	-0.537
Mof_O 	O 	0.7498	0.1105	0.28555	-0.497
Mof_O 	O 	0.9601	0.16074	0.26506	-0.286
Mof_O 	O 	0.9122	0.03026	0.21108	-0.605
Mof_O 	O 	0.0635	0.02365	0.11143	-0.471
Mof_Dy	Dy	0.83456	0.02384	0.7823	2.365
Mof_Dy	Dy	0.33456	0.97616	0.7177	2.367
Mof_Dy	Dy	0.33456	0.52384	0.21769	2.366
Mof_Dy	Dy	0.83456	0.47616	0.2823	2.367
Mof_Ag	Ag	0.03797	0.27268	0.55003	0.534
Mof_Ag	Ag	0.53797	0.72732	0.94997	0.536
Mof_Ag	Ag	0.53797	0.77268	0.44997	0.536
Mof_Ag	Ag	0.03797	0.22732	0.05003	0.533
Mof_H 	H 	0.441	0.096	0.1425	0.142
Mof_H 	H 	0.7871	0.129	0.3942	0.158
Mof_H 	H 	0.5356	0.0449	0.0079	0.073
Mof_H 	H 	0.2514	0.1609	0.1744	-0.018
Mof_H 	H 	0.0973	0.1389	0.9178	0.037
Mof_H 	H 	0.8083	0.2019	0.66	0.032
Mof_H 	H 	0.947	0.2042	0.4003	-0.015
Mof_H 	H 	0.6195	0.0658	0.5029	0.066
Mof_H 	H 	0.941	0.904	0.3575	0.142
Mof_H 	H 	0.2871	0.871	0.1058	0.158
Mof_H 	H 	0.0356	0.9551	0.4921	0.071
Mof_H 	H 	0.7514	0.8391	0.3256	-0.018
Mof_H 	H 	0.5973	0.8611	0.5822	0.037
Mof_H 	H 	0.3083	0.7981	0.84	0.032
Mof_H 	H 	0.447	0.7958	0.0997	-0.015
Mof_H 	H 	0.1195	0.9342	0.9971	0.066
Mof_H 	H 	0.941	0.596	0.8575	0.141
Mof_H 	H 	0.2871	0.629	0.6058	0.158
Mof_H 	H 	0.0356	0.5449	0.9921	0.072
Mof_H 	H 	0.7514	0.6609	0.8256	-0.018
Mof_H 	H 	0.5973	0.6389	0.0822	0.037
Mof_H 	H 	0.3083	0.7019	0.34	0.032
Mof_H 	H 	0.447	0.7042	0.5997	-0.016
Mof_H 	H 	0.1195	0.5658	0.4971	0.066
Mof_H 	H 	0.441	0.404	0.6425	0.142
Mof_H 	H 	0.7871	0.371	0.8942	0.158
Mof_H 	H 	0.5356	0.4551	0.5079	0.072
Mof_H 	H 	0.2514	0.3391	0.6744	-0.018
Mof_H 	H 	0.0973	0.3611	0.4178	0.036
Mof_H 	H 	0.8083	0.2981	0.16	0.033
Mof_H 	H 	0.947	0.2958	0.9003	-0.015
Mof_H 	H 	0.6195	0.4342	0.0029	0.066
Mof_C 	C 	0.4897	0.01754	0.87069	0.463
Mof_C 	C 	0.3943	0.05557	0.91661	-0.071
Mof_C 	C 	0.4464	0.06247	0.99017	-0.071
Mof_C 	C 	0.3612	0.09636	0.0363	0.097
Mof_C 	C 	0.2666	0.14632	0.1268	0.126
Mof_C 	C 	0.2379	0.1272	0.0085	0.023
Mof_C 	C 	0.1829	0.11967	0.936	-0.041
Mof_C 	C 	0.2583	0.08277	0.89108	-0.086
Mof_C 	C 	0.1902	0.07378	0.8135	0.457
Mof_C 	C 	0.6507	0.13437	0.7421	0.372
Mof_C 	C 	0.6884	0.13226	0.659	-0.085
Mof_C 	C 	0.7746	0.1743	0.62935	-0.071
Mof_C 	C 	0.8087	0.17396	0.5529	0.018
Mof_C 	C 	0.8948	0.18887	0.4409	0.135
Mof_C 	C 	0.7494	0.1343	0.5052	0.065
Mof_C 	C 	0.6593	0.09208	0.5343	-0.077
Mof_C 	C 	0.6323	0.0911	0.6114	-0.063
Mof_C 	C 	0.5478	0.0457	0.6448	0.38
Mof_C 	C 	0.9897	0.98246	0.62931	0.465
Mof_C 	C 	0.8943	0.94443	0.58339	-0.073
Mof_C 	C 	0.9464	0.93753	0.50983	-0.068
Mof_C 	C 	0.8612	0.90364	0.4637	0.096
Mof_C 	C 	0.7666	0.85368	0.3732	0.126
Mof_C 	C 	0.7379	0.8728	0.4915	0.023
Mof_C 	C 	0.6829	0.88033	0.564	-0.042
Mof_C 	C 	0.7583	0.91723	0.60892	-0.085
Mof_C 	C 	0.6902	0.92622	0.6865	0.457
Mof_C 	C 	0.1507	0.86563	0.7579	0.372
Mof_C 	C 	0.1884	0.86774	0.841	-0.085
Mof_C 	C 	0.2746	0.8257	0.87065	-0.071
Mof_C 	C 	0.3087	0.82604	0.9471	0.018
Mof_C 	C 	0.3948	0.81113	0.0591	0.135
Mof_C 	C 	0.2494	0.8657	0.9948	0.065
Mof_C 	C 	0.1593	0.90792	0.9657	-0.077
Mof_C 	C 	0.1323	0.9089	0.8886	-0.063
Mof_C 	C 	0.0478	0.9543	0.8552	0.38
Mof_C 	C 	0.9897	0.51754	0.12931	0.463
Mof_C 	C 	0.8943	0.55557	0.08339	-0.072
Mof_C 	C 	0.9464	0.56247	0.00983	-0.069
Mof_C 	C 	0.8612	0.59636	0.9637	0.095
Mof_C 	C 	0.7666	0.64632	0.8732	0.126
Mof_C 	C 	0.7379	0.6272	0.9915	0.023
Mof_C 	C 	0.6829	0.61967	0.064	-0.041
Mof_C 	C 	0.7583	0.58277	0.10892	-0.086
Mof_C 	C 	0.6902	0.57378	0.1865	0.457
Mof_C 	C 	0.1507	0.63437	0.2579	0.372
Mof_C 	C 	0.1884	0.63226	0.341	-0.085
Mof_C 	C 	0.2746	0.6743	0.37065	-0.071
Mof_C 	C 	0.3087	0.67396	0.4471	0.018
Mof_C 	C 	0.3948	0.68887	0.5591	0.135
Mof_C 	C 	0.2494	0.6343	0.4948	0.065
Mof_C 	C 	0.1593	0.59208	0.4657	-0.077
Mof_C 	C 	0.1323	0.5911	0.3886	-0.063
Mof_C 	C 	0.0478	0.5457	0.3552	0.38
Mof_C 	C 	0.4897	0.48246	0.37069	0.463
Mof_C 	C 	0.3943	0.44443	0.41661	-0.072
Mof_C 	C 	0.4464	0.43753	0.49017	-0.069
Mof_C 	C 	0.3612	0.40364	0.5363	0.096
Mof_C 	C 	0.2666	0.35368	0.6268	0.126
Mof_C 	C 	0.2379	0.3728	0.5085	0.023
Mof_C 	C 	0.1829	0.38033	0.436	-0.041
Mof_C 	C 	0.2583	0.41723	0.39108	-0.086
Mof_C 	C 	0.1902	0.42622	0.3135	0.457
Mof_C 	C 	0.6507	0.36563	0.2421	0.372
Mof_C 	C 	0.6884	0.36774	0.159	-0.085
Mof_C 	C 	0.7746	0.3257	0.12935	-0.071
Mof_C 	C 	0.8087	0.32604	0.0529	0.018
Mof_C 	C 	0.8948	0.31113	0.9409	0.134
Mof_C 	C 	0.7494	0.3657	0.0052	0.065
Mof_C 	C 	0.6593	0.40792	0.0343	-0.077
Mof_C 	C 	0.6323	0.4089	0.1114	-0.063
Mof_C 	C 	0.5478	0.4543	0.1448	0.38
Mof_N 	N 	0.3746	0.10934	0.11113	-0.228
Mof_N 	N 	0.1835	0.15979	0.06603	-0.213
Mof_N 	N 	0.9023	0.20785	0.51054	-0.214
Mof_N 	N 	0.806	0.14623	0.43495	-0.233
Mof_N 	N 	0.8746	0.89066	0.38887	-0.228
Mof_N 	N 	0.6835	0.84021	0.43397	-0.214
Mof_N 	N 	0.4023	0.79215	0.98946	-0.214
Mof_N 	N 	0.306	0.85377	0.06505	-0.233
Mof_N 	N 	0.8746	0.60934	0.88887	-0.228
Mof_N 	N 	0.6835	0.65979	0.93397	-0.214
Mof_N 	N 	0.4023	0.70785	0.48946	-0.215
Mof_N 	N 	0.306	0.64623	0.56505	-0.233
Mof_N 	N 	0.3746	0.39066	0.61113	-0.228
Mof_N 	N 	0.1835	0.34021	0.56603	-0.214
Mof_N 	N 	0.9023	0.29215	0.01054	-0.213
Mof_N 	N 	0.806	0.35377	0.93495	-0.233
Mof_O 	O 	0.6353	0.02428	0.87117	-0.544
Mof_O 	O 	0.4225	0.97814	0.83891	-0.565
Mof_O 	O 	0.2774	0.05939	0.75981	-0.549
Mof_O 	O 	0.0421	0.08073	0.80714	-0.537
Mof_O 	O 	0.7502	0.1105	0.78555	-0.497
Mof_O 	O 	0.5399	0.16074	0.76506	-0.287
Mof_O 	O 	0.5878	0.03026	0.71108	-0.605
Mof_O 	O 	0.4365	0.02365	0.61143	-0.472
Mof_O 	O 	0.1353	0.97572	0.62883	-0.545
Mof_O 	O 	0.9225	0.02186	0.66109	-0.566
Mof_O 	O 	0.7774	0.94061	0.74019	-0.549
Mof_O 	O 	0.5421	0.91927	0.69286	-0.537
Mof_O 	O 	0.2502	0.8895	0.71445	-0.497
Mof_O 	O 	0.0399	0.83926	0.73494	-0.286
Mof_O 	O 	0.0878	0.96974	0.78892	-0.605
Mof_O 	O 	0.9365	0.97635	0.88857	-0.471
Mof_O 	O 	0.1353	0.52428	0.12883	-0.544
Mof_O 	O 	0.9225	0.47814	0.16109	-0.565
Mof_O 	O 	0.7774	0.55939	0.24019	-0.549
Mof_O 	O 	0.5421	0.58073	0.19286	-0.537
Mof_O 	O 	0.2502	0.6105	0.21445	-0.497
Mof_O 	O 	0.0399	0.66074	0.23494	-0.286
Mof_O 	O 	0.0878	0.53026	0.28892	-0.606
Mof_O 	O 	0.9365	0.52365	0.38857	-0.472
Mof_O 	O 	0.6353	0.47572	0.37117	-0.544
Mof_O 	O 	0.4225	0.52186	0.33891	-0.565
Mof_O 	O 	0.2774	0.44061	0.25981	-0.549
Mof_O 	O 	0.0421	0.41927	0.30714	-0.538
Mof_O 	O 	0.7502	0.3895	0.28555	-0.497
Mof_O 	O 	0.5399	0.33926	0.26506	-0.287
Mof_O 	O 	0.5878	0.46974	0.21108	-0.606
Mof_O 	O 	0.4365	0.47635	0.11143	-0.472
_end
