data_functionalizedCrystal
_audit_creation_method	'EQeq! by Chris Wilmer'
_symmetry_space_group_name_H-M	'P1'
_symmetry_Int_Tables_number	1
_symmetry_cell_setting	triclinic
loop_
_symmetry_equiv_pos_as_xyz
  x,y,z
_cell_length_a	10.685
_cell_length_b	11.821
_cell_length_c	36.625
_cell_angle_alpha	90
_cell_angle_beta	90
_cell_angle_gamma	90
loop_
_atom_site_label
_atom_site_type_symbol
_atom_site_fract_x
_atom_site_fract_y
_atom_site_fract_z
_atom_site_charge
Mof_Ag	Ag	0.40318	0.43974	0.70989	0.654
Mof_Ag	Ag	0.3605	0.86199	0.55654	0.631
Mof_C 	C 	0.6448	0.2781	0.5782	-0.009
Mof_N 	N 	0.6299	0.3145	0.6155	-0.101
Mof_N 	N 	0.7224	0.2977	0.6408	-0.157
Mof_C 	C 	0.6729	0.3389	0.6703	0.106
Mof_N 	N 	0.5563	0.3817	0.6669	-0.196
Mof_C 	C 	0.5332	0.3647	0.6316	0.09
Mof_N 	N 	0.612	0.1579	0.5747	-0.104
Mof_N 	N 	0.6924	0.0774	0.5865	-0.116
Mof_C 	C 	0.6315	0.9838	0.5797	0.084
Mof_N 	N 	0.5118	0.9997	0.5652	-0.198
Mof_C 	C 	0.509	0.1099	0.5626	0.103
Mof_C 	C 	0.1534	0.5878	0.6738	0.007
Mof_N 	N 	0.1273	0.4688	0.6695	-0.104
Mof_N 	N 	0.2163	0.3911	0.678	-0.149
Mof_C 	C 	0.1589	0.2954	0.6707	0.108
Mof_N 	N 	0.0415	0.3076	0.658	-0.202
Mof_C 	C 	0.0237	0.4169	0.6583	0.104
Mof_N 	N 	0.2345	0.6321	0.6456	-0.104
Mof_N 	N 	0.3562	0.5967	0.6434	-0.12
Mof_C 	C 	0.398	0.6573	0.6165	0.11
Mof_N 	N 	0.3173	0.7275	0.6015	-0.202
Mof_C 	C 	0.2129	0.7096	0.6199	0.094
Mof_H 	H 	0.59136	0.32146	0.56284	0.034
Mof_H 	H 	0.72909	0.28836	0.57092	0.031
Mof_H 	H 	0.7167	0.33924	0.69301	-0.026
Mof_H 	H 	0.45753	0.38589	0.61976	-0.001
Mof_H 	H 	0.66523	0.91057	0.58444	-0.008
Mof_H 	H 	0.43975	0.15075	0.553	-0.01
Mof_H 	H 	0.07584	0.62968	0.67371	0.028
Mof_H 	H 	0.19193	0.60043	0.69733	0.021
Mof_H 	H 	0.19692	0.22393	0.67425	-0.022
Mof_H 	H 	0.94756	0.45354	0.65154	-0.015
Mof_H 	H 	0.48181	0.64995	0.60812	-0.016
Mof_H 	H 	0.13518	0.74628	0.61582	-0.007
Mof_Ag	Ag	0.39405	0.32945	0.35967	0.638
Mof_C 	C 	0.2815	0.7285	0.2793	-0.009
Mof_N 	N 	0.1576	0.7733	0.2733	-0.1
Mof_N 	N 	0.0907	0.7468	0.2429	-0.147
Mof_C 	C 	0.9982	0.8181	0.2441	0.104
Mof_N 	N 	0.0018	0.8904	0.2726	-0.196
Mof_C 	C 	0.1014	0.8601	0.2906	0.088
Mof_N 	N 	0.2815	0.6105	0.2895	-0.103
Mof_N 	N 	0.2565	0.5298	0.2638	-0.135
Mof_C 	C 	0.2809	0.4371	0.2825	0.096
Mof_N 	N 	0.3191	0.4537	0.3177	-0.204
Mof_C 	C 	0.3198	0.5635	0.3204	0.097
Mof_C 	C 	0.6266	0.4913	0.4896	0.008
Mof_N 	N 	0.6026	0.4705	0.4514	-0.105
Mof_N 	N 	0.6897	0.4978	0.4258	-0.145
Mof_C 	C 	0.6305	0.4752	0.3959	0.106
Mof_N 	N 	0.5134	0.4316	0.4003	-0.206
Mof_C 	C 	0.4978	0.4319	0.4347	0.102
Mof_N 	N 	0.5942	0.6045	0.4987	-0.105
Mof_N 	N 	0.6653	0.6928	0.487	-0.133
Mof_C 	C 	0.6079	0.7823	0.5006	0.098
Mof_N 	N 	0.5019	0.7564	0.5192	-0.193
Mof_C 	C 	0.497	0.6455	0.5175	0.093
Mof_H 	H 	0.328	0.73644	0.25712	0.038
Mof_H 	H 	0.32033	0.77086	0.29793	0.034
Mof_H 	H 	0.93357	0.81941	0.22626	-0.019
Mof_H 	H 	0.12961	0.89432	0.31284	-0.006
Mof_H 	H 	0.27219	0.36335	0.2723	-0.019
Mof_H 	H 	0.34466	0.60322	0.34182	-0.012
Mof_H 	H 	0.57955	0.43883	0.50449	0.028
Mof_H 	H 	0.71422	0.47802	0.49496	0.019
Mof_H 	H 	0.6661	0.48864	0.3726	-0.023
Mof_H 	H 	0.4241	0.40783	0.44702	-0.009
Mof_H 	H 	0.63802	0.85709	0.4976	-0.011
Mof_H 	H 	0.43331	0.59978	0.52809	-0.009
Mof_Ag	Ag	0.89405	0.17055	0.64033	0.632
Mof_C 	C 	0.7815	0.7715	0.7207	-0.009
Mof_N 	N 	0.6576	0.7267	0.7267	-0.1
Mof_N 	N 	0.5907	0.7532	0.7571	-0.147
Mof_C 	C 	0.4982	0.6819	0.7559	0.104
Mof_N 	N 	0.5018	0.6096	0.7274	-0.197
Mof_C 	C 	0.6014	0.6399	0.7094	0.087
Mof_N 	N 	0.7815	0.8895	0.7105	-0.103
Mof_N 	N 	0.7565	0.9702	0.7362	-0.136
Mof_C 	C 	0.7809	0.0629	0.7175	0.098
Mof_N 	N 	0.8191	0.0463	0.6823	-0.204
Mof_C 	C 	0.8198	0.9365	0.6796	0.095
Mof_C 	C 	0.1266	0.0087	0.5104	0.006
Mof_N 	N 	0.1026	0.0295	0.5486	-0.1
Mof_N 	N 	0.1897	0.0022	0.5742	-0.144
Mof_C 	C 	0.1305	0.0248	0.6041	0.107
Mof_N 	N 	0.0134	0.0684	0.5997	-0.199
Mof_C 	C 	0.9978	0.0681	0.5653	0.089
Mof_N 	N 	0.0942	0.8955	0.5013	-0.1
Mof_N 	N 	0.1653	0.8072	0.513	-0.133
Mof_C 	C 	0.1079	0.7177	0.4994	0.099
Mof_N 	N 	0.0019	0.7436	0.4808	-0.186
Mof_C 	C 	0.997	0.8545	0.4825	0.079
Mof_H 	H 	0.828	0.76356	0.74288	0.038
Mof_H 	H 	0.82033	0.72914	0.70207	0.033
Mof_H 	H 	0.43357	0.68059	0.77374	-0.019
Mof_H 	H 	0.62961	0.60568	0.68716	-0.007
Mof_H 	H 	0.77219	0.13665	0.7277	-0.019
Mof_H 	H 	0.84466	0.89678	0.65818	-0.013
Mof_H 	H 	0.07955	0.06117	0.49551	0.031
Mof_H 	H 	0.21422	0.02198	0.50504	0.02
Mof_H 	H 	0.1661	0.01136	0.6274	-0.022
Mof_H 	H 	0.9241	0.09217	0.55298	-0.006
Mof_H 	H 	0.13802	0.64291	0.5024	-0.01
Mof_H 	H 	0.93331	0.90022	0.47191	-0.006
Mof_Ag	Ag	0.90318	0.06026	0.29011	0.651
Mof_Ag	Ag	0.8605	0.63801	0.44346	0.625
Mof_C 	C 	0.1448	0.2219	0.4218	-0.007
Mof_N 	N 	0.1299	0.1855	0.3845	-0.101
Mof_N 	N 	0.2224	0.2023	0.3592	-0.156
Mof_C 	C 	0.1729	0.1611	0.3297	0.107
Mof_N 	N 	0.0563	0.1183	0.3331	-0.196
Mof_C 	C 	0.0332	0.1353	0.3684	0.099
Mof_N 	N 	0.112	0.3421	0.4253	-0.105
Mof_N 	N 	0.1924	0.4226	0.4135	-0.117
Mof_C 	C 	0.1315	0.5162	0.4203	0.086
Mof_N 	N 	0.0118	0.5003	0.4348	-0.197
Mof_C 	C 	0.009	0.3901	0.4374	0.113
Mof_C 	C 	0.6534	0.9122	0.3262	0.008
Mof_N 	N 	0.6273	0.0312	0.3305	-0.104
Mof_N 	N 	0.7163	0.1089	0.322	-0.149
Mof_C 	C 	0.6589	0.2046	0.3293	0.108
Mof_N 	N 	0.5415	0.1924	0.342	-0.203
Mof_C 	C 	0.5237	0.0831	0.3417	0.097
Mof_N 	N 	0.7345	0.8679	0.3544	-0.104
Mof_N 	N 	0.8562	0.9033	0.3566	-0.12
Mof_C 	C 	0.898	0.8427	0.3835	0.11
Mof_N 	N 	0.8173	0.7725	0.3985	-0.201
Mof_C 	C 	0.7129	0.7904	0.3801	0.094
Mof_H 	H 	0.09136	0.17854	0.43716	0.035
Mof_H 	H 	0.22909	0.21164	0.42908	0.031
Mof_H 	H 	0.2167	0.16076	0.30699	-0.026
Mof_H 	H 	0.95753	0.11411	0.38024	-0.007
Mof_H 	H 	0.16523	0.58943	0.41556	-0.007
Mof_H 	H 	0.93975	0.34925	0.447	-0.018
Mof_H 	H 	0.57584	0.87032	0.32629	0.028
Mof_H 	H 	0.69193	0.89957	0.30267	0.022
Mof_H 	H 	0.69692	0.27607	0.32575	-0.022
Mof_H 	H 	0.44756	0.04646	0.34846	-0.01
Mof_H 	H 	0.98181	0.85005	0.39188	-0.017
Mof_H 	H 	0.63518	0.75372	0.38418	-0.008
Mof_Ag	Ag	0.10595	0.67055	0.85967	0.631
Mof_C 	C 	0.2185	0.2715	0.7793	-0.009
Mof_N 	N 	0.3424	0.2267	0.7733	-0.1
Mof_N 	N 	0.4093	0.2532	0.7429	-0.147
Mof_C 	C 	0.5018	0.1819	0.7441	0.105
Mof_N 	N 	0.4982	0.1096	0.7726	-0.197
Mof_C 	C 	0.3986	0.1399	0.7906	0.088
Mof_N 	N 	0.2185	0.3895	0.7895	-0.103
Mof_N 	N 	0.2435	0.4702	0.7638	-0.135
Mof_C 	C 	0.2191	0.5629	0.7825	0.096
Mof_N 	N 	0.1809	0.5463	0.8177	-0.204
Mof_C 	C 	0.1802	0.4365	0.8204	0.097
Mof_C 	C 	0.8734	0.5087	0.9896	0.005
Mof_N 	N 	0.8974	0.5295	0.9514	-0.1
Mof_N 	N 	0.8103	0.5022	0.9258	-0.145
Mof_C 	C 	0.8695	0.5248	0.8959	0.107
Mof_N 	N 	0.9866	0.5684	0.9003	-0.199
Mof_C 	C 	0.0022	0.5681	0.9347	0.088
Mof_N 	N 	0.9058	0.3955	0.9987	-0.099
Mof_N 	N 	0.8347	0.3072	0.987	-0.133
Mof_C 	C 	0.8921	0.2177	0.0006	0.099
Mof_N 	N 	0.9981	0.2436	0.0192	-0.186
Mof_C 	C 	0.003	0.3545	0.0175	0.078
Mof_H 	H 	0.172	0.26356	0.75712	0.038
Mof_H 	H 	0.17967	0.22914	0.79793	0.034
Mof_H 	H 	0.56643	0.18059	0.72626	-0.019
Mof_H 	H 	0.37039	0.10568	0.81284	-0.007
Mof_H 	H 	0.22781	0.63665	0.7723	-0.019
Mof_H 	H 	0.15534	0.39678	0.84182	-0.013
Mof_H 	H 	0.92045	0.56117	0.00449	0.031
Mof_H 	H 	0.78578	0.52198	0.99496	0.02
Mof_H 	H 	0.8339	0.51136	0.8726	-0.022
Mof_H 	H 	0.0759	0.59217	0.94702	-0.006
Mof_H 	H 	0.86198	0.14291	0.9976	-0.01
Mof_H 	H 	0.06669	0.40022	0.02809	-0.006
Mof_Ag	Ag	0.09682	0.56026	0.20989	0.652
Mof_Ag	Ag	0.1395	0.13801	0.05654	0.624
Mof_C 	C 	0.8552	0.7219	0.0782	-0.007
Mof_N 	N 	0.8701	0.6855	0.1155	-0.101
Mof_N 	N 	0.7776	0.7023	0.1408	-0.156
Mof_C 	C 	0.8271	0.6611	0.1703	0.107
Mof_N 	N 	0.9437	0.6183	0.1669	-0.196
Mof_C 	C 	0.9668	0.6353	0.1316	0.099
Mof_N 	N 	0.888	0.8421	0.0747	-0.105
Mof_N 	N 	0.8076	0.9226	0.0865	-0.116
Mof_C 	C 	0.8685	0.0162	0.0797	0.085
Mof_N 	N 	0.9882	0.0003	0.0652	-0.198
Mof_C 	C 	0.991	0.8901	0.0626	0.115
Mof_C 	C 	0.3466	0.4122	0.1738	0.007
Mof_N 	N 	0.3727	0.5312	0.1695	-0.103
Mof_N 	N 	0.2837	0.6089	0.178	-0.149
Mof_C 	C 	0.3411	0.7046	0.1707	0.108
Mof_N 	N 	0.4585	0.6924	0.158	-0.203
Mof_C 	C 	0.4763	0.5831	0.1583	0.097
Mof_N 	N 	0.2655	0.3679	0.1456	-0.104
Mof_N 	N 	0.1438	0.4033	0.1434	-0.12
Mof_C 	C 	0.102	0.3427	0.1165	0.11
Mof_N 	N 	0.1827	0.2725	0.1015	-0.201
Mof_C 	C 	0.2871	0.2904	0.1199	0.094
Mof_H 	H 	0.90864	0.67854	0.06284	0.035
Mof_H 	H 	0.77091	0.71164	0.07092	0.031
Mof_H 	H 	0.7833	0.66076	0.19301	-0.026
Mof_H 	H 	0.04247	0.61411	0.11976	-0.007
Mof_H 	H 	0.83477	0.08943	0.08444	-0.007
Mof_H 	H 	0.06025	0.84925	0.053	-0.018
Mof_H 	H 	0.42416	0.37032	0.17371	0.028
Mof_H 	H 	0.30807	0.39957	0.19733	0.022
Mof_H 	H 	0.30308	0.77607	0.17425	-0.022
Mof_H 	H 	0.55244	0.54646	0.15154	-0.01
Mof_H 	H 	0.01819	0.35005	0.10812	-0.017
Mof_H 	H 	0.36482	0.25372	0.11582	-0.008
Mof_Ag	Ag	0.59682	0.93974	0.79011	0.653
Mof_Ag	Ag	0.6395	0.36199	0.94346	0.633
Mof_C 	C 	0.3552	0.7781	0.9218	-0.008
Mof_N 	N 	0.3701	0.8145	0.8845	-0.1
Mof_N 	N 	0.2776	0.7977	0.8592	-0.156
Mof_C 	C 	0.3271	0.8389	0.8297	0.107
Mof_N 	N 	0.4437	0.8817	0.8331	-0.195
Mof_C 	C 	0.4668	0.8647	0.8684	0.09
Mof_N 	N 	0.388	0.6579	0.9253	-0.103
Mof_N 	N 	0.3076	0.5774	0.9135	-0.117
Mof_C 	C 	0.3685	0.4838	0.9203	0.086
Mof_N 	N 	0.4882	0.4997	0.9348	-0.198
Mof_C 	C 	0.491	0.6099	0.9374	0.101
Mof_C 	C 	0.8466	0.0878	0.8262	0.009
Mof_N 	N 	0.8727	0.9688	0.8305	-0.105
Mof_N 	N 	0.7837	0.8911	0.822	-0.149
Mof_C 	C 	0.8411	0.7954	0.8293	0.108
Mof_N 	N 	0.9585	0.8076	0.842	-0.202
Mof_C 	C 	0.9763	0.9169	0.8417	0.104
Mof_N 	N 	0.7655	0.1321	0.8544	-0.104
Mof_N 	N 	0.6438	0.0967	0.8566	-0.119
Mof_C 	C 	0.602	0.1573	0.8835	0.11
Mof_N 	N 	0.6827	0.2275	0.8985	-0.201
Mof_C 	C 	0.7871	0.2096	0.8801	0.094
Mof_H 	H 	0.40864	0.82146	0.93716	0.034
Mof_H 	H 	0.27091	0.78836	0.92908	0.031
Mof_H 	H 	0.2833	0.83924	0.80699	-0.026
Mof_H 	H 	0.54247	0.88589	0.88024	-0.001
Mof_H 	H 	0.33477	0.41057	0.91556	-0.008
Mof_H 	H 	0.56025	0.65075	0.947	-0.01
Mof_H 	H 	0.92416	0.12968	0.82629	0.028
Mof_H 	H 	0.80807	0.10043	0.80267	0.022
Mof_H 	H 	0.80308	0.72393	0.82575	-0.022
Mof_H 	H 	0.05244	0.95354	0.84846	-0.016
Mof_H 	H 	0.51819	0.14995	0.89188	-0.016
Mof_H 	H 	0.86482	0.24628	0.88418	-0.007
Mof_Ag	Ag	0.60595	0.82945	0.14033	0.638
Mof_C 	C 	0.7185	0.2285	0.2207	-0.009
Mof_N 	N 	0.8424	0.2733	0.2267	-0.1
Mof_N 	N 	0.9093	0.2468	0.2571	-0.147
Mof_C 	C 	0.0018	0.3181	0.2559	0.104
Mof_N 	N 	0.9982	0.3904	0.2274	-0.196
Mof_C 	C 	0.8986	0.3601	0.2094	0.088
Mof_N 	N 	0.7185	0.1105	0.2105	-0.103
Mof_N 	N 	0.7435	0.0298	0.2362	-0.136
Mof_C 	C 	0.7191	0.9371	0.2175	0.098
Mof_N 	N 	0.6809	0.9537	0.1823	-0.204
Mof_C 	C 	0.6802	0.0635	0.1796	0.095
Mof_C 	C 	0.3734	0.9913	0.0104	0.009
Mof_N 	N 	0.3974	0.9705	0.0486	-0.105
Mof_N 	N 	0.3103	0.9978	0.0742	-0.145
Mof_C 	C 	0.3695	0.9752	0.1041	0.106
Mof_N 	N 	0.4866	0.9316	0.0997	-0.206
Mof_C 	C 	0.5022	0.9319	0.0653	0.102
Mof_N 	N 	0.4058	0.1045	0.0013	-0.105
Mof_N 	N 	0.3347	0.1928	0.013	-0.133
Mof_C 	C 	0.3921	0.2823	0.9994	0.098
Mof_N 	N 	0.4981	0.2564	0.9808	-0.193
Mof_C 	C 	0.503	0.1455	0.9825	0.093
Mof_H 	H 	0.672	0.23644	0.24288	0.038
Mof_H 	H 	0.67967	0.27086	0.20207	0.034
Mof_H 	H 	0.06643	0.31941	0.27374	-0.019
Mof_H 	H 	0.87039	0.39432	0.18716	-0.006
Mof_H 	H 	0.72781	0.86335	0.2277	-0.019
Mof_H 	H 	0.65534	0.10322	0.15818	-0.012
Mof_H 	H 	0.42045	0.93883	0.99551	0.027
Mof_H 	H 	0.28578	0.97802	0.00504	0.019
Mof_H 	H 	0.3339	0.98864	0.1274	-0.022
Mof_H 	H 	0.5759	0.90783	0.05298	-0.009
Mof_H 	H 	0.36198	0.35709	0.0024	-0.011
Mof_H 	H 	0.56669	0.09978	0.97191	-0.009
_end
