# CIF file generated by openbabel 3.1.0, see https://openbabel.org
data_I
_chemical_name_common 'image0'
_cell_length_a 9.149
_cell_length_b 11.202
_cell_length_c 14.628
_cell_angle_alpha 73.526
_cell_angle_beta 88.045
_cell_angle_gamma 71.284
_space_group_name_H-M_alt 'P 1'
_space_group_name_Hall 'P 1'
loop_
    _symmetry_equiv_pos_as_xyz
    x,y,z
loop_
    _atom_site_label
    _atom_site_type_symbol
    _atom_site_fract_x
    _atom_site_fract_y
    _atom_site_fract_z
    _atom_site_occupancy
    Zn1      Zn       0.84960    0.18320    0.98636    1.000
    Zn2      Zn       0.29060    0.23640    0.73990    1.000
    Zn3      Zn       0.50550    0.48730    0.15234    1.000
    P1       P        0.75010    0.47920    0.99700    1.000
    P2       P        0.06580    0.07960    0.83640    1.000
    H1       H        0.97370    0.12280    0.76130    1.000
    P3       P        0.58880    0.22750    0.83570    1.000
    H2       H        0.64780    0.15460    0.76660    1.000
    O1       O        0.65930    0.54090    0.90560    1.000
    O2       O        0.66900    0.52500    0.07690    1.000
    O3       O        0.79300    0.33000    0.03600    1.000
    O4       O        0.01430    0.16780    0.90050    1.000
    O5       O        0.10220    0.93330    0.88880    1.000
    O6       O        0.19260    0.10620    0.77460    1.000
    O7       O        0.67460    0.15990    0.93110    1.000
    O8       O        0.43100    0.20750    0.84830    1.000
    O9       O        0.57760    0.36910    0.79290    1.000
    N1       N        0.63840    0.83610    0.96350    1.000
    H3       H        0.62230    0.81780    0.02950    1.000
    N2       N        0.14640    0.42650    0.70310    1.000
    N3       N        0.58200    0.32860    0.27110    1.000
    N4       N        0.65660    0.01280    0.60990    1.000
    N5       N        0.83330    0.89770    0.53210    1.000
    C1       C        0.78700    0.80260    0.93960    1.000
    H4       H        0.86650    0.76680    0.98720    1.000
    C2       C        0.82100    0.82070    0.84700    1.000
    H5       H        0.92360    0.79760    0.83130    1.000
    C3       C        0.52100    0.89030    0.89700    1.000
    H6       H        0.41950    0.91670    0.91510    1.000
    C4       C        0.54950    0.90740    0.79950    1.000
    H7       H        0.46900    0.94020    0.75270    1.000
    C5       C        0.70420    0.87310    0.77590    1.000
    C6       C        0.16700    0.51700    0.62620    1.000
    H8       H        0.24700    0.49100    0.58780    1.000
    C7       C        0.07500    0.64700    0.60110    1.000
    H9       H        0.09770    0.70820    0.54960    1.000
    C8       C        0.03000    0.46600    0.75570    1.000
    H10      H        0.01890    0.40550    0.81180    1.000
    C9       C        0.92500    0.58990    0.73270    1.000
    H11      H        0.83960    0.60980    0.76880    1.000
    C10      C        0.94700    0.68760    0.65320    1.000
    C11      C        0.69700    0.22290    0.27360    1.000
    H12      H        0.74940    0.21780    0.21850    1.000
    C12      C        0.74400    0.11990    0.35390    1.000
    H13      H        0.82860    0.04770    0.35200    1.000
    C13      C        0.50400    0.33100    0.35280    1.000
    H14      H        0.41990    0.40510    0.35260    1.000
    C14      C        0.54500    0.23300    0.43080    1.000
    H15      H        0.48760    0.23930    0.48410    1.000
    C15      C        0.67200    0.11790    0.43770    1.000
    C16      C        0.73710    0.89760    0.67340    1.000
    C17      C        0.84400    0.82670    0.62440    1.000
    C18      C        0.71900    0.00870    0.52510    1.000
    O10      O        0.85300    0.34800    0.99600    1.000
    Zn4      Zn       0.15040    0.81680    0.01364    1.000
    Zn5      Zn       0.70940    0.76360    0.26010    1.000
    Zn6      Zn       0.49450    0.51270    0.84766    1.000
    P4       P        0.24990    0.52080    0.00300    1.000
    P5       P        0.93420    0.92040    0.16360    1.000
    H16      H        0.02630    0.87720    0.23870    1.000
    P6       P        0.41120    0.77250    0.16430    1.000
    H17      H        0.35220    0.84540    0.23340    1.000
    O11      O        0.34070    0.45910    0.09440    1.000
    O12      O        0.33100    0.47500    0.92310    1.000
    O13      O        0.20700    0.67000    0.96400    1.000
    O14      O        0.98570    0.83220    0.09950    1.000
    O15      O        0.89780    0.06670    0.11120    1.000
    O16      O        0.80740    0.89380    0.22540    1.000
    O17      O        0.32540    0.84010    0.06890    1.000
    O18      O        0.56900    0.79250    0.15170    1.000
    O19      O        0.42240    0.63090    0.20710    1.000
    N6       N        0.36160    0.16390    0.03650    1.000
    H18      H        0.37770    0.18220    0.97050    1.000
    N7       N        0.85360    0.57350    0.29690    1.000
    N8       N        0.41800    0.67140    0.72890    1.000
    N9       N        0.34340    0.98720    0.39010    1.000
    N10      N        0.16670    0.10230    0.46790    1.000
    C19      C        0.21300    0.19740    0.06040    1.000
    H19      H        0.13350    0.23320    0.01280    1.000
    C20      C        0.17900    0.17930    0.15300    1.000
    H20      H        0.07640    0.20240    0.16870    1.000
    C21      C        0.47900    0.10970    0.10300    1.000
    H21      H        0.58050    0.08330    0.08490    1.000
    C22      C        0.45050    0.09260    0.20050    1.000
    H22      H        0.53100    0.05980    0.24730    1.000
    C23      C        0.29580    0.12690    0.22410    1.000
    C24      C        0.83300    0.48300    0.37380    1.000
    H23      H        0.75300    0.50900    0.41220    1.000
    C25      C        0.92500    0.35300    0.39890    1.000
    H24      H        0.90230    0.29180    0.45040    1.000
    C26      C        0.97000    0.53400    0.24430    1.000
    H25      H        0.98110    0.59450    0.18820    1.000
    C27      C        0.07500    0.41010    0.26730    1.000
    H26      H        0.16040    0.39020    0.23120    1.000
    C28      C        0.05300    0.31240    0.34680    1.000
    C29      C        0.30300    0.77710    0.72640    1.000
    H27      H        0.25060    0.78220    0.78150    1.000
    C30      C        0.25600    0.88010    0.64610    1.000
    H28      H        0.17140    0.95230    0.64800    1.000
    C31      C        0.49600    0.66900    0.64720    1.000
    H29      H        0.58010    0.59490    0.64740    1.000
    C32      C        0.45500    0.76700    0.56920    1.000
    H30      H        0.51240    0.76070    0.51590    1.000
    C33      C        0.32800    0.88210    0.56230    1.000
    C34      C        0.26290    0.10240    0.32660    1.000
    C35      C        0.15600    0.17330    0.37560    1.000
    C36      C        0.28100    0.99130    0.47490    1.000
    O20      O        0.14700    0.65200    0.00400    1.000
