# CIF file generated by openbabel 3.1.0, see https://openbabel.org
data_I
_chemical_name_common 'ZAVPIX_clean'
_cell_length_a 14.2166
_cell_length_b 14.2166
_cell_length_c 15.8302
_cell_angle_alpha 82.483
_cell_angle_beta 65.0575
_cell_angle_gamma 112.629
_space_group_name_H-M_alt 'P 1'
_space_group_name_Hall 'P 1'
loop_
    _symmetry_equiv_pos_as_xyz
    x,y,z
loop_
    _atom_site_label
    _atom_site_type_symbol
    _atom_site_fract_x
    _atom_site_fract_y
    _atom_site_fract_z
    _atom_site_occupancy
    Ce1      Ce       0.85928    0.35910    0.12150    1.000
    Ce2      Ce       0.98060    0.98078    0.37850    1.000
    Ce3      Ce       0.14072    0.64090    0.87850    1.000
    Ce4      Ce       0.01940    0.01922    0.62150    1.000
    H1       H        0.87840    0.16510    0.39570    1.000
    H2       H        0.71860    0.34930    0.47230    1.000
    H3       H        0.80380    0.22230    0.65490    1.000
    H4       H        0.69370    0.26770    0.92400    1.000
    H5       H        0.97320    0.54480    0.70120    1.000
    H6       H        0.89460    0.50790    0.60030    1.000
    H7       H        0.06080    0.27410    0.10430    1.000
    H8       H        0.32160    0.19090    0.02770    1.000
    H9       H        0.37720    0.45870    0.84510    1.000
    H10      H        0.69170    0.61770    0.57600    1.000
    H11      H        0.74600    0.67440    0.79880    1.000
    H12      H        0.60820    0.49490    0.89970    1.000
    H13      H        0.12160    0.83490    0.60430    1.000
    H14      H        0.28140    0.65070    0.52770    1.000
    H15      H        0.19620    0.77770    0.34510    1.000
    H16      H        0.30630    0.73230    0.07600    1.000
    H17      H        0.02680    0.45520    0.29880    1.000
    H18      H        0.10540    0.49210    0.39970    1.000
    H19      H        0.93920    0.72590    0.89570    1.000
    H20      H        0.67840    0.80910    0.97230    1.000
    H21      H        0.62280    0.54130    0.15490    1.000
    H22      H        0.30830    0.38230    0.42400    1.000
    H23      H        0.25400    0.32560    0.20120    1.000
    H24      H        0.39180    0.50510    0.10030    1.000
    C1       C        0.84630    0.18150    0.53020    1.000
    C2       C        0.84640    0.19720    0.44120    1.000
    C3       C        0.79870    0.26050    0.41940    1.000
    C4       C        0.75250    0.30770    0.48600    1.000
    C5       C        0.75640    0.29340    0.57200    1.000
    C6       C        0.80230    0.23110    0.59500    1.000
    C7       C        0.75030    0.36220    0.69950    1.000
    C8       C        0.69030    0.29190    0.79640    1.000
    C9       C        0.73590    0.31580    0.85730    1.000
    C10      C        0.84220    0.40880    0.82200    1.000
    C11      C        0.90050    0.47990    0.72580    1.000
    C12      C        0.85460    0.45750    0.66570    1.000
    C13      C        0.89000    0.11150    0.56050    1.000
    C14      C        0.79980    0.27910    0.32350    1.000
    C15      C        0.89660    0.43070    0.88630    1.000
    C16      C        0.21170    0.37650    0.96980    1.000
    C17      C        0.13840    0.28760    0.05880    1.000
    C18      C        0.17990    0.21810    0.08060    1.000
    C19      C        0.29370    0.23850    0.01400    1.000
    C20      C        0.36540    0.32840    0.92800    1.000
    C21      C        0.32610    0.39730    0.90500    1.000
    C22      C        0.56170    0.44980    0.80050    1.000
    C23      C        0.58830    0.48670    0.70360    1.000
    C24      C        0.67310    0.59320    0.64270    1.000
    C25      C        0.73080    0.66420    0.67800    1.000
    C26      C        0.70570    0.62630    0.77420    1.000
    C27      C        0.62320    0.52030    0.83430    1.000
    C28      C        0.17200    0.45050    0.93950    1.000
    C29      C        0.10260    0.12330    0.17650    1.000
    C30      C        0.81700    0.78290    0.61370    1.000
    C31      C        0.15370    0.81850    0.46980    1.000
    C32      C        0.15360    0.80280    0.55880    1.000
    C33      C        0.20130    0.73950    0.58060    1.000
    C34      C        0.24750    0.69230    0.51400    1.000
    C35      C        0.24360    0.70660    0.42800    1.000
    C36      C        0.19770    0.76890    0.40500    1.000
    C37      C        0.24970    0.63780    0.30050    1.000
    C38      C        0.30970    0.70810    0.20360    1.000
    C39      C        0.26410    0.68420    0.14270    1.000
    C40      C        0.15780    0.59120    0.17800    1.000
    C41      C        0.09950    0.52010    0.27420    1.000
    C42      C        0.14540    0.54250    0.33430    1.000
    C43      C        0.11000    0.88850    0.43950    1.000
    C44      C        0.20020    0.72090    0.67650    1.000
    C45      C        0.10340    0.56930    0.11370    1.000
    C46      C        0.78830    0.62350    0.03020    1.000
    C47      C        0.86160    0.71240    0.94120    1.000
    C48      C        0.82010    0.78190    0.91940    1.000
    C49      C        0.70630    0.76150    0.98600    1.000
    C50      C        0.63460    0.67160    0.07200    1.000
    C51      C        0.67390    0.60270    0.09500    1.000
    C52      C        0.43830    0.55020    0.19950    1.000
    C53      C        0.41170    0.51330    0.29640    1.000
    C54      C        0.32690    0.40680    0.35730    1.000
    C55      C        0.26920    0.33580    0.32200    1.000
    C56      C        0.29430    0.37370    0.22580    1.000
    C57      C        0.37680    0.47970    0.16570    1.000
    C58      C        0.82800    0.54950    0.06050    1.000
    C59      C        0.89740    0.87670    0.82350    1.000
    C60      C        0.18300    0.21710    0.38630    1.000
    N1       N        0.57860    0.19010    0.83850    1.000
    N2       N        0.52860    0.41710    0.66150    1.000
    N3       N        0.42140    0.80990    0.16150    1.000
    N4       N        0.47140    0.58290    0.33850    1.000
    O1       O        0.89790    0.11090    0.63660    1.000
    O2       O        0.91797    0.05443    0.51060    1.000
    O3       O        0.84760    0.24040    0.26140    1.000
    O4       O        0.75445    0.33385    0.30710    1.000
    O5       O        0.54990    0.15360    0.78270    1.000
    O6       O        0.51840    0.14630    0.92890    1.000
    O7       O        0.83490    0.36930    0.97480    1.000
    O8       O        0.00010    0.50900    0.84430    1.000
    O9       O        0.70940    0.34380    0.63440    1.000
    O10      O        0.24750    0.53450    0.86340    1.000
    O11      O        0.06503    0.42857    0.98940    1.000
    O12      O        0.00180    0.10900    0.23860    1.000
    O13      O        0.14095    0.06155    0.19290    1.000
    O14      O        0.43630    0.33260    0.71730    1.000
    O15      O        0.57520    0.44730    0.57110    1.000
    O16      O        0.84410    0.80970    0.52520    1.000
    O17      O        0.85330    0.84440    0.65570    1.000
    O18      O        0.47820    0.34380    0.86560    1.000
    O19      O        0.10210    0.88910    0.36340    1.000
    O20      O        0.08203    0.94557    0.48940    1.000
    O21      O        0.15240    0.75960    0.73860    1.000
    O22      O        0.24555    0.66615    0.69290    1.000
    O23      O        0.45010    0.84640    0.21730    1.000
    O24      O        0.48160    0.85370    0.07110    1.000
    O25      O        0.16510    0.63070    0.02520    1.000
    O26      O        0.99990    0.49100    0.15570    1.000
    O27      O        0.29060    0.65620    0.36560    1.000
    O28      O        0.75250    0.46550    0.13660    1.000
    O29      O        0.93497    0.57143    0.01060    1.000
    O30      O        0.99820    0.89100    0.76140    1.000
    O31      O        0.85905    0.93845    0.80710    1.000
    O32      O        0.56370    0.66740    0.28270    1.000
    O33      O        0.42480    0.55270    0.42890    1.000
    O34      O        0.15590    0.19030    0.47480    1.000
    O35      O        0.14670    0.15560    0.34430    1.000
    O36      O        0.52180    0.65620    0.13440    1.000
