data_functionalizedCrystal
_audit_creation_method	'EQeq! by Chris Wilmer'
_symmetry_space_group_name_H-M	'P1'
_symmetry_Int_Tables_number	1
_symmetry_cell_setting	triclinic
loop_
_symmetry_equiv_pos_as_xyz
  x,y,z
_cell_length_a	6.4463
_cell_length_b	10.9728
_cell_length_c	16.0996
_cell_angle_alpha	90
_cell_angle_beta	99.775
_cell_angle_gamma	90
loop_
_atom_site_label
_atom_site_type_symbol
_atom_site_fract_x
_atom_site_fract_y
_atom_site_fract_z
_atom_site_charge
Mof_Ca	Ca	0.24297	0.92848	0.95223	1.348
Mof_Ca	Ca	0.25703	0.42848	0.54777	1.362
Mof_Ca	Ca	0.75703	0.07152	0.04777	1.348
Mof_Ca	Ca	0.74297	0.57152	0.45223	1.362
Mof_H 	H 	0.5669	0.7176	0.7653	0.08
Mof_H 	H 	0.2654	0.7726	0.7662	-0.008
Mof_H 	H 	0.7199	0.6243	0.6624	-0.009
Mof_H 	H 	0.9331	0.2176	0.7347	0.077
Mof_H 	H 	0.2346	0.2726	0.7338	-0.007
Mof_H 	H 	0.7801	0.1243	0.8376	-0.004
Mof_H 	H 	0.4331	0.2824	0.2347	0.08
Mof_H 	H 	0.7346	0.2274	0.2338	-0.008
Mof_H 	H 	0.2801	0.3757	0.3376	-0.009
Mof_H 	H 	0.0669	0.7824	0.2653	0.077
Mof_H 	H 	0.7654	0.7274	0.2662	-0.007
Mof_H 	H 	0.2199	0.8757	0.1624	-0.004
Mof_C 	C 	0.0119	0.6897	0.7026	-0.181
Mof_C 	C 	0.8286	0.803	0.823	-0.025
Mof_C 	C 	0.7092	0.7292	0.7639	-0.103
Mof_C 	C 	0.1217	0.7624	0.765	0.102
Mof_C 	C 	0.8001	0.673	0.7029	0.072
Mof_C 	C 	0.1214	0.6246	0.6393	0.398
Mof_C 	C 	0.7307	0.8673	0.8903	0.377
Mof_C 	C 	0.4881	0.1897	0.7974	-0.172
Mof_C 	C 	0.6714	0.303	0.677	-0.031
Mof_C 	C 	0.7908	0.2292	0.7361	-0.096
Mof_C 	C 	0.3783	0.2624	0.735	0.099
Mof_C 	C 	0.6999	0.173	0.7971	0.064
Mof_C 	C 	0.3786	0.1246	0.8607	0.395
Mof_C 	C 	0.7693	0.3673	0.6097	0.38
Mof_C 	C 	0.9881	0.3103	0.2974	-0.181
Mof_C 	C 	0.1714	0.197	0.177	-0.025
Mof_C 	C 	0.2908	0.2708	0.2361	-0.103
Mof_C 	C 	0.8783	0.2376	0.235	0.102
Mof_C 	C 	0.1999	0.327	0.2971	0.072
Mof_C 	C 	0.8786	0.3754	0.3607	0.398
Mof_C 	C 	0.2693	0.1327	0.1097	0.377
Mof_C 	C 	0.5119	0.8103	0.2026	-0.172
Mof_C 	C 	0.3286	0.697	0.323	-0.031
Mof_C 	C 	0.2092	0.7708	0.2639	-0.096
Mof_C 	C 	0.6217	0.7376	0.265	0.099
Mof_C 	C 	0.3001	0.827	0.2029	0.064
Mof_C 	C 	0.6214	0.8754	0.1393	0.395
Mof_C 	C 	0.2307	0.6327	0.3903	0.38
Mof_N 	N 	0.0337	0.8191	0.8241	-0.201
Mof_N 	N 	0.4663	0.3191	0.6759	-0.197
Mof_N 	N 	0.9663	0.1809	0.1759	-0.201
Mof_N 	N 	0.5337	0.6809	0.3241	-0.197
Mof_O 	O 	0.854	0.931	0.94263	-0.519
Mof_O 	O 	0.5386	0.852	0.88799	-0.424
Mof_O 	O 	0.3082	0.5947	0.66076	-0.396
Mof_O 	O 	0.016	0.6005	0.56863	-0.524
Mof_O 	O 	0.646	0.431	0.55737	-0.523
Mof_O 	O 	0.9614	0.352	0.61201	-0.425
Mof_O 	O 	0.1918	0.0947	0.83924	-0.392
Mof_O 	O 	0.484	0.1005	0.93137	-0.517
Mof_O 	O 	0.146	0.069	0.05737	-0.519
Mof_O 	O 	0.4614	0.148	0.11201	-0.424
Mof_O 	O 	0.6918	0.4053	0.33924	-0.396
Mof_O 	O 	0.984	0.3995	0.43137	-0.524
Mof_O 	O 	0.354	0.569	0.44263	-0.523
Mof_O 	O 	0.0386	0.648	0.38799	-0.425
Mof_O 	O 	0.8082	0.9053	0.16076	-0.392
Mof_O 	O 	0.516	0.8995	0.06863	-0.517
_end
