# CIF file generated by openbabel 3.1.0, see https://openbabel.org
data_I
_chemical_name_common 'CUGLTM_clean'
_cell_length_a 7.238
_cell_length_b 10.35
_cell_length_c 11.084
_cell_angle_alpha 90
_cell_angle_beta 90
_cell_angle_gamma 90
_space_group_name_H-M_alt 'P 1'
_space_group_name_Hall 'P 1'
loop_
    _symmetry_equiv_pos_as_xyz
    x,y,z
loop_
    _atom_site_label
    _atom_site_type_symbol
    _atom_site_fract_x
    _atom_site_fract_y
    _atom_site_fract_z
    _atom_site_occupancy
    Cu1      Cu       0.64970    0.81668    0.72067    1.000
    Cu2      Cu       0.35030    0.68332    0.22067    1.000
    H1       H        0.58300    0.02200    0.97200    1.000
    H2       H        0.83900    0.98100    0.08100    1.000
    H3       H        0.74100    0.86200    0.10300    1.000
    H4       H        0.03900    0.89300    0.93700    1.000
    H5       H        0.90800    0.74100    0.95400    1.000
    H6       H        0.47600    0.86100    0.86500    1.000
    H7       H        0.57400    0.78200    0.94600    1.000
    H8       H        0.41700    0.47800    0.47200    1.000
    H9       H        0.16100    0.51900    0.58100    1.000
    H10      H        0.25900    0.63800    0.60300    1.000
    H11      H        0.96100    0.60700    0.43700    1.000
    H12      H        0.09200    0.75900    0.45400    1.000
    H13      H        0.52400    0.63900    0.36500    1.000
    H14      H        0.42600    0.71800    0.44600    1.000
    C1       C        0.77800    0.03400    0.84050    1.000
    C2       C        0.66990    0.96610    0.93890    1.000
    C3       C        0.80150    0.91760    0.03700    1.000
    C4       C        0.95730    0.83260    0.99330    1.000
    C5       C        0.07560    0.78290    0.09540    1.000
    C6       C        0.22200    0.46600    0.34050    1.000
    C7       C        0.33010    0.53390    0.43890    1.000
    C8       C        0.19850    0.58240    0.53700    1.000
    C9       C        0.04270    0.66740    0.49330    1.000
    C10      C        0.92440    0.71710    0.59540    1.000
    N1       N        0.56020    0.85830    0.88670    1.000
    N2       N        0.43980    0.64170    0.38670    1.000
    O1       O        0.76830    0.98720    0.73340    1.000
    O2       O        0.87410    0.12860    0.86900    1.000
    O3       O        0.22490    0.72140    0.06590    1.000
    O4       O        0.03560    0.80060    0.20310    1.000
    O5       O        0.23170    0.51280    0.23340    1.000
    O6       O        0.12590    0.37140    0.36900    1.000
    O7       O        0.77510    0.77860    0.56590    1.000
    O8       O        0.96440    0.69940    0.70310    1.000
    Cu3      Cu       0.14970    0.18332    0.77933    1.000
    Cu4      Cu       0.85030    0.31668    0.27933    1.000
    H15      H        0.08300    0.97800    0.52800    1.000
    H16      H        0.33900    0.01900    0.41900    1.000
    H17      H        0.24100    0.13800    0.39700    1.000
    H18      H        0.53900    0.10700    0.56300    1.000
    H19      H        0.40800    0.25900    0.54600    1.000
    H20      H        0.97600    0.13900    0.63500    1.000
    H21      H        0.07400    0.21800    0.55400    1.000
    H22      H        0.91700    0.52200    0.02800    1.000
    H23      H        0.66100    0.48100    0.91900    1.000
    H24      H        0.75900    0.36200    0.89700    1.000
    H25      H        0.46100    0.39300    0.06300    1.000
    H26      H        0.59200    0.24100    0.04600    1.000
    H27      H        0.02400    0.36100    0.13500    1.000
    H28      H        0.92600    0.28200    0.05400    1.000
    C11      C        0.27800    0.96600    0.65950    1.000
    C12      C        0.16990    0.03390    0.56110    1.000
    C13      C        0.30150    0.08240    0.46300    1.000
    C14      C        0.45730    0.16740    0.50670    1.000
    C15      C        0.57560    0.21710    0.40460    1.000
    C16      C        0.72200    0.53400    0.15950    1.000
    C17      C        0.83010    0.46610    0.06110    1.000
    C18      C        0.69850    0.41760    0.96300    1.000
    C19      C        0.54270    0.33260    0.00670    1.000
    C20      C        0.42440    0.28290    0.90460    1.000
    N3       N        0.06020    0.14170    0.61330    1.000
    N4       N        0.93980    0.35830    0.11330    1.000
    O9       O        0.26830    0.01280    0.76660    1.000
    O10      O        0.37410    0.87140    0.63100    1.000
    O11      O        0.72490    0.27860    0.43410    1.000
    O12      O        0.53560    0.19940    0.29690    1.000
    O13      O        0.73170    0.48720    0.26660    1.000
    O14      O        0.62590    0.62860    0.13100    1.000
    O15      O        0.27510    0.22140    0.93410    1.000
    O16      O        0.46440    0.30060    0.79690    1.000
