data_functionalizedCrystal
_audit_creation_method	'EQeq! by Chris Wilmer'
_symmetry_space_group_name_H-M	'P1'
_symmetry_Int_Tables_number	1
_symmetry_cell_setting	triclinic
loop_
_symmetry_equiv_pos_as_xyz
  x,y,z
_cell_length_a	22.028
_cell_length_b	12.607
_cell_length_c	23.179
_cell_angle_alpha	90
_cell_angle_beta	103.76
_cell_angle_gamma	90
loop_
_atom_site_label
_atom_site_type_symbol
_atom_site_fract_x
_atom_site_fract_y
_atom_site_fract_z
_atom_site_charge
Mof_O 	O 	0.59944	0.38252	0.24409	-0.296
Mof_Cd	Cd	0.59752	0.66775	0.2706	0.485
Mof_C 	C 	0.64994	0.4311	0.25909	0.311
Mof_O 	O 	0.65759	0.52158	0.28069	-0.296
Mof_O 	O 	0.55083	0.82607	0.27125	-0.292
Mof_N 	N 	0.81147	0.26637	0.2333	-0.14
Mof_C 	C 	0.70679	0.3728	0.25005	-0.033
Mof_C 	C 	0.70129	0.2764	0.22155	-0.084
Mof_C 	C 	0.76581	0.4153	0.27009	-0.076
Mof_H 	H 	0.6623	0.2452	0.2078	0.061
Mof_C 	C 	0.75467	0.2266	0.21371	0.039
Mof_C 	C 	0.81626	0.3597	0.26114	0.042
Mof_H 	H 	0.7712	0.4805	0.2893	0.061
Mof_C 	C 	0.55313	0.0464	0.27673	-0.074
Mof_H 	H 	0.7505	0.162	0.1937	0.015
Mof_H 	H 	0.8559	0.3886	0.2752	0.024
Mof_H 	H 	0.5896	0.0111	0.2953	0.063
Mof_C 	C 	0.55113	0.1554	0.27542	0.045
Mof_H 	H 	0.5873	0.1925	0.2932	0.022
Mof_N 	N 	0.52603	0.38746	0.35514	-0.144
Mof_C 	C 	0.58195	0.3553	0.38701	0.079
Mof_C 	C 	0.48211	0.4032	0.38527	0.081
Mof_H 	H 	0.6131	0.3425	0.367	0.011
Mof_C 	C 	0.59608	0.34	0.44738	-0.138
Mof_C 	C 	0.49217	0.3892	0.44546	-0.14
Mof_H 	H 	0.4426	0.4248	0.3643	0.014
Mof_H 	H 	0.6359	0.3181	0.4672	0.071
Mof_C 	C 	0.55048	0.3574	0.47841	0.055
Mof_H 	H 	0.4599	0.4009	0.4642	0.074
Mof_C 	C 	0.56288	0.3453	0.54345	0.052
Mof_C 	C 	0.62066	0.3718	0.5802	-0.136
Mof_C 	C 	0.51749	0.3102	0.57101	-0.135
Mof_H 	H 	0.6534	0.3932	0.5639	0.067
Mof_C 	C 	0.62876	0.3658	0.64071	0.077
Mof_C 	C 	0.52975	0.3056	0.63172	0.085
Mof_H 	H 	0.4785	0.2897	0.5483	0.079
Mof_N 	N 	0.58441	0.3347	0.66716	-0.145
Mof_H 	H 	0.6675	0.3845	0.6646	0.009
Mof_H 	H 	0.4985	0.281	0.6492	0.024
Mof_N 	N 	0.62946	0.68454	0.37386	-0.213
Mof_C 	C 	0.6524	0.6033	0.40887	0.249
Mof_C 	C 	0.62897	0.779	0.40022	0.235
Mof_H 	H 	0.6554	0.5377	0.3914	-0.045
Mof_C 	C 	0.6719	0.6114	0.46968	-0.477
Mof_C 	C 	0.64847	0.7926	0.46079	-0.47
Mof_H 	H 	0.6149	0.8378	0.3766	-0.045
Mof_H 	H 	0.6867	0.5516	0.4921	0.187
Mof_C 	C 	0.66978	0.707	0.49751	0.534
Mof_H 	H 	0.6473	0.8597	0.4771	0.183
Mof_C 	C 	0.6899	0.7178	0.56396	-1.1
Mof_H 	H 	0.7017	0.79	0.5741	0.351
Mof_H 	H 	0.725	0.672	0.579	0.353
Mof_H 	H 	0.656	0.6983	0.5812	0.352
Mof_O 	O 	0.09944	0.88252	0.24409	-0.295
Mof_Cd	Cd	0.09752	0.16775	0.2706	0.486
Mof_C 	C 	0.14994	0.9311	0.25909	0.311
Mof_O 	O 	0.15759	0.02158	0.28069	-0.296
Mof_O 	O 	0.05083	0.32607	0.27125	-0.291
Mof_N 	N 	0.31147	0.76637	0.2333	-0.14
Mof_C 	C 	0.20679	0.8728	0.25005	-0.032
Mof_C 	C 	0.20129	0.7764	0.22155	-0.084
Mof_C 	C 	0.26581	0.9153	0.27009	-0.076
Mof_H 	H 	0.1623	0.7452	0.2078	0.061
Mof_C 	C 	0.25467	0.7266	0.21371	0.039
Mof_C 	C 	0.31626	0.8597	0.26114	0.042
Mof_H 	H 	0.2712	0.9805	0.2893	0.061
Mof_C 	C 	0.05313	0.5464	0.27673	-0.074
Mof_H 	H 	0.2505	0.662	0.1937	0.014
Mof_H 	H 	0.3559	0.8886	0.2752	0.024
Mof_H 	H 	0.0896	0.5111	0.2953	0.063
Mof_C 	C 	0.05113	0.6554	0.27542	0.044
Mof_H 	H 	0.0873	0.6925	0.2932	0.023
Mof_N 	N 	0.02603	0.88746	0.35514	-0.146
Mof_C 	C 	0.08195	0.8553	0.38701	0.075
Mof_C 	C 	0.98211	0.9032	0.38527	0.082
Mof_H 	H 	0.1131	0.8425	0.367	0.012
Mof_C 	C 	0.09608	0.84	0.44738	-0.133
Mof_C 	C 	0.99217	0.8892	0.44546	-0.131
Mof_H 	H 	0.9426	0.9248	0.3643	0.015
Mof_H 	H 	0.1359	0.8181	0.4672	0.069
Mof_C 	C 	0.05048	0.8574	0.47841	0.046
Mof_H 	H 	0.9599	0.9009	0.4642	0.072
Mof_C 	C 	0.06288	0.8453	0.54345	0.058
Mof_C 	C 	0.12066	0.8718	0.5802	-0.139
Mof_C 	C 	0.01749	0.8102	0.57101	-0.144
Mof_H 	H 	0.1534	0.8932	0.5639	0.068
Mof_C 	C 	0.12876	0.8658	0.64071	0.079
Mof_C 	C 	0.02975	0.8056	0.63172	0.081
Mof_H 	H 	0.9785	0.7897	0.5483	0.085
Mof_N 	N 	0.08441	0.8347	0.66716	-0.145
Mof_H 	H 	0.1675	0.8845	0.6646	0.008
Mof_H 	H 	0.9985	0.781	0.6492	0.029
Mof_N 	N 	0.12946	0.18454	0.37386	-0.213
Mof_C 	C 	0.1524	0.1033	0.40887	0.248
Mof_C 	C 	0.12897	0.279	0.40022	0.235
Mof_H 	H 	0.1554	0.0377	0.3914	-0.045
Mof_C 	C 	0.1719	0.1114	0.46968	-0.477
Mof_C 	C 	0.14847	0.2926	0.46079	-0.469
Mof_H 	H 	0.1149	0.3378	0.3766	-0.045
Mof_H 	H 	0.1867	0.0516	0.4921	0.187
Mof_C 	C 	0.16978	0.207	0.49751	0.533
Mof_H 	H 	0.1473	0.3597	0.4771	0.183
Mof_C 	C 	0.1899	0.2178	0.56396	-1.1
Mof_H 	H 	0.2017	0.29	0.5741	0.351
Mof_H 	H 	0.225	0.172	0.579	0.352
Mof_H 	H 	0.156	0.1983	0.5812	0.352
Mof_O 	O 	0.40056	0.38252	0.25591	-0.295
Mof_Cd	Cd	0.40248	0.66775	0.2294	0.486
Mof_C 	C 	0.35006	0.4311	0.24091	0.312
Mof_O 	O 	0.34241	0.52158	0.21931	-0.296
Mof_O 	O 	0.44917	0.82607	0.22875	-0.292
Mof_N 	N 	0.18853	0.26637	0.2667	-0.14
Mof_C 	C 	0.29321	0.3728	0.24995	-0.032
Mof_C 	C 	0.29871	0.2764	0.27845	-0.084
Mof_C 	C 	0.23419	0.4153	0.22991	-0.076
Mof_H 	H 	0.3377	0.2452	0.2922	0.061
Mof_C 	C 	0.24533	0.2266	0.28629	0.039
Mof_C 	C 	0.18374	0.3597	0.23886	0.042
Mof_H 	H 	0.2288	0.4805	0.2107	0.061
Mof_C 	C 	0.44687	0.0464	0.22327	-0.074
Mof_H 	H 	0.2495	0.162	0.3063	0.015
Mof_H 	H 	0.1441	0.3886	0.2248	0.024
Mof_H 	H 	0.4104	0.0111	0.2047	0.063
Mof_C 	C 	0.44887	0.1554	0.22458	0.045
Mof_H 	H 	0.4127	0.1925	0.2068	0.022
Mof_N 	N 	0.47397	0.38746	0.14486	-0.144
Mof_C 	C 	0.41805	0.3553	0.11299	0.079
Mof_C 	C 	0.51789	0.4032	0.11473	0.081
Mof_H 	H 	0.3869	0.3425	0.133	0.011
Mof_C 	C 	0.40392	0.34	0.05262	-0.138
Mof_C 	C 	0.50783	0.3892	0.05454	-0.14
Mof_H 	H 	0.5574	0.4248	0.1357	0.014
Mof_H 	H 	0.3641	0.3181	0.0328	0.071
Mof_C 	C 	0.44952	0.3574	0.02159	0.056
Mof_H 	H 	0.5401	0.4009	0.0358	0.074
Mof_C 	C 	0.43712	0.3453	0.95655	0.052
Mof_C 	C 	0.37934	0.3718	0.9198	-0.136
Mof_C 	C 	0.48251	0.3102	0.92899	-0.135
Mof_H 	H 	0.3466	0.3932	0.9361	0.066
Mof_C 	C 	0.37124	0.3658	0.85929	0.077
Mof_C 	C 	0.47025	0.3056	0.86828	0.084
Mof_H 	H 	0.5215	0.2897	0.9517	0.079
Mof_N 	N 	0.41559	0.3347	0.83284	-0.145
Mof_H 	H 	0.3325	0.3845	0.8354	0.009
Mof_H 	H 	0.5015	0.281	0.8508	0.025
Mof_N 	N 	0.37054	0.68454	0.12614	-0.213
Mof_C 	C 	0.3476	0.6033	0.09113	0.249
Mof_C 	C 	0.37103	0.779	0.09978	0.235
Mof_H 	H 	0.3446	0.5377	0.1086	-0.045
Mof_C 	C 	0.3281	0.6114	0.03032	-0.477
Mof_C 	C 	0.35153	0.7926	0.03921	-0.47
Mof_H 	H 	0.3851	0.8378	0.1234	-0.045
Mof_H 	H 	0.3133	0.5516	0.0079	0.187
Mof_C 	C 	0.33022	0.707	0.00249	0.534
Mof_H 	H 	0.3527	0.8597	0.0229	0.183
Mof_C 	C 	0.3101	0.7178	0.93604	-1.1
Mof_H 	H 	0.2983	0.79	0.9259	0.351
Mof_H 	H 	0.275	0.672	0.921	0.353
Mof_H 	H 	0.344	0.6983	0.9188	0.352
Mof_O 	O 	0.90056	0.88252	0.25591	-0.293
Mof_Cd	Cd	0.90247	0.16775	0.2294	0.488
Mof_C 	C 	0.85006	0.9311	0.24091	0.311
Mof_O 	O 	0.84241	0.02158	0.21931	-0.295
Mof_O 	O 	0.94917	0.32607	0.22875	-0.288
Mof_N 	N 	0.68853	0.76637	0.2667	-0.14
Mof_C 	C 	0.79321	0.8728	0.24995	-0.032
Mof_C 	C 	0.79871	0.7764	0.27845	-0.085
Mof_C 	C 	0.73419	0.9153	0.22991	-0.077
Mof_H 	H 	0.8377	0.7452	0.2922	0.061
Mof_C 	C 	0.74533	0.7266	0.28629	0.039
Mof_C 	C 	0.68374	0.8597	0.23886	0.042
Mof_H 	H 	0.7288	0.9805	0.2107	0.061
Mof_C 	C 	0.94687	0.5464	0.22327	-0.07
Mof_H 	H 	0.7495	0.662	0.3063	0.015
Mof_H 	H 	0.6441	0.8886	0.2248	0.024
Mof_H 	H 	0.9104	0.5111	0.2047	0.062
Mof_C 	C 	0.94887	0.6554	0.22458	0.048
Mof_H 	H 	0.9127	0.6925	0.2068	0.022
Mof_N 	N 	0.97397	0.88746	0.14486	-0.142
Mof_C 	C 	0.91805	0.8553	0.11299	0.081
Mof_C 	C 	0.01789	0.9032	0.11473	0.079
Mof_H 	H 	0.8869	0.8425	0.133	0.01
Mof_C 	C 	0.90392	0.84	0.05262	-0.141
Mof_C 	C 	0.00783	0.8892	0.05454	-0.146
Mof_H 	H 	0.0574	0.9248	0.1357	0.015
Mof_H 	H 	0.8641	0.8181	0.0328	0.072
Mof_C 	C 	0.94952	0.8574	0.02159	0.062
Mof_H 	H 	0.0401	0.9009	0.0358	0.076
Mof_C 	C 	0.93712	0.8453	0.95655	0.049
Mof_C 	C 	0.87934	0.8718	0.9198	-0.134
Mof_C 	C 	0.98251	0.8102	0.92899	-0.126
Mof_H 	H 	0.8466	0.8932	0.9361	0.066
Mof_C 	C 	0.87124	0.8658	0.85929	0.076
Mof_C 	C 	0.97025	0.8056	0.86828	0.089
Mof_H 	H 	0.0215	0.7897	0.9517	0.073
Mof_N 	N 	0.91559	0.8347	0.83284	-0.145
Mof_H 	H 	0.8325	0.8845	0.8354	0.009
Mof_H 	H 	0.0015	0.781	0.8508	0.02
Mof_N 	N 	0.87054	0.18454	0.12614	-0.213
Mof_C 	C 	0.8476	0.1033	0.09113	0.249
Mof_C 	C 	0.87103	0.279	0.09978	0.236
Mof_H 	H 	0.8446	0.0377	0.1086	-0.045
Mof_C 	C 	0.8281	0.1114	0.03032	-0.478
Mof_C 	C 	0.85153	0.2926	0.03921	-0.47
Mof_H 	H 	0.8851	0.3378	0.1234	-0.045
Mof_H 	H 	0.8133	0.0516	0.0079	0.188
Mof_C 	C 	0.83022	0.207	0.00249	0.535
Mof_H 	H 	0.8527	0.3597	0.0229	0.184
Mof_C 	C 	0.8101	0.2178	0.93604	-1.102
Mof_H 	H 	0.7983	0.29	0.9259	0.352
Mof_H 	H 	0.775	0.172	0.921	0.353
Mof_H 	H 	0.844	0.1983	0.9188	0.353
Mof_O 	O 	0.40056	0.61748	0.75591	-0.295
Mof_Cd	Cd	0.40248	0.33225	0.7294	0.486
Mof_C 	C 	0.35006	0.5689	0.74091	0.312
Mof_O 	O 	0.34241	0.47842	0.71931	-0.296
Mof_O 	O 	0.44917	0.17393	0.72875	-0.292
Mof_N 	N 	0.18853	0.73363	0.7667	-0.14
Mof_C 	C 	0.29321	0.6272	0.74995	-0.032
Mof_C 	C 	0.29871	0.7236	0.77845	-0.084
Mof_C 	C 	0.23419	0.5847	0.72991	-0.076
Mof_H 	H 	0.3377	0.7548	0.7922	0.061
Mof_C 	C 	0.24533	0.7734	0.78629	0.039
Mof_C 	C 	0.18374	0.6403	0.73886	0.042
Mof_H 	H 	0.2288	0.5195	0.7107	0.061
Mof_C 	C 	0.44687	0.9536	0.72327	-0.074
Mof_H 	H 	0.2495	0.838	0.8063	0.015
Mof_H 	H 	0.1441	0.6114	0.7248	0.024
Mof_H 	H 	0.4104	0.9889	0.7047	0.063
Mof_C 	C 	0.44887	0.8446	0.72458	0.045
Mof_H 	H 	0.4127	0.8075	0.7068	0.022
Mof_N 	N 	0.47397	0.61254	0.64486	-0.144
Mof_C 	C 	0.41805	0.6447	0.61299	0.079
Mof_C 	C 	0.51789	0.5968	0.61473	0.081
Mof_H 	H 	0.3869	0.6575	0.633	0.011
Mof_C 	C 	0.40392	0.66	0.55262	-0.138
Mof_C 	C 	0.50783	0.6108	0.55454	-0.14
Mof_H 	H 	0.5574	0.5752	0.6357	0.014
Mof_H 	H 	0.3641	0.6819	0.5328	0.071
Mof_C 	C 	0.44952	0.6426	0.52159	0.055
Mof_H 	H 	0.5401	0.5991	0.5358	0.074
Mof_C 	C 	0.43712	0.6547	0.45655	0.052
Mof_C 	C 	0.37934	0.6282	0.4198	-0.136
Mof_C 	C 	0.48251	0.6898	0.42899	-0.135
Mof_H 	H 	0.3466	0.6068	0.4361	0.067
Mof_C 	C 	0.37124	0.6342	0.35929	0.077
Mof_C 	C 	0.47025	0.6944	0.36828	0.085
Mof_H 	H 	0.5215	0.7103	0.4517	0.079
Mof_N 	N 	0.41559	0.6653	0.33284	-0.145
Mof_H 	H 	0.3325	0.6155	0.3354	0.009
Mof_H 	H 	0.5015	0.719	0.3508	0.025
Mof_N 	N 	0.37054	0.31546	0.62614	-0.213
Mof_C 	C 	0.3476	0.3967	0.59113	0.249
Mof_C 	C 	0.37103	0.221	0.59978	0.235
Mof_H 	H 	0.3446	0.4623	0.6086	-0.045
Mof_C 	C 	0.3281	0.3886	0.53032	-0.477
Mof_C 	C 	0.35153	0.2074	0.53921	-0.47
Mof_H 	H 	0.3851	0.1622	0.6234	-0.045
Mof_H 	H 	0.3133	0.4484	0.5079	0.187
Mof_C 	C 	0.33022	0.293	0.50249	0.534
Mof_H 	H 	0.3527	0.1403	0.5229	0.183
Mof_C 	C 	0.3101	0.2822	0.43604	-1.1
Mof_H 	H 	0.2983	0.21	0.4259	0.351
Mof_H 	H 	0.275	0.328	0.421	0.353
Mof_H 	H 	0.344	0.3017	0.4188	0.352
Mof_O 	O 	0.90056	0.11748	0.75591	-0.293
Mof_Cd	Cd	0.90247	0.83225	0.7294	0.488
Mof_C 	C 	0.85006	0.0689	0.74091	0.311
Mof_O 	O 	0.84241	0.97842	0.71931	-0.296
Mof_O 	O 	0.94917	0.67393	0.72875	-0.287
Mof_N 	N 	0.68853	0.23363	0.7667	-0.14
Mof_C 	C 	0.79321	0.1272	0.74995	-0.032
Mof_C 	C 	0.79871	0.2236	0.77845	-0.085
Mof_C 	C 	0.73419	0.0847	0.72991	-0.077
Mof_H 	H 	0.8377	0.2548	0.7922	0.061
Mof_C 	C 	0.74533	0.2734	0.78629	0.039
Mof_C 	C 	0.68374	0.1403	0.73886	0.042
Mof_H 	H 	0.7288	0.0195	0.7107	0.061
Mof_C 	C 	0.94687	0.4536	0.72327	-0.069
Mof_H 	H 	0.7495	0.338	0.8063	0.015
Mof_H 	H 	0.6441	0.1114	0.7248	0.024
Mof_H 	H 	0.9104	0.4889	0.7047	0.062
Mof_C 	C 	0.94887	0.3446	0.72458	0.049
Mof_H 	H 	0.9127	0.3075	0.7068	0.022
Mof_N 	N 	0.97397	0.11254	0.64486	-0.142
Mof_C 	C 	0.91805	0.1447	0.61299	0.082
Mof_C 	C 	0.01789	0.0968	0.61473	0.079
Mof_H 	H 	0.8869	0.1575	0.633	0.01
Mof_C 	C 	0.90392	0.16	0.55262	-0.142
Mof_C 	C 	0.00783	0.1108	0.55454	-0.148
Mof_H 	H 	0.0574	0.0752	0.6357	0.014
Mof_H 	H 	0.8641	0.1819	0.5328	0.073
Mof_C 	C 	0.94952	0.1426	0.52159	0.064
Mof_H 	H 	0.0401	0.0991	0.5358	0.076
Mof_C 	C 	0.93712	0.1547	0.45655	0.047
Mof_C 	C 	0.87934	0.1282	0.4198	-0.132
Mof_C 	C 	0.98251	0.1898	0.42899	-0.126
Mof_H 	H 	0.8466	0.1068	0.4361	0.065
Mof_C 	C 	0.87124	0.1342	0.35929	0.076
Mof_C 	C 	0.97025	0.1944	0.36828	0.088
Mof_H 	H 	0.0215	0.2103	0.4517	0.073
Mof_N 	N 	0.91559	0.1653	0.33284	-0.144
Mof_H 	H 	0.8325	0.1155	0.3354	0.009
Mof_H 	H 	0.0015	0.219	0.3508	0.02
Mof_N 	N 	0.87054	0.81546	0.62614	-0.213
Mof_C 	C 	0.8476	0.8967	0.59113	0.249
Mof_C 	C 	0.87103	0.721	0.59978	0.235
Mof_H 	H 	0.8446	0.9623	0.6086	-0.045
Mof_C 	C 	0.8281	0.8886	0.53032	-0.477
Mof_C 	C 	0.85153	0.7074	0.53921	-0.47
Mof_H 	H 	0.8851	0.6622	0.6234	-0.044
Mof_H 	H 	0.8133	0.9484	0.5079	0.187
Mof_C 	C 	0.83022	0.793	0.50249	0.534
Mof_H 	H 	0.8527	0.6403	0.5229	0.184
Mof_C 	C 	0.8101	0.7822	0.43604	-1.101
Mof_H 	H 	0.7983	0.71	0.4259	0.352
Mof_H 	H 	0.775	0.828	0.421	0.353
Mof_H 	H 	0.844	0.8017	0.4188	0.353
Mof_O 	O 	0.59944	0.61748	0.74409	-0.295
Mof_Cd	Cd	0.59752	0.33225	0.7706	0.486
Mof_C 	C 	0.64994	0.5689	0.75909	0.312
Mof_O 	O 	0.65759	0.47842	0.78069	-0.296
Mof_O 	O 	0.55083	0.17393	0.77125	-0.292
Mof_N 	N 	0.81147	0.73363	0.7333	-0.14
Mof_C 	C 	0.70679	0.6272	0.75005	-0.033
Mof_C 	C 	0.70129	0.7236	0.72155	-0.084
Mof_C 	C 	0.76581	0.5847	0.77009	-0.076
Mof_H 	H 	0.6623	0.7548	0.7078	0.061
Mof_C 	C 	0.75467	0.7734	0.71371	0.039
Mof_C 	C 	0.81626	0.6403	0.76114	0.042
Mof_H 	H 	0.7712	0.5195	0.7893	0.061
Mof_C 	C 	0.55313	0.9536	0.77673	-0.074
Mof_H 	H 	0.7505	0.838	0.6937	0.015
Mof_H 	H 	0.8559	0.6114	0.7752	0.024
Mof_H 	H 	0.5896	0.9889	0.7953	0.063
Mof_C 	C 	0.55113	0.8446	0.77542	0.045
Mof_H 	H 	0.5873	0.8075	0.7932	0.022
Mof_N 	N 	0.52603	0.61254	0.85514	-0.144
Mof_C 	C 	0.58195	0.6447	0.88701	0.079
Mof_C 	C 	0.48211	0.5968	0.88527	0.081
Mof_H 	H 	0.6131	0.6575	0.867	0.011
Mof_C 	C 	0.59608	0.66	0.94738	-0.138
Mof_C 	C 	0.49217	0.6108	0.94546	-0.14
Mof_H 	H 	0.4426	0.5752	0.8643	0.014
Mof_H 	H 	0.6359	0.6819	0.9672	0.072
Mof_C 	C 	0.55048	0.6426	0.97841	0.056
Mof_H 	H 	0.4599	0.5991	0.9642	0.074
Mof_C 	C 	0.56288	0.6547	0.04345	0.052
Mof_C 	C 	0.62066	0.6282	0.0802	-0.136
Mof_C 	C 	0.51749	0.6898	0.07101	-0.134
Mof_H 	H 	0.6534	0.6068	0.0639	0.066
Mof_C 	C 	0.62876	0.6342	0.14071	0.077
Mof_C 	C 	0.52975	0.6944	0.13172	0.084
Mof_H 	H 	0.4785	0.7103	0.0483	0.079
Mof_N 	N 	0.58441	0.6653	0.16716	-0.144
Mof_H 	H 	0.6675	0.6155	0.1646	0.009
Mof_H 	H 	0.4985	0.719	0.1492	0.025
Mof_N 	N 	0.62946	0.31546	0.87386	-0.213
Mof_C 	C 	0.6524	0.3967	0.90887	0.249
Mof_C 	C 	0.62897	0.221	0.90022	0.235
Mof_H 	H 	0.6554	0.4623	0.8914	-0.045
Mof_C 	C 	0.6719	0.3886	0.96968	-0.477
Mof_C 	C 	0.64847	0.2074	0.96079	-0.47
Mof_H 	H 	0.6149	0.1622	0.8766	-0.045
Mof_H 	H 	0.6867	0.4484	0.9921	0.188
Mof_C 	C 	0.66978	0.293	0.99751	0.534
Mof_H 	H 	0.6473	0.1403	0.9771	0.183
Mof_C 	C 	0.6899	0.2822	0.06396	-1.101
Mof_H 	H 	0.7017	0.21	0.0741	0.352
Mof_H 	H 	0.725	0.328	0.079	0.353
Mof_H 	H 	0.656	0.3017	0.0812	0.353
Mof_O 	O 	0.09944	0.11748	0.74409	-0.295
Mof_Cd	Cd	0.09752	0.83225	0.7706	0.486
Mof_C 	C 	0.14994	0.0689	0.75909	0.311
Mof_O 	O 	0.15759	0.97842	0.78069	-0.296
Mof_O 	O 	0.05083	0.67393	0.77125	-0.291
Mof_N 	N 	0.31147	0.23363	0.7333	-0.14
Mof_C 	C 	0.20679	0.1272	0.75005	-0.032
Mof_C 	C 	0.20129	0.2236	0.72155	-0.084
Mof_C 	C 	0.26581	0.0847	0.77009	-0.076
Mof_H 	H 	0.1623	0.2548	0.7078	0.061
Mof_C 	C 	0.25467	0.2734	0.71371	0.039
Mof_C 	C 	0.31626	0.1403	0.76114	0.042
Mof_H 	H 	0.2712	0.0195	0.7893	0.061
Mof_C 	C 	0.05313	0.4536	0.77673	-0.074
Mof_H 	H 	0.2505	0.338	0.6937	0.014
Mof_H 	H 	0.3559	0.1114	0.7752	0.024
Mof_H 	H 	0.0896	0.4889	0.7953	0.063
Mof_C 	C 	0.05113	0.3446	0.77542	0.044
Mof_H 	H 	0.0873	0.3075	0.7932	0.023
Mof_N 	N 	0.02603	0.11254	0.85514	-0.146
Mof_C 	C 	0.08195	0.1447	0.88701	0.075
Mof_C 	C 	0.98211	0.0968	0.88527	0.081
Mof_H 	H 	0.1131	0.1575	0.867	0.012
Mof_C 	C 	0.09608	0.16	0.94738	-0.132
Mof_C 	C 	0.99217	0.1108	0.94546	-0.13
Mof_H 	H 	0.9426	0.0752	0.8643	0.015
Mof_H 	H 	0.1359	0.1819	0.9672	0.069
Mof_C 	C 	0.05048	0.1426	0.97841	0.044
Mof_H 	H 	0.9599	0.0991	0.9642	0.071
Mof_C 	C 	0.06288	0.1547	0.04345	0.06
Mof_C 	C 	0.12066	0.1282	0.0802	-0.14
Mof_C 	C 	0.01749	0.1898	0.07101	-0.144
Mof_H 	H 	0.1534	0.1068	0.0639	0.068
Mof_C 	C 	0.12876	0.1342	0.14071	0.08
Mof_C 	C 	0.02975	0.1944	0.13172	0.082
Mof_H 	H 	0.9785	0.2103	0.0483	0.085
Mof_N 	N 	0.08441	0.1653	0.16716	-0.145
Mof_H 	H 	0.1675	0.1155	0.1646	0.008
Mof_H 	H 	0.9985	0.219	0.1492	0.028
Mof_N 	N 	0.12946	0.81546	0.87386	-0.214
Mof_C 	C 	0.1524	0.8967	0.90887	0.249
Mof_C 	C 	0.12897	0.721	0.90022	0.235
Mof_H 	H 	0.1554	0.9623	0.8914	-0.045
Mof_C 	C 	0.1719	0.8886	0.96968	-0.478
Mof_C 	C 	0.14847	0.7074	0.96079	-0.47
Mof_H 	H 	0.1149	0.6622	0.8766	-0.045
Mof_H 	H 	0.1867	0.9484	0.9921	0.188
Mof_C 	C 	0.16978	0.793	0.99751	0.535
Mof_H 	H 	0.1473	0.6403	0.9771	0.183
Mof_C 	C 	0.1899	0.7822	0.06396	-1.101
Mof_H 	H 	0.2017	0.71	0.0741	0.352
Mof_H 	H 	0.225	0.828	0.079	0.353
Mof_H 	H 	0.156	0.8017	0.0812	0.353
Mof_Cd	Cd	0.5	0.40081	0.25	0.492
Mof_F 	F 	0.5	0.58244	0.25	-0.468
Mof_N 	N 	0.5	0.211	0.25	-0.136
Mof_C 	C 	0.5	0.8706	0.25	0.313
Mof_C 	C 	0.5	0.9901	0.25	-0.032
Mof_Cd	Cd	9.0917e-18	0.90081	0.25	0.488
Mof_F 	F 	9.0917e-18	0.08244	0.25	-0.47
Mof_N 	N 	1.22093e-33	0.711	0.25	-0.138
Mof_C 	C 	9.0917e-18	0.3706	0.25	0.308
Mof_C 	C 	9.0917e-18	0.4901	0.25	-0.035
Mof_Cd	Cd	0.5	0.59919	0.75	0.492
Mof_F 	F 	0.5	0.41756	0.75	-0.468
Mof_N 	N 	0.5	0.789	0.75	-0.136
Mof_C 	C 	0.5	0.1294	0.75	0.313
Mof_C 	C 	0.5	0.0099	0.75	-0.032
Mof_Cd	Cd	3.63668e-17	0.09919	0.75	0.488
Mof_F 	F 	3.63668e-17	0.91756	0.75	-0.47
Mof_N 	N 	3.63668e-17	0.289	0.75	-0.138
Mof_C 	C 	3.63668e-17	0.6294	0.75	0.308
Mof_C 	C 	3.63668e-17	0.5099	0.75	-0.036
_end
