data_functionalizedCrystal
_audit_creation_method	'EQeq! by Chris Wilmer'
_symmetry_space_group_name_H-M	'P1'
_symmetry_Int_Tables_number	1
_symmetry_cell_setting	triclinic
loop_
_symmetry_equiv_pos_as_xyz
  x,y,z
_cell_length_a	11.9869
_cell_length_b	17.717
_cell_length_c	12.6414
_cell_angle_alpha	90
_cell_angle_beta	103.65
_cell_angle_gamma	90
loop_
_atom_site_label
_atom_site_type_symbol
_atom_site_fract_x
_atom_site_fract_y
_atom_site_fract_z
_atom_site_charge
Mof_Cd	Cd	0.76625	0.43524	0.95578	0.421
Mof_O 	O 	0.6435	0.5242	0.7366	-0.267
Mof_O 	O 	0.5891	0.4368	0.8402	-0.277
Mof_O 	O 	0.225	0.94695	0.5164	-0.283
Mof_O 	O 	0.3672	0.95061	0.4341	-0.268
Mof_N 	N 	0.3058	0.549	0.5645	-0.103
Mof_N 	N 	0.8635	0.3621	0.8579	-0.156
Mof_N 	N 	0.1749	0.1422	0.5579	-0.153
Mof_C 	C 	0.4165	0.5392	0.6167	0.057
Mof_H 	H 	0.4743	0.5575	0.5858	0.028
Mof_C 	C 	0.445	0.5026	0.7149	-0.103
Mof_C 	C 	0.3581	0.4795	0.7634	0.036
Mof_H 	H 	0.376	0.455	0.8303	0.044
Mof_C 	C 	0.2448	0.4932	0.7118	-0.111
Mof_H 	H 	0.1861	0.4802	0.745	0.072
Mof_C 	C 	0.2206	0.5261	0.611	0.051
Mof_H 	H 	0.1445	0.5329	0.5739	0.014
Mof_C 	C 	0.5712	0.4878	0.7663	0.317
Mof_C 	C 	0.2772	0.5867	0.4569	-0.189
Mof_H 	H 	0.1991	0.5742	0.4195	0.096
Mof_H 	H 	0.3279	0.5683	0.4131	0.104
Mof_C 	C 	0.2892	0.6724	0.4684	0.164
Mof_C 	C 	0.2398	0.7119	0.5387	-0.192
Mof_H 	H 	0.2023	0.6859	0.5841	0.106
Mof_C 	C 	0.2451	0.7895	0.5432	0.092
Mof_H 	H 	0.2105	0.8155	0.5909	0.01
Mof_C 	C 	0.3013	0.8287	0.4772	-0.137
Mof_C 	C 	0.3508	0.7902	0.4068	0.092
Mof_H 	H 	0.3883	0.8164	0.3616	0.013
Mof_C 	C 	0.3456	0.7112	0.4021	-0.193
Mof_H 	H 	0.3801	0.6851	0.3545	0.105
Mof_C 	C 	0.2977	0.9142	0.4762	0.316
Mof_C 	C 	0.8585	0.2861	0.8575	0.082
Mof_H 	H 	0.8114	0.2627	0.8966	0.006
Mof_C 	C 	0.9194	0.2412	0.8025	-0.138
Mof_H 	H 	0.9139	0.1889	0.8053	0.092
Mof_C 	C 	0.9894	0.2751	0.7426	0.064
Mof_C 	C 	0.993	0.353	0.7426	-0.14
Mof_H 	H 	0.0386	0.3778	0.7034	0.077
Mof_C 	C 	0.9305	0.3939	0.7994	0.082
Mof_H 	H 	0.9346	0.4463	0.7974	0.017
Mof_C 	C 	0.0688	0.1239	0.5666	0.087
Mof_H 	H 	0.0343	0.0814	0.5296	0.025
Mof_C 	C 	0.0088	0.1639	0.6261	-0.137
Mof_H 	H 	0.9364	0.1474	0.6307	0.095
Mof_C 	C 	0.0544	0.2292	0.6805	0.059
Mof_C 	C 	0.1643	0.2488	0.6713	-0.134
Mof_H 	H 	0.1995	0.2919	0.7059	0.079
Mof_C 	C 	0.2208	0.2048	0.6112	0.077
Mof_H 	H 	0.2944	0.2189	0.6071	0.004
Mof_Cd	Cd	0.26625	0.06476	0.45578	0.42
Mof_O 	O 	0.1435	0.9758	0.2366	-0.265
Mof_O 	O 	0.0891	0.0632	0.3402	-0.277
Mof_O 	O 	0.725	0.55305	0.0164	-0.284
Mof_O 	O 	0.8672	0.54939	0.9341	-0.268
Mof_N 	N 	0.8058	0.951	0.0645	-0.102
Mof_N 	N 	0.3635	0.1379	0.3579	-0.156
Mof_N 	N 	0.6749	0.3578	0.0579	-0.153
Mof_C 	C 	0.9165	0.9608	0.1167	0.056
Mof_H 	H 	0.9743	0.9425	0.0858	0.029
Mof_C 	C 	0.945	0.9974	0.2149	-0.101
Mof_C 	C 	0.8581	0.0205	0.2634	0.035
Mof_H 	H 	0.876	0.045	0.3303	0.044
Mof_C 	C 	0.7448	0.0068	0.2118	-0.111
Mof_H 	H 	0.6861	0.0198	0.245	0.072
Mof_C 	C 	0.7206	0.9739	0.111	0.052
Mof_H 	H 	0.6445	0.9671	0.0739	0.015
Mof_C 	C 	0.0712	0.0122	0.2663	0.313
Mof_C 	C 	0.7772	0.9133	0.9569	-0.19
Mof_H 	H 	0.6991	0.9258	0.9195	0.096
Mof_H 	H 	0.8279	0.9317	0.9131	0.104
Mof_C 	C 	0.7892	0.8276	0.9684	0.162
Mof_C 	C 	0.7398	0.7881	0.0387	-0.19
Mof_H 	H 	0.7023	0.8141	0.0841	0.105
Mof_C 	C 	0.7451	0.7105	0.0432	0.093
Mof_H 	H 	0.7105	0.6845	0.0909	0.009
Mof_C 	C 	0.8013	0.6713	0.9772	-0.138
Mof_C 	C 	0.8508	0.7098	0.9068	0.092
Mof_H 	H 	0.8883	0.6836	0.8616	0.013
Mof_C 	C 	0.8456	0.7888	0.9021	-0.192
Mof_H 	H 	0.8801	0.8149	0.8545	0.104
Mof_C 	C 	0.7977	0.5858	0.9762	0.316
Mof_C 	C 	0.3585	0.2139	0.3575	0.082
Mof_H 	H 	0.3114	0.2373	0.3966	0.006
Mof_C 	C 	0.4194	0.2588	0.3025	-0.138
Mof_H 	H 	0.4139	0.3111	0.3053	0.092
Mof_C 	C 	0.4894	0.2249	0.2426	0.064
Mof_C 	C 	0.493	0.147	0.2426	-0.139
Mof_H 	H 	0.5386	0.1222	0.2034	0.077
Mof_C 	C 	0.4305	0.1061	0.2994	0.081
Mof_H 	H 	0.4346	0.0537	0.2974	0.017
Mof_C 	C 	0.5688	0.3761	0.0666	0.086
Mof_H 	H 	0.5343	0.4186	0.0296	0.026
Mof_C 	C 	0.5088	0.3361	0.1261	-0.136
Mof_H 	H 	0.4364	0.3526	0.1307	0.094
Mof_C 	C 	0.5544	0.2708	0.1805	0.058
Mof_C 	C 	0.6643	0.2512	0.1713	-0.134
Mof_H 	H 	0.6995	0.2081	0.2059	0.079
Mof_C 	C 	0.7208	0.2952	0.1112	0.076
Mof_H 	H 	0.7944	0.2811	0.1071	0.005
Mof_Cd	Cd	0.73375	0.93524	0.54422	0.42
Mof_O 	O 	0.8565	0.0242	0.7634	-0.265
Mof_O 	O 	0.9109	0.9368	0.6598	-0.277
Mof_O 	O 	0.275	0.44695	0.9836	-0.284
Mof_O 	O 	0.1328	0.45061	0.0659	-0.268
Mof_N 	N 	0.1942	0.049	0.9355	-0.102
Mof_N 	N 	0.6365	0.8621	0.6421	-0.156
Mof_N 	N 	0.3251	0.6422	0.9421	-0.153
Mof_C 	C 	0.0835	0.0392	0.8833	0.056
Mof_H 	H 	0.0257	0.0575	0.9142	0.029
Mof_C 	C 	0.055	0.0026	0.7851	-0.101
Mof_C 	C 	0.1419	0.9795	0.7366	0.035
Mof_H 	H 	0.124	0.955	0.6697	0.044
Mof_C 	C 	0.2552	0.9932	0.7882	-0.111
Mof_H 	H 	0.3139	0.9802	0.755	0.072
Mof_C 	C 	0.2794	0.0261	0.889	0.052
Mof_H 	H 	0.3555	0.0329	0.9261	0.015
Mof_C 	C 	0.9288	0.9878	0.7337	0.313
Mof_C 	C 	0.2228	0.0867	0.0431	-0.19
Mof_H 	H 	0.3009	0.0742	0.0805	0.096
Mof_H 	H 	0.1721	0.0683	0.0869	0.104
Mof_C 	C 	0.2108	0.1724	0.0316	0.162
Mof_C 	C 	0.2602	0.2119	0.9613	-0.19
Mof_H 	H 	0.2977	0.1859	0.9159	0.105
Mof_C 	C 	0.2549	0.2895	0.9568	0.093
Mof_H 	H 	0.2895	0.3155	0.9091	0.009
Mof_C 	C 	0.1987	0.3287	0.0228	-0.138
Mof_C 	C 	0.1492	0.2902	0.0932	0.092
Mof_H 	H 	0.1117	0.3164	0.1384	0.013
Mof_C 	C 	0.1544	0.2112	0.0979	-0.192
Mof_H 	H 	0.1199	0.1851	0.1455	0.104
Mof_C 	C 	0.2023	0.4142	0.0238	0.316
Mof_C 	C 	0.6415	0.7861	0.6425	0.082
Mof_H 	H 	0.6886	0.7627	0.6034	0.006
Mof_C 	C 	0.5806	0.7412	0.6975	-0.138
Mof_H 	H 	0.5861	0.6889	0.6947	0.092
Mof_C 	C 	0.5106	0.7751	0.7574	0.064
Mof_C 	C 	0.507	0.853	0.7574	-0.139
Mof_H 	H 	0.4614	0.8778	0.7966	0.077
Mof_C 	C 	0.5695	0.8939	0.7006	0.081
Mof_H 	H 	0.5654	0.9463	0.7026	0.017
Mof_C 	C 	0.4312	0.6239	0.9334	0.086
Mof_H 	H 	0.4657	0.5814	0.9704	0.026
Mof_C 	C 	0.4912	0.6639	0.8739	-0.136
Mof_H 	H 	0.5636	0.6474	0.8693	0.094
Mof_C 	C 	0.4456	0.7292	0.8195	0.058
Mof_C 	C 	0.3357	0.7488	0.8287	-0.134
Mof_H 	H 	0.3005	0.7919	0.7941	0.079
Mof_C 	C 	0.2792	0.7048	0.8888	0.076
Mof_H 	H 	0.2056	0.7189	0.8929	0.005
Mof_Cd	Cd	0.23375	0.56476	0.04422	0.42
Mof_O 	O 	0.3565	0.4758	0.2634	-0.268
Mof_O 	O 	0.4109	0.5632	0.1598	-0.278
Mof_O 	O 	0.775	0.05305	0.4836	-0.284
Mof_O 	O 	0.6328	0.04939	0.5659	-0.268
Mof_N 	N 	0.6942	0.451	0.4355	-0.103
Mof_N 	N 	0.1365	0.6379	0.1421	-0.156
Mof_N 	N 	0.8251	0.8578	0.4421	-0.153
Mof_C 	C 	0.5835	0.4608	0.3833	0.057
Mof_H 	H 	0.5257	0.4425	0.4142	0.028
Mof_C 	C 	0.555	0.4974	0.2851	-0.103
Mof_C 	C 	0.6419	0.5205	0.2366	0.036
Mof_H 	H 	0.624	0.545	0.1697	0.044
Mof_C 	C 	0.7552	0.5068	0.2882	-0.111
Mof_H 	H 	0.8139	0.5198	0.255	0.072
Mof_C 	C 	0.7794	0.4739	0.389	0.051
Mof_H 	H 	0.8555	0.4671	0.4261	0.014
Mof_C 	C 	0.4288	0.5122	0.2337	0.317
Mof_C 	C 	0.7228	0.4133	0.5431	-0.189
Mof_H 	H 	0.8009	0.4258	0.5805	0.096
Mof_H 	H 	0.6721	0.4317	0.5869	0.104
Mof_C 	C 	0.7108	0.3276	0.5316	0.164
Mof_C 	C 	0.7602	0.2881	0.4613	-0.192
Mof_H 	H 	0.7977	0.3141	0.4159	0.106
Mof_C 	C 	0.7549	0.2105	0.4568	0.092
Mof_H 	H 	0.7895	0.1845	0.4091	0.01
Mof_C 	C 	0.6987	0.1713	0.5228	-0.137
Mof_C 	C 	0.6492	0.2098	0.5932	0.092
Mof_H 	H 	0.6117	0.1836	0.6384	0.013
Mof_C 	C 	0.6544	0.2888	0.5979	-0.193
Mof_H 	H 	0.6199	0.3149	0.6455	0.105
Mof_C 	C 	0.7023	0.0858	0.5238	0.316
Mof_C 	C 	0.1415	0.7139	0.1425	0.082
Mof_H 	H 	0.1886	0.7373	0.1034	0.006
Mof_C 	C 	0.0806	0.7588	0.1975	-0.138
Mof_H 	H 	0.0861	0.8111	0.1947	0.092
Mof_C 	C 	0.0106	0.7249	0.2574	0.064
Mof_C 	C 	0.007	0.647	0.2574	-0.14
Mof_H 	H 	0.9614	0.6222	0.2966	0.077
Mof_C 	C 	0.0695	0.6061	0.2006	0.082
Mof_H 	H 	0.0654	0.5537	0.2026	0.017
Mof_C 	C 	0.9312	0.8761	0.4334	0.087
Mof_H 	H 	0.9657	0.9186	0.4704	0.025
Mof_C 	C 	0.9912	0.8361	0.3739	-0.137
Mof_H 	H 	0.0636	0.8526	0.3693	0.095
Mof_C 	C 	0.9456	0.7708	0.3195	0.059
Mof_C 	C 	0.8357	0.7512	0.3287	-0.134
Mof_H 	H 	0.8005	0.7081	0.2941	0.079
Mof_C 	C 	0.7792	0.7952	0.3888	0.077
Mof_H 	H 	0.7056	0.7811	0.3929	0.004
_end
