# CIF file generated by openbabel 3.1.0, see https://openbabel.org
data_I
_chemical_name_common 'TEWGEJ01_clean'
_cell_length_a 15.3107
_cell_length_b 16.7284
_cell_length_c 17.7882
_cell_angle_alpha 118.048
_cell_angle_beta 115.491
_cell_angle_gamma 89.9999
_space_group_name_H-M_alt 'P 1'
_space_group_name_Hall 'P 1'
loop_
    _symmetry_equiv_pos_as_xyz
    x,y,z
loop_
    _atom_site_label
    _atom_site_type_symbol
    _atom_site_fract_x
    _atom_site_fract_y
    _atom_site_fract_z
    _atom_site_occupancy
    Cu1      Cu       0.00000    0.50000    0.50000    1.000
    Cu2      Cu       0.50000    0.50000    0.50000    1.000
    H1       H        0.10710    0.38800    0.58340    1.000
    H2       H        0.08580    0.30220    0.64780    1.000
    H3       H        0.81700    0.36080    0.60100    1.000
    H4       H        0.84510    0.44590    0.53880    1.000
    H5       H        0.98080    0.22760    0.67780    1.000
    H6       H        0.86510    0.22870    0.63560    1.000
    H7       H        0.17470    0.50670    0.06100    1.000
    H8       H        0.74800    0.38260    0.20020    1.000
    H9       H        0.60090    0.29260    0.05320    1.000
    H10      H        0.94520    0.32380    0.26140    1.000
    H11      H        0.05320    0.38350    0.30100    1.000
    H12      H        0.03730    0.27650    0.27240    1.000
    H13      H        0.05580    0.42170    0.43040    1.000
    H14      H        0.47630    0.69540    0.58340    1.000
    H15      H        0.56200    0.84560    0.64780    1.000
    H16      H        0.78400    0.74020    0.60100    1.000
    H17      H        0.69370    0.59290    0.53880    1.000
    H18      H        0.69700    0.95020    0.67780    1.000
    H19      H        0.77050    0.90690    0.63560    1.000
    H20      H        0.88630    0.05430    0.06100    1.000
    H21      H        0.45220    0.31760    0.20020    1.000
    H22      H        0.45230    0.26060    0.05320    1.000
    H23      H        0.31620    0.43760    0.26140    1.000
    H24      H        0.24780    0.41750    0.30100    1.000
    H25      H        0.23510    0.49590    0.27240    1.000
    H26      H        0.37460    0.50870    0.43040    1.000
    H27      H        0.89290    0.61200    0.41660    1.000
    H28      H        0.91420    0.69780    0.35220    1.000
    H29      H        0.18300    0.63920    0.39900    1.000
    H30      H        0.15490    0.55410    0.46120    1.000
    H31      H        0.01920    0.77240    0.32220    1.000
    H32      H        0.13490    0.77130    0.36440    1.000
    H33      H        0.82530    0.49330    0.93900    1.000
    H34      H        0.25200    0.61740    0.79980    1.000
    H35      H        0.39910    0.70740    0.94680    1.000
    H36      H        0.05480    0.67620    0.73860    1.000
    H37      H        0.94680    0.61650    0.69900    1.000
    H38      H        0.96270    0.72350    0.72760    1.000
    H39      H        0.94420    0.57830    0.56960    1.000
    H40      H        0.52370    0.30460    0.41660    1.000
    H41      H        0.43800    0.15440    0.35220    1.000
    H42      H        0.21600    0.25980    0.39900    1.000
    H43      H        0.30630    0.40710    0.46120    1.000
    H44      H        0.30300    0.04980    0.32220    1.000
    H45      H        0.22950    0.09310    0.36440    1.000
    H46      H        0.11370    0.94570    0.93900    1.000
    H47      H        0.54780    0.68240    0.79980    1.000
    H48      H        0.54770    0.73940    0.94680    1.000
    H49      H        0.68380    0.56240    0.73860    1.000
    H50      H        0.75220    0.58250    0.69900    1.000
    H51      H        0.76490    0.50410    0.72760    1.000
    H52      H        0.62540    0.49130    0.56960    1.000
    C1       C        0.04773    0.38273    0.58746    1.000
    C2       C        0.03542    0.33122    0.62584    1.000
    C3       C        0.94922    0.32212    0.63204    1.000
    C4       C        0.87728    0.36588    0.59836    1.000
    C5       C        0.89454    0.41634    0.56128    1.000
    C6       C        0.93439    0.26869    0.67618    1.000
    C7       C        0.04816    0.37556    0.85632    1.000
    C8       C        0.87929    0.36959    0.79818    1.000
    C9       C        0.03439    0.44379    0.94018    1.000
    C10      C        0.10536    0.50396    0.03672    1.000
    C11      C        0.06702    0.55972    0.09484    1.000
    C12      C        0.78329    0.46759    0.38298    1.000
    C13      C        0.68904    0.40524    0.28908    1.000
    C14      C        0.68783    0.36983    0.20066    1.000
    C15      C        0.60063    0.31623    0.11326    1.000
    C16      C        0.01740    0.33450    0.30060    1.000
    C17      C        0.53973    0.70473    0.58746    1.000
    C18      C        0.59042    0.79462    0.62584    1.000
    C19      C        0.68282    0.80992    0.63204    1.000
    C20      C        0.72108    0.73248    0.59836    1.000
    C21      C        0.66674    0.64494    0.56128    1.000
    C22      C        0.74179    0.90749    0.67618    1.000
    C23      C        0.80816    0.98076    0.85632    1.000
    C24      C        0.91889    0.92859    0.79818    1.000
    C25      C        0.90579    0.99639    0.94018    1.000
    C26      C        0.93136    0.03276    0.03672    1.000
    C27      C        0.02782    0.03512    0.09484    1.000
    C28      C        0.59969    0.41539    0.38298    1.000
    C29      C        0.60004    0.38384    0.28908    1.000
    C30      C        0.51283    0.33083    0.20066    1.000
    C31      C        0.51263    0.29703    0.11326    1.000
    C32      C        0.28320    0.46610    0.30060    1.000
    C33      C        0.95227    0.61727    0.41254    1.000
    C34      C        0.96458    0.66878    0.37416    1.000
    C35      C        0.05078    0.67788    0.36796    1.000
    C36      C        0.12272    0.63412    0.40164    1.000
    C37      C        0.10546    0.58366    0.43872    1.000
    C38      C        0.06561    0.73131    0.32382    1.000
    C39      C        0.95184    0.62444    0.14368    1.000
    C40      C        0.12071    0.63041    0.20182    1.000
    C41      C        0.96561    0.55621    0.05982    1.000
    C42      C        0.89464    0.49604    0.96328    1.000
    C43      C        0.93298    0.44028    0.90516    1.000
    C44      C        0.21671    0.53241    0.61702    1.000
    C45      C        0.31096    0.59476    0.71092    1.000
    C46      C        0.31217    0.63017    0.79934    1.000
    C47      C        0.39937    0.68377    0.88674    1.000
    C48      C        0.98260    0.66550    0.69940    1.000
    C49      C        0.46027    0.29527    0.41254    1.000
    C50      C        0.40958    0.20538    0.37416    1.000
    C51      C        0.31718    0.19008    0.36796    1.000
    C52      C        0.27892    0.26752    0.40164    1.000
    C53      C        0.33326    0.35506    0.43872    1.000
    C54      C        0.25821    0.09251    0.32382    1.000
    C55      C        0.19184    0.01924    0.14368    1.000
    C56      C        0.08111    0.07141    0.20182    1.000
    C57      C        0.09421    0.00361    0.05982    1.000
    C58      C        0.06864    0.96724    0.96328    1.000
    C59      C        0.97218    0.96488    0.90516    1.000
    C60      C        0.40031    0.58461    0.61702    1.000
    C61      C        0.39996    0.61616    0.71092    1.000
    C62      C        0.48717    0.66917    0.79934    1.000
    C63      C        0.48737    0.70297    0.88674    1.000
    C64      C        0.71680    0.53390    0.69940    1.000
    N1       N        0.97863    0.42593    0.55526    1.000
    N2       N        0.95294    0.33394    0.77528    1.000
    N3       N        0.57663    0.62933    0.55526    1.000
    N4       N        0.82234    0.94134    0.77528    1.000
    N5       N        0.02137    0.57407    0.44474    1.000
    N6       N        0.04706    0.66606    0.22472    1.000
    N7       N        0.42337    0.37067    0.44474    1.000
    N8       N        0.17766    0.05866    0.22472    1.000
    O1       O        0.12508    0.35848    0.85596    1.000
    O2       O        0.79123    0.34673    0.74026    1.000
    O3       O        0.86270    0.43955    0.39020    1.000
    O4       O        0.77907    0.54290    0.44536    1.000
    O5       O        0.04132    0.36292    0.39664    1.000
    O6       O        0.73088    0.99748    0.85596    1.000
    O7       O        0.94903    0.89353    0.74026    1.000
    O8       O        0.52750    0.45065    0.39020    1.000
    O9       O        0.66629    0.40246    0.44536    1.000
    O10      O        0.35532    0.53372    0.39664    1.000
    O11      O        0.87492    0.64152    0.14404    1.000
    O12      O        0.20877    0.65327    0.25974    1.000
    O13      O        0.13730    0.56045    0.60980    1.000
    O14      O        0.22093    0.45710    0.55464    1.000
    O15      O        0.95868    0.63708    0.60336    1.000
    O16      O        0.26912    0.00252    0.14404    1.000
    O17      O        0.05097    0.10647    0.25974    1.000
    O18      O        0.47250    0.54935    0.60980    1.000
    O19      O        0.33371    0.59754    0.55464    1.000
    O20      O        0.64468    0.46628    0.60336    1.000
    Cu3      Cu       0.50000    0.00000    0.50000    1.000
    Cu4      Cu       0.00000    0.00000    0.50000    1.000
    H53      H        0.39290    0.80460    0.41660    1.000
    H54      H        0.41420    0.65440    0.35220    1.000
    H55      H        0.68300    0.75980    0.39900    1.000
    H56      H        0.65490    0.90710    0.46120    1.000
    H57      H        0.51920    0.54980    0.32220    1.000
    H58      H        0.63490    0.59310    0.36440    1.000
    H59      H        0.32530    0.44570    0.93900    1.000
    H60      H        0.75200    0.18240    0.79980    1.000
    H61      H        0.89910    0.23940    0.94680    1.000
    H62      H        0.55480    0.06240    0.73860    1.000
    H63      H        0.44680    0.08250    0.69900    1.000
    H64      H        0.46270    0.00410    0.72760    1.000
    H65      H        0.44420    0.99130    0.56960    1.000
    H66      H        0.02370    0.11200    0.41660    1.000
    H67      H        0.93800    0.19780    0.35220    1.000
    H68      H        0.71600    0.13920    0.39900    1.000
    H69      H        0.80630    0.05410    0.46120    1.000
    H70      H        0.80300    0.27240    0.32220    1.000
    H71      H        0.72950    0.27130    0.36440    1.000
    H72      H        0.61370    0.99330    0.93900    1.000
    H73      H        0.04780    0.11740    0.79980    1.000
    H74      H        0.04770    0.20740    0.94680    1.000
    H75      H        0.18380    0.17620    0.73860    1.000
    H76      H        0.25220    0.11650    0.69900    1.000
    H77      H        0.26490    0.22350    0.72760    1.000
    H78      H        0.12540    0.07830    0.56960    1.000
    H79      H        0.60710    0.19540    0.58340    1.000
    H80      H        0.58580    0.34560    0.64780    1.000
    H81      H        0.31700    0.24020    0.60100    1.000
    H82      H        0.34510    0.09290    0.53880    1.000
    H83      H        0.48080    0.45020    0.67780    1.000
    H84      H        0.36510    0.40690    0.63560    1.000
    H85      H        0.67470    0.55430    0.06100    1.000
    H86      H        0.24800    0.81760    0.20020    1.000
    H87      H        0.10090    0.76060    0.05320    1.000
    H88      H        0.44520    0.93760    0.26140    1.000
    H89      H        0.55320    0.91750    0.30100    1.000
    H90      H        0.53730    0.99590    0.27240    1.000
    H91      H        0.55580    0.00870    0.43040    1.000
    H92      H        0.97630    0.88800    0.58340    1.000
    H93      H        0.06200    0.80220    0.64780    1.000
    H94      H        0.28400    0.86080    0.60100    1.000
    H95      H        0.19370    0.94590    0.53880    1.000
    H96      H        0.19700    0.72760    0.67780    1.000
    H97      H        0.27050    0.72870    0.63560    1.000
    H98      H        0.38630    0.00670    0.06100    1.000
    H99      H        0.95220    0.88260    0.20020    1.000
    H100     H        0.95230    0.79260    0.05320    1.000
    H101     H        0.81620    0.82380    0.26140    1.000
    H102     H        0.74780    0.88350    0.30100    1.000
    H103     H        0.73510    0.77650    0.27240    1.000
    H104     H        0.87460    0.92170    0.43040    1.000
    C65      C        0.45227    0.79527    0.41254    1.000
    C66      C        0.46458    0.70538    0.37416    1.000
    C67      C        0.55078    0.69008    0.36796    1.000
    C68      C        0.62272    0.76752    0.40164    1.000
    C69      C        0.60546    0.85506    0.43872    1.000
    C70      C        0.56561    0.59251    0.32382    1.000
    C71      C        0.45184    0.51924    0.14368    1.000
    C72      C        0.62071    0.57141    0.20182    1.000
    C73      C        0.46561    0.50361    0.05982    1.000
    C74      C        0.39464    0.46724    0.96328    1.000
    C75      C        0.43298    0.46488    0.90516    1.000
    C76      C        0.71671    0.08461    0.61702    1.000
    C77      C        0.81096    0.11616    0.71092    1.000
    C78      C        0.81217    0.16917    0.79934    1.000
    C79      C        0.89937    0.20297    0.88674    1.000
    C80      C        0.48260    0.03390    0.69940    1.000
    C81      C        0.96027    0.11727    0.41254    1.000
    C82      C        0.90958    0.16878    0.37416    1.000
    C83      C        0.81718    0.17788    0.36796    1.000
    C84      C        0.77892    0.13412    0.40164    1.000
    C85      C        0.83326    0.08366    0.43872    1.000
    C86      C        0.75821    0.23131    0.32382    1.000
    C87      C        0.69184    0.12444    0.14368    1.000
    C88      C        0.58111    0.13041    0.20182    1.000
    C89      C        0.59421    0.05621    0.05982    1.000
    C90      C        0.56864    0.99604    0.96328    1.000
    C91      C        0.47218    0.94028    0.90516    1.000
    C92      C        0.90031    0.03241    0.61702    1.000
    C93      C        0.89996    0.09476    0.71092    1.000
    C94      C        0.98717    0.13017    0.79934    1.000
    C95      C        0.98737    0.18377    0.88674    1.000
    C96      C        0.21680    0.16550    0.69940    1.000
    C97      C        0.54773    0.20473    0.58746    1.000
    C98      C        0.53542    0.29462    0.62584    1.000
    C99      C        0.44922    0.30992    0.63204    1.000
    C100     C        0.37728    0.23248    0.59836    1.000
    C101     C        0.39454    0.14494    0.56128    1.000
    C102     C        0.43439    0.40749    0.67618    1.000
    C103     C        0.54816    0.48076    0.85632    1.000
    C104     C        0.37929    0.42859    0.79818    1.000
    C105     C        0.53439    0.49639    0.94018    1.000
    C106     C        0.60536    0.53276    0.03672    1.000
    C107     C        0.56702    0.53512    0.09484    1.000
    C108     C        0.28329    0.91539    0.38298    1.000
    C109     C        0.18904    0.88384    0.28908    1.000
    C110     C        0.18783    0.83083    0.20066    1.000
    C111     C        0.10063    0.79703    0.11326    1.000
    C112     C        0.51740    0.96610    0.30060    1.000
    C113     C        0.03973    0.88273    0.58746    1.000
    C114     C        0.09042    0.83122    0.62584    1.000
    C115     C        0.18282    0.82212    0.63204    1.000
    C116     C        0.22108    0.86588    0.59836    1.000
    C117     C        0.16674    0.91634    0.56128    1.000
    C118     C        0.24179    0.76869    0.67618    1.000
    C119     C        0.30816    0.87556    0.85632    1.000
    C120     C        0.41889    0.86959    0.79818    1.000
    C121     C        0.40579    0.94379    0.94018    1.000
    C122     C        0.43136    0.00396    0.03672    1.000
    C123     C        0.52782    0.05972    0.09484    1.000
    C124     C        0.09969    0.96759    0.38298    1.000
    C125     C        0.10004    0.90524    0.28908    1.000
    C126     C        0.01283    0.86983    0.20066    1.000
    C127     C        0.01263    0.81623    0.11326    1.000
    C128     C        0.78320    0.83450    0.30060    1.000
    N9       N        0.52137    0.87067    0.44474    1.000
    N10      N        0.54706    0.55866    0.22472    1.000
    N11      N        0.92337    0.07407    0.44474    1.000
    N12      N        0.67766    0.16606    0.22472    1.000
    N13      N        0.47863    0.12933    0.55526    1.000
    N14      N        0.45294    0.44134    0.77528    1.000
    N15      N        0.07663    0.92593    0.55526    1.000
    N16      N        0.32234    0.83394    0.77528    1.000
    O21      O        0.37492    0.50252    0.14404    1.000
    O22      O        0.70877    0.60647    0.25974    1.000
    O23      O        0.63730    0.04935    0.60980    1.000
    O24      O        0.72093    0.09754    0.55464    1.000
    O25      O        0.45868    0.96628    0.60336    1.000
    O26      O        0.76912    0.14152    0.14404    1.000
    O27      O        0.55097    0.15327    0.25974    1.000
    O28      O        0.97250    0.06045    0.60980    1.000
    O29      O        0.83371    0.95710    0.55464    1.000
    O30      O        0.14468    0.13708    0.60336    1.000
    O31      O        0.62508    0.49748    0.85596    1.000
    O32      O        0.29123    0.39353    0.74026    1.000
    O33      O        0.36270    0.95065    0.39020    1.000
    O34      O        0.27907    0.90246    0.44536    1.000
    O35      O        0.54132    0.03372    0.39664    1.000
    O36      O        0.23088    0.85848    0.85596    1.000
    O37      O        0.44903    0.84673    0.74026    1.000
    O38      O        0.02750    0.93955    0.39020    1.000
    O39      O        0.16629    0.04290    0.44536    1.000
    O40      O        0.85532    0.86292    0.39664    1.000
