data_functionalizedCrystal
_audit_creation_method	'EQeq! by Chris Wilmer'
_symmetry_space_group_name_H-M	'P1'
_symmetry_Int_Tables_number	1
_symmetry_cell_setting	triclinic
loop_
_symmetry_equiv_pos_as_xyz
  x,y,z
_cell_length_a	6.8039
_cell_length_b	15.1133
_cell_length_c	15.1133
_cell_angle_alpha	62.2107
_cell_angle_beta	81.3694
_cell_angle_gamma	98.6306
loop_
_atom_site_label
_atom_site_type_symbol
_atom_site_fract_x
_atom_site_fract_y
_atom_site_fract_z
_atom_site_charge
Mof_Co	Co	0.1166	0.3025	0.2787	1.149
Mof_Co	Co	0.3953	0.2787	0.4188	1.162
Mof_Co	Co	0.1166	0.7213	0.6975	1.147
Mof_Co	Co	0.3953	0.5812	0.7213	1.162
Mof_Co	Co	0.8141	0.6975	0.5812	1.173
Mof_Co	Co	0.8141	0.4188	0.3025	1.173
Mof_H 	H 	0.23705	0.51715	-0	0.158
Mof_H 	H 	0.7199	0.48285	0.51715	0.163
Mof_H 	H 	0.52805	0	0.57585	-0.016
Mof_H 	H 	0.1039	0.57585	0.42415	-0.025
Mof_H 	H 	0.52805	0.42415	-0	-0.015
Mof_H 	H 	0.23705	0	0.48285	0.159
Mof_C 	C 	0.5078	0.4678	0.4394	0.4
Mof_C 	C 	0.68315	0.44245	-0	0.228
Mof_C 	C 	0.2041	0.4564	0.3578	0.459
Mof_C 	C 	0.7477	0.5436	0.8142	0.447
Mof_C 	C 	0.7289	0.9052	0.5853	-0.383
Mof_C 	C 	0.04	0.0928	0.4678	0.363
Mof_C 	C 	0.5619	0.8142	0.6422	0.466
Mof_C 	C 	0.3142	0.4905	0.4147	-0.371
Mof_C 	C 	0.8237	0.0948	0.4905	-0.325
Mof_C 	C 	0.9472	0.4394	0.0928	0.441
Mof_C 	C 	0.04	0.5322	0.9072	0.356
Mof_C 	C 	0.7477	0.1858	0.4564	0.449
Mof_C 	C 	0.3142	0.5853	0.5095	-0.371
Mof_C 	C 	0.5854	0.5016	0.4984	-0.431
Mof_C 	C 	0.2407	0.55755	0.44245	0.234
Mof_C 	C 	0.5078	0.5606	0.5322	0.4
Mof_C 	C 	0.8237	0.5095	0.9052	-0.322
Mof_C 	C 	0.7289	0.4147	0.0948	-0.368
Mof_C 	C 	0.2041	0.6422	0.5436	0.459
Mof_C 	C 	0.5619	0.3578	0.1858	0.463
Mof_C 	C 	0.9472	0.9072	0.5606	0.433
Mof_C 	C 	0.0838	0.4984	-0	-0.466
Mof_C 	C 	0.0838	0	0.5016	-0.461
Mof_C 	C 	0.68315	-4.32081e-17	0.55755	0.244
Mof_O 	O 	0.5772	0.4015	0.4169	-0.557
Mof_O 	O 	0.0581	0.6725	0.5046	-0.489
Mof_O 	O 	0.1757	0.5985	0.8184	-0.562
Mof_O 	O 	0.2552	0.3842	0.3411	-0.604
Mof_O 	O 	0.2552	0.6589	0.6158	-0.605
Mof_O 	O 	0.871	0.6158	0.7253	-0.573
Mof_O 	O 	0.871	0.2747	0.3842	-0.573
Mof_O 	O 	0.5963	0.7253	0.6589	-0.597
Mof_O 	O 	0.9941	0.8184	0.5831	-0.547
Mof_O 	O 	0.5963	0.3411	0.2747	-0.596
Mof_O 	O 	0.3856	0.8229	0.6725	-0.478
Mof_O 	O 	0.1757	0.1816	0.4015	-0.562
Mof_O 	O 	0.5627	0.1771	0.4954	-0.463
Mof_O 	O 	0.5772	0.5831	0.5985	-0.557
Mof_O 	O 	0.9941	0.4169	0.1816	-0.547
Mof_O 	O 	0.3856	0.3275	0.1771	-0.472
Mof_O 	O 	0.0581	0.4954	0.3275	-0.488
Mof_O 	O 	0.5627	0.5046	0.8229	-0.464
_end
