data_functionalizedCrystal
_audit_creation_method	'EQeq! by Chris Wilmer'
_symmetry_space_group_name_H-M	'P1'
_symmetry_Int_Tables_number	1
_symmetry_cell_setting	triclinic
loop_
_symmetry_equiv_pos_as_xyz
  x,y,z
_cell_length_a	12.497
_cell_length_b	12.5646
_cell_length_c	15.1697
_cell_angle_alpha	75.523
_cell_angle_beta	77.748
_cell_angle_gamma	85.439
loop_
_atom_site_label
_atom_site_type_symbol
_atom_site_fract_x
_atom_site_fract_y
_atom_site_fract_z
_atom_site_charge
Mof_C 	C 	0.546	0.5272	0.7843	0.331
Mof_C 	C 	0.566	0.5303	0.8769	-0.225
Mof_H 	H 	0.6315	0.5577	0.8805	0.107
Mof_C 	C 	0.4926	0.4949	0.9549	0.008
Mof_H 	H 	0.4297	0.4626	0.9516	0.028
Mof_C 	C 	0.4424	0.7728	0.6158	0.09
Mof_H 	H 	0.5167	0.7835	0.6095	-0.009
Mof_C 	C 	0.3703	0.8634	0.6163	-0.148
Mof_C 	C 	0.2597	0.8466	0.6242	0.073
Mof_H 	H 	0.2093	0.9053	0.6232	-0.003
Mof_C 	C 	0.2257	0.7422	0.6334	-0.142
Mof_H 	H 	0.152	0.7294	0.6392	0.083
Mof_C 	C 	0.3023	0.6565	0.6339	0.08
Mof_H 	H 	0.2785	0.586	0.6414	0.005
Mof_C 	C 	0.409	0.974	0.6108	0.296
Mof_C 	C 	0.6349	0.0862	0.6371	0.284
Mof_C 	C 	0.7143	0.9903	0.6502	-0.788
Mof_H 	H 	0.7824	0.0146	0.6569	0.275
Mof_H 	H 	0.6847	0.9358	0.7049	0.26
Mof_H 	H 	0.7266	0.9591	0.5971	0.261
Mof_C 	C 	0.7399	0.4032	0.6216	0.076
Mof_H 	H 	0.7633	0.4733	0.6164	0.006
Mof_C 	C 	0.7826	0.2128	0.6317	0.067
Mof_H 	H 	0.8329	0.154	0.6346	-0.001
Mof_C 	C 	0.6732	0.1961	0.6338	-0.139
Mof_C 	C 	0.6019	0.2876	0.6313	0.085
Mof_H 	H 	0.5283	0.2775	0.634	-0.002
Mof_C 	C 	0.8834	0.2261	0.1255	0.077
Mof_H 	H 	0.9533	0.2493	0.122	0.006
Mof_C 	C 	0.7973	0.3024	0.1281	-0.135
Mof_H 	H 	0.8091	0.3752	0.1261	0.079
Mof_C 	C 	0.6932	0.2675	0.1338	0.061
Mof_H 	H 	0.6338	0.317	0.1365	0.001
Mof_C 	C 	0.6771	0.1584	0.1354	-0.132
Mof_C 	C 	0.7697	0.0879	0.1326	0.08
Mof_H 	H 	0.7605	0.0147	0.1343	0.002
Mof_C 	C 	0.5669	0.1192	0.1389	0.275
Mof_C 	C 	0.4697	0.194	0.1572	-0.765
Mof_H 	H 	0.4935	0.2609	0.1656	0.264
Mof_H 	H 	0.4334	0.2104	0.1053	0.252
Mof_H 	H 	0.4199	0.1586	0.2123	0.254
Mof_C 	C 	0.4539	0.8948	0.1137	0.3
Mof_C 	C 	0.551	0.8202	0.0938	-0.826
Mof_H 	H 	0.5269	0.7534	0.0855	0.278
Mof_H 	H 	0.5999	0.856	0.0383	0.283
Mof_H 	H 	0.5884	0.8035	0.145	0.286
Mof_C 	C 	0.2526	0.9282	0.1172	0.094
Mof_H 	H 	0.2629	0.0017	0.114	-0.008
Mof_C 	C 	0.3437	0.8571	0.1169	-0.148
Mof_C 	C 	0.3272	0.7475	0.1193	0.069
Mof_H 	H 	0.3859	0.6971	0.1183	-0.001
Mof_C 	C 	0.223	0.7148	0.1233	-0.137
Mof_H 	H 	0.2108	0.6423	0.1245	0.079
Mof_C 	C 	0.1366	0.7913	0.1254	0.077
Mof_H 	H 	0.0665	0.7683	0.1293	0.002
Mof_C 	C 	0.1815	0.2359	0.8921	-0.258
Mof_H 	H 	0.2171	0.284	0.9132	0.122
Mof_C 	C 	0.1914	0.2472	0.8013	0.012
Mof_H 	H 	0.1484	0.2038	0.7821	0.041
Mof_C 	C 	0.2644	0.3224	0.7298	0.043
Mof_H 	H 	0.3058	0.3693	0.747	0.021
Mof_C 	C 	0.2733	0.3255	0.6405	-0.281
Mof_H 	H 	0.2255	0.2848	0.6237	0.133
Mof_C 	C 	0.357	0.3918	0.5658	0.453
Mof_C 	C 	0.3356	0.0717	0.5858	-0.819
Mof_H 	H 	0.2691	0.0482	0.5752	0.27
Mof_H 	H 	0.3187	0.1085	0.6356	0.286
Mof_H 	H 	0.3718	0.1213	0.5303	0.282
Mof_C 	C 	0.9866	0.9771	0.3013	0.335
Mof_C 	C 	0.9705	0.9499	0.4044	-0.221
Mof_H 	H 	0.9344	0.886	0.4383	0.104
Mof_C 	C 	0.0055	0.0129	0.4501	0.005
Mof_H 	H 	0.0392	0.0779	0.4158	0.031
Mof_C 	C 	0.1142	0.1473	0.9608	0.432
Mof_N 	N 	0.4096	0.6712	0.6241	-0.225
Mof_N 	N 	0.6334	0.3895	0.625	-0.225
Mof_N 	N 	0.1505	0.8974	0.1219	-0.228
Mof_N 	N 	0.8712	0.1205	0.1278	-0.226
Mof_N 	N 	0.5361	0.0822	0.6261	-0.14
Mof_N 	N 	0.5047	0.9761	0.6294	-0.148
Mof_N 	N 	0.4577	0.9905	0.1282	-0.148
Mof_N 	N 	0.5638	0.0224	0.1246	-0.138
Mof_O 	O 	0.609	0.5832	0.7135	-0.388
Mof_O 	O 	0.4701	0.4736	0.7764	-0.387
Mof_O 	O 	0.4116	0.4578	0.5861	-0.497
Mof_O 	O 	0.3672	0.3774	0.4853	-0.451
Mof_O 	O 	0.0423	0.0578	0.2513	-0.378
Mof_O 	O 	0.945	0.915	0.2646	-0.394
Mof_O 	O 	0.1124	0.1377	0.0461	-0.439
Mof_O 	O 	0.0624	0.0853	0.9336	-0.493
Mof_Co	Co	0.52394	0.53148	0.62335	1.175
Mof_Co	Co	0.01125	0.00965	0.12617	1.169
Mof_C 	C 	0.8163	0.3169	0.6254	-0.138
Mof_H 	H 	0.8892	0.3289	0.6237	0.081
Mof_C 	C 	0.454	0.4728	0.2157	0.332
Mof_C 	C 	0.434	0.4697	0.1231	-0.224
Mof_H 	H 	0.3685	0.4423	0.1195	0.108
Mof_C 	C 	0.5074	0.5051	0.0451	0.009
Mof_H 	H 	0.5703	0.5374	0.0484	0.028
Mof_C 	C 	0.5576	0.2272	0.3842	0.09
Mof_H 	H 	0.4833	0.2165	0.3905	-0.009
Mof_C 	C 	0.6297	0.1366	0.3837	-0.148
Mof_C 	C 	0.7403	0.1534	0.3758	0.073
Mof_H 	H 	0.7907	0.0947	0.3768	-0.003
Mof_C 	C 	0.7743	0.2578	0.3666	-0.142
Mof_H 	H 	0.848	0.2706	0.3608	0.083
Mof_C 	C 	0.6977	0.3435	0.3661	0.08
Mof_H 	H 	0.7215	0.414	0.3586	0.005
Mof_C 	C 	0.591	0.026	0.3892	0.296
Mof_C 	C 	0.3651	0.9138	0.3629	0.284
Mof_C 	C 	0.2857	0.0097	0.3498	-0.788
Mof_H 	H 	0.2176	0.9854	0.3431	0.275
Mof_H 	H 	0.3153	0.0642	0.2951	0.26
Mof_H 	H 	0.2734	0.0409	0.4029	0.261
Mof_C 	C 	0.2601	0.5968	0.3784	0.076
Mof_H 	H 	0.2367	0.5267	0.3836	0.006
Mof_C 	C 	0.2174	0.7872	0.3683	0.067
Mof_H 	H 	0.1671	0.846	0.3654	-0.001
Mof_C 	C 	0.3268	0.8039	0.3662	-0.139
Mof_C 	C 	0.3981	0.7124	0.3687	0.085
Mof_H 	H 	0.4717	0.7225	0.366	-0.002
Mof_C 	C 	0.1166	0.7739	0.8745	0.077
Mof_H 	H 	0.0467	0.7507	0.878	0.006
Mof_C 	C 	0.2027	0.6976	0.8719	-0.135
Mof_H 	H 	0.1909	0.6248	0.8739	0.079
Mof_C 	C 	0.3068	0.7325	0.8662	0.061
Mof_H 	H 	0.3662	0.683	0.8635	0.001
Mof_C 	C 	0.3229	0.8416	0.8646	-0.132
Mof_C 	C 	0.2303	0.9121	0.8674	0.08
Mof_H 	H 	0.2395	0.9853	0.8657	0.002
Mof_C 	C 	0.4331	0.8808	0.8611	0.275
Mof_C 	C 	0.5303	0.806	0.8428	-0.765
Mof_H 	H 	0.5065	0.7391	0.8344	0.264
Mof_H 	H 	0.5666	0.7896	0.8947	0.252
Mof_H 	H 	0.5801	0.8414	0.7877	0.254
Mof_C 	C 	0.5461	0.1052	0.8863	0.3
Mof_C 	C 	0.449	0.1798	0.9062	-0.826
Mof_H 	H 	0.4731	0.2466	0.9145	0.278
Mof_H 	H 	0.4001	0.144	0.9617	0.283
Mof_H 	H 	0.4116	0.1965	0.855	0.286
Mof_C 	C 	0.7474	0.0718	0.8828	0.094
Mof_H 	H 	0.7371	0.9983	0.886	-0.008
Mof_C 	C 	0.6563	0.1429	0.8831	-0.148
Mof_C 	C 	0.6728	0.2525	0.8807	0.069
Mof_H 	H 	0.6141	0.3029	0.8817	-0.001
Mof_C 	C 	0.777	0.2852	0.8767	-0.137
Mof_H 	H 	0.7892	0.3577	0.8755	0.079
Mof_C 	C 	0.8634	0.2087	0.8746	0.077
Mof_H 	H 	0.9335	0.2317	0.8707	0.002
Mof_C 	C 	0.8185	0.7641	0.1079	-0.258
Mof_H 	H 	0.7829	0.716	0.0868	0.122
Mof_C 	C 	0.8086	0.7528	0.1987	0.012
Mof_H 	H 	0.8516	0.7962	0.2179	0.041
Mof_C 	C 	0.7356	0.6776	0.2702	0.043
Mof_H 	H 	0.6942	0.6307	0.253	0.021
Mof_C 	C 	0.7267	0.6745	0.3595	-0.281
Mof_H 	H 	0.7745	0.7152	0.3763	0.133
Mof_C 	C 	0.643	0.6082	0.4342	0.453
Mof_C 	C 	0.6644	0.9283	0.4142	-0.819
Mof_H 	H 	0.7309	0.9518	0.4248	0.27
Mof_H 	H 	0.6813	0.8915	0.3644	0.286
Mof_H 	H 	0.6282	0.8787	0.4697	0.282
Mof_C 	C 	0.0134	0.0229	0.6987	0.335
Mof_C 	C 	0.0295	0.0501	0.5956	-0.221
Mof_H 	H 	0.0656	0.114	0.5617	0.104
Mof_C 	C 	0.9945	0.9871	0.5499	0.005
Mof_H 	H 	0.9608	0.9221	0.5842	0.031
Mof_C 	C 	0.8858	0.8527	0.0392	0.432
Mof_N 	N 	0.5904	0.3288	0.3759	-0.225
Mof_N 	N 	0.3666	0.6105	0.375	-0.225
Mof_N 	N 	0.8495	0.1026	0.8781	-0.228
Mof_N 	N 	0.1288	0.8795	0.8722	-0.226
Mof_N 	N 	0.4639	0.9178	0.3739	-0.14
Mof_N 	N 	0.4953	0.0239	0.3706	-0.148
Mof_N 	N 	0.5423	0.0095	0.8718	-0.148
Mof_N 	N 	0.4362	0.9776	0.8754	-0.138
Mof_O 	O 	0.391	0.4168	0.2865	-0.388
Mof_O 	O 	0.5299	0.5264	0.2236	-0.387
Mof_O 	O 	0.5884	0.5422	0.4139	-0.497
Mof_O 	O 	0.6328	0.6226	0.5147	-0.451
Mof_O 	O 	0.9577	0.9422	0.7487	-0.378
Mof_O 	O 	0.055	0.085	0.7354	-0.394
Mof_O 	O 	0.8876	0.8623	0.9539	-0.439
Mof_O 	O 	0.9376	0.9147	0.0664	-0.493
Mof_Co	Co	0.47606	0.46852	0.37665	1.175
Mof_Co	Co	0.98875	0.99035	0.87383	1.169
Mof_C 	C 	0.1837	0.6831	0.3746	-0.138
Mof_H 	H 	0.1108	0.6711	0.3763	0.081
_end
