# CIF file generated by openbabel 3.1.0, see https://openbabel.org
data_I
_chemical_name_common 'image0'
_cell_length_a 22.3092
_cell_length_b 41.769
_cell_length_c 7.1646
_cell_angle_alpha 90
_cell_angle_beta 90
_cell_angle_gamma 90
_space_group_name_H-M_alt 'P 1'
_space_group_name_Hall 'P 1'
loop_
    _symmetry_equiv_pos_as_xyz
    x,y,z
loop_
    _atom_site_label
    _atom_site_type_symbol
    _atom_site_fract_x
    _atom_site_fract_y
    _atom_site_fract_z
    _atom_site_occupancy
    Na1      Na       0.04512    0.07141    0.00540    1.000
    N1       N        0.10684    0.04203    0.77060    1.000
    N2       N        0.04348    0.94078    0.81500    1.000
    N3       N        0.19286    0.87808    0.69480    1.000
    N4       N        0.35810    0.93580    0.66810    1.000
    N5       N        0.30484    0.03910    0.70650    1.000
    C1       C        0.17176    0.99148    0.73770    1.000
    C2       C        0.15026    0.95981    0.74050    1.000
    C3       C        0.19930    0.93926    0.71780    1.000
    C4       C        0.25132    0.95797    0.70350    1.000
    C5       C        0.23450    0.99041    0.71510    1.000
    C6       C        0.13606    0.01963    0.75520    1.000
    C7       C        0.09053    0.94961    0.77910    1.000
    C8       C        0.19601    0.90518    0.70640    1.000
    C9       C        0.31067    0.94574    0.68260    1.000
    C10      C        0.27328    0.01740    0.70960    1.000
    O1       O        0.01910    0.01850    0.14370    1.000
    C11      C        0.04680    0.00020    0.29800    1.000
    H1       H        0.06100    0.97920    0.25190    1.000
    H2       H        0.08160    0.01210    0.34870    1.000
    C12      C        0.00300    0.99560    0.44140    1.000
    H3       H        0.00730    0.97400    0.49600    1.000
    H4       H        0.00900    0.01150    0.54190    1.000
    C13      C        0.05360    0.00100    0.36800    1.000
    H5       H        0.07700    0.98500    0.43870    1.000
    H6       H        0.07550    0.02170    0.36990    1.000
    C14      C        0.95730    0.01010    0.16780    1.000
    H7       H        0.05360    0.00720    0.07960    1.000
    H8       H        0.93170    0.02890    0.14040    1.000
    Na2      Na       0.04512    0.57141    0.50540    1.000
    N6       N        0.10684    0.54203    0.27060    1.000
    N7       N        0.04348    0.44078    0.31500    1.000
    N8       N        0.19286    0.37808    0.19480    1.000
    N9       N        0.35810    0.43580    0.16810    1.000
    N10      N        0.30484    0.53910    0.20650    1.000
    C15      C        0.17176    0.49148    0.23770    1.000
    C16      C        0.15026    0.45981    0.24050    1.000
    C17      C        0.19930    0.43926    0.21780    1.000
    C18      C        0.25132    0.45797    0.20350    1.000
    C19      C        0.23450    0.49041    0.21510    1.000
    C20      C        0.13606    0.51963    0.25520    1.000
    C21      C        0.09053    0.44961    0.27910    1.000
    C22      C        0.19601    0.40518    0.20640    1.000
    C23      C        0.31067    0.44574    0.18260    1.000
    C24      C        0.27328    0.51740    0.20960    1.000
    O2       O        0.01910    0.51850    0.64370    1.000
    C25      C        0.04680    0.50020    0.79800    1.000
    H9       H        0.06100    0.47920    0.75190    1.000
    H10      H        0.08160    0.51210    0.84870    1.000
    C26      C        0.00300    0.49560    0.94140    1.000
    H11      H        0.00730    0.47400    0.99600    1.000
    H12      H        0.00900    0.51150    0.04190    1.000
    C27      C        0.05360    0.50100    0.86800    1.000
    H13      H        0.07700    0.48500    0.93870    1.000
    H14      H        0.07550    0.52170    0.86990    1.000
    C28      C        0.95730    0.51010    0.66780    1.000
    H15      H        0.05360    0.50720    0.57960    1.000
    H16      H        0.93170    0.52890    0.64040    1.000
    Na3      Na       0.54512    0.07141    0.50540    1.000
    N11      N        0.60684    0.04203    0.27060    1.000
    N12      N        0.54348    0.94078    0.31500    1.000
    N13      N        0.69286    0.87808    0.19480    1.000
    N14      N        0.85810    0.93580    0.16810    1.000
    N15      N        0.80484    0.03910    0.20650    1.000
    C29      C        0.67176    0.99148    0.23770    1.000
    C30      C        0.65026    0.95981    0.24050    1.000
    C31      C        0.69930    0.93926    0.21780    1.000
    C32      C        0.75132    0.95797    0.20350    1.000
    C33      C        0.73450    0.99041    0.21510    1.000
    C34      C        0.63606    0.01963    0.25520    1.000
    C35      C        0.59053    0.94961    0.27910    1.000
    C36      C        0.69601    0.90518    0.20640    1.000
    C37      C        0.81067    0.94574    0.18260    1.000
    C38      C        0.77328    0.01740    0.20960    1.000
    O3       O        0.51910    0.01850    0.64370    1.000
    C39      C        0.54680    0.00020    0.79800    1.000
    H17      H        0.56100    0.97920    0.75190    1.000
    H18      H        0.58160    0.01210    0.84870    1.000
    C40      C        0.50300    0.99560    0.94140    1.000
    H19      H        0.50730    0.97400    0.99600    1.000
    H20      H        0.50900    0.01150    0.04190    1.000
    C41      C        0.55360    0.00100    0.86800    1.000
    H21      H        0.57700    0.98500    0.93870    1.000
    H22      H        0.57550    0.02170    0.86990    1.000
    C42      C        0.45730    0.01010    0.66780    1.000
    H23      H        0.55360    0.00720    0.57960    1.000
    H24      H        0.43170    0.02890    0.64040    1.000
    Na4      Na       0.54512    0.57141    0.00540    1.000
    N16      N        0.60684    0.54203    0.77060    1.000
    N17      N        0.54348    0.44078    0.81500    1.000
    N18      N        0.69286    0.37808    0.69480    1.000
    N19      N        0.85810    0.43580    0.66810    1.000
    N20      N        0.80484    0.53910    0.70650    1.000
    C43      C        0.67176    0.49148    0.73770    1.000
    C44      C        0.65026    0.45981    0.74050    1.000
    C45      C        0.69930    0.43926    0.71780    1.000
    C46      C        0.75132    0.45797    0.70350    1.000
    C47      C        0.73450    0.49041    0.71510    1.000
    C48      C        0.63606    0.51963    0.75520    1.000
    C49      C        0.59053    0.44961    0.77910    1.000
    C50      C        0.69601    0.40518    0.70640    1.000
    C51      C        0.81067    0.44574    0.68260    1.000
    C52      C        0.77328    0.51740    0.70960    1.000
    O4       O        0.51910    0.51850    0.14370    1.000
    C53      C        0.54680    0.50020    0.29800    1.000
    H25      H        0.56100    0.47920    0.25190    1.000
    H26      H        0.58160    0.51210    0.34870    1.000
    C54      C        0.50300    0.49560    0.44140    1.000
    H27      H        0.50730    0.47400    0.49600    1.000
    H28      H        0.50900    0.51150    0.54190    1.000
    C55      C        0.55360    0.50100    0.36800    1.000
    H29      H        0.57700    0.48500    0.43870    1.000
    H30      H        0.57550    0.52170    0.36990    1.000
    C56      C        0.45730    0.51010    0.16780    1.000
    H31      H        0.55360    0.50720    0.07960    1.000
    H32      H        0.43170    0.52890    0.14040    1.000
    Na5      Na       0.95488    0.92859    0.00540    1.000
    N21      N        0.89316    0.95797    0.77060    1.000
    N22      N        0.95652    0.05922    0.81500    1.000
    N23      N        0.80714    0.12192    0.69480    1.000
    N24      N        0.64190    0.06420    0.66810    1.000
    N25      N        0.69516    0.96090    0.70650    1.000
    C57      C        0.82824    0.00852    0.73770    1.000
    C58      C        0.84974    0.04019    0.74050    1.000
    C59      C        0.80070    0.06074    0.71780    1.000
    C60      C        0.74868    0.04203    0.70350    1.000
    C61      C        0.76550    0.00959    0.71510    1.000
    C62      C        0.86394    0.98037    0.75520    1.000
    C63      C        0.90947    0.05039    0.77910    1.000
    C64      C        0.80399    0.09482    0.70640    1.000
    C65      C        0.68933    0.05426    0.68260    1.000
    C66      C        0.72672    0.98260    0.70960    1.000
    O5       O        0.98090    0.98150    0.14370    1.000
    C67      C        0.95320    0.99980    0.29800    1.000
    H33      H        0.93900    0.02080    0.25190    1.000
    H34      H        0.91840    0.98790    0.34870    1.000
    C68      C        0.99700    0.00440    0.44140    1.000
    H35      H        0.99270    0.02600    0.49600    1.000
    H36      H        0.99100    0.98850    0.54190    1.000
    C69      C        0.94640    0.99900    0.36800    1.000
    H37      H        0.92300    0.01500    0.43870    1.000
    H38      H        0.92450    0.97830    0.36990    1.000
    C70      C        0.04270    0.98990    0.16780    1.000
    H39      H        0.94640    0.99280    0.07960    1.000
    H40      H        0.06830    0.97110    0.14040    1.000
    Na6      Na       0.95488    0.42859    0.50540    1.000
    N26      N        0.89316    0.45797    0.27060    1.000
    N27      N        0.95652    0.55922    0.31500    1.000
    N28      N        0.80714    0.62192    0.19480    1.000
    N29      N        0.64190    0.56420    0.16810    1.000
    N30      N        0.69516    0.46090    0.20650    1.000
    C71      C        0.82824    0.50852    0.23770    1.000
    C72      C        0.84974    0.54019    0.24050    1.000
    C73      C        0.80070    0.56074    0.21780    1.000
    C74      C        0.74868    0.54203    0.20350    1.000
    C75      C        0.76550    0.50959    0.21510    1.000
    C76      C        0.86394    0.48037    0.25520    1.000
    C77      C        0.90947    0.55039    0.27910    1.000
    C78      C        0.80399    0.59482    0.20640    1.000
    C79      C        0.68933    0.55426    0.18260    1.000
    C80      C        0.72672    0.48260    0.20960    1.000
    O6       O        0.98090    0.48150    0.64370    1.000
    C81      C        0.95320    0.49980    0.79800    1.000
    H41      H        0.93900    0.52080    0.75190    1.000
    H42      H        0.91840    0.48790    0.84870    1.000
    C82      C        0.99700    0.50440    0.94140    1.000
    H43      H        0.99270    0.52600    0.99600    1.000
    H44      H        0.99100    0.48850    0.04190    1.000
    C83      C        0.94640    0.49900    0.86800    1.000
    H45      H        0.92300    0.51500    0.93870    1.000
    H46      H        0.92450    0.47830    0.86990    1.000
    C84      C        0.04270    0.48990    0.66780    1.000
    H47      H        0.94640    0.49280    0.57960    1.000
    H48      H        0.06830    0.47110    0.64040    1.000
    Na7      Na       0.45488    0.92859    0.50540    1.000
    N31      N        0.39316    0.95797    0.27060    1.000
    N32      N        0.45652    0.05922    0.31500    1.000
    N33      N        0.30714    0.12192    0.19480    1.000
    N34      N        0.14190    0.06420    0.16810    1.000
    N35      N        0.19516    0.96090    0.20650    1.000
    C85      C        0.32824    0.00852    0.23770    1.000
    C86      C        0.34974    0.04019    0.24050    1.000
    C87      C        0.30070    0.06074    0.21780    1.000
    C88      C        0.24868    0.04203    0.20350    1.000
    C89      C        0.26550    0.00959    0.21510    1.000
    C90      C        0.36394    0.98037    0.25520    1.000
    C91      C        0.40947    0.05039    0.27910    1.000
    C92      C        0.30399    0.09482    0.20640    1.000
    C93      C        0.18933    0.05426    0.18260    1.000
    C94      C        0.22672    0.98260    0.20960    1.000
    O7       O        0.48090    0.98150    0.64370    1.000
    C95      C        0.45320    0.99980    0.79800    1.000
    H49      H        0.43900    0.02080    0.75190    1.000
    H50      H        0.41840    0.98790    0.84870    1.000
    C96      C        0.49700    0.00440    0.94140    1.000
    H51      H        0.49270    0.02600    0.99600    1.000
    H52      H        0.49100    0.98850    0.04190    1.000
    C97      C        0.44640    0.99900    0.86800    1.000
    H53      H        0.42300    0.01500    0.93870    1.000
    H54      H        0.42450    0.97830    0.86990    1.000
    C98      C        0.54270    0.98990    0.66780    1.000
    H55      H        0.44640    0.99280    0.57960    1.000
    H56      H        0.56830    0.97110    0.64040    1.000
    Na8      Na       0.45488    0.42859    0.00540    1.000
    N36      N        0.39316    0.45797    0.77060    1.000
    N37      N        0.45652    0.55922    0.81500    1.000
    N38      N        0.30714    0.62192    0.69480    1.000
    N39      N        0.14190    0.56420    0.66810    1.000
    N40      N        0.19516    0.46090    0.70650    1.000
    C99      C        0.32824    0.50852    0.73770    1.000
    C100     C        0.34974    0.54019    0.74050    1.000
    C101     C        0.30070    0.56074    0.71780    1.000
    C102     C        0.24868    0.54203    0.70350    1.000
    C103     C        0.26550    0.50959    0.71510    1.000
    C104     C        0.36394    0.48037    0.75520    1.000
    C105     C        0.40947    0.55039    0.77910    1.000
    C106     C        0.30399    0.59482    0.70640    1.000
    C107     C        0.18933    0.55426    0.68260    1.000
    C108     C        0.22672    0.48260    0.70960    1.000
    O8       O        0.48090    0.48150    0.14370    1.000
    C109     C        0.45320    0.49980    0.29800    1.000
    H57      H        0.43900    0.52080    0.25190    1.000
    H58      H        0.41840    0.48790    0.34870    1.000
    C110     C        0.49700    0.50440    0.44140    1.000
    H59      H        0.49270    0.52600    0.49600    1.000
    H60      H        0.49100    0.48850    0.54190    1.000
    C111     C        0.44640    0.49900    0.36800    1.000
    H61      H        0.42300    0.51500    0.43870    1.000
    H62      H        0.42450    0.47830    0.36990    1.000
    C112     C        0.54270    0.48990    0.16780    1.000
    H63      H        0.44640    0.49280    0.07960    1.000
    H64      H        0.56830    0.47110    0.14040    1.000
    Na9      Na       0.29512    0.17859    0.25540    1.000
    N41      N        0.35684    0.20797    0.02060    1.000
    N42      N        0.29348    0.30922    0.06500    1.000
    N43      N        0.44286    0.37192    0.94480    1.000
    N44      N        0.60810    0.31420    0.91810    1.000
    N45      N        0.55484    0.21090    0.95650    1.000
    C113     C        0.42176    0.25852    0.98770    1.000
    C114     C        0.40026    0.29019    0.99050    1.000
    C115     C        0.44930    0.31074    0.96780    1.000
    C116     C        0.50132    0.29203    0.95350    1.000
    C117     C        0.48450    0.25959    0.96510    1.000
    C118     C        0.38606    0.23037    0.00520    1.000
    C119     C        0.34053    0.30039    0.02910    1.000
    C120     C        0.44601    0.34482    0.95640    1.000
    C121     C        0.56067    0.30426    0.93260    1.000
    C122     C        0.52328    0.23260    0.95960    1.000
    O9       O        0.26910    0.23150    0.39370    1.000
    C123     C        0.29680    0.24980    0.54800    1.000
    H65      H        0.31100    0.27080    0.50190    1.000
    H66      H        0.33160    0.23790    0.59870    1.000
    C124     C        0.25300    0.25440    0.69140    1.000
    H67      H        0.25730    0.27600    0.74600    1.000
    H68      H        0.25900    0.23850    0.79190    1.000
    C125     C        0.30360    0.24900    0.61800    1.000
    H69      H        0.32700    0.26500    0.68870    1.000
    H70      H        0.32550    0.22830    0.61990    1.000
    C126     C        0.20730    0.23990    0.41780    1.000
    H71      H        0.30360    0.24280    0.32960    1.000
    H72      H        0.18170    0.22110    0.39040    1.000
    Na10     Na       0.29512    0.67859    0.75540    1.000
    N46      N        0.35684    0.70797    0.52060    1.000
    N47      N        0.29348    0.80922    0.56500    1.000
    N48      N        0.44286    0.87192    0.44480    1.000
    N49      N        0.60810    0.81420    0.41810    1.000
    N50      N        0.55484    0.71090    0.45650    1.000
    C127     C        0.42176    0.75852    0.48770    1.000
    C128     C        0.40026    0.79019    0.49050    1.000
    C129     C        0.44930    0.81074    0.46780    1.000
    C130     C        0.50132    0.79203    0.45350    1.000
    C131     C        0.48450    0.75959    0.46510    1.000
    C132     C        0.38606    0.73037    0.50520    1.000
    C133     C        0.34053    0.80039    0.52910    1.000
    C134     C        0.44601    0.84482    0.45640    1.000
    C135     C        0.56067    0.80426    0.43260    1.000
    C136     C        0.52328    0.73260    0.45960    1.000
    O10      O        0.26910    0.73150    0.89370    1.000
    C137     C        0.29680    0.74980    0.04800    1.000
    H73      H        0.31100    0.77080    0.00190    1.000
    H74      H        0.33160    0.73790    0.09870    1.000
    C138     C        0.25300    0.75440    0.19140    1.000
    H75      H        0.25730    0.77600    0.24600    1.000
    H76      H        0.25900    0.73850    0.29190    1.000
    C139     C        0.30360    0.74900    0.11800    1.000
    H77      H        0.32700    0.76500    0.18870    1.000
    H78      H        0.32550    0.72830    0.11990    1.000
    C140     C        0.20730    0.73990    0.91780    1.000
    H79      H        0.30360    0.74280    0.82960    1.000
    H80      H        0.18170    0.72110    0.89040    1.000
    Na11     Na       0.79512    0.17859    0.75540    1.000
    N51      N        0.85684    0.20797    0.52060    1.000
    N52      N        0.79348    0.30922    0.56500    1.000
    N53      N        0.94286    0.37192    0.44480    1.000
    N54      N        0.10810    0.31420    0.41810    1.000
    N55      N        0.05484    0.21090    0.45650    1.000
    C141     C        0.92176    0.25852    0.48770    1.000
    C142     C        0.90026    0.29019    0.49050    1.000
    C143     C        0.94930    0.31074    0.46780    1.000
    C144     C        0.00132    0.29203    0.45350    1.000
    C145     C        0.98450    0.25959    0.46510    1.000
    C146     C        0.88606    0.23037    0.50520    1.000
    C147     C        0.84053    0.30039    0.52910    1.000
    C148     C        0.94601    0.34482    0.45640    1.000
    C149     C        0.06067    0.30426    0.43260    1.000
    C150     C        0.02328    0.23260    0.45960    1.000
    O11      O        0.76910    0.23150    0.89370    1.000
    C151     C        0.79680    0.24980    0.04800    1.000
    H81      H        0.81100    0.27080    0.00190    1.000
    H82      H        0.83160    0.23790    0.09870    1.000
    C152     C        0.75300    0.25440    0.19140    1.000
    H83      H        0.75730    0.27600    0.24600    1.000
    H84      H        0.75900    0.23850    0.29190    1.000
    C153     C        0.80360    0.24900    0.11800    1.000
    H85      H        0.82700    0.26500    0.18870    1.000
    H86      H        0.82550    0.22830    0.11990    1.000
    C154     C        0.70730    0.23990    0.91780    1.000
    H87      H        0.80360    0.24280    0.82960    1.000
    H88      H        0.68170    0.22110    0.89040    1.000
    Na12     Na       0.79512    0.67859    0.25540    1.000
    N56      N        0.85684    0.70797    0.02060    1.000
    N57      N        0.79348    0.80922    0.06500    1.000
    N58      N        0.94286    0.87192    0.94480    1.000
    N59      N        0.10810    0.81420    0.91810    1.000
    N60      N        0.05484    0.71090    0.95650    1.000
    C155     C        0.92176    0.75852    0.98770    1.000
    C156     C        0.90026    0.79019    0.99050    1.000
    C157     C        0.94930    0.81074    0.96780    1.000
    C158     C        0.00132    0.79203    0.95350    1.000
    C159     C        0.98450    0.75959    0.96510    1.000
    C160     C        0.88606    0.73037    0.00520    1.000
    C161     C        0.84053    0.80039    0.02910    1.000
    C162     C        0.94601    0.84482    0.95640    1.000
    C163     C        0.06067    0.80426    0.93260    1.000
    C164     C        0.02328    0.73260    0.95960    1.000
    O12      O        0.76910    0.73150    0.39370    1.000
    C165     C        0.79680    0.74980    0.54800    1.000
    H89      H        0.81100    0.77080    0.50190    1.000
    H90      H        0.83160    0.73790    0.59870    1.000
    C166     C        0.75300    0.75440    0.69140    1.000
    H91      H        0.75730    0.77600    0.74600    1.000
    H92      H        0.75900    0.73850    0.79190    1.000
    C167     C        0.80360    0.74900    0.61800    1.000
    H93      H        0.82700    0.76500    0.68870    1.000
    H94      H        0.82550    0.72830    0.61990    1.000
    C168     C        0.70730    0.73990    0.41780    1.000
    H95      H        0.80360    0.74280    0.32960    1.000
    H96      H        0.68170    0.72110    0.39040    1.000
    Na13     Na       0.20488    0.32141    0.25540    1.000
    N61      N        0.14316    0.29203    0.02060    1.000
    N62      N        0.20652    0.19078    0.06500    1.000
    N63      N        0.05714    0.12808    0.94480    1.000
    N64      N        0.89190    0.18580    0.91810    1.000
    N65      N        0.94516    0.28910    0.95650    1.000
    C169     C        0.07824    0.24148    0.98770    1.000
    C170     C        0.09974    0.20981    0.99050    1.000
    C171     C        0.05070    0.18926    0.96780    1.000
    C172     C        0.99868    0.20797    0.95350    1.000
    C173     C        0.01550    0.24041    0.96510    1.000
    C174     C        0.11394    0.26963    0.00520    1.000
    C175     C        0.15947    0.19961    0.02910    1.000
    C176     C        0.05399    0.15518    0.95640    1.000
    C177     C        0.93933    0.19574    0.93260    1.000
    C178     C        0.97672    0.26740    0.95960    1.000
    O13      O        0.23090    0.26850    0.39370    1.000
    C179     C        0.20320    0.25020    0.54800    1.000
    H97      H        0.18900    0.22920    0.50190    1.000
    H98      H        0.16840    0.26210    0.59870    1.000
    C180     C        0.24700    0.24560    0.69140    1.000
    H99      H        0.24270    0.22400    0.74600    1.000
    H100     H        0.24100    0.26150    0.79190    1.000
    C181     C        0.19640    0.25100    0.61800    1.000
    H101     H        0.17300    0.23500    0.68870    1.000
    H102     H        0.17450    0.27170    0.61990    1.000
    C182     C        0.29270    0.26010    0.41780    1.000
    H103     H        0.19640    0.25720    0.32960    1.000
    H104     H        0.31830    0.27890    0.39040    1.000
    Na14     Na       0.20488    0.82141    0.75540    1.000
    N66      N        0.14316    0.79203    0.52060    1.000
    N67      N        0.20652    0.69078    0.56500    1.000
    N68      N        0.05714    0.62808    0.44480    1.000
    N69      N        0.89190    0.68580    0.41810    1.000
    N70      N        0.94516    0.78910    0.45650    1.000
    C183     C        0.07824    0.74148    0.48770    1.000
    C184     C        0.09974    0.70981    0.49050    1.000
    C185     C        0.05070    0.68926    0.46780    1.000
    C186     C        0.99868    0.70797    0.45350    1.000
    C187     C        0.01550    0.74041    0.46510    1.000
    C188     C        0.11394    0.76963    0.50520    1.000
    C189     C        0.15947    0.69961    0.52910    1.000
    C190     C        0.05399    0.65518    0.45640    1.000
    C191     C        0.93933    0.69574    0.43260    1.000
    C192     C        0.97672    0.76740    0.45960    1.000
    O14      O        0.23090    0.76850    0.89370    1.000
    C193     C        0.20320    0.75020    0.04800    1.000
    H105     H        0.18900    0.72920    0.00190    1.000
    H106     H        0.16840    0.76210    0.09870    1.000
    C194     C        0.24700    0.74560    0.19140    1.000
    H107     H        0.24270    0.72400    0.24600    1.000
    H108     H        0.24100    0.76150    0.29190    1.000
    C195     C        0.19640    0.75100    0.11800    1.000
    H109     H        0.17300    0.73500    0.18870    1.000
    H110     H        0.17450    0.77170    0.11990    1.000
    C196     C        0.29270    0.76010    0.91780    1.000
    H111     H        0.19640    0.75720    0.82960    1.000
    H112     H        0.31830    0.77890    0.89040    1.000
    Na15     Na       0.70488    0.32141    0.75540    1.000
    N71      N        0.64316    0.29203    0.52060    1.000
    N72      N        0.70652    0.19078    0.56500    1.000
    N73      N        0.55714    0.12808    0.44480    1.000
    N74      N        0.39190    0.18580    0.41810    1.000
    N75      N        0.44516    0.28910    0.45650    1.000
    C197     C        0.57824    0.24148    0.48770    1.000
    C198     C        0.59974    0.20981    0.49050    1.000
    C199     C        0.55070    0.18926    0.46780    1.000
    C200     C        0.49868    0.20797    0.45350    1.000
    C201     C        0.51550    0.24041    0.46510    1.000
    C202     C        0.61394    0.26963    0.50520    1.000
    C203     C        0.65947    0.19961    0.52910    1.000
    C204     C        0.55399    0.15518    0.45640    1.000
    C205     C        0.43933    0.19574    0.43260    1.000
    C206     C        0.47672    0.26740    0.45960    1.000
    O15      O        0.73090    0.26850    0.89370    1.000
    C207     C        0.70320    0.25020    0.04800    1.000
    H113     H        0.68900    0.22920    0.00190    1.000
    H114     H        0.66840    0.26210    0.09870    1.000
    C208     C        0.74700    0.24560    0.19140    1.000
    H115     H        0.74270    0.22400    0.24600    1.000
    H116     H        0.74100    0.26150    0.29190    1.000
    C209     C        0.69640    0.25100    0.11800    1.000
    H117     H        0.67300    0.23500    0.18870    1.000
    H118     H        0.67450    0.27170    0.11990    1.000
    C210     C        0.79270    0.26010    0.91780    1.000
    H119     H        0.69640    0.25720    0.82960    1.000
    H120     H        0.81830    0.27890    0.89040    1.000
    Na16     Na       0.70488    0.82141    0.25540    1.000
    N76      N        0.64316    0.79203    0.02060    1.000
    N77      N        0.70652    0.69078    0.06500    1.000
    N78      N        0.55714    0.62808    0.94480    1.000
    N79      N        0.39190    0.68580    0.91810    1.000
    N80      N        0.44516    0.78910    0.95650    1.000
    C211     C        0.57824    0.74148    0.98770    1.000
    C212     C        0.59974    0.70981    0.99050    1.000
    C213     C        0.55070    0.68926    0.96780    1.000
    C214     C        0.49868    0.70797    0.95350    1.000
    C215     C        0.51550    0.74041    0.96510    1.000
    C216     C        0.61394    0.76963    0.00520    1.000
    C217     C        0.65947    0.69961    0.02910    1.000
    C218     C        0.55399    0.65518    0.95640    1.000
    C219     C        0.43933    0.69574    0.93260    1.000
    C220     C        0.47672    0.76740    0.95960    1.000
    O16      O        0.73090    0.76850    0.39370    1.000
    C221     C        0.70320    0.75020    0.54800    1.000
    H121     H        0.68900    0.72920    0.50190    1.000
    H122     H        0.66840    0.76210    0.59870    1.000
    C222     C        0.74700    0.74560    0.69140    1.000
    H123     H        0.74270    0.72400    0.74600    1.000
    H124     H        0.74100    0.76150    0.79190    1.000
    C223     C        0.69640    0.75100    0.61800    1.000
    H125     H        0.67300    0.73500    0.68870    1.000
    H126     H        0.67450    0.77170    0.61990    1.000
    C224     C        0.79270    0.76010    0.41780    1.000
    H127     H        0.69640    0.75720    0.32960    1.000
    H128     H        0.81830    0.77890    0.39040    1.000
