# CIF file generated by openbabel 3.1.0, see https://openbabel.org
data_I
_chemical_name_common 'image0'
_cell_length_a 11.7554
_cell_length_b 14.4359
_cell_length_c 14.6933
_cell_angle_alpha 111.146
_cell_angle_beta 112.698
_cell_angle_gamma 93.215
_space_group_name_H-M_alt 'P 1'
_space_group_name_Hall 'P 1'
loop_
    _symmetry_equiv_pos_as_xyz
    x,y,z
loop_
    _atom_site_label
    _atom_site_type_symbol
    _atom_site_fract_x
    _atom_site_fract_y
    _atom_site_fract_z
    _atom_site_occupancy
    W1       W        0.07366    0.90259    0.19997    1.000
    W2       W        0.27859    0.90823    0.07574    1.000
    W3       W        0.25847    0.13707    0.25979    1.000
    W4       W        0.01890    0.76809    0.81706    1.000
    W5       W        0.20309    0.00088    0.87264    1.000
    W6       W        0.18801    0.23282    0.05962    1.000
    Ce1      Ce       0.08560    0.47283    0.65190    1.000
    Ce2      Ce       0.28600    0.52395    0.06460    1.000
    N1       N        0.26800    0.63800    0.74000    1.000
    N2       N        0.62300    0.45900    0.73800    1.000
    O1       O        0.10900    0.99100    0.09700    1.000
    O2       O        0.10400    0.93900    0.96600    1.000
    O3       O        0.08700    0.12100    0.10100    1.000
    O4       O        0.95600    0.94800    0.05700    1.000
    O5       O        0.19400    0.86100    0.14500    1.000
    O6       O        0.18100    0.03800    0.28600    1.000
    O7       O        0.94500    0.96800    0.20800    1.000
    O8       O        0.95400    0.78600    0.08200    1.000
    O9       O        0.33400    0.03700    0.18700    1.000
    O10      O        0.30000    0.96600    0.99200    1.000
    O11      O        0.17600    0.78600    0.94600    1.000
    O12      O        0.12300    0.19800    0.26700    1.000
    O13      O        0.10900    0.86700    0.79200    1.000
    O14      O        0.91700    0.71100    0.86700    1.000
    O15      O        0.02300    0.66200    0.72500    1.000
    O16      O        0.25200    0.14000    0.97500    1.000
    O17      O        0.28800    0.21900    0.18800    1.000
    O18      O        0.26900    0.34600    0.07900    1.000
    O19      O        0.11500    0.56000    0.53100    1.000
    O20      O        0.16600    0.69800    0.52000    1.000
    O21      O        0.22500    0.53900    0.85400    1.000
    O22      O        0.39200    0.63600    0.00300    1.000
    O23      O        0.30100    0.42700    0.68200    1.000
    O24      O        0.47700    0.45700    0.83300    1.000
    O25      O        0.87000    0.48100    0.84900    1.000
    O26      O        0.91400    0.47000    0.71600    1.000
    C1       C        0.17800    0.64700    0.57200    1.000
    C2       C        0.28200    0.69500    0.68500    1.000
    C3       C        0.37700    0.78200    0.73300    1.000
    H1       H        0.38550    0.82070    0.69610    1.000
    C4       C        0.46000    0.80700    0.84000    1.000
    H2       H        0.52840    0.86140    0.87310    1.000
    C5       C        0.45000    0.75800    0.90400    1.000
    H3       H        0.50420    0.78130    0.97730    1.000
    C6       C        0.35200    0.67100    0.84900    1.000
    C7       C        0.31600    0.61300    0.90400    1.000
    C8       C        0.42000    0.44100    0.73300    1.000
    C9       C        0.49500    0.44000    0.67000    1.000
    C10      C        0.44300    0.40500    0.55800    1.000
    H4       H        0.35540    0.38690    0.51620    1.000
    C11      C        0.52500    0.39700    0.51000    1.000
    H5       H        0.49520    0.36930    0.43540    1.000
    C12      C        0.65400    0.43200    0.57800    1.000
    H6       H        0.70960    0.44020    0.54820    1.000
    C13      C        0.70300    0.45600    0.68800    1.000
    C14      C        0.84200    0.47300    0.75500    1.000
    W7       W        0.92634    0.09741    0.80003    1.000
    W8       W        0.72141    0.09177    0.92426    1.000
    W9       W        0.74153    0.86293    0.74021    1.000
    W10      W        0.98110    0.23191    0.18294    1.000
    W11      W        0.79691    0.99912    0.12736    1.000
    W12      W        0.81199    0.76718    0.94038    1.000
    Ce3      Ce       0.91440    0.52717    0.34810    1.000
    Ce4      Ce       0.71400    0.47605    0.93540    1.000
    N3       N        0.73200    0.36200    0.26000    1.000
    N4       N        0.37700    0.54100    0.26200    1.000
    O27      O        0.89100    0.00900    0.90300    1.000
    O28      O        0.89600    0.06100    0.03400    1.000
    O29      O        0.91300    0.87900    0.89900    1.000
    O30      O        0.04400    0.05200    0.94300    1.000
    O31      O        0.80600    0.13900    0.85500    1.000
    O32      O        0.81900    0.96200    0.71400    1.000
    O33      O        0.05500    0.03200    0.79200    1.000
    O34      O        0.04600    0.21400    0.91800    1.000
    O35      O        0.66600    0.96300    0.81300    1.000
    O36      O        0.70000    0.03400    0.00800    1.000
    O37      O        0.82400    0.21400    0.05400    1.000
    O38      O        0.87700    0.80200    0.73300    1.000
    O39      O        0.89100    0.13300    0.20800    1.000
    O40      O        0.08300    0.28900    0.13300    1.000
    O41      O        0.97700    0.33800    0.27500    1.000
    O42      O        0.74800    0.86000    0.02500    1.000
    O43      O        0.71200    0.78100    0.81200    1.000
    O44      O        0.73100    0.65400    0.92100    1.000
    O45      O        0.88500    0.44000    0.46900    1.000
    O46      O        0.83400    0.30200    0.48000    1.000
    O47      O        0.77500    0.46100    0.14600    1.000
    O48      O        0.60800    0.36400    0.99700    1.000
    O49      O        0.69900    0.57300    0.31800    1.000
    O50      O        0.52300    0.54300    0.16700    1.000
    O51      O        0.13000    0.51900    0.15100    1.000
    O52      O        0.08600    0.53000    0.28400    1.000
    C15      C        0.82200    0.35300    0.42800    1.000
    C16      C        0.71800    0.30500    0.31500    1.000
    C17      C        0.62300    0.21800    0.26700    1.000
    H7       H        0.61450    0.17930    0.30390    1.000
    C18      C        0.54000    0.19300    0.16000    1.000
    H8       H        0.47160    0.13860    0.12690    1.000
    C19      C        0.55000    0.24200    0.09600    1.000
    H9       H        0.49580    0.21870    0.02270    1.000
    C20      C        0.64800    0.32900    0.15100    1.000
    C21      C        0.68400    0.38700    0.09600    1.000
    C22      C        0.58000    0.55900    0.26700    1.000
    C23      C        0.50500    0.56000    0.33000    1.000
    C24      C        0.55700    0.59500    0.44200    1.000
    H10      H        0.64460    0.61310    0.48380    1.000
    C25      C        0.47500    0.60300    0.49000    1.000
    H11      H        0.50480    0.63070    0.56460    1.000
    C26      C        0.34600    0.56800    0.42200    1.000
    H12      H        0.29040    0.55980    0.45180    1.000
    C27      C        0.29700    0.54400    0.31200    1.000
    C28      C        0.15800    0.52700    0.24500    1.000
    Si1      Si       0.00000    0.00000    0.00000    1.000
