# CIF file generated by openbabel 3.1.0, see https://openbabel.org
data_I
_chemical_name_common 'image0'
_cell_length_a 11.0252
_cell_length_b 12.6045
_cell_length_c 16.008
_cell_angle_alpha 100.237
_cell_angle_beta 106.07
_cell_angle_gamma 95.725
_space_group_name_H-M_alt 'P 1'
_space_group_name_Hall 'P 1'
loop_
    _symmetry_equiv_pos_as_xyz
    x,y,z
loop_
    _atom_site_label
    _atom_site_type_symbol
    _atom_site_fract_x
    _atom_site_fract_y
    _atom_site_fract_z
    _atom_site_occupancy
    Tb1      Tb       0.05916    0.24040    0.62800    1.000
    Tb2      Tb       0.50248    0.25910    0.88275    1.000
    O1       O        0.41200    0.38030    0.40000    1.000
    O2       O        0.59650    0.57660    0.17040    1.000
    O3       O        0.38690    0.56430    0.12300    1.000
    O4       O        0.49300    0.20280    0.02380    1.000
    O5       O        0.48690    0.37560    0.01880    1.000
    O6       O        0.87810    0.32070    0.67070    1.000
    O7       O        0.84890    0.25560    0.52920    1.000
    O8       O        0.26900    0.22380    0.62780    1.000
    O9       O        0.44700    0.21730    0.73090    1.000
    O10      O        0.13780    0.11550    0.11090    1.000
    O11      O        0.10590    0.91660    0.37070    1.000
    O12      O        0.90390    0.93800    0.32920    1.000
    O13      O        0.03800    0.12250    0.48460    1.000
    O14      O        0.07880    0.29940    0.49190    1.000
    O15      O        0.12700    0.27570    0.78130    1.000
    O16      O        0.28780    0.21110    0.86530    1.000
    O17      O        0.70070    0.22430    0.84520    1.000
    O18      O        0.72190    0.27750    0.98720    1.000
    C1       C        0.44070    0.35670    0.32030    1.000
    C2       C        0.45320    0.44310    0.28020    1.000
    H1       H        0.45070    0.51330    0.30930    1.000
    C3       C        0.46980    0.42560    0.19530    1.000
    C4       C        0.47380    0.32090    0.15240    1.000
    C5       C        0.46190    0.23510    0.19540    1.000
    H2       H        0.46460    0.16470    0.16700    1.000
    C6       C        0.44630    0.25180    0.27870    1.000
    H3       H        0.43960    0.19380    0.30670    1.000
    C7       C        0.48670    0.52690    0.15930    1.000
    C8       C        0.48600    0.29770    0.06020    1.000
    C9       C        0.47660    0.33810    0.47150    1.000
    C10      C        0.60480    0.33280    0.49180    1.000
    H4       H        0.65050    0.34980    0.45370    1.000
    C11      C        0.66580    0.30160    0.57030    1.000
    C12      C        0.59640    0.27340    0.62560    1.000
    H5       H        0.63760    0.25470    0.67880    1.000
    C13      C        0.46540    0.27320    0.60120    1.000
    C14      C        0.40490    0.30670    0.52390    1.000
    H6       H        0.31730    0.30800    0.50780    1.000
    C15      C        0.80620    0.29320    0.59170    1.000
    C16      C        0.38710    0.23610    0.65760    1.000
    C17      C        0.10820    0.14130    0.18990    1.000
    C18      C        0.07540    0.05410    0.22470    1.000
    H7       H        0.06530    0.98310    0.19240    1.000
    C19      C        0.05740    0.07290    0.30920    1.000
    C20      C        0.07180    0.17900    0.35690    1.000
    C21      C        0.10320    0.26590    0.31880    1.000
    H8       H        0.11210    0.33720    0.35020    1.000
    C22      C        0.12110    0.24750    0.23560    1.000
    H9       H        0.14150    0.30570    0.21090    1.000
    C23      C        0.02060    0.97080    0.34030    1.000
    C24      C        0.06100    0.20330    0.44950    1.000
    C25      C        0.08120    0.16180    0.04010    1.000
    C26      C        0.15220    0.17620    0.98340    1.000
    H10      H        0.23520    0.16050    0.99580    1.000
    C27      C        0.09780    0.21480    0.90650    1.000
    C28      C        0.97270    0.23570    0.88770    1.000
    H11      H        0.93530    0.25880    0.83590    1.000
    C29      C        0.90370    0.22190    0.94660    1.000
    C30      C        0.95810    0.18530    0.02400    1.000
    H12      H        0.91230    0.17680    0.06390    1.000
    C31      C        0.17700    0.23450    0.84620    1.000
    C32      C        0.76790    0.24310    0.92530    1.000
    K1       K        0.73197    0.50936    0.05690    1.000
    K2       K        0.78170    0.02368    0.44521    1.000
    O19      O        0.94200    0.50800    0.00000    1.000
    Tb3      Tb       0.94084    0.75960    0.37200    1.000
    Tb4      Tb       0.49752    0.74090    0.11725    1.000
    O20      O        0.58800    0.61970    0.60000    1.000
    O21      O        0.40350    0.42340    0.82960    1.000
    O22      O        0.61310    0.43570    0.87700    1.000
    O23      O        0.50700    0.79720    0.97620    1.000
    O24      O        0.51310    0.62440    0.98120    1.000
    O25      O        0.12190    0.67930    0.32930    1.000
    O26      O        0.15110    0.74440    0.47080    1.000
    O27      O        0.73100    0.77620    0.37220    1.000
    O28      O        0.55300    0.78270    0.26910    1.000
    O29      O        0.86220    0.88450    0.88910    1.000
    O30      O        0.89410    0.08340    0.62930    1.000
    O31      O        0.09610    0.06200    0.67080    1.000
    O32      O        0.96200    0.87750    0.51540    1.000
    O33      O        0.92120    0.70060    0.50810    1.000
    O34      O        0.87300    0.72430    0.21870    1.000
    O35      O        0.71220    0.78890    0.13470    1.000
    O36      O        0.29930    0.77570    0.15480    1.000
    O37      O        0.27810    0.72250    0.01280    1.000
    C33      C        0.55930    0.64330    0.67970    1.000
    C34      C        0.54680    0.55690    0.71980    1.000
    H13      H        0.54930    0.48670    0.69070    1.000
    C35      C        0.53020    0.57440    0.80470    1.000
    C36      C        0.52620    0.67910    0.84760    1.000
    C37      C        0.53810    0.76490    0.80460    1.000
    H14      H        0.53540    0.83530    0.83300    1.000
    C38      C        0.55370    0.74820    0.72130    1.000
    H15      H        0.56040    0.80620    0.69330    1.000
    C39      C        0.51330    0.47310    0.84070    1.000
    C40      C        0.51400    0.70230    0.93980    1.000
    C41      C        0.52340    0.66190    0.52850    1.000
    C42      C        0.39520    0.66720    0.50820    1.000
    H16      H        0.34950    0.65020    0.54630    1.000
    C43      C        0.33420    0.69840    0.42970    1.000
    C44      C        0.40360    0.72660    0.37440    1.000
    H17      H        0.36240    0.74530    0.32120    1.000
    C45      C        0.53460    0.72680    0.39880    1.000
    C46      C        0.59510    0.69330    0.47610    1.000
    H18      H        0.68270    0.69200    0.49220    1.000
    C47      C        0.19380    0.70680    0.40830    1.000
    C48      C        0.61290    0.76390    0.34240    1.000
    C49      C        0.89180    0.85870    0.81010    1.000
    C50      C        0.92460    0.94590    0.77530    1.000
    H19      H        0.93470    0.01690    0.80760    1.000
    C51      C        0.94260    0.92710    0.69080    1.000
    C52      C        0.92820    0.82100    0.64310    1.000
    C53      C        0.89680    0.73410    0.68120    1.000
    H20      H        0.88790    0.66280    0.64980    1.000
    C54      C        0.87890    0.75250    0.76440    1.000
    H21      H        0.85850    0.69430    0.78910    1.000
    C55      C        0.97940    0.02920    0.65970    1.000
    C56      C        0.93900    0.79670    0.55050    1.000
    C57      C        0.91880    0.83820    0.95990    1.000
    C58      C        0.84780    0.82380    0.01660    1.000
    H22      H        0.76480    0.83950    0.00420    1.000
    C59      C        0.90220    0.78520    0.09350    1.000
    C60      C        0.02730    0.76430    0.11230    1.000
    H23      H        0.06470    0.74120    0.16410    1.000
    C61      C        0.09630    0.77810    0.05340    1.000
    C62      C        0.04190    0.81470    0.97600    1.000
    H24      H        0.08770    0.82320    0.93610    1.000
    C63      C        0.82300    0.76550    0.15380    1.000
    C64      C        0.23210    0.75690    0.07470    1.000
    K3       K        0.26803    0.49064    0.94310    1.000
    K4       K        0.21830    0.97632    0.55479    1.000
    O38      O        0.05800    0.49200    0.00000    1.000
