data_functionalizedCrystal
_audit_creation_method	'EQeq! by Chris Wilmer'
_symmetry_space_group_name_H-M	'P1'
_symmetry_Int_Tables_number	1
_symmetry_cell_setting	triclinic
loop_
_symmetry_equiv_pos_as_xyz
  x,y,z
_cell_length_a	12.1117
_cell_length_b	11.1419
_cell_length_c	18.742
_cell_angle_alpha	90
_cell_angle_beta	93.472
_cell_angle_gamma	90
loop_
_atom_site_label
_atom_site_type_symbol
_atom_site_fract_x
_atom_site_fract_y
_atom_site_fract_z
_atom_site_charge
Mof_Mn	Mn	0.09829	0.11129	0.71531	0.885
Mof_O 	O 	0.2217	0.22422	0.68924	-0.418
Mof_Mn	Mn	0.81143	0.22075	0.28293	0.999
Mof_O 	O 	0.43734	0.2878	0.69294	-0.419
Mof_H 	H 	0.4854	0.3423	0.6962	0.22
Mof_O 	O 	0.9389	0.1754	0.35671	-0.409
Mof_C 	C 	0.215	0.1809	0.56359	0.028
Mof_O 	O 	0.00156	0.9881	0.35605	-0.42
Mof_C 	C 	0.2101	0.0673	0.5382	-0.109
Mof_H 	H 	0.2547	0.0071	0.5613	0.065
Mof_O 	O 	0.5695	0.36	0.32126	-0.416
Mof_C 	C 	0.141	0.0365	0.4788	0.048
Mof_H 	H 	0.1381	0.9557	0.4626	0.026
Mof_O 	O 	0.6831	0.2119	0.35734	-0.389
Mof_C 	C 	0.0769	0.1229	0.44348	-0.142
Mof_O 	O 	0.72365	0.52766	0.24323	-0.477
Mof_C 	C 	0.078	0.2369	0.4718	0.049
Mof_H 	H 	0.0323	0.2974	0.4498	0.03
Mof_O 	O 	0.84775	0.41019	0.30432	-0.404
Mof_C 	C 	0.1454	0.2643	0.5322	-0.114
Mof_H 	H 	0.1429	0.3426	0.5521	0.068
Mof_C 	C 	0.9996	0.0929	0.3803	0.419
Mof_C 	C 	0.6046	0.2834	0.3654	0.359
Mof_C 	C 	0.816	0.5067	0.27746	0.475
Mof_H 	H 	0.8658	0.5724	0.2829	-0.133
Mof_C 	C 	0.289	0.1969	0.63182	-0.003
Mof_H 	H 	0.3308	0.121	0.6426	0.018
Mof_C 	C 	0.3709	0.3011	0.62587	0.173
Mof_H 	H 	0.33	0.379	0.626	-0.026
Mof_C 	C 	0.4376	0.2947	0.56046	-0.154
Mof_C 	C 	0.4076	0.3685	0.5033	0.406
Mof_H 	H 	0.3484	0.4237	0.507	-0.117
Mof_C 	C 	0.4629	0.3631	0.4408	0.178
Mof_H 	H 	0.4408	0.4143	0.402	-0.034
Mof_C 	C 	0.5496	0.2842	0.434	-0.033
Mof_C 	C 	0.5796	0.2097	0.4909	-0.042
Mof_H 	H 	0.6389	0.1548	0.487	0.036
Mof_C 	C 	0.5236	0.2141	0.5542	0.105
Mof_H 	H 	0.5447	0.1619	0.5928	0.015
Mof_C 	C 	0.2706	0.2525	0.6271	0.087
Mof_H 	H 	0.2671	0.3408	0.6177	-0.009
Mof_C 	C 	0.4509	0.2316	0.5657	0.252
Mof_C 	C 	0.4475	0.3445	0.5342	-0.33
Mof_H 	H 	0.4135	0.4096	0.5572	0.087
Mof_C 	C 	0.4939	0.3624	0.4689	-0.306
Mof_H 	H 	0.4915	0.4396	0.4474	0.075
Mof_C 	C 	0.5436	0.2672	0.4352	-0.013
Mof_C 	C 	0.547	0.1542	0.4668	0.104
Mof_H 	H 	0.581	0.0892	0.4437	-0.013
Mof_C 	C 	0.5007	0.1364	0.532	-0.325
Mof_H 	H 	0.503	0.0592	0.5535	0.132
Mof_C 	C 	0.3905	0.2084	0.6335	-0.152
Mof_H 	H 	0.3946	0.1218	0.6475	0.071
Mof_Mn	Mn	0.40171	0.61129	0.78469	0.887
Mof_O 	O 	0.2783	0.72422	0.81076	-0.42
Mof_Mn	Mn	0.68857	0.72075	0.21707	0.998
Mof_O 	O 	0.06266	0.7878	0.80706	-0.419
Mof_H 	H 	0.0146	0.8423	0.8038	0.219
Mof_O 	O 	0.5611	0.6754	0.14329	-0.411
Mof_C 	C 	0.285	0.6809	0.93641	0.03
Mof_O 	O 	0.49844	0.4881	0.14395	-0.424
Mof_C 	C 	0.2899	0.5673	0.9618	-0.114
Mof_H 	H 	0.2453	0.5071	0.9387	0.067
Mof_O 	O 	0.9305	0.86	0.17874	-0.416
Mof_C 	C 	0.359	0.5365	0.0212	0.056
Mof_H 	H 	0.3619	0.4557	0.0374	0.022
Mof_O 	O 	0.8169	0.7119	0.14266	-0.389
Mof_C 	C 	0.4231	0.6229	0.05652	-0.146
Mof_O 	O 	0.77635	0.02766	0.25677	-0.476
Mof_C 	C 	0.422	0.7369	0.0282	0.054
Mof_H 	H 	0.4677	0.7974	0.0502	0.028
Mof_O 	O 	0.65225	0.91019	0.19568	-0.403
Mof_C 	C 	0.3546	0.7643	0.9678	-0.119
Mof_H 	H 	0.3571	0.8426	0.9479	0.07
Mof_C 	C 	0.5004	0.5929	0.1197	0.421
Mof_C 	C 	0.8954	0.7834	0.1346	0.358
Mof_C 	C 	0.684	0.0067	0.22254	0.475
Mof_H 	H 	0.6342	0.0724	0.2171	-0.133
Mof_C 	C 	0.211	0.6969	0.86818	-0.012
Mof_H 	H 	0.1692	0.621	0.8574	0.022
Mof_C 	C 	0.1291	0.8011	0.87413	0.191
Mof_H 	H 	0.17	0.879	0.874	-0.031
Mof_C 	C 	0.0624	0.7947	0.93954	-0.178
Mof_C 	C 	0.0924	0.8685	0.9967	0.462
Mof_H 	H 	0.1516	0.9237	0.993	-0.137
Mof_C 	C 	0.0371	0.8631	0.0592	0.198
Mof_H 	H 	0.0592	0.9143	0.098	-0.039
Mof_C 	C 	0.9504	0.7842	0.066	-0.035
Mof_C 	C 	0.9204	0.7097	0.0091	-0.049
Mof_H 	H 	0.8611	0.6548	0.013	0.036
Mof_C 	C 	0.9764	0.7141	0.9458	0.111
Mof_H 	H 	0.9553	0.6619	0.9072	0.014
Mof_C 	C 	0.2294	0.7525	0.8729	0.098
Mof_H 	H 	0.2329	0.8408	0.8823	-0.012
Mof_C 	C 	0.0491	0.7316	0.9343	0.292
Mof_C 	C 	0.0525	0.8445	0.9658	-0.37
Mof_H 	H 	0.0865	0.9096	0.9428	0.095
Mof_C 	C 	0.0061	0.8624	0.0311	-0.333
Mof_H 	H 	0.0085	0.9396	0.0526	0.08
Mof_C 	C 	0.9564	0.7672	0.0648	-0.01
Mof_C 	C 	0.953	0.6542	0.0332	0.119
Mof_H 	H 	0.919	0.5892	0.0563	-0.019
Mof_C 	C 	0.9993	0.6364	0.968	-0.348
Mof_H 	H 	0.997	0.5592	0.9465	0.141
Mof_C 	C 	0.1095	0.7084	0.8665	-0.176
Mof_H 	H 	0.1054	0.6218	0.8525	0.076
Mof_Mn	Mn	0.90171	0.88871	0.28469	0.884
Mof_O 	O 	0.7783	0.77578	0.31076	-0.419
Mof_Mn	Mn	0.18857	0.77925	0.71707	0.998
Mof_O 	O 	0.56266	0.7122	0.30706	-0.42
Mof_H 	H 	0.5146	0.6577	0.3038	0.219
Mof_O 	O 	0.0611	0.8246	0.64329	-0.41
Mof_C 	C 	0.785	0.8191	0.43641	0.027
Mof_O 	O 	0.99844	0.0119	0.64395	-0.421
Mof_C 	C 	0.7899	0.9327	0.4618	-0.109
Mof_H 	H 	0.7453	0.9929	0.4387	0.065
Mof_O 	O 	0.4305	0.64	0.67874	-0.416
Mof_C 	C 	0.859	0.9635	0.5212	0.048
Mof_H 	H 	0.8619	0.0443	0.5374	0.026
Mof_O 	O 	0.3169	0.7881	0.64266	-0.389
Mof_C 	C 	0.9231	0.8771	0.55652	-0.142
Mof_O 	O 	0.27635	0.47234	0.75677	-0.477
Mof_C 	C 	0.922	0.7631	0.5282	0.049
Mof_H 	H 	0.9677	0.7026	0.5502	0.03
Mof_O 	O 	0.15225	0.58981	0.69568	-0.404
Mof_C 	C 	0.8546	0.7357	0.4678	-0.114
Mof_H 	H 	0.8571	0.6574	0.4479	0.068
Mof_C 	C 	0.0004	0.9071	0.6197	0.419
Mof_C 	C 	0.3954	0.7166	0.6346	0.359
Mof_C 	C 	0.184	0.4933	0.72254	0.475
Mof_H 	H 	0.1342	0.4276	0.7171	-0.133
Mof_C 	C 	0.711	0.8031	0.36818	-0.003
Mof_H 	H 	0.6692	0.879	0.3574	0.018
Mof_C 	C 	0.6291	0.6989	0.37413	0.173
Mof_H 	H 	0.67	0.621	0.374	-0.026
Mof_C 	C 	0.5624	0.7053	0.43954	-0.154
Mof_C 	C 	0.5924	0.6315	0.4967	0.406
Mof_H 	H 	0.6516	0.5763	0.493	-0.117
Mof_C 	C 	0.5371	0.6369	0.5592	0.178
Mof_H 	H 	0.5592	0.5857	0.598	-0.034
Mof_C 	C 	0.4504	0.7158	0.566	-0.033
Mof_C 	C 	0.4204	0.7903	0.5091	-0.042
Mof_H 	H 	0.3611	0.8452	0.513	0.036
Mof_C 	C 	0.4764	0.7859	0.4458	0.105
Mof_H 	H 	0.4553	0.8381	0.4072	0.015
Mof_C 	C 	0.7294	0.7475	0.3729	0.087
Mof_H 	H 	0.7329	0.6592	0.3823	-0.009
Mof_C 	C 	0.5491	0.7684	0.4343	0.252
Mof_C 	C 	0.5525	0.6555	0.4658	-0.33
Mof_H 	H 	0.5865	0.5904	0.4428	0.087
Mof_C 	C 	0.5061	0.6376	0.5311	-0.306
Mof_H 	H 	0.5085	0.5604	0.5526	0.075
Mof_C 	C 	0.4564	0.7328	0.5648	-0.013
Mof_C 	C 	0.453	0.8458	0.5332	0.104
Mof_H 	H 	0.419	0.9108	0.5563	-0.013
Mof_C 	C 	0.4993	0.8636	0.468	-0.325
Mof_H 	H 	0.497	0.9408	0.4465	0.132
Mof_C 	C 	0.6095	0.7916	0.3665	-0.152
Mof_H 	H 	0.6054	0.8782	0.3525	0.071
Mof_Mn	Mn	0.59829	0.38871	0.21531	0.887
Mof_O 	O 	0.7217	0.27578	0.18924	-0.42
Mof_Mn	Mn	0.31143	0.27925	0.78293	0.998
Mof_O 	O 	0.93734	0.2122	0.19294	-0.419
Mof_H 	H 	0.9854	0.1577	0.1962	0.219
Mof_O 	O 	0.4389	0.3246	0.85671	-0.411
Mof_C 	C 	0.715	0.3191	0.06359	0.03
Mof_O 	O 	0.50156	0.5119	0.85605	-0.424
Mof_C 	C 	0.7101	0.4327	0.0382	-0.114
Mof_H 	H 	0.7547	0.4929	0.0613	0.067
Mof_O 	O 	0.0695	0.14	0.82126	-0.416
Mof_C 	C 	0.641	0.4635	0.9788	0.056
Mof_H 	H 	0.6381	0.5443	0.9626	0.022
Mof_O 	O 	0.1831	0.2881	0.85734	-0.389
Mof_C 	C 	0.5769	0.3771	0.94348	-0.146
Mof_O 	O 	0.22365	0.97234	0.74323	-0.476
Mof_C 	C 	0.578	0.2631	0.9718	0.054
Mof_H 	H 	0.5323	0.2026	0.9498	0.028
Mof_O 	O 	0.34775	0.08981	0.80432	-0.403
Mof_C 	C 	0.6454	0.2357	0.0322	-0.119
Mof_H 	H 	0.6429	0.1574	0.0521	0.07
Mof_C 	C 	0.4996	0.4071	0.8803	0.421
Mof_C 	C 	0.1046	0.2166	0.8654	0.358
Mof_C 	C 	0.316	0.9933	0.77746	0.475
Mof_H 	H 	0.3658	0.9276	0.7829	-0.133
Mof_C 	C 	0.789	0.3031	0.13182	-0.012
Mof_H 	H 	0.8308	0.379	0.1426	0.022
Mof_C 	C 	0.8709	0.1989	0.12587	0.191
Mof_H 	H 	0.83	0.121	0.126	-0.031
Mof_C 	C 	0.9376	0.2053	0.06046	-0.178
Mof_C 	C 	0.9076	0.1315	0.0033	0.462
Mof_H 	H 	0.8484	0.0763	0.007	-0.137
Mof_C 	C 	0.9629	0.1369	0.9408	0.198
Mof_H 	H 	0.9408	0.0857	0.902	-0.039
Mof_C 	C 	0.0496	0.2158	0.934	-0.035
Mof_C 	C 	0.0796	0.2903	0.9909	-0.049
Mof_H 	H 	0.1389	0.3452	0.987	0.036
Mof_C 	C 	0.0236	0.2859	0.0542	0.111
Mof_H 	H 	0.0447	0.3381	0.0928	0.014
Mof_C 	C 	0.7706	0.2475	0.1271	0.098
Mof_H 	H 	0.7671	0.1592	0.1177	-0.012
Mof_C 	C 	0.9509	0.2684	0.0657	0.292
Mof_C 	C 	0.9475	0.1555	0.0342	-0.37
Mof_H 	H 	0.9135	0.0904	0.0572	0.095
Mof_C 	C 	0.9939	0.1376	0.9689	-0.333
Mof_H 	H 	0.9915	0.0604	0.9474	0.08
Mof_C 	C 	0.0436	0.2328	0.9352	-0.01
Mof_C 	C 	0.047	0.3458	0.9668	0.119
Mof_H 	H 	0.081	0.4108	0.9437	-0.019
Mof_C 	C 	0.0007	0.3636	0.032	-0.348
Mof_H 	H 	0.003	0.4408	0.0535	0.141
Mof_C 	C 	0.8905	0.2916	0.1335	-0.176
Mof_H 	H 	0.8946	0.3782	0.1475	0.076
_end
