data_functionalizedCrystal
_audit_creation_method	'EQeq! by Chris Wilmer'
_symmetry_space_group_name_H-M	'P1'
_symmetry_Int_Tables_number	1
_symmetry_cell_setting	triclinic
loop_
_symmetry_equiv_pos_as_xyz
  x,y,z
_cell_length_a	13.7491
_cell_length_b	21.7194
_cell_length_c	15.5474
_cell_angle_alpha	90
_cell_angle_beta	90
_cell_angle_gamma	90
loop_
_atom_site_label
_atom_site_type_symbol
_atom_site_fract_x
_atom_site_fract_y
_atom_site_fract_z
_atom_site_charge
Mof_Ag	Ag	0.14727	0.79013	0.90224	0.571
Mof_Ag	Ag	0.61758	0.22291	0.88566	0.586
Mof_Ag	Ag	0.61758	0.27709	0.38566	0.585
Mof_Ag	Ag	0.02456	0.25868	0.73771	0.372
Mof_Ag	Ag	0.32772	0.7056	0.25787	0.38
Mof_Ag	Ag	0.97544	0.74132	0.26229	0.372
Mof_Ag	Ag	0.52456	0.74132	0.76229	0.375
Mof_Ag	Ag	0.67228	0.2944	0.74213	0.379
Mof_Ag	Ag	0.38242	0.77709	0.11434	0.585
Mof_Ag	Ag	0.82772	0.2056	0.74213	0.38
Mof_Ag	Ag	0.11758	0.77709	0.61434	0.584
Mof_Ag	Ag	0.85273	0.20987	0.09776	0.57
Mof_Ag	Ag	0.17228	0.7056	0.75787	0.379
Mof_Ag	Ag	0.47544	0.25868	0.23771	0.375
Mof_Ag	Ag	0.17228	0.7944	0.25787	0.38
Mof_Ag	Ag	0.64727	0.29013	0.09776	0.572
Mof_Ag	Ag	0.14727	0.70987	0.40224	0.575
Mof_Ag	Ag	0.52456	0.75868	0.26229	0.375
Mof_Ag	Ag	0.88242	0.27709	0.88566	0.588
Mof_Ag	Ag	0.02456	0.24132	0.23771	0.377
Mof_Ag	Ag	0.97544	0.75868	0.76229	0.377
Mof_Ag	Ag	0.32772	0.7944	0.75787	0.38
Mof_Ag	Ag	0.38242	0.72291	0.61434	0.584
Mof_Ag	Ag	0.35273	0.79013	0.40224	0.574
Mof_Ag	Ag	0.35273	0.70987	0.90224	0.572
Mof_Ag	Ag	0.11758	0.72291	0.11434	0.588
Mof_Ag	Ag	0.82772	0.2944	0.24213	0.379
Mof_Ag	Ag	0.67228	0.2056	0.24213	0.38
Mof_Ag	Ag	0.88242	0.22291	0.38566	0.584
Mof_Ag	Ag	0.85273	0.29013	0.59776	0.575
Mof_Ag	Ag	0.64727	0.20987	0.59776	0.574
Mof_Ag	Ag	0.47544	0.24132	0.73771	0.375
Mof_H 	H 	0.0213	0.4261	0.7674	0.018
Mof_H 	H 	0.253	0.0545	0.2742	0.132
Mof_H 	H 	0.247	0.4455	0.2742	0.13
Mof_H 	H 	0.4787	0.4261	0.2674	0.021
Mof_H 	H 	0.0213	0.0739	0.2674	0.018
Mof_H 	H 	0.7657	0.0526	0.7211	0.05
Mof_H 	H 	0.5404	0.0331	0.2297	0.156
Mof_H 	H 	0.4787	0.0739	0.7674	0.019
Mof_H 	H 	0.0404	0.9669	0.2703	0.16
Mof_H 	H 	0.247	0.0545	0.7742	0.131
Mof_H 	H 	0.9787	0.5739	0.2326	0.018
Mof_H 	H 	0.4596	0.9669	0.7703	0.156
Mof_H 	H 	0.0404	0.5331	0.7703	0.153
Mof_H 	H 	0.253	0.4455	0.7742	0.129
Mof_H 	H 	0.9596	0.0331	0.7297	0.16
Mof_H 	H 	0.2343	0.5526	0.7789	0.052
Mof_H 	H 	0.2657	0.9474	0.7789	0.051
Mof_H 	H 	0.9596	0.4669	0.2297	0.153
Mof_H 	H 	0.2343	0.9474	0.2789	0.05
Mof_H 	H 	0.7343	0.4474	0.7211	0.052
Mof_H 	H 	0.5213	0.9261	0.2326	0.019
Mof_H 	H 	0.747	0.9455	0.7258	0.132
Mof_H 	H 	0.7343	0.0526	0.2211	0.051
Mof_H 	H 	0.5213	0.5739	0.7326	0.021
Mof_H 	H 	0.4596	0.5331	0.2703	0.154
Mof_H 	H 	0.2657	0.5526	0.2789	0.052
Mof_H 	H 	0.9787	0.9261	0.7326	0.018
Mof_H 	H 	0.753	0.5545	0.7258	0.13
Mof_H 	H 	0.7657	0.4474	0.2211	0.052
Mof_H 	H 	0.747	0.5545	0.2258	0.129
Mof_H 	H 	0.753	0.9455	0.2258	0.131
Mof_H 	H 	0.5404	0.4669	0.7297	0.154
Mof_C 	C 	0.0332	0.5478	0.2411	0.142
Mof_C 	C 	0.7966	0.4648	0.7317	0.134
Mof_C 	C 	0.3982	0.9139	0.9882	0.945
Mof_C 	C 	0.4258	0.1676	0.2403	-0.048
Mof_C 	C 	0.9258	0.8324	0.2597	-0.048
Mof_C 	C 	0.2966	0.5352	0.7683	0.133
Mof_C 	C 	0.0742	0.1676	0.7403	-0.048
Mof_C 	C 	0.6244	0.0732	0.7438	-0.084
Mof_C 	C 	0.6315	0.1411	0.0659	0.099
Mof_C 	C 	0.8657	0.1318	0.9123	0.159
Mof_C 	C 	0.6111	0.428	0.9615	0.874
Mof_C 	C 	0.4258	0.3324	0.7403	-0.048
Mof_C 	C 	0.3756	0.5732	0.7562	-0.079
Mof_C 	C 	0.1347	0.8603	0.7586	0.175
Mof_C 	C 	0.7966	0.0352	0.2317	0.136
Mof_C 	C 	0.3657	0.6318	0.0877	0.159
Mof_C 	C 	0.0219	0.0153	0.7384	-0.142
Mof_C 	C 	0.1018	0.5861	0.9882	0.944
Mof_C 	C 	0.8632	0.3053	0.7445	-0.496
Mof_C 	C 	0.3685	0.6411	0.4341	0.098
Mof_C 	C 	0.6347	0.1397	0.7414	0.175
Mof_C 	C 	0.5332	0.0478	0.7589	0.145
Mof_C 	C 	0.6343	0.1318	0.4123	0.16
Mof_C 	C 	0.1111	0.572	0.5385	0.873
Mof_C 	C 	0.8982	0.4139	0.0118	0.944
Mof_C 	C 	0.2034	0.5352	0.2683	0.134
Mof_C 	C 	0.8889	0.072	0.9615	0.877
Mof_C 	C 	0.9668	0.4522	0.7589	0.142
Mof_C 	C 	0.8756	0.0732	0.2438	-0.083
Mof_C 	C 	0.3756	0.9268	0.2562	-0.084
Mof_C 	C 	0.8657	0.3682	0.4123	0.16
Mof_C 	C 	0.3653	0.6397	0.7586	0.173
Mof_C 	C 	0.8685	0.3589	0.0659	0.1
Mof_C 	C 	0.6368	0.3053	0.2445	-0.496
Mof_C 	C 	0.1111	0.928	0.0385	0.877
Mof_C 	C 	0.7034	0.0352	0.7317	0.14
Mof_C 	C 	0.1315	0.8589	0.4341	0.098
Mof_C 	C 	0.1929	0.028	0.7651	-0.132
Mof_C 	C 	0.602	0.5515	0.2514	0.22
Mof_C 	C 	0.6368	0.1947	0.7445	-0.497
Mof_C 	C 	0.3632	0.6947	0.7555	-0.496
Mof_C 	C 	0.102	0.0515	0.7486	0.225
Mof_C 	C 	0.2966	0.9648	0.2683	0.14
Mof_C 	C 	0.1929	0.472	0.2651	-0.128
Mof_C 	C 	0.6111	0.072	0.4615	0.873
Mof_C 	C 	0.7034	0.4648	0.2317	0.133
Mof_C 	C 	0.3889	0.572	0.0385	0.874
Mof_C 	C 	0.9781	0.5153	0.7616	-0.128
Mof_C 	C 	0.9781	0.9847	0.2616	-0.142
Mof_C 	C 	0.898	0.5515	0.7514	0.22
Mof_C 	C 	0.3632	0.8053	0.2555	-0.497
Mof_C 	C 	0.6347	0.3603	0.2414	0.173
Mof_C 	C 	0.8071	0.528	0.7349	-0.128
Mof_C 	C 	0.8653	0.3603	0.7414	0.174
Mof_C 	C 	0.4668	0.5478	0.7411	0.139
Mof_C 	C 	0.6929	0.972	0.7349	-0.136
Mof_C 	C 	0.9258	0.6676	0.7597	-0.048
Mof_C 	C 	0.5332	0.4522	0.2589	0.139
Mof_C 	C 	0.3657	0.8682	0.5877	0.16
Mof_C 	C 	0.1018	0.9139	0.4882	0.951
Mof_C 	C 	0.0219	0.4847	0.2384	-0.128
Mof_C 	C 	0.8685	0.1411	0.5659	0.098
Mof_C 	C 	0.0332	0.9522	0.7411	0.145
Mof_C 	C 	0.1368	0.6947	0.2555	-0.496
Mof_C 	C 	0.102	0.4485	0.2486	0.22
Mof_C 	C 	0.4668	0.9522	0.2411	0.145
Mof_C 	C 	0.898	0.9485	0.2514	0.225
Mof_C 	C 	0.6929	0.528	0.2349	-0.127
Mof_C 	C 	0.8756	0.4268	0.7438	-0.081
Mof_C 	C 	0.1315	0.6411	0.9341	0.1
Mof_C 	C 	0.6018	0.4139	0.5118	0.951
Mof_C 	C 	0.2034	0.9648	0.7683	0.136
Mof_C 	C 	0.602	0.9485	0.7514	0.225
Mof_C 	C 	0.3071	0.472	0.7651	-0.127
Mof_C 	C 	0.398	0.4485	0.7486	0.22
Mof_C 	C 	0.3889	0.928	0.5385	0.873
Mof_C 	C 	0.1244	0.9268	0.7562	-0.083
Mof_C 	C 	0.3982	0.5861	0.4882	0.951
Mof_C 	C 	0.5219	0.5153	0.2616	-0.13
Mof_C 	C 	0.8889	0.428	0.4615	0.873
Mof_C 	C 	0.1244	0.5732	0.2562	-0.081
Mof_C 	C 	0.1368	0.8053	0.7555	-0.497
Mof_C 	C 	0.3653	0.8603	0.2586	0.175
Mof_C 	C 	0.0742	0.3324	0.2403	-0.048
Mof_C 	C 	0.1343	0.6318	0.5877	0.16
Mof_C 	C 	0.4781	0.0153	0.2384	-0.138
Mof_C 	C 	0.6018	0.0861	0.0118	0.945
Mof_C 	C 	0.6315	0.3589	0.5659	0.098
Mof_C 	C 	0.8632	0.1947	0.2445	-0.497
Mof_C 	C 	0.4781	0.4847	0.7384	-0.13
Mof_C 	C 	0.8982	0.0861	0.5118	0.951
Mof_C 	C 	0.5219	0.9847	0.7616	-0.138
Mof_C 	C 	0.398	0.0515	0.2486	0.225
Mof_C 	C 	0.5742	0.6676	0.2597	-0.048
Mof_C 	C 	0.6244	0.4268	0.2438	-0.079
Mof_C 	C 	0.1343	0.8682	0.0877	0.159
Mof_C 	C 	0.6343	0.3682	0.9123	0.159
Mof_C 	C 	0.8653	0.1397	0.2414	0.175
Mof_C 	C 	0.8071	0.972	0.2349	-0.132
Mof_C 	C 	0.5742	0.8324	0.7597	-0.048
Mof_C 	C 	0.1347	0.6397	0.2586	0.174
Mof_C 	C 	0.3685	0.8589	0.9341	0.099
Mof_C 	C 	0.3071	0.028	0.2651	-0.136
Mof_C 	C 	0.9668	0.0478	0.2589	0.145
Mof_N 	N 	0.5897	0.6154	0.2554	-0.104
Mof_N 	N 	0.0897	0.3846	0.2446	-0.104
Mof_N 	N 	0.5897	0.8846	0.7554	-0.105
Mof_N 	N 	0.4103	0.3846	0.7446	-0.104
Mof_N 	N 	0.9103	0.8846	0.2554	-0.106
Mof_N 	N 	0.4103	0.1154	0.2446	-0.105
Mof_N 	N 	0.0897	0.1154	0.7446	-0.106
Mof_N 	N 	0.9103	0.6154	0.7554	-0.104
Mof_O 	O 	0.6507	0.3101	0.5273	-0.337
Mof_O 	O 	0.6394	0.1257	0.3336	-0.239
Mof_O 	O 	0.8493	0.1899	0.5273	-0.337
Mof_O 	O 	0.3641	0.6306	0.3561	-0.233
Mof_O 	O 	0.8582	0.3205	0.4551	-0.345
Mof_O 	O 	0.3582	0.6795	0.0449	-0.344
Mof_O 	O 	0.8493	0.3101	0.0273	-0.339
Mof_O 	O 	0.6359	0.1306	0.1439	-0.234
Mof_O 	O 	0.3641	0.8694	0.8561	-0.234
Mof_O 	O 	0.1359	0.8694	0.3561	-0.233
Mof_O 	O 	0.1394	0.8743	0.1664	-0.239
Mof_O 	O 	0.8606	0.3743	0.3336	-0.239
Mof_O 	O 	0.1359	0.6306	0.8561	-0.234
Mof_O 	O 	0.6359	0.3694	0.6439	-0.233
Mof_O 	O 	0.1394	0.6257	0.6664	-0.239
Mof_O 	O 	0.8606	0.1257	0.8336	-0.239
Mof_O 	O 	0.3606	0.8743	0.6664	-0.239
Mof_O 	O 	0.1507	0.6899	0.9727	-0.339
Mof_O 	O 	0.1418	0.6795	0.5449	-0.345
Mof_O 	O 	0.1507	0.8101	0.4727	-0.337
Mof_O 	O 	0.1418	0.8205	0.0449	-0.342
Mof_O 	O 	0.6418	0.3205	0.9551	-0.344
Mof_O 	O 	0.3606	0.6257	0.1664	-0.239
Mof_O 	O 	0.3582	0.8205	0.5449	-0.345
Mof_O 	O 	0.8641	0.3694	0.1439	-0.234
Mof_O 	O 	0.6418	0.1795	0.4551	-0.345
Mof_O 	O 	0.8641	0.1306	0.6439	-0.233
Mof_O 	O 	0.3493	0.8101	0.9727	-0.338
Mof_O 	O 	0.8582	0.1795	0.9551	-0.342
Mof_O 	O 	0.3493	0.6899	0.4727	-0.337
Mof_O 	O 	0.6394	0.3743	0.8336	-0.239
Mof_O 	O 	0.6507	0.1899	0.0273	-0.338
Mof_F 	F 	0.3591	0.5875	0.5631	-0.525
Mof_F 	F 	0.8648	0.0744	0.0419	-0.507
Mof_F 	F 	0.9832	0.4387	0.455	-0.448
Mof_F 	F 	0.1409	0.9125	0.5631	-0.525
Mof_F 	F 	0.0114	0.5851	0.0018	-0.498
Mof_F 	F 	0.3793	0.5336	0.4544	-0.455
Mof_F 	F 	0.0114	0.9149	0.5018	-0.501
Mof_F 	F 	0.1503	0.9761	0.0738	-0.443
Mof_F 	F 	0.5168	0.4387	0.955	-0.449
Mof_F 	F 	0.0168	0.5613	0.545	-0.448
Mof_F 	F 	0.1207	0.9664	0.4544	-0.455
Mof_F 	F 	0.9886	0.4149	0.9982	-0.498
Mof_F 	F 	0.3497	0.5239	0.0738	-0.443
Mof_F 	F 	0.3497	0.9761	0.5738	-0.444
Mof_F 	F 	0.3648	0.5744	0.9581	-0.504
Mof_F 	F 	0.4886	0.5851	0.5018	-0.501
Mof_F 	F 	0.8497	0.4761	0.4262	-0.443
Mof_F 	F 	0.6503	0.4761	0.9262	-0.443
Mof_F 	F 	0.5114	0.4149	0.4982	-0.501
Mof_F 	F 	0.8793	0.0336	0.5456	-0.455
Mof_F 	F 	0.4832	0.5613	0.045	-0.449
Mof_F 	F 	0.8591	0.0875	0.4369	-0.525
Mof_F 	F 	0.9832	0.0613	0.955	-0.447
Mof_F 	F 	0.6409	0.4125	0.4369	-0.525
Mof_F 	F 	0.1503	0.5239	0.5738	-0.443
Mof_F 	F 	0.8648	0.4256	0.5419	-0.503
Mof_F 	F 	0.4886	0.9149	0.0018	-0.499
Mof_F 	F 	0.1207	0.5336	0.9544	-0.455
Mof_F 	F 	0.6503	0.0239	0.4262	-0.444
Mof_F 	F 	0.3648	0.9256	0.4581	-0.503
Mof_F 	F 	0.1409	0.5875	0.0631	-0.522
Mof_F 	F 	0.3793	0.9664	0.9544	-0.456
Mof_F 	F 	0.1352	0.9256	0.9581	-0.507
Mof_F 	F 	0.0168	0.9387	0.045	-0.447
Mof_F 	F 	0.6207	0.4664	0.5456	-0.455
Mof_F 	F 	0.8793	0.4664	0.0456	-0.455
Mof_F 	F 	0.8497	0.0239	0.9262	-0.443
Mof_F 	F 	0.6207	0.0336	0.0456	-0.456
Mof_F 	F 	0.4832	0.9387	0.545	-0.449
Mof_F 	F 	0.8591	0.4125	0.9369	-0.522
Mof_F 	F 	0.1352	0.5744	0.4581	-0.503
Mof_F 	F 	0.9886	0.0851	0.4982	-0.501
Mof_F 	F 	0.6352	0.4256	0.0419	-0.504
Mof_F 	F 	0.3591	0.9125	0.0631	-0.522
Mof_F 	F 	0.6352	0.0744	0.5419	-0.503
Mof_F 	F 	0.6409	0.0875	0.9369	-0.522
Mof_F 	F 	0.5168	0.0613	0.455	-0.449
Mof_F 	F 	0.5114	0.0851	0.9982	-0.499
_end
