data_functionalizedCrystal
_audit_creation_method	'EQeq! by Chris Wilmer'
_symmetry_space_group_name_H-M	'P1'
_symmetry_Int_Tables_number	1
_symmetry_cell_setting	triclinic
loop_
_symmetry_equiv_pos_as_xyz
  x,y,z
_cell_length_a	9.909
_cell_length_b	10.337
_cell_length_c	13.558
_cell_angle_alpha	81.95
_cell_angle_beta	86.55
_cell_angle_gamma	65.69
loop_
_atom_site_label
_atom_site_type_symbol
_atom_site_fract_x
_atom_site_fract_y
_atom_site_fract_z
_atom_site_charge
Mof_Eu	Eu	0.33358	0.21705	0.18363	0.983
Mof_Mo	Mo	0.74388	0.62387	0.24067	1.023
Mof_O 	O 	0.3516	0.4476	0.1845	-0.612
Mof_H 	H 	0.4542	0.4259	0.2013	0.128
Mof_N 	N 	0.9049	0.3396	0.4053	-0.313
Mof_N 	N 	0.7501	0.7369	0.4571	-0.312
Mof_N 	N 	0.4335	0.6094	0.3319	-0.3
Mof_N 	N 	0.4848	0.9543	0.208	-0.242
Mof_N 	N 	0.6782	0.3737	0.149	-0.128
Mof_N 	N 	0.2932	0.2799	0.0023	-0.2
Mof_N 	N 	0.0803	0.4155	0.1704	-0.23
Mof_N 	N 	0.9456	0.8158	0.2022	-0.18
Mof_C 	C 	0.8432	0.4386	0.3501	-0.38
Mof_C 	C 	0.7459	0.7001	0.3809	-0.394
Mof_C 	C 	0.5429	0.6162	0.3033	-0.195
Mof_C 	C 	0.5726	0.8408	0.2196	-0.159
Mof_C 	C 	0.7038	0.4615	0.1779	-0.161
Mof_C 	C 	0.2817	0.313	0.9187	-0.118
Mof_C 	C 	0.9622	0.4908	0.1896	-0.256
Mof_C 	C 	0.8723	0.7529	0.2135	-0.31
Mof_C 	C 	0.3071	0.5655	0.1031	0.214
Mof_H 	H 	0.3733	0.5383	0.0477	-0.051
Mof_H 	H 	0.3108	0.6483	0.1252	-0.105
Mof_H 	H 	0.208	0.5875	0.083	-0.081
Mof_Cs	Cs	0.14858	0.55056	0.38407	2.38
Mof_Eu	Eu	0.66642	0.78295	0.81637	0.982
Mof_Mo	Mo	0.25612	0.37613	0.75933	1.022
Mof_O 	O 	0.6484	0.5524	0.8155	-0.612
Mof_H 	H 	0.5458	0.5741	0.7987	0.128
Mof_N 	N 	0.0951	0.6604	0.5947	-0.313
Mof_N 	N 	0.2499	0.2631	0.5429	-0.312
Mof_N 	N 	0.5665	0.3906	0.6681	-0.3
Mof_N 	N 	0.5152	0.0457	0.792	-0.242
Mof_N 	N 	0.3218	0.6263	0.851	-0.128
Mof_N 	N 	0.7068	0.7201	0.9977	-0.2
Mof_N 	N 	0.9197	0.5845	0.8296	-0.23
Mof_N 	N 	0.0544	0.1842	0.7978	-0.18
Mof_C 	C 	0.1568	0.5614	0.6499	-0.38
Mof_C 	C 	0.2541	0.2999	0.6191	-0.394
Mof_C 	C 	0.4571	0.3838	0.6967	-0.195
Mof_C 	C 	0.4274	0.1592	0.7804	-0.159
Mof_C 	C 	0.2962	0.5385	0.8221	-0.161
Mof_C 	C 	0.7183	0.687	0.0813	-0.118
Mof_C 	C 	0.0378	0.5092	0.8104	-0.256
Mof_C 	C 	0.1277	0.2471	0.7865	-0.31
Mof_C 	C 	0.6929	0.4345	0.8969	0.214
Mof_H 	H 	0.6267	0.4617	0.9523	-0.051
Mof_H 	H 	0.6892	0.3517	0.8748	-0.105
Mof_H 	H 	0.792	0.4125	0.917	-0.081
Mof_Cs	Cs	0.85142	0.44944	0.61593	2.38
_end
