# CIF file generated by openbabel 3.1.0, see https://openbabel.org
data_I
_chemical_name_common 'NANYUX02_charged'
_cell_length_a 9.4801
_cell_length_b 11.551
_cell_length_c 16.3027
_cell_angle_alpha 90
_cell_angle_beta 90
_cell_angle_gamma 97.138
_space_group_name_H-M_alt 'P 1'
_space_group_name_Hall 'P 1'
loop_
    _symmetry_equiv_pos_as_xyz
    x,y,z
loop_
    _atom_site_label
    _atom_site_type_symbol
    _atom_site_fract_x
    _atom_site_fract_y
    _atom_site_fract_z
    _atom_site_occupancy
    Zn1      Zn       0.36373    0.54709    0.92028    1.000
    Zn2      Zn       0.13627    0.95291    0.42028    1.000
    Zn3      Zn       0.63627    0.45291    0.07972    1.000
    Zn4      Zn       0.86373    0.04709    0.57972    1.000
    H1       H        0.06350    0.83170    0.75180    1.000
    H2       H        0.65400    0.77900    0.81940    1.000
    H3       H        0.94130    0.61030    0.93500    1.000
    H4       H        0.43650    0.66830    0.25180    1.000
    H5       H        0.84600    0.72100    0.31940    1.000
    H6       H        0.55870    0.88970    0.43500    1.000
    H7       H        0.93650    0.16830    0.24820    1.000
    H8       H        0.34600    0.22100    0.18060    1.000
    H9       H        0.05870    0.38970    0.06500    1.000
    H10      H        0.56350    0.33170    0.74820    1.000
    H11      H        0.15400    0.27900    0.68060    1.000
    H12      H        0.44130    0.11030    0.56500    1.000
    C1       C        0.17590    0.68700    0.85270    1.000
    C2       C        0.81560    0.89770    0.70777    1.000
    C3       C        0.66390    0.62160    0.93724    1.000
    C4       C        0.02650    0.71710    0.84499    1.000
    C5       C        0.99230    0.79480    0.78534    1.000
    C6       C        0.85360    0.81790    0.77512    1.000
    C7       C        0.74730    0.76320    0.82562    1.000
    C8       C        0.78000    0.68490    0.88544    1.000
    C9       C        0.91930    0.66240    0.89493    1.000
    C10      C        0.32410    0.81300    0.35270    1.000
    C11      C        0.68440    0.60230    0.20777    1.000
    C12      C        0.83610    0.87840    0.43724    1.000
    C13      C        0.47350    0.78290    0.34499    1.000
    C14      C        0.50770    0.70520    0.28534    1.000
    C15      C        0.64640    0.68210    0.27512    1.000
    C16      C        0.75270    0.73680    0.32562    1.000
    C17      C        0.72000    0.81510    0.38544    1.000
    C18      C        0.58070    0.83760    0.39493    1.000
    C19      C        0.82410    0.31300    0.14730    1.000
    C20      C        0.18440    0.10230    0.29223    1.000
    C21      C        0.33610    0.37840    0.06276    1.000
    C22      C        0.97350    0.28290    0.15501    1.000
    C23      C        0.00770    0.20520    0.21466    1.000
    C24      C        0.14640    0.18210    0.22488    1.000
    C25      C        0.25270    0.23680    0.17438    1.000
    C26      C        0.22000    0.31510    0.11456    1.000
    C27      C        0.08070    0.33760    0.10507    1.000
    C28      C        0.67590    0.18700    0.64730    1.000
    C29      C        0.31560    0.39770    0.79223    1.000
    C30      C        0.16390    0.12160    0.56276    1.000
    C31      C        0.52650    0.21710    0.65501    1.000
    C32      C        0.49230    0.29480    0.71466    1.000
    C33      C        0.35360    0.31790    0.72488    1.000
    C34      C        0.24730    0.26320    0.67438    1.000
    C35      C        0.28000    0.18490    0.61456    1.000
    C36      C        0.41930    0.16240    0.60507    1.000
    O1       O        0.20355    0.63628    0.91866    1.000
    O2       O        0.26279    0.71278    0.79715    1.000
    O3       O        0.91920    0.94944    0.66740    1.000
    O4       O        0.69070    0.90640    0.69297    1.000
    O5       O        0.54200    0.65317    0.93264    1.000
    O6       O        0.69834    0.54002    0.98024    1.000
    O7       O        0.29645    0.86372    0.41866    1.000
    O8       O        0.23721    0.78722    0.29715    1.000
    O9       O        0.58080    0.55056    0.16740    1.000
    O10      O        0.80930    0.59360    0.19297    1.000
    O11      O        0.95800    0.84683    0.43264    1.000
    O12      O        0.80166    0.95998    0.48024    1.000
    O13      O        0.79645    0.36372    0.08134    1.000
    O14      O        0.73721    0.28722    0.20285    1.000
    O15      O        0.08080    0.05056    0.33260    1.000
    O16      O        0.30930    0.09360    0.30703    1.000
    O17      O        0.45800    0.34683    0.06736    1.000
    O18      O        0.30166    0.45998    0.01976    1.000
    O19      O        0.70355    0.13628    0.58134    1.000
    O20      O        0.76279    0.21278    0.70285    1.000
    O21      O        0.41920    0.44944    0.83260    1.000
    O22      O        0.19070    0.40640    0.80703    1.000
    O23      O        0.04200    0.15317    0.56736    1.000
    O24      O        0.19834    0.04002    0.51976    1.000
    H13      H        0.28210    0.66170    0.60540    1.000
    H14      H        0.30730    0.69780    0.69000    1.000
    H15      H        0.51450    0.65050    0.58450    1.000
    H16      H        0.45900    0.57140    0.65870    1.000
    H17      H        0.54500    0.69430    0.67450    1.000
    H18      H        0.42230    0.86960    0.65080    1.000
    H19      H        0.26770    0.85140    0.61480    1.000
    H20      H        0.39730    0.83050    0.55930    1.000
    C37      C        0.47710    0.65030    0.63920    1.000
    C38      C        0.35910    0.82380    0.61390    1.000
    N1       N        0.34430    0.70320    0.63910    1.000
    H21      H        0.21790    0.83830    0.10540    1.000
    H22      H        0.19270    0.80220    0.19000    1.000
    H23      H        0.98550    0.84950    0.08450    1.000
    H24      H        0.04100    0.92860    0.15870    1.000
    H25      H        0.95500    0.80570    0.17450    1.000
    H26      H        0.07770    0.63040    0.15080    1.000
    H27      H        0.23230    0.64860    0.11480    1.000
    H28      H        0.10270    0.66950    0.05930    1.000
    C39      C        0.02290    0.84970    0.13920    1.000
    C40      C        0.14090    0.67620    0.11390    1.000
    N2       N        0.15570    0.79680    0.13910    1.000
    H29      H        0.71790    0.33830    0.39460    1.000
    H30      H        0.69270    0.30220    0.31000    1.000
    H31      H        0.48550    0.34950    0.41550    1.000
    H32      H        0.54100    0.42860    0.34130    1.000
    H33      H        0.45500    0.30570    0.32550    1.000
    H34      H        0.57770    0.13040    0.34920    1.000
    H35      H        0.73230    0.14860    0.38520    1.000
    H36      H        0.60270    0.16950    0.44070    1.000
    C41      C        0.52290    0.34970    0.36080    1.000
    C42      C        0.64090    0.17620    0.38610    1.000
    N3       N        0.65570    0.29680    0.36090    1.000
    H37      H        0.78210    0.16170    0.89460    1.000
    H38      H        0.80730    0.19780    0.81000    1.000
    H39      H        0.01450    0.15050    0.91550    1.000
    H40      H        0.95900    0.07140    0.84130    1.000
    H41      H        0.04500    0.19430    0.82550    1.000
    H42      H        0.92230    0.36960    0.84920    1.000
    H43      H        0.76770    0.35140    0.88520    1.000
    H44      H        0.89730    0.33050    0.94070    1.000
    C43      C        0.97710    0.15030    0.86080    1.000
    C44      C        0.85910    0.32380    0.88610    1.000
    N4       N        0.84430    0.20320    0.86090    1.000
