data_functionalizedCrystal
_audit_creation_method	'EQeq! by Chris Wilmer'
_symmetry_space_group_name_H-M	'P1'
_symmetry_Int_Tables_number	1
_symmetry_cell_setting	triclinic
loop_
_symmetry_equiv_pos_as_xyz
  x,y,z
_cell_length_a	22.039
_cell_length_b	22.039
_cell_length_c	22.039
_cell_angle_alpha	90
_cell_angle_beta	90
_cell_angle_gamma	90
loop_
_atom_site_label
_atom_site_type_symbol
_atom_site_fract_x
_atom_site_fract_y
_atom_site_fract_z
_atom_site_charge
Mof_H 	H 	0.35199	0.85909	0.20078	0.022
Mof_C 	C 	0.28164	0.04984	0.87424	-0.041
Mof_H 	H 	0.26156	0.02688	0.83247	0.029
Mof_C 	C 	0.33009	0.02505	0.90256	-0.024
Mof_H 	H 	0.35331	0.98343	0.88244	0.08
Mof_H 	H 	0.64801	0.14091	0.20078	0.015
Mof_C 	C 	0.71836	0.95016	0.87424	-0.09
Mof_H 	H 	0.73844	0.97312	0.83247	0.071
Mof_C 	C 	0.66991	0.97495	0.90256	0.136
Mof_H 	H 	0.64669	0.01657	0.88244	-0.027
Mof_H 	H 	0.64801	0.85909	0.79922	0.023
Mof_C 	C 	0.71836	0.04984	0.12576	-0.028
Mof_H 	H 	0.73844	0.02688	0.16753	0.023
Mof_C 	C 	0.66991	0.02505	0.09744	-0.046
Mof_H 	H 	0.64669	0.98343	0.11756	0.08
Mof_H 	H 	0.35199	0.14091	0.79922	0.017
Mof_C 	C 	0.28164	0.95016	0.12576	-0.083
Mof_H 	H 	0.26156	0.97312	0.16753	0.062
Mof_C 	C 	0.33009	0.97495	0.09744	0.119
Mof_H 	H 	0.35331	0.01657	0.11756	-0.034
Mof_H 	H 	0.20078	0.35199	0.85909	0.021
Mof_C 	C 	0.87424	0.28164	0.04984	-0.042
Mof_H 	H 	0.83247	0.26156	0.02688	0.029
Mof_C 	C 	0.90256	0.33009	0.02505	-0.024
Mof_H 	H 	0.88244	0.35331	0.98343	0.08
Mof_H 	H 	0.20078	0.64801	0.14091	0.017
Mof_C 	C 	0.87424	0.71836	0.95016	-0.09
Mof_H 	H 	0.83247	0.73844	0.97312	0.071
Mof_C 	C 	0.90256	0.66991	0.97495	0.136
Mof_H 	H 	0.88244	0.64669	0.01657	-0.027
Mof_H 	H 	0.79922	0.64801	0.85909	0.023
Mof_C 	C 	0.12576	0.71836	0.04984	-0.027
Mof_H 	H 	0.16753	0.73844	0.02688	0.023
Mof_C 	C 	0.09744	0.66991	0.02505	-0.046
Mof_H 	H 	0.11756	0.64669	0.98343	0.08
Mof_H 	H 	0.79922	0.35199	0.14091	0.015
Mof_C 	C 	0.12576	0.28164	0.95016	-0.083
Mof_H 	H 	0.16753	0.26156	0.97312	0.062
Mof_C 	C 	0.09744	0.33009	0.97495	0.119
Mof_H 	H 	0.11756	0.35331	0.01657	-0.034
Mof_H 	H 	0.85909	0.20078	0.35199	0.021
Mof_C 	C 	0.04984	0.87424	0.28164	-0.042
Mof_H 	H 	0.02688	0.83247	0.26156	0.029
Mof_C 	C 	0.02505	0.90256	0.33009	-0.024
Mof_H 	H 	0.98343	0.88244	0.35331	0.08
Mof_H 	H 	0.14091	0.20078	0.64801	0.018
Mof_C 	C 	0.95016	0.87424	0.71836	-0.09
Mof_H 	H 	0.97312	0.83247	0.73844	0.071
Mof_C 	C 	0.97495	0.90256	0.66991	0.136
Mof_H 	H 	0.01657	0.88244	0.64669	-0.027
Mof_H 	H 	0.85909	0.79922	0.64801	0.023
Mof_C 	C 	0.04984	0.12576	0.71836	-0.028
Mof_H 	H 	0.02688	0.16753	0.73844	0.023
Mof_C 	C 	0.02505	0.09744	0.66991	-0.046
Mof_H 	H 	0.98343	0.11756	0.64669	0.08
Mof_H 	H 	0.14091	0.79922	0.35199	0.014
Mof_C 	C 	0.95016	0.12576	0.28164	-0.083
Mof_H 	H 	0.97312	0.16753	0.26156	0.062
Mof_C 	C 	0.97495	0.09744	0.33009	0.119
Mof_H 	H 	0.01657	0.11756	0.35331	-0.034
Mof_H 	H 	0.85911	0.35168	0.20062	0.02
Mof_C 	C 	0.04984	0.28164	0.87424	-0.042
Mof_H 	H 	0.02688	0.26156	0.83247	0.029
Mof_C 	C 	0.02505	0.33009	0.90256	-0.024
Mof_H 	H 	0.98343	0.35331	0.88244	0.08
Mof_H 	H 	0.14089	0.64832	0.20062	0.018
Mof_C 	C 	0.95016	0.71836	0.87424	-0.09
Mof_H 	H 	0.97312	0.73844	0.83247	0.071
Mof_C 	C 	0.97495	0.66991	0.90256	0.136
Mof_H 	H 	0.01657	0.64669	0.88244	-0.027
Mof_H 	H 	0.85911	0.64832	0.79938	0.023
Mof_C 	C 	0.04984	0.71836	0.12576	-0.028
Mof_H 	H 	0.02688	0.73844	0.16753	0.023
Mof_C 	C 	0.02505	0.66991	0.09744	-0.046
Mof_H 	H 	0.98343	0.64669	0.11756	0.08
Mof_H 	H 	0.14089	0.35168	0.79938	0.014
Mof_C 	C 	0.95016	0.28164	0.12576	-0.083
Mof_H 	H 	0.97312	0.26156	0.16753	0.062
Mof_C 	C 	0.97495	0.33009	0.09744	0.119
Mof_H 	H 	0.01657	0.35331	0.11756	-0.034
Mof_H 	H 	0.35168	0.20062	0.85911	0.021
Mof_C 	C 	0.28164	0.87424	0.04984	-0.042
Mof_H 	H 	0.26156	0.83247	0.02688	0.028
Mof_C 	C 	0.33009	0.90256	0.02505	-0.024
Mof_H 	H 	0.35331	0.88244	0.98343	0.08
Mof_H 	H 	0.64832	0.20062	0.14089	0.015
Mof_C 	C 	0.71836	0.87424	0.95016	-0.09
Mof_H 	H 	0.73844	0.83247	0.97312	0.071
Mof_C 	C 	0.66991	0.90256	0.97495	0.136
Mof_H 	H 	0.64669	0.88244	0.01657	-0.027
Mof_H 	H 	0.64832	0.79938	0.85911	0.023
Mof_C 	C 	0.71836	0.12576	0.04984	-0.028
Mof_H 	H 	0.73844	0.16753	0.02688	0.023
Mof_C 	C 	0.66991	0.09744	0.02505	-0.046
Mof_H 	H 	0.64669	0.11756	0.98343	0.08
Mof_H 	H 	0.35168	0.79938	0.14089	0.017
Mof_C 	C 	0.28164	0.12576	0.95016	-0.083
Mof_H 	H 	0.26156	0.16753	0.97312	0.062
Mof_C 	C 	0.33009	0.09744	0.97495	0.119
Mof_H 	H 	0.35331	0.11756	0.01657	-0.034
Mof_H 	H 	0.20062	0.85911	0.35168	0.021
Mof_C 	C 	0.87424	0.04984	0.28164	-0.042
Mof_H 	H 	0.83247	0.02688	0.26156	0.029
Mof_C 	C 	0.90256	0.02505	0.33009	-0.024
Mof_H 	H 	0.88244	0.98343	0.35331	0.08
Mof_H 	H 	0.20062	0.14089	0.64832	0.017
Mof_C 	C 	0.87424	0.95016	0.71836	-0.09
Mof_H 	H 	0.83247	0.97312	0.73844	0.071
Mof_C 	C 	0.90256	0.97495	0.66991	0.136
Mof_H 	H 	0.88244	0.01657	0.64669	-0.027
Mof_H 	H 	0.79938	0.85911	0.64832	0.023
Mof_C 	C 	0.12576	0.04984	0.71836	-0.027
Mof_H 	H 	0.16753	0.02688	0.73844	0.023
Mof_C 	C 	0.09744	0.02505	0.66991	-0.046
Mof_H 	H 	0.11756	0.98343	0.64669	0.08
Mof_H 	H 	0.79938	0.14089	0.35168	0.015
Mof_C 	C 	0.12576	0.95016	0.28164	-0.083
Mof_H 	H 	0.16753	0.97312	0.26156	0.062
Mof_C 	C 	0.09744	0.97495	0.33009	0.119
Mof_H 	H 	0.11756	0.01657	0.35331	-0.034
Mof_Ni	Ni	0.42386	0	-0	1.051
Mof_Ni	Ni	0.57614	0	-0	1.051
Mof_Ni	Ni	4.71634e-33	0.42386	-0	1.051
Mof_Ni	Ni	-0	0.57614	-0	1.051
Mof_Ni	Ni	6.30556e-33	4.71634e-33	0.42386	1.051
Mof_Ni	Ni	2.16018e-33	0	0.57614	1.051
Mof_O 	O 	0.47298	0.93805	0.06195	-0.391
Mof_N 	N 	0.35248	0.04677	0.95323	-0.197
Mof_C 	C 	0.29826	0.77782	0.22218	-0.068
Mof_O 	O 	0.40651	0.783	0.217	-0.225
Mof_C 	C 	0.20312	0.13134	0.86866	0.117
Mof_O 	O 	0.57343	0.93552	0.06448	-0.407
Mof_C 	C 	0.52172	0.91774	0.08226	0.358
Mof_C 	C 	0.35312	0.80815	0.19185	0.06
Mof_C 	C 	0.25695	0.1033	0.8967	0.004
Mof_C 	C 	0.5202	0.87019	0.12981	-0.07
Mof_C 	C 	0.46375	0.85066	0.14934	-0.06
Mof_H 	H 	0.42083	0.87108	0.12892	0.058
Mof_C 	C 	0.45934	0.80465	0.19535	0.151
Mof_C 	C 	0.5114	0.78228	0.21772	-0.093
Mof_H 	H 	0.51024	0.74571	0.25429	0.062
Mof_C 	C 	0.5685	0.80109	0.19891	-0.009
Mof_H 	H 	0.61086	0.7801	0.2199	0.03
Mof_C 	C 	0.5716	0.8465	0.1535	-0.008
Mof_H 	H 	0.61773	0.86305	0.13695	0.041
Mof_O 	O 	0.52702	0.06195	0.06195	-0.429
Mof_N 	N 	0.64752	0.95323	0.95323	-0.202
Mof_C 	C 	0.70174	0.22218	0.22218	-0.067
Mof_O 	O 	0.59349	0.217	0.217	-0.226
Mof_C 	C 	0.79688	0.86866	0.86866	0.121
Mof_O 	O 	0.42657	0.06448	0.06448	-0.441
Mof_C 	C 	0.47828	0.08226	0.08226	0.36
Mof_C 	C 	0.64688	0.19185	0.19185	0.063
Mof_C 	C 	0.74305	0.8967	0.8967	0.037
Mof_C 	C 	0.4798	0.12981	0.12981	-0.081
Mof_C 	C 	0.53625	0.14934	0.14934	-0.064
Mof_H 	H 	0.57917	0.12892	0.12892	0.055
Mof_C 	C 	0.54066	0.19535	0.19535	0.147
Mof_C 	C 	0.4886	0.21772	0.21772	-0.095
Mof_H 	H 	0.48976	0.25429	0.25429	0.058
Mof_C 	C 	0.4315	0.19891	0.19891	-0.017
Mof_H 	H 	0.38914	0.2199	0.2199	0.021
Mof_C 	C 	0.4284	0.1535	0.1535	-0.011
Mof_H 	H 	0.38227	0.13695	0.13695	0.029
Mof_O 	O 	0.52702	0.93805	0.93805	-0.357
Mof_N 	N 	0.64752	0.04677	0.04677	-0.192
Mof_C 	C 	0.70174	0.77782	0.77782	-0.069
Mof_O 	O 	0.59349	0.783	0.783	-0.223
Mof_C 	C 	0.79688	0.13134	0.13134	0.124
Mof_O 	O 	0.42657	0.93552	0.93552	-0.376
Mof_C 	C 	0.47828	0.91774	0.91774	0.356
Mof_C 	C 	0.64688	0.80815	0.80815	0.057
Mof_C 	C 	0.74305	0.1033	0.1033	-0.027
Mof_C 	C 	0.4798	0.87019	0.87019	-0.06
Mof_C 	C 	0.53625	0.85066	0.85066	-0.057
Mof_H 	H 	0.57917	0.87108	0.87108	0.062
Mof_C 	C 	0.54066	0.80465	0.80465	0.154
Mof_C 	C 	0.4886	0.78228	0.78228	-0.091
Mof_H 	H 	0.48976	0.74571	0.74571	0.066
Mof_C 	C 	0.4315	0.80109	0.80109	-0.003
Mof_H 	H 	0.38914	0.7801	0.7801	0.034
Mof_C 	C 	0.4284	0.8465	0.8465	-0.006
Mof_H 	H 	0.38227	0.86305	0.86305	0.048
Mof_O 	O 	0.47298	0.06195	0.93805	-0.391
Mof_N 	N 	0.35248	0.95323	0.04677	-0.197
Mof_C 	C 	0.29826	0.22218	0.77782	-0.068
Mof_O 	O 	0.40651	0.217	0.783	-0.225
Mof_C 	C 	0.20312	0.86866	0.13134	0.117
Mof_O 	O 	0.57343	0.06448	0.93552	-0.407
Mof_C 	C 	0.52172	0.08226	0.91774	0.358
Mof_C 	C 	0.35312	0.19185	0.80815	0.06
Mof_C 	C 	0.25695	0.8967	0.1033	0.004
Mof_C 	C 	0.5202	0.12981	0.87019	-0.07
Mof_C 	C 	0.46375	0.14934	0.85066	-0.06
Mof_H 	H 	0.42083	0.12892	0.87108	0.058
Mof_C 	C 	0.45934	0.19535	0.80465	0.151
Mof_C 	C 	0.5114	0.21772	0.78228	-0.093
Mof_H 	H 	0.51024	0.25429	0.74571	0.062
Mof_C 	C 	0.5685	0.19891	0.80109	-0.009
Mof_H 	H 	0.61086	0.2199	0.7801	0.03
Mof_C 	C 	0.5716	0.1535	0.8465	-0.008
Mof_H 	H 	0.61773	0.13695	0.86305	0.041
Mof_O 	O 	0.06195	0.47298	0.93805	-0.391
Mof_N 	N 	0.95323	0.35248	0.04677	-0.197
Mof_C 	C 	0.22218	0.29826	0.77782	-0.068
Mof_O 	O 	0.217	0.40651	0.783	-0.224
Mof_C 	C 	0.86866	0.20312	0.13134	0.117
Mof_O 	O 	0.06448	0.57343	0.93552	-0.407
Mof_C 	C 	0.08226	0.52172	0.91774	0.358
Mof_C 	C 	0.19185	0.35312	0.80815	0.061
Mof_C 	C 	0.8967	0.25695	0.1033	0.005
Mof_C 	C 	0.12981	0.5202	0.87019	-0.07
Mof_C 	C 	0.14934	0.46375	0.85066	-0.06
Mof_H 	H 	0.12892	0.42083	0.87108	0.058
Mof_C 	C 	0.19535	0.45934	0.80465	0.151
Mof_C 	C 	0.21772	0.5114	0.78228	-0.093
Mof_H 	H 	0.25429	0.51024	0.74571	0.062
Mof_C 	C 	0.19891	0.5685	0.80109	-0.009
Mof_H 	H 	0.2199	0.61086	0.7801	0.03
Mof_C 	C 	0.1535	0.5716	0.8465	-0.008
Mof_H 	H 	0.13695	0.61773	0.86305	0.041
Mof_O 	O 	0.06195	0.52702	0.06195	-0.429
Mof_N 	N 	0.95323	0.64752	0.95323	-0.202
Mof_C 	C 	0.22218	0.70174	0.22218	-0.068
Mof_O 	O 	0.217	0.59349	0.217	-0.228
Mof_C 	C 	0.86866	0.79688	0.86866	0.121
Mof_O 	O 	0.06448	0.42657	0.06448	-0.441
Mof_C 	C 	0.08226	0.47828	0.08226	0.36
Mof_C 	C 	0.19185	0.64688	0.19185	0.06
Mof_C 	C 	0.8967	0.74305	0.8967	0.037
Mof_C 	C 	0.12981	0.4798	0.12981	-0.081
Mof_C 	C 	0.14934	0.53625	0.14934	-0.064
Mof_H 	H 	0.12892	0.57917	0.12892	0.055
Mof_C 	C 	0.19535	0.54066	0.19535	0.146
Mof_C 	C 	0.21772	0.4886	0.21772	-0.096
Mof_H 	H 	0.25429	0.48976	0.25429	0.058
Mof_C 	C 	0.19891	0.4315	0.19891	-0.017
Mof_H 	H 	0.2199	0.38914	0.2199	0.021
Mof_C 	C 	0.1535	0.4284	0.1535	-0.011
Mof_H 	H 	0.13695	0.38227	0.13695	0.029
Mof_O 	O 	0.93805	0.52702	0.93805	-0.357
Mof_N 	N 	0.04677	0.64752	0.04677	-0.192
Mof_C 	C 	0.77782	0.70174	0.77782	-0.069
Mof_O 	O 	0.783	0.59349	0.783	-0.223
Mof_C 	C 	0.13134	0.79688	0.13134	0.124
Mof_O 	O 	0.93552	0.42657	0.93552	-0.376
Mof_C 	C 	0.91774	0.47828	0.91774	0.356
Mof_C 	C 	0.80815	0.64688	0.80815	0.057
Mof_C 	C 	0.1033	0.74305	0.1033	-0.027
Mof_C 	C 	0.87019	0.4798	0.87019	-0.06
Mof_C 	C 	0.85066	0.53625	0.85066	-0.057
Mof_H 	H 	0.87108	0.57917	0.87108	0.062
Mof_C 	C 	0.80465	0.54066	0.80465	0.154
Mof_C 	C 	0.78228	0.4886	0.78228	-0.091
Mof_H 	H 	0.74571	0.48976	0.74571	0.066
Mof_C 	C 	0.80109	0.4315	0.80109	-0.003
Mof_H 	H 	0.7801	0.38914	0.7801	0.034
Mof_C 	C 	0.8465	0.4284	0.8465	-0.006
Mof_H 	H 	0.86305	0.38227	0.86305	0.048
Mof_O 	O 	0.93805	0.47298	0.06195	-0.391
Mof_N 	N 	0.04677	0.35248	0.95323	-0.197
Mof_C 	C 	0.77782	0.29826	0.22218	-0.067
Mof_O 	O 	0.783	0.40651	0.217	-0.224
Mof_C 	C 	0.13134	0.20312	0.86866	0.118
Mof_O 	O 	0.93552	0.57343	0.06448	-0.407
Mof_C 	C 	0.91774	0.52172	0.08226	0.358
Mof_C 	C 	0.80815	0.35312	0.19185	0.062
Mof_C 	C 	0.1033	0.25695	0.8967	0.005
Mof_C 	C 	0.87019	0.5202	0.12981	-0.07
Mof_C 	C 	0.85066	0.46375	0.14934	-0.06
Mof_H 	H 	0.87108	0.42083	0.12892	0.058
Mof_C 	C 	0.80465	0.45934	0.19535	0.151
Mof_C 	C 	0.78228	0.5114	0.21772	-0.093
Mof_H 	H 	0.74571	0.51024	0.25429	0.062
Mof_C 	C 	0.80109	0.5685	0.19891	-0.009
Mof_H 	H 	0.7801	0.61086	0.2199	0.03
Mof_C 	C 	0.8465	0.5716	0.1535	-0.008
Mof_H 	H 	0.86305	0.61773	0.13695	0.041
Mof_O 	O 	0.93805	0.06195	0.47298	-0.391
Mof_N 	N 	0.04677	0.95323	0.35248	-0.197
Mof_C 	C 	0.77782	0.22218	0.29826	-0.067
Mof_O 	O 	0.783	0.217	0.40651	-0.224
Mof_C 	C 	0.13134	0.86866	0.20312	0.118
Mof_O 	O 	0.93552	0.06448	0.57343	-0.407
Mof_C 	C 	0.91774	0.08226	0.52172	0.358
Mof_C 	C 	0.80815	0.19185	0.35312	0.062
Mof_C 	C 	0.1033	0.8967	0.25695	0.005
Mof_C 	C 	0.87019	0.12981	0.5202	-0.07
Mof_C 	C 	0.85066	0.14934	0.46375	-0.06
Mof_H 	H 	0.87108	0.12892	0.42083	0.058
Mof_C 	C 	0.80465	0.19535	0.45934	0.151
Mof_C 	C 	0.78228	0.21772	0.5114	-0.093
Mof_H 	H 	0.74571	0.25429	0.51024	0.062
Mof_C 	C 	0.80109	0.19891	0.5685	-0.009
Mof_H 	H 	0.7801	0.2199	0.61086	0.03
Mof_C 	C 	0.8465	0.1535	0.5716	-0.008
Mof_H 	H 	0.86305	0.13695	0.61773	0.041
Mof_O 	O 	0.06195	0.06195	0.52702	-0.429
Mof_N 	N 	0.95323	0.95323	0.64752	-0.202
Mof_C 	C 	0.22218	0.22218	0.70174	-0.068
Mof_O 	O 	0.217	0.217	0.59349	-0.228
Mof_C 	C 	0.86866	0.86866	0.79688	0.121
Mof_O 	O 	0.06448	0.06448	0.42657	-0.441
Mof_C 	C 	0.08226	0.08226	0.47828	0.36
Mof_C 	C 	0.19185	0.19185	0.64688	0.06
Mof_C 	C 	0.8967	0.8967	0.74305	0.037
Mof_C 	C 	0.12981	0.12981	0.4798	-0.081
Mof_C 	C 	0.14934	0.14934	0.53625	-0.064
Mof_H 	H 	0.12892	0.12892	0.57917	0.055
Mof_C 	C 	0.19535	0.19535	0.54066	0.146
Mof_C 	C 	0.21772	0.21772	0.4886	-0.096
Mof_H 	H 	0.25429	0.25429	0.48976	0.058
Mof_C 	C 	0.19891	0.19891	0.4315	-0.017
Mof_H 	H 	0.2199	0.2199	0.38914	0.021
Mof_C 	C 	0.1535	0.1535	0.4284	-0.011
Mof_H 	H 	0.13695	0.13695	0.38227	0.029
Mof_O 	O 	0.93805	0.93805	0.52702	-0.357
Mof_N 	N 	0.04677	0.04677	0.64752	-0.192
Mof_C 	C 	0.77782	0.77782	0.70174	-0.069
Mof_O 	O 	0.783	0.783	0.59349	-0.223
Mof_C 	C 	0.13134	0.13134	0.79688	0.124
Mof_O 	O 	0.93552	0.93552	0.42657	-0.376
Mof_C 	C 	0.91774	0.91774	0.47828	0.356
Mof_C 	C 	0.80815	0.80815	0.64688	0.057
Mof_C 	C 	0.1033	0.1033	0.74305	-0.027
Mof_C 	C 	0.87019	0.87019	0.4798	-0.06
Mof_C 	C 	0.85066	0.85066	0.53625	-0.057
Mof_H 	H 	0.87108	0.87108	0.57917	0.062
Mof_C 	C 	0.80465	0.80465	0.54066	0.154
Mof_C 	C 	0.78228	0.78228	0.4886	-0.091
Mof_H 	H 	0.74571	0.74571	0.48976	0.066
Mof_C 	C 	0.80109	0.80109	0.4315	-0.003
Mof_H 	H 	0.7801	0.7801	0.38914	0.034
Mof_C 	C 	0.8465	0.8465	0.4284	-0.006
Mof_H 	H 	0.86305	0.86305	0.38227	0.048
Mof_O 	O 	0.06195	0.93805	0.47298	-0.391
Mof_N 	N 	0.95323	0.04677	0.35248	-0.197
Mof_C 	C 	0.22218	0.77782	0.29826	-0.068
Mof_O 	O 	0.217	0.783	0.40651	-0.224
Mof_C 	C 	0.86866	0.13134	0.20312	0.117
Mof_O 	O 	0.06448	0.93552	0.57343	-0.407
Mof_C 	C 	0.08226	0.91774	0.52172	0.358
Mof_C 	C 	0.19185	0.80815	0.35312	0.061
Mof_C 	C 	0.8967	0.1033	0.25695	0.005
Mof_C 	C 	0.12981	0.87019	0.5202	-0.07
Mof_C 	C 	0.14934	0.85066	0.46375	-0.06
Mof_H 	H 	0.12892	0.87108	0.42083	0.058
Mof_C 	C 	0.19535	0.80465	0.45934	0.151
Mof_C 	C 	0.21772	0.78228	0.5114	-0.093
Mof_H 	H 	0.25429	0.74571	0.51024	0.062
Mof_C 	C 	0.19891	0.80109	0.5685	-0.009
Mof_H 	H 	0.2199	0.7801	0.61086	0.03
Mof_C 	C 	0.1535	0.8465	0.5716	-0.008
Mof_H 	H 	0.13695	0.86305	0.61773	0.041
Mof_C 	C 	0.27363	0.72637	0.19614	0.084
Mof_C 	C 	0.30172	0.69828	0.13987	-0.174
Mof_C 	C 	0.72637	0.27363	0.19614	0.082
Mof_C 	C 	0.69828	0.30172	0.13987	-0.166
Mof_C 	C 	0.72637	0.72637	0.80386	0.087
Mof_C 	C 	0.69828	0.69828	0.86013	-0.179
Mof_C 	C 	0.27363	0.27363	0.80386	0.085
Mof_C 	C 	0.30172	0.30172	0.86013	-0.171
Mof_C 	C 	0.19614	0.27363	0.72637	0.083
Mof_C 	C 	0.13987	0.30172	0.69828	-0.17
Mof_C 	C 	0.19614	0.72637	0.27363	0.083
Mof_C 	C 	0.13987	0.69828	0.30172	-0.17
Mof_C 	C 	0.80386	0.72637	0.72637	0.087
Mof_C 	C 	0.86013	0.69828	0.69828	-0.179
Mof_C 	C 	0.80386	0.27363	0.27363	0.085
Mof_C 	C 	0.86013	0.30172	0.30172	-0.171
Mof_C 	C 	0.72637	0.19614	0.27363	0.082
Mof_C 	C 	0.69828	0.13987	0.30172	-0.166
Mof_C 	C 	0.27363	0.19614	0.72637	0.084
Mof_C 	C 	0.30172	0.13987	0.69828	-0.174
Mof_C 	C 	0.72637	0.80386	0.72637	0.087
Mof_C 	C 	0.69828	0.86013	0.69828	-0.179
Mof_C 	C 	0.27363	0.80386	0.27363	0.085
Mof_C 	C 	0.30172	0.86013	0.30172	-0.171
Mof_N 	N 	0.18025	0.18025	0.89489	-0.148
Mof_N 	N 	0.81975	0.81975	0.89489	-0.142
Mof_N 	N 	0.81975	0.18025	0.10511	-0.153
Mof_N 	N 	0.18025	0.81975	0.10511	-0.154
Mof_N 	N 	0.89489	0.18025	0.18025	-0.148
Mof_N 	N 	0.89489	0.81975	0.81975	-0.142
Mof_N 	N 	0.10511	0.81975	0.18025	-0.154
Mof_N 	N 	0.10511	0.18025	0.81975	-0.154
Mof_N 	N 	0.18025	0.89489	0.18025	-0.148
Mof_N 	N 	0.81975	0.89489	0.81975	-0.142
Mof_N 	N 	0.18025	0.10511	0.81975	-0.154
Mof_N 	N 	0.81975	0.10511	0.18025	-0.153
Mof_H 	H 	0.28149	0.72031	0.09767	0.058
Mof_H 	H 	0.2919	0.6475	0.13921	0.069
Mof_H 	H 	0.35287	0.70594	0.14048	0.069
Mof_H 	H 	0.67552	0.26479	0.11169	0.058
Mof_H 	H 	0.73519	0.32458	0.11175	0.058
Mof_H 	H 	0.66303	0.33688	0.15391	0.069
Mof_H 	H 	0.70697	0.64729	0.86012	0.081
Mof_H 	H 	0.64731	0.70708	0.86018	0.081
Mof_H 	H 	0.71946	0.71937	0.90234	0.071
Mof_H 	H 	0.33602	0.33781	0.8461	0.081
Mof_H 	H 	0.32561	0.265	0.88764	0.072
Mof_H 	H 	0.26463	0.32344	0.88891	0.071
Mof_H 	H 	0.10143	0.26711	0.6984	0.057
Mof_H 	H 	0.15014	0.31591	0.64961	0.07
Mof_H 	H 	0.12578	0.34324	0.72573	0.064
Mof_H 	H 	0.15014	0.64961	0.31591	0.07
Mof_H 	H 	0.10143	0.6984	0.26711	0.057
Mof_H 	H 	0.12578	0.72573	0.34324	0.064
Mof_H 	H 	0.86015	0.70703	0.6473	0.081
Mof_H 	H 	0.86015	0.6473	0.70703	0.081
Mof_H 	H 	0.90234	0.71942	0.71942	0.071
Mof_H 	H 	0.88828	0.32453	0.2648	0.071
Mof_H 	H 	0.88828	0.2648	0.32453	0.071
Mof_H 	H 	0.84609	0.33692	0.33692	0.081
Mof_H 	H 	0.73519	0.11175	0.32458	0.058
Mof_H 	H 	0.67552	0.11169	0.26479	0.058
Mof_H 	H 	0.66303	0.15391	0.33688	0.069
Mof_H 	H 	0.2919	0.13921	0.6475	0.069
Mof_H 	H 	0.28149	0.09767	0.72031	0.058
Mof_H 	H 	0.35287	0.14048	0.70594	0.069
Mof_H 	H 	0.64731	0.86018	0.70708	0.081
Mof_H 	H 	0.70697	0.86012	0.64729	0.081
Mof_H 	H 	0.71946	0.90234	0.71937	0.071
Mof_H 	H 	0.32561	0.88764	0.265	0.072
Mof_H 	H 	0.33602	0.8461	0.33781	0.081
Mof_H 	H 	0.26463	0.88891	0.32344	0.071
_end
