# CIF file generated by openbabel 3.1.0, see https://openbabel.org
data_I
_chemical_name_common 'CAKXIX_clean'
_cell_length_a 7.981
_cell_length_b 9.723
_cell_length_c 15.909
_cell_angle_alpha 90
_cell_angle_beta 90
_cell_angle_gamma 96.29
_space_group_name_H-M_alt 'P 1'
_space_group_name_Hall 'P 1'
loop_
    _symmetry_equiv_pos_as_xyz
    x,y,z
loop_
    _atom_site_label
    _atom_site_type_symbol
    _atom_site_fract_x
    _atom_site_fract_y
    _atom_site_fract_z
    _atom_site_occupancy
    Eu1      Eu       0.92130    0.13446    0.32677    1.000
    Eu2      Eu       0.57870    0.36554    0.82677    1.000
    Eu3      Eu       0.07870    0.86554    0.67323    1.000
    Eu4      Eu       0.42130    0.63446    0.17323    1.000
    H1       H        0.96860    0.68496    0.38791    1.000
    H2       H        0.61737    0.34707    0.25147    1.000
    H3       H        0.53140    0.81504    0.88791    1.000
    H4       H        0.88263    0.15293    0.75147    1.000
    H5       H        0.03140    0.31504    0.61209    1.000
    H6       H        0.38263    0.65293    0.74853    1.000
    H7       H        0.46860    0.18496    0.11209    1.000
    H8       H        0.11737    0.84707    0.24853    1.000
    C1       C        0.91410    0.47490    0.36830    1.000
    C2       C        0.74380    0.79600    0.28440    1.000
    C3       C        0.89610    0.61490    0.35920    1.000
    C4       C        0.76920    0.64820    0.30630    1.000
    C5       C        0.05680    0.42430    0.41850    1.000
    C6       C        0.68970    0.41950    0.28090    1.000
    C7       C        0.91010    0.00970    0.51590    1.000
    C8       C        0.58590    0.02510    0.86830    1.000
    C9       C        0.75620    0.70400    0.78440    1.000
    C10      C        0.60390    0.88510    0.85920    1.000
    C11      C        0.73080    0.85180    0.80630    1.000
    C12      C        0.44320    0.07570    0.91850    1.000
    C13      C        0.81030    0.08050    0.78090    1.000
    C14      C        0.58990    0.49030    0.01590    1.000
    C15      C        0.08590    0.52510    0.63170    1.000
    C16      C        0.25620    0.20400    0.71560    1.000
    C17      C        0.10390    0.38510    0.64080    1.000
    C18      C        0.23080    0.35180    0.69370    1.000
    C19      C        0.94320    0.57570    0.58150    1.000
    C20      C        0.31030    0.58050    0.71910    1.000
    C21      C        0.08990    0.99030    0.48410    1.000
    C22      C        0.41410    0.97490    0.13170    1.000
    C23      C        0.24380    0.29600    0.21560    1.000
    C24      C        0.39610    0.11490    0.14080    1.000
    C25      C        0.26920    0.14820    0.19370    1.000
    C26      C        0.55680    0.92430    0.08150    1.000
    C27      C        0.18970    0.91950    0.21910    1.000
    C28      C        0.41010    0.50970    0.98410    1.000
    N1       N        0.81180    0.37790    0.32919    1.000
    N2       N        0.66420    0.55080    0.26774    1.000
    N3       N        0.68820    0.12210    0.82919    1.000
    N4       N        0.83580    0.94920    0.76774    1.000
    N5       N        0.18820    0.62210    0.67081    1.000
    N6       N        0.33580    0.44920    0.73226    1.000
    N7       N        0.31180    0.87790    0.17081    1.000
    N8       N        0.16420    0.05080    0.23226    1.000
    O1       O        0.04960    0.29500    0.42882    1.000
    O2       O        0.85160    0.88920    0.31056    1.000
    O3       O        0.81230    0.05680    0.46425    1.000
    O4       O        0.61920    0.81330    0.23966    1.000
    O5       O        0.87500    0.97640    0.58981    1.000
    O6       O        0.17180    0.51280    0.44291    1.000
    O7       O        0.45040    0.20500    0.92882    1.000
    O8       O        0.64840    0.61080    0.81056    1.000
    O9       O        0.68770    0.44320    0.96425    1.000
    O10      O        0.88080    0.68670    0.73966    1.000
    O11      O        0.62500    0.52360    0.08981    1.000
    O12      O        0.32820    0.98720    0.94291    1.000
    O13      O        0.95040    0.70500    0.57118    1.000
    O14      O        0.14840    0.11080    0.68944    1.000
    O15      O        0.18770    0.94320    0.53575    1.000
    O16      O        0.38080    0.18670    0.76034    1.000
    O17      O        0.12500    0.02360    0.41019    1.000
    O18      O        0.82820    0.48720    0.55709    1.000
    O19      O        0.54960    0.79500    0.07118    1.000
    O20      O        0.35160    0.38920    0.18944    1.000
    O21      O        0.31230    0.55680    0.03575    1.000
    O22      O        0.11920    0.31330    0.26034    1.000
    O23      O        0.37500    0.47640    0.91019    1.000
    O24      O        0.67180    0.01280    0.05709    1.000
