data_functionalizedCrystal
_audit_creation_method	'EQeq! by Chris Wilmer'
_symmetry_space_group_name_H-M	'P1'
_symmetry_Int_Tables_number	1
_symmetry_cell_setting	triclinic
loop_
_symmetry_equiv_pos_as_xyz
  x,y,z
_cell_length_a	17.6439
_cell_length_b	17.6437
_cell_length_c	17.6437
_cell_angle_alpha	109.471
_cell_angle_beta	109.471
_cell_angle_gamma	109.471
loop_
_atom_site_label
_atom_site_type_symbol
_atom_site_fract_x
_atom_site_fract_y
_atom_site_fract_z
_atom_site_charge
Mof_In	In	0.375	0.75	0.125	2.614
Mof_In	In	0.125	0.25	0.375	2.615
Mof_In	In	0.625	0.375	0.25	2.616
Mof_In	In	0.75	0.625	0.875	2.615
Mof_In	In	0.25	0.875	0.625	2.615
Mof_In	In	0.875	0.125	0.75	2.613
Mof_H 	H 	0.9564	0.6126	0.4366	0.063
Mof_H 	H 	0.9366	0.9564	0.1126	0.061
Mof_H 	H 	0.4564	0.4366	0.6126	0.063
Mof_H 	H 	0.6562	0.4802	0.5436	0.063
Mof_H 	H 	0.1126	0.4564	0.9366	0.062
Mof_H 	H 	0.1562	0.5436	0.4802	0.062
Mof_H 	H 	0.3874	0.324	0.3438	0.062
Mof_H 	H 	0.3438	0.824	0.3874	0.062
Mof_H 	H 	0.676	0.5198	0.0634	0.063
Mof_H 	H 	0.0634	0.0198	0.676	0.065
Mof_H 	H 	0.6126	0.9366	0.4564	0.063
Mof_H 	H 	0.176	0.0634	0.5198	0.064
Mof_H 	H 	0.4366	0.1126	0.9564	0.061
Mof_H 	H 	0.5436	0.9802	0.6562	0.063
Mof_H 	H 	0.9802	0.1562	0.0436	0.061
Mof_H 	H 	0.0198	0.176	0.5634	0.064
Mof_H 	H 	0.8874	0.3438	0.324	0.061
Mof_H 	H 	0.0436	0.6562	0.9802	0.062
Mof_H 	H 	0.824	0.8874	0.8438	0.06
Mof_H 	H 	0.5198	0.5634	0.176	0.063
Mof_H 	H 	0.324	0.8438	0.8874	0.061
Mof_H 	H 	0.4802	0.0436	0.1562	0.061
Mof_H 	H 	0.5634	0.676	0.0198	0.063
Mof_H 	H 	0.8438	0.3874	0.824	0.062
Mof_C 	C 	0.546	0.5721	0.1397	0.029
Mof_C 	C 	0.8061	0.4457	0.3308	0.355
Mof_C 	C 	0.1252	0.0323	0.5991	-0.075
Mof_C 	C 	0.3308	0.9457	0.8061	0.354
Mof_C 	C 	0.3851	0.8604	0.0543	0.353
Mof_C 	C 	0.5323	0.6252	0.0991	-0.079
Mof_C 	C 	0.5721	0.6397	0.046	0.029
Mof_C 	C 	0.5676	0.9279	0.4739	0.029
Mof_C 	C 	0.5261	0.954	0.5937	0.029
Mof_C 	C 	0.9332	0.5261	0.9009	-0.082
Mof_C 	C 	0.3604	0.8851	0.5543	0.354
Mof_C 	C 	0.3603	0.9063	0.9324	0.034
Mof_C 	C 	0.6252	0.5991	0.0323	-0.078
Mof_C 	C 	0.5937	0.454	0.5261	0.029
Mof_C 	C 	0.4324	0.3603	0.4063	0.029
Mof_C 	C 	0.0937	0.5261	0.454	0.032
Mof_C 	C 	0.9739	0.5676	0.4279	0.033
Mof_C 	C 	0.8604	0.5543	0.8851	0.355
Mof_C 	C 	0.1397	0.0721	0.546	0.027
Mof_C 	C 	0.9071	0.4739	0.3748	-0.081
Mof_C 	C 	0.0929	0.5668	0.9677	-0.078
Mof_C 	C 	0.4739	0.8748	0.4071	-0.079
Mof_C 	C 	0.5247	0.1939	0.1396	0.355
Mof_C 	C 	0.4332	0.9009	0.5261	-0.079
Mof_C 	C 	0.5668	0.4677	0.5929	-0.079
Mof_C 	C 	0.0261	0.4332	0.4009	-0.082
Mof_C 	C 	0.9753	0.1149	0.6692	0.351
Mof_C 	C 	0.4279	0.0676	0.9739	0.033
Mof_C 	C 	0.9457	0.3061	0.8308	0.352
Mof_C 	C 	0.6149	0.4753	0.1692	0.354
Mof_C 	C 	0.046	0.1397	0.5721	0.027
Mof_C 	C 	0.9324	0.4063	0.3603	0.033
Mof_C 	C 	0.0676	0.4739	0.9279	0.032
Mof_C 	C 	0.9739	0.4071	0.8748	-0.082
Mof_C 	C 	0.5991	0.5323	0.1252	-0.079
Mof_C 	C 	0.6939	0.0247	0.6396	0.354
Mof_C 	C 	0.5929	0.9677	0.5668	-0.078
Mof_C 	C 	0.8851	0.0543	0.8604	0.355
Mof_C 	C 	0.1149	0.1692	0.4753	0.354
Mof_C 	C 	0.3061	0.3308	0.4457	0.354
Mof_C 	C 	0.9009	0.0261	0.9332	-0.088
Mof_C 	C 	0.454	0.0261	0.0937	0.034
Mof_C 	C 	0.0247	0.1396	0.1939	0.355
Mof_C 	C 	0.5261	0.4009	0.4332	-0.079
Mof_C 	C 	0.0261	0.5937	0.954	0.032
Mof_C 	C 	0.9063	0.4324	0.8603	0.031
Mof_C 	C 	0.8748	0.9071	0.9739	-0.086
Mof_C 	C 	0.1692	0.9753	0.6149	0.351
Mof_C 	C 	0.6397	0.546	0.0721	0.029
Mof_C 	C 	0.4739	0.4279	0.5676	0.029
Mof_C 	C 	0.5543	0.3851	0.3604	0.354
Mof_C 	C 	0.8308	0.8061	0.9457	0.354
Mof_C 	C 	0.9677	0.0668	0.0929	-0.084
Mof_C 	C 	0.3748	0.9739	0.9071	-0.082
Mof_C 	C 	0.4457	0.8308	0.3061	0.354
Mof_C 	C 	0.9279	0.9739	0.0676	0.038
Mof_C 	C 	0.1939	0.6396	0.0247	0.351
Mof_C 	C 	0.0668	0.5929	0.4677	-0.083
Mof_C 	C 	0.0543	0.3604	0.3851	0.354
Mof_C 	C 	0.4009	0.9332	0.0261	-0.084
Mof_C 	C 	0.8603	0.9324	0.9063	0.037
Mof_C 	C 	0.4753	0.6692	0.1149	0.354
Mof_C 	C 	0.4677	0.0929	0.0668	-0.082
Mof_C 	C 	0.0721	0.046	0.6397	0.026
Mof_C 	C 	0.1396	0.6939	0.5247	0.355
Mof_C 	C 	0.0323	0.0991	0.6252	-0.075
Mof_C 	C 	0.0991	0.1252	0.5323	-0.077
Mof_C 	C 	0.6396	0.5247	0.6939	0.354
Mof_C 	C 	0.954	0.0937	0.0261	0.038
Mof_C 	C 	0.4063	0.8603	0.4324	0.029
Mof_C 	C 	0.4071	0.3748	0.4739	-0.079
Mof_C 	C 	0.6692	0.6149	0.9753	0.354
Mof_O 	O 	0.3612	0.778	0.2468	-0.572
Mof_O 	O 	0.5678	0.2187	0.2233	-0.449
Mof_O 	O 	0.1388	0.3856	0.4168	-0.572
Mof_O 	O 	0.6509	0.6555	0.9322	-0.449
Mof_O 	O 	0.9322	0.1555	0.6509	-0.448
Mof_O 	O 	0.0312	0.1144	0.2532	-0.572
Mof_O 	O 	0.2767	0.8445	0.4954	-0.449
Mof_O 	O 	0.9168	0.1388	0.8856	-0.573
Mof_O 	O 	0.8612	0.2468	0.778	-0.571
Mof_O 	O 	0.6555	0.4322	0.1509	-0.449
Mof_O 	O 	0.4688	0.722	0.0832	-0.572
Mof_O 	O 	0.9688	0.0832	0.722	-0.572
Mof_O 	O 	0.0678	0.2233	0.2187	-0.45
Mof_O 	O 	0.7233	0.5678	0.7187	-0.449
Mof_O 	O 	0.722	0.5832	0.9688	-0.572
Mof_O 	O 	0.1555	0.1509	0.4322	-0.449
Mof_O 	O 	0.0046	0.2813	0.8491	-0.445
Mof_O 	O 	0.3491	0.0046	0.7813	-0.448
Mof_O 	O 	0.7767	0.4954	0.8445	-0.449
Mof_O 	O 	0.8856	0.6388	0.9168	-0.572
Mof_O 	O 	0.7813	0.5046	0.3491	-0.449
Mof_O 	O 	0.2233	0.7187	0.5678	-0.449
Mof_O 	O 	0.7468	0.3612	0.278	-0.572
Mof_O 	O 	0.4954	0.3445	0.2767	-0.449
Mof_O 	O 	0.2813	0.3491	0.5046	-0.449
Mof_O 	O 	0.8491	0.7813	0.0046	-0.447
Mof_O 	O 	0.3445	0.7767	0.9954	-0.447
Mof_O 	O 	0.4322	0.6509	0.1555	-0.449
Mof_O 	O 	0.0832	0.222	0.4688	-0.571
Mof_O 	O 	0.6144	0.5312	0.7532	-0.571
Mof_O 	O 	0.778	0.7468	0.8612	-0.572
Mof_O 	O 	0.1144	0.7532	0.5312	-0.573
Mof_O 	O 	0.3856	0.9168	0.6388	-0.572
Mof_O 	O 	0.7187	0.0678	0.7233	-0.449
Mof_O 	O 	0.1509	0.9322	0.6555	-0.449
Mof_O 	O 	0.8445	0.9954	0.7767	-0.447
Mof_O 	O 	0.9954	0.2767	0.3445	-0.448
Mof_O 	O 	0.222	0.9688	0.5832	-0.572
Mof_O 	O 	0.2468	0.278	0.3612	-0.572
Mof_O 	O 	0.5832	0.4688	0.222	-0.572
Mof_O 	O 	0.2187	0.7233	0.0678	-0.45
Mof_O 	O 	0.5312	0.2532	0.1144	-0.572
Mof_O 	O 	0.2532	0.6144	0.0312	-0.572
Mof_O 	O 	0.7532	0.0312	0.6144	-0.571
Mof_O 	O 	0.4168	0.8856	0.1388	-0.572
Mof_O 	O 	0.6388	0.4168	0.3856	-0.572
Mof_O 	O 	0.278	0.8612	0.7468	-0.572
Mof_O 	O 	0.5046	0.8491	0.2813	-0.449
_end
