# CIF file generated by openbabel 3.1.0, see https://openbabel.org
data_I
_chemical_name_common 'image0'
_cell_length_a 15.116
_cell_length_b 15.393
_cell_length_c 18.225
_cell_angle_alpha 105.732
_cell_angle_beta 106.553
_cell_angle_gamma 104.405
_space_group_name_H-M_alt 'P 1'
_space_group_name_Hall 'P 1'
loop_
    _symmetry_equiv_pos_as_xyz
    x,y,z
loop_
    _atom_site_label
    _atom_site_type_symbol
    _atom_site_fract_x
    _atom_site_fract_y
    _atom_site_fract_z
    _atom_site_occupancy
    Zn1      Zn       0.19169    0.02708    0.93006    1.000
    O1       O        0.62490    0.77470    0.47200    1.000
    O2       O        0.08380    0.04080    0.80530    1.000
    O3       O        0.42290    0.56700    0.37940    1.000
    O4       O        0.31050    0.75270    0.48260    1.000
    O5       O        0.04350    0.96880    0.88590    1.000
    O6       O        0.42480    0.88350    0.39610    1.000
    O7       O        0.23460    0.16330    0.99530    1.000
    O8       O        0.12010    0.95470    0.06190    1.000
    O9       O        0.24290    0.97540    0.01410    1.000
    O10      O        0.10890    0.14430    0.04290    1.000
    O11      O        0.27850    0.01010    0.87060    1.000
    C1       C        0.46880    0.76690    0.48130    1.000
    O12      O        0.16590    0.86270    0.81410    1.000
    C2       C        0.34760    0.66110    0.21760    1.000
    H1       H        0.32280    0.63920    0.16040    1.000
    C3       C        0.40360    0.78480    0.34580    1.000
    C4       C        0.61160    0.82680    0.60380    1.000
    C5       C        0.57090    0.78890    0.51970    1.000
    C6       C        0.33740    0.81710    0.21680    1.000
    C7       C        0.02100    0.98790    0.81930    1.000
    C8       C        0.25400    0.91210    0.11920    1.000
    C9       C        0.32300    0.49230    0.20220    1.000
    C10      C        0.42300    0.72380    0.38670    1.000
    C11      C        0.45000    0.82090    0.61050    1.000
    C12      C        0.91640    0.93940    0.75960    1.000
    C13      C        0.40200    0.62990    0.34160    1.000
    C14      C        0.41070    0.78040    0.52550    1.000
    C15      C        0.36180    0.59630    0.25470    1.000
    C16      C        0.75320    0.83560    0.72130    1.000
    H2       H        0.70810    0.79080    0.73060    1.000
    C17      C        0.79120    0.92860    0.63680    1.000
    H3       H        0.77190    0.94670    0.59180    1.000
    C18      C        0.43770    0.93520    0.72820    1.000
    H4       H        0.49920    0.97780    0.73780    1.000
    C19      C        0.23750    0.29890    0.09760    1.000
    C20      C        0.85000    0.87570    0.77310    1.000
    H5       H        0.87050    0.85870    0.81870    1.000
    C21      C        0.72320    0.86320    0.65390    1.000
    C22      C        0.38720    0.96060    0.77870    1.000
    H6       H        0.41420    0.02110    0.82070    1.000
    C23      C        0.24870    0.42820    0.21260    1.000
    H7       H        0.22790    0.44860    0.25550    1.000
    C24      C        0.18700    0.19170    0.03970    1.000
    C25      C        0.55350    0.84340    0.64800    1.000
    H8       H        0.58310    0.87070    0.70510    1.000
    C26      C        0.20610    0.33250    0.15700    1.000
    H9       H        0.15370    0.29060    0.16170    1.000
    C27      C        0.35500    0.46050    0.14150    1.000
    H10      H        0.40350    0.50350    0.13360    1.000
    C28      C        0.29740    0.89690    0.76720    1.000
    C29      C        0.35790    0.81880    0.14960    1.000
    H11      H        0.39810    0.78620    0.13470    1.000
    C30      C        0.39650    0.84580    0.66280    1.000
    C31      C        0.36900    0.75850    0.26210    1.000
    C32      C        0.27630    0.86750    0.23720    1.000
    H12      H        0.26390    0.87050    0.28480    1.000
    C33      C        0.25750    0.80700    0.70480    1.000
    H13      H        0.19840    0.76290    0.69800    1.000
    C34      C        0.31360    0.35930    0.08860    1.000
    H14      H        0.33830    0.33590    0.04920    1.000
    C35      C        0.88680    0.96320    0.69060    1.000
    H15      H        0.93430    0.00470    0.68070    1.000
    C36      C        0.30590    0.78240    0.65210    1.000
    H16      H        0.27730    0.72270    0.60910    1.000
    C37      C        0.20310    0.95230    0.06090    1.000
    C38      C        0.23380    0.91280    0.18780    1.000
    H17      H        0.19180    0.94350    0.20150    1.000
    C39      C        0.27040    0.82980    0.48160    1.000
    H18      H        0.20340    0.80280    0.44280    1.000
    H19      H        0.30910    0.87550    0.46580    1.000
    H20      H        0.27230    0.86170    0.53550    1.000
    C40      C        0.24170    0.92220    0.81870    1.000
    C41      C        0.52180    0.94440    0.41090    1.000
    H21      H        0.53470    0.00870    0.44650    1.000
    H22      H        0.52610    0.94540    0.35960    1.000
    H23      H        0.56960    0.91990    0.43660    1.000
    C42      C        0.31850    0.87030    0.10030    1.000
    H24      H        0.33690    0.87470    0.05650    1.000
    C43      C        0.66750    0.70320    0.47820    1.000
    H25      H        0.72950    0.72070    0.47170    1.000
    H26      H        0.62380    0.64210    0.43580    1.000
    H27      H        0.67780    0.69830    0.53110    1.000
    C44      C        0.36630    0.54810    0.43340    1.000
    H28      H        0.41090    0.55210    0.48470    1.000
    H29      H        0.31650    0.48490    0.40610    1.000
    H30      H        0.33580    0.59540    0.44370    1.000
    Zn2      Zn       0.80831    0.97292    0.06994    1.000
    O13      O        0.37510    0.22530    0.52800    1.000
    O14      O        0.91620    0.95920    0.19470    1.000
    O15      O        0.57710    0.43300    0.62060    1.000
    O16      O        0.68950    0.24730    0.51740    1.000
    O17      O        0.95650    0.03120    0.11410    1.000
    O18      O        0.57520    0.11650    0.60390    1.000
    O19      O        0.76540    0.83670    0.00470    1.000
    O20      O        0.87990    0.04530    0.93810    1.000
    O21      O        0.75710    0.02460    0.98590    1.000
    O22      O        0.89110    0.85570    0.95710    1.000
    O23      O        0.72150    0.98990    0.12940    1.000
    C45      C        0.53120    0.23310    0.51870    1.000
    O24      O        0.83410    0.13730    0.18590    1.000
    C46      C        0.65240    0.33890    0.78240    1.000
    H31      H        0.67720    0.36080    0.83960    1.000
    C47      C        0.59640    0.21520    0.65420    1.000
    C48      C        0.38840    0.17320    0.39620    1.000
    C49      C        0.42910    0.21110    0.48030    1.000
    C50      C        0.66260    0.18290    0.78320    1.000
    C51      C        0.97900    0.01210    0.18070    1.000
    C52      C        0.74600    0.08790    0.88080    1.000
    C53      C        0.67700    0.50770    0.79780    1.000
    C54      C        0.57700    0.27620    0.61330    1.000
    C55      C        0.55000    0.17910    0.38950    1.000
    C56      C        0.08360    0.06060    0.24040    1.000
    C57      C        0.59800    0.37010    0.65840    1.000
    C58      C        0.58930    0.21960    0.47450    1.000
    C59      C        0.63820    0.40370    0.74530    1.000
    C60      C        0.24680    0.16440    0.27870    1.000
    H32      H        0.29190    0.20920    0.26940    1.000
    C61      C        0.20880    0.07140    0.36320    1.000
    H33      H        0.22810    0.05330    0.40820    1.000
    C62      C        0.56230    0.06480    0.27180    1.000
    H34      H        0.50080    0.02220    0.26220    1.000
    C63      C        0.76250    0.70110    0.90240    1.000
    C64      C        0.15000    0.12430    0.22690    1.000
    H35      H        0.12950    0.14130    0.18130    1.000
    C65      C        0.27680    0.13680    0.34610    1.000
    C66      C        0.61280    0.03940    0.22130    1.000
    H36      H        0.58580    0.97890    0.17930    1.000
    C67      C        0.75130    0.57180    0.78740    1.000
    H37      H        0.77210    0.55140    0.74450    1.000
    C68      C        0.81300    0.80830    0.96030    1.000
    C69      C        0.44650    0.15660    0.35200    1.000
    H38      H        0.41690    0.12930    0.29490    1.000
    C70      C        0.79390    0.66750    0.84300    1.000
    H39      H        0.84630    0.70940    0.83830    1.000
    C71      C        0.64500    0.53950    0.85850    1.000
    H40      H        0.59650    0.49650    0.86640    1.000
    C72      C        0.70260    0.10310    0.23280    1.000
    C73      C        0.64210    0.18120    0.85040    1.000
    H41      H        0.60190    0.21380    0.86530    1.000
    C74      C        0.60350    0.15420    0.33720    1.000
    C75      C        0.63100    0.24150    0.73790    1.000
    C76      C        0.72370    0.13250    0.76280    1.000
    H42      H        0.73610    0.12950    0.71520    1.000
    C77      C        0.74250    0.19300    0.29520    1.000
    H43      H        0.80160    0.23710    0.30200    1.000
    C78      C        0.68640    0.64070    0.91140    1.000
    H44      H        0.66170    0.66410    0.95080    1.000
    C79      C        0.11320    0.03680    0.30940    1.000
    H45      H        0.06570    0.99530    0.31930    1.000
    C80      C        0.69410    0.21760    0.34790    1.000
    H46      H        0.72270    0.27730    0.39090    1.000
    C81      C        0.79690    0.04770    0.93910    1.000
    C82      C        0.76620    0.08720    0.81220    1.000
    H47      H        0.80820    0.05650    0.79850    1.000
    C83      C        0.72960    0.17020    0.51840    1.000
    H48      H        0.79660    0.19720    0.55720    1.000
    H49      H        0.69090    0.12450    0.53420    1.000
    H50      H        0.72770    0.13830    0.46450    1.000
    C84      C        0.75830    0.07780    0.18130    1.000
    C85      C        0.47820    0.05560    0.58910    1.000
    H51      H        0.46530    0.99130    0.55350    1.000
    H52      H        0.47390    0.05460    0.64040    1.000
    H53      H        0.43040    0.08010    0.56340    1.000
    C86      C        0.68150    0.12970    0.89970    1.000
    H54      H        0.66310    0.12530    0.94350    1.000
    C87      C        0.33250    0.29680    0.52180    1.000
    H55      H        0.27050    0.27930    0.52830    1.000
    H56      H        0.37620    0.35790    0.56420    1.000
    H57      H        0.32220    0.30170    0.46890    1.000
    C88      C        0.63370    0.45190    0.56660    1.000
    H58      H        0.58910    0.44790    0.51530    1.000
    H59      H        0.68350    0.51510    0.59390    1.000
    H60      H        0.66420    0.40460    0.55630    1.000
