# CIF file generated by openbabel 3.1.0, see https://openbabel.org
data_I
_chemical_name_common 'image0'
_cell_length_a 12.079
_cell_length_b 12.382
_cell_length_c 12.568
_cell_angle_alpha 99.99
_cell_angle_beta 96
_cell_angle_gamma 91.29
_space_group_name_H-M_alt 'P 1'
_space_group_name_Hall 'P 1'
loop_
    _symmetry_equiv_pos_as_xyz
    x,y,z
loop_
    _atom_site_label
    _atom_site_type_symbol
    _atom_site_fract_x
    _atom_site_fract_y
    _atom_site_fract_z
    _atom_site_occupancy
    C1       C        0.68610    0.24380    0.52150    1.000
    C2       C        0.75590    0.34750    0.54190    1.000
    C3       C        0.79100    0.39720    0.45820    1.000
    C4       C        0.85340    0.49660    0.48290    1.000
    H1       H        0.87620    0.53000    0.42670    1.000
    C5       C        0.88130    0.54530    0.58900    1.000
    H2       H        0.92130    0.61310    0.60450    1.000
    C6       C        0.85150    0.49630    0.67580    1.000
    C7       C        0.78610    0.39960    0.65160    1.000
    H3       H        0.76150    0.36820    0.70830    1.000
    C8       C        0.88190    0.55030    0.79200    1.000
    C9       C        0.80750    0.54740    0.87000    1.000
    H4       H        0.73800    0.50990    0.84920    1.000
    C10      C        0.83440    0.59940    0.97870    1.000
    C11      C        0.93500    0.65570    0.00660    1.000
    H5       H        0.95240    0.69200    0.07880    1.000
    C12      C        0.01250    0.66180    0.93390    1.000
    C13      C        0.98400    0.60650    0.82740    1.000
    H6       H        0.03630    0.60720    0.77710    1.000
    C14      C        0.74620    0.59990    0.05520    1.000
    C15      C        0.68000    0.50660    0.05020    1.000
    H7       H        0.69140    0.44230    0.00110    1.000
    C16      C        0.59520    0.50840    0.11910    1.000
    H8       H        0.55320    0.44360    0.11920    1.000
    C17      C        0.57300    0.60320    0.18620    1.000
    C18      C        0.63880    0.69790    0.19350    1.000
    C19      C        0.72470    0.69490    0.12590    1.000
    H9       H        0.76890    0.75900    0.12840    1.000
    C20      C        0.61920    0.80090    0.26790    1.000
    C21      C        0.12120    0.72230    0.96770    1.000
    C22      C        0.17270    0.73090    0.07400    1.000
    H10      H        0.13910    0.69570    0.12360    1.000
    C23      C        0.27450    0.79150    0.10780    1.000
    H11      H        0.30920    0.79300    0.17860    1.000
    C24      C        0.32390    0.84860    0.03920    1.000
    C25      C        0.27400    0.83870    0.92960    1.000
    C26      C        0.17360    0.77780    0.89860    1.000
    H12      H        0.13970    0.77420    0.82720    1.000
    C27      C        0.32360    0.89810    0.84960    1.000
    Cu1      Cu       0.46319    0.90391    0.41747    1.000
    Cu2      Cu       0.67281    0.03833    0.35389    1.000
    O1       O        0.65970    0.19880    0.42190    1.000
    O2       O        0.65650    0.20690    0.60110    1.000
    O3       O        0.48110    0.59580    0.24400    1.000
    H13      H        0.50240    0.60380    0.31000    1.000
    O4       O        0.53580    0.79630    0.32130    1.000
    O5       O        0.68030    0.88540    0.27230    1.000
    O6       O        0.41820    0.90810    0.07810    1.000
    O7       O        0.41910    0.94300    0.87230    1.000
    O8       O        0.26900    0.89840    0.76030    1.000
    O9       O        0.76720    0.35110    0.35080    1.000
    H14      H        0.76940    0.28330    0.34400    1.000
    O10      O        0.60510    0.98910    0.47460    1.000
    H15      H        0.64960    0.94940    0.50490    1.000
    C28      C        0.31390    0.75620    0.47850    1.000
    C29      C        0.24410    0.65250    0.45810    1.000
    C30      C        0.20900    0.60280    0.54180    1.000
    C31      C        0.14660    0.50340    0.51710    1.000
    H16      H        0.12380    0.47000    0.57330    1.000
    C32      C        0.11870    0.45470    0.41100    1.000
    H17      H        0.07870    0.38690    0.39550    1.000
    C33      C        0.14850    0.50370    0.32420    1.000
    C34      C        0.21390    0.60040    0.34840    1.000
    H18      H        0.23850    0.63180    0.29170    1.000
    C35      C        0.11810    0.44970    0.20800    1.000
    C36      C        0.19250    0.45260    0.13000    1.000
    H19      H        0.26200    0.49010    0.15080    1.000
    C37      C        0.16560    0.40060    0.02130    1.000
    C38      C        0.06500    0.34430    0.99340    1.000
    H20      H        0.04760    0.30800    0.92120    1.000
    C39      C        0.98750    0.33820    0.06610    1.000
    C40      C        0.01600    0.39350    0.17260    1.000
    H21      H        0.96370    0.39280    0.22290    1.000
    C41      C        0.25380    0.40010    0.94480    1.000
    C42      C        0.32000    0.49340    0.94980    1.000
    H22      H        0.30860    0.55770    0.99890    1.000
    C43      C        0.40480    0.49160    0.88090    1.000
    H23      H        0.44680    0.55640    0.88080    1.000
    C44      C        0.42700    0.39680    0.81380    1.000
    C45      C        0.36120    0.30210    0.80650    1.000
    C46      C        0.27530    0.30510    0.87410    1.000
    H24      H        0.23110    0.24100    0.87160    1.000
    C47      C        0.38080    0.19910    0.73210    1.000
    C48      C        0.87880    0.27770    0.03230    1.000
    C49      C        0.82730    0.26910    0.92600    1.000
    H25      H        0.86090    0.30430    0.87640    1.000
    C50      C        0.72550    0.20850    0.89220    1.000
    H26      H        0.69080    0.20700    0.82140    1.000
    C51      C        0.67610    0.15140    0.96080    1.000
    C52      C        0.72600    0.16130    0.07040    1.000
    C53      C        0.82640    0.22220    0.10140    1.000
    H27      H        0.86030    0.22580    0.17280    1.000
    C54      C        0.67640    0.10190    0.15040    1.000
    Cu3      Cu       0.53681    0.09609    0.58253    1.000
    Cu4      Cu       0.32719    0.96167    0.64611    1.000
    O11      O        0.34030    0.80120    0.57810    1.000
    O12      O        0.34350    0.79310    0.39890    1.000
    O13      O        0.51890    0.40420    0.75600    1.000
    H28      H        0.49760    0.39620    0.69000    1.000
    O14      O        0.46420    0.20370    0.67870    1.000
    O15      O        0.31970    0.11460    0.72770    1.000
    O16      O        0.58180    0.09190    0.92190    1.000
    O17      O        0.58090    0.05700    0.12770    1.000
    O18      O        0.73100    0.10160    0.23970    1.000
    O19      O        0.23280    0.64890    0.64920    1.000
    H29      H        0.23060    0.71670    0.65600    1.000
    O20      O        0.39490    0.01090    0.52540    1.000
    H30      H        0.35040    0.05060    0.49510    1.000
    Cu5      Cu       0.50000    0.00000    0.00000    1.000
