# CIF file generated by openbabel 3.1.0, see https://openbabel.org
data_I
_chemical_name_common 'image0'
_cell_length_a 15.115
_cell_length_b 16.256
_cell_length_c 27.421
_cell_angle_alpha 90
_cell_angle_beta 105.521
_cell_angle_gamma 90
_space_group_name_H-M_alt 'P 1'
_space_group_name_Hall 'P 1'
loop_
    _symmetry_equiv_pos_as_xyz
    x,y,z
loop_
    _atom_site_label
    _atom_site_type_symbol
    _atom_site_fract_x
    _atom_site_fract_y
    _atom_site_fract_z
    _atom_site_occupancy
    W1       W        0.56240    0.22729    0.44887    1.000
    W2       W        0.75113    0.28263    0.39117    1.000
    W3       W        0.58493    0.23634    0.57315    1.000
    W4       W        0.93225    0.36782    0.47550    1.000
    W5       W        0.89549    0.16144    0.47599    1.000
    W6       W        0.95731    0.37700    0.61041    1.000
    W7       W        0.80011    0.30473    0.66585    1.000
    W8       W        0.70440    0.09674    0.52677    1.000
    W9       W        0.91777    0.17073    0.61414    1.000
    W10      W        0.59538    0.44028    0.41621    1.000
    W11      W        0.37359    0.54607    0.39828    1.000
    Ce1      Ce       0.80257    0.56681    0.52513    1.000
    Ce2      Ce       0.65082    0.72140    0.26537    1.000
    As1      As       0.75656    0.32404    0.52625    1.000
    P1       P        0.51410    0.56890    0.32260    1.000
    P2       P        0.41210    0.41250    0.31638    1.000
    O1       O        0.68490    0.38410    0.39290    1.000
    O2       O        0.91090    0.36390    0.67090    1.000
    O3       O        0.81770    0.28630    0.48280    1.000
    O4       O        0.50020    0.38060    0.35430    1.000
    O5       O        0.93360    0.16030    0.54790    1.000
    O6       O        0.35010    0.45870    0.34380    1.000
    O7       O        0.48700    0.49370    0.42450    1.000
    O8       O        0.61310    0.12620    0.56590    1.000
    O9       O        0.40340    0.64370    0.43350    1.000
    O10      O        0.85960    0.34420    0.40600    1.000
    O11      O        0.83430    0.29390    0.58510    1.000
    O12      O        0.87040    0.45420    0.48170    1.000
    O13      O        0.44200    0.60390    0.34830    1.000
    O14      O        0.86400    0.20550    0.66680    1.000
    O15      O        0.97320    0.24620    0.47090    1.000
    O16      O        0.78010    0.11160    0.48610    1.000
    O17      O        0.50980    0.24000    0.50430    1.000
    O18      O        0.68440    0.23600    0.52160    1.000
    O19      O        0.97890    0.34930    0.54620    1.000
    O20      O        0.57440    0.34870    0.45120    1.000
    O21      O        0.65410    0.23460    0.41240    1.000
    O22      O        0.59470    0.52350    0.36250    1.000
    O23      O        0.81670    0.18400    0.40890    1.000
    O24      O        0.99920    0.25640    0.62850    1.000
    O25      O        0.79730    0.11720    0.58340    1.000
    O26      O        0.35920    0.34690    0.28170    1.000
    O27      O        0.26610    0.59730    0.35670    1.000
    O28      O        0.67480    0.49250    0.46400    1.000
    O29      O        0.88480    0.46070    0.58540    1.000
    O30      O        0.69020    0.25010    0.62890    1.000
    O31      O        0.03120    0.40600    0.46150    1.000
    O32      O        0.31630    0.49660    0.43580    1.000
    O33      O        0.55340    0.63100    0.29360    1.000
    O34      O        0.59520    0.12140    0.46730    1.000
    O35      O        0.51620    0.45430    0.25590    1.000
    H1       H        0.49260    0.41610    0.23750    1.000
    C1       C        0.44950    0.48990    0.27900    1.000
    C2       C        0.37230    0.52610    0.24270    1.000
    H2       H        0.33040    0.54860    0.26000    1.000
    H3       H        0.39350    0.56900    0.22460    1.000
    H4       H        0.34150    0.48470    0.21930    1.000
    W12      W        0.43760    0.72729    0.05113    1.000
    W13      W        0.24887    0.78263    0.10883    1.000
    W14      W        0.41507    0.73634    0.92685    1.000
    W15      W        0.06775    0.86782    0.02450    1.000
    W16      W        0.10451    0.66144    0.02401    1.000
    W17      W        0.04269    0.87700    0.88959    1.000
    W18      W        0.19989    0.80473    0.83415    1.000
    W19      W        0.29560    0.59674    0.97323    1.000
    W20      W        0.08223    0.67073    0.88586    1.000
    W21      W        0.40462    0.94028    0.08379    1.000
    W22      W        0.62641    0.04607    0.10172    1.000
    Ce3      Ce       0.19743    0.06681    0.97487    1.000
    Ce4      Ce       0.34918    0.22140    0.23463    1.000
    As2      As       0.24344    0.82404    0.97375    1.000
    P3       P        0.48590    0.06890    0.17740    1.000
    P4       P        0.58790    0.91250    0.18362    1.000
    O36      O        0.31510    0.88410    0.10710    1.000
    O37      O        0.08910    0.86390    0.82910    1.000
    O38      O        0.18230    0.78630    0.01720    1.000
    O39      O        0.49980    0.88060    0.14570    1.000
    O40      O        0.06640    0.66030    0.95210    1.000
    O41      O        0.64990    0.95870    0.15620    1.000
    O42      O        0.51300    0.99370    0.07550    1.000
    O43      O        0.38690    0.62620    0.93410    1.000
    O44      O        0.59660    0.14370    0.06650    1.000
    O45      O        0.14040    0.84420    0.09400    1.000
    O46      O        0.16570    0.79390    0.91490    1.000
    O47      O        0.12960    0.95420    0.01830    1.000
    O48      O        0.55800    0.10390    0.15170    1.000
    O49      O        0.13600    0.70550    0.83320    1.000
    O50      O        0.02680    0.74620    0.02910    1.000
    O51      O        0.21990    0.61160    0.01390    1.000
    O52      O        0.49020    0.74000    0.99570    1.000
    O53      O        0.31560    0.73600    0.97840    1.000
    O54      O        0.02110    0.84930    0.95380    1.000
    O55      O        0.42560    0.84870    0.04880    1.000
    O56      O        0.34590    0.73460    0.08760    1.000
    O57      O        0.40530    0.02350    0.13750    1.000
    O58      O        0.18330    0.68400    0.09110    1.000
    O59      O        0.00080    0.75640    0.87150    1.000
    O60      O        0.20270    0.61720    0.91660    1.000
    O61      O        0.64080    0.84690    0.21830    1.000
    O62      O        0.73390    0.09730    0.14330    1.000
    O63      O        0.32520    0.99250    0.03600    1.000
    O64      O        0.11520    0.96070    0.91460    1.000
    O65      O        0.30980    0.75010    0.87110    1.000
    O66      O        0.96880    0.90600    0.03850    1.000
    O67      O        0.68370    0.99660    0.06420    1.000
    O68      O        0.44660    0.13100    0.20640    1.000
    O69      O        0.40480    0.62140    0.03270    1.000
    O70      O        0.48380    0.95430    0.24410    1.000
    H5       H        0.50740    0.91610    0.26250    1.000
    C3       C        0.55050    0.98990    0.22100    1.000
    C4       C        0.62770    0.02610    0.25730    1.000
    H6       H        0.66960    0.04860    0.24000    1.000
    H7       H        0.60650    0.06900    0.27540    1.000
    H8       H        0.65850    0.98470    0.28070    1.000
    W23      W        0.43760    0.77271    0.55113    1.000
    W24      W        0.24887    0.71737    0.60883    1.000
    W25      W        0.41507    0.76366    0.42685    1.000
    W26      W        0.06775    0.63218    0.52450    1.000
    W27      W        0.10451    0.83856    0.52401    1.000
    W28      W        0.04269    0.62300    0.38959    1.000
    W29      W        0.19989    0.69527    0.33415    1.000
    W30      W        0.29560    0.90326    0.47323    1.000
    W31      W        0.08223    0.82927    0.38586    1.000
    W32      W        0.40462    0.55972    0.58379    1.000
    W33      W        0.62641    0.45393    0.60172    1.000
    Ce5      Ce       0.19743    0.43319    0.47487    1.000
    Ce6      Ce       0.34918    0.27860    0.73463    1.000
    As3      As       0.24344    0.67596    0.47375    1.000
    P5       P        0.48590    0.43110    0.67740    1.000
    P6       P        0.58790    0.58750    0.68362    1.000
    O71      O        0.31510    0.61590    0.60710    1.000
    O72      O        0.08910    0.63610    0.32910    1.000
    O73      O        0.18230    0.71370    0.51720    1.000
    O74      O        0.49980    0.61940    0.64570    1.000
    O75      O        0.06640    0.83970    0.45210    1.000
    O76      O        0.64990    0.54130    0.65620    1.000
    O77      O        0.51300    0.50630    0.57550    1.000
    O78      O        0.38690    0.87380    0.43410    1.000
    O79      O        0.59660    0.35630    0.56650    1.000
    O80      O        0.14040    0.65580    0.59400    1.000
    O81      O        0.16570    0.70610    0.41490    1.000
    O82      O        0.12960    0.54580    0.51830    1.000
    O83      O        0.55800    0.39610    0.65170    1.000
    O84      O        0.13600    0.79450    0.33320    1.000
    O85      O        0.02680    0.75380    0.52910    1.000
    O86      O        0.21990    0.88840    0.51390    1.000
    O87      O        0.49020    0.76000    0.49570    1.000
    O88      O        0.31560    0.76400    0.47840    1.000
    O89      O        0.02110    0.65070    0.45380    1.000
    O90      O        0.42560    0.65130    0.54880    1.000
    O91      O        0.34590    0.76540    0.58760    1.000
    O92      O        0.40530    0.47650    0.63750    1.000
    O93      O        0.18330    0.81600    0.59110    1.000
    O94      O        0.00080    0.74360    0.37150    1.000
    O95      O        0.20270    0.88280    0.41660    1.000
    O96      O        0.64080    0.65310    0.71830    1.000
    O97      O        0.73390    0.40270    0.64330    1.000
    O98      O        0.32520    0.50750    0.53600    1.000
    O99      O        0.11520    0.53930    0.41460    1.000
    O100     O        0.30980    0.74990    0.37110    1.000
    O101     O        0.96880    0.59400    0.53850    1.000
    O102     O        0.68370    0.50340    0.56420    1.000
    O103     O        0.44660    0.36900    0.70640    1.000
    O104     O        0.40480    0.87860    0.53270    1.000
    O105     O        0.48380    0.54570    0.74410    1.000
    H9       H        0.50740    0.58390    0.76250    1.000
    C5       C        0.55050    0.51010    0.72100    1.000
    C6       C        0.62770    0.47390    0.75730    1.000
    H10      H        0.66960    0.45140    0.74000    1.000
    H11      H        0.60650    0.43100    0.77540    1.000
    H12      H        0.65850    0.51530    0.78070    1.000
    W34      W        0.56240    0.27271    0.94887    1.000
    W35      W        0.75113    0.21737    0.89117    1.000
    W36      W        0.58493    0.26366    0.07315    1.000
    W37      W        0.93225    0.13218    0.97550    1.000
    W38      W        0.89549    0.33856    0.97599    1.000
    W39      W        0.95731    0.12300    0.11041    1.000
    W40      W        0.80011    0.19527    0.16585    1.000
    W41      W        0.70440    0.40326    0.02677    1.000
    W42      W        0.91777    0.32927    0.11414    1.000
    W43      W        0.59538    0.05972    0.91621    1.000
    W44      W        0.37359    0.95393    0.89828    1.000
    Ce7      Ce       0.80257    0.93319    0.02513    1.000
    Ce8      Ce       0.65082    0.77860    0.76537    1.000
    As4      As       0.75656    0.17596    0.02625    1.000
    P7       P        0.51410    0.93110    0.82260    1.000
    P8       P        0.41210    0.08750    0.81638    1.000
    O106     O        0.68490    0.11590    0.89290    1.000
    O107     O        0.91090    0.13610    0.17090    1.000
    O108     O        0.81770    0.21370    0.98280    1.000
    O109     O        0.50020    0.11940    0.85430    1.000
    O110     O        0.93360    0.33970    0.04790    1.000
    O111     O        0.35010    0.04130    0.84380    1.000
    O112     O        0.48700    0.00630    0.92450    1.000
    O113     O        0.61310    0.37380    0.06590    1.000
    O114     O        0.40340    0.85630    0.93350    1.000
    O115     O        0.85960    0.15580    0.90600    1.000
    O116     O        0.83430    0.20610    0.08510    1.000
    O117     O        0.87040    0.04580    0.98170    1.000
    O118     O        0.44200    0.89610    0.84830    1.000
    O119     O        0.86400    0.29450    0.16680    1.000
    O120     O        0.97320    0.25380    0.97090    1.000
    O121     O        0.78010    0.38840    0.98610    1.000
    O122     O        0.50980    0.26000    0.00430    1.000
    O123     O        0.68440    0.26400    0.02160    1.000
    O124     O        0.97890    0.15070    0.04620    1.000
    O125     O        0.57440    0.15130    0.95120    1.000
    O126     O        0.65410    0.26540    0.91240    1.000
    O127     O        0.59470    0.97650    0.86250    1.000
    O128     O        0.81670    0.31600    0.90890    1.000
    O129     O        0.99920    0.24360    0.12850    1.000
    O130     O        0.79730    0.38280    0.08340    1.000
    O131     O        0.35920    0.15310    0.78170    1.000
    O132     O        0.26610    0.90270    0.85670    1.000
    O133     O        0.67480    0.00750    0.96400    1.000
    O134     O        0.88480    0.03930    0.08540    1.000
    O135     O        0.69020    0.24990    0.12890    1.000
    O136     O        0.03120    0.09400    0.96150    1.000
    O137     O        0.31630    0.00340    0.93580    1.000
    O138     O        0.55340    0.86900    0.79360    1.000
    O139     O        0.59520    0.37860    0.96730    1.000
    O140     O        0.51620    0.04570    0.75590    1.000
    H13      H        0.49260    0.08390    0.73750    1.000
    C7       C        0.44950    0.01010    0.77900    1.000
    C8       C        0.37230    0.97390    0.74270    1.000
    H14      H        0.33040    0.95140    0.76000    1.000
    H15      H        0.39350    0.93100    0.72460    1.000
    H16      H        0.34150    0.01530    0.71930    1.000
