data_functionalizedCrystal
_audit_creation_method	'EQeq! by Chris Wilmer'
_symmetry_space_group_name_H-M	'P1'
_symmetry_Int_Tables_number	1
_symmetry_cell_setting	triclinic
loop_
_symmetry_equiv_pos_as_xyz
  x,y,z
_cell_length_a	19.5078
_cell_length_b	19.5078
_cell_length_c	13.815
_cell_angle_alpha	90
_cell_angle_beta	90
_cell_angle_gamma	90
loop_
_atom_site_label
_atom_site_type_symbol
_atom_site_fract_x
_atom_site_fract_y
_atom_site_fract_z
_atom_site_charge
Mof_Zn	Zn	0.9874	0.47007	0.37155	1.251
Mof_H 	H 	0.9284	0.1617	0.5827	0.065
Mof_H 	H 	0.9131	0.2713	0.6323	0.046
Mof_H 	H 	0.6762	0.4106	0.3862	0.006
Mof_H 	H 	0.6714	0.4922	0.3987	0.008
Mof_H 	H 	0.07824	0.31468	0.28288	0.03
Mof_H 	H 	0.735	0.484	0.9719	0.118
Mof_H 	H 	0.8391	0.4788	0.0376	0.017
Mof_C 	C 	0.9563	0.3906	0.5623	0.399
Mof_C 	C 	0.8878	0.4799	0.2168	0.478
Mof_C 	C 	0.9663	0.1121	0.4097	0.46
Mof_C 	C 	0.973	0.2415	0.3857	0.12
Mof_C 	C 	0.9593	0.1833	0.4426	-0.133
Mof_C 	C 	0.9704	0.3065	0.4231	0.141
Mof_C 	C 	0.9383	0.1982	0.5394	-0.009
Mof_C 	C 	0.9521	0.3208	0.5187	-0.154
Mof_C 	C 	0.9324	0.264	0.5701	0.019
Mof_C 	C 	0.8146	0.4778	0.1788	-0.182
Mof_C 	C 	0.6922	0.47	0.1961	0.121
Mof_C 	C 	0.6853	0.455	0.354	0.2
Mof_C 	C 	0.6797	0.4763	0.0995	-0.094
Mof_C 	C 	0.6098	0.4802	0.0571	0.32
Mof_C 	C 	0.7589	0.4702	0.238	0.165
Mof_C 	C 	0.0202	0.3154	0.2733	0.128
Mof_C 	C 	0.7394	0.4803	0.0402	-0.127
Mof_C 	C 	0.8008	0.479	0.0801	0.084
Mof_O 	O 	0.96344	0.44309	0.5078	-0.568
Mof_O 	O 	0.987	0.35341	0.3522	-0.311
Mof_O 	O 	0.89824	0.4701	0.3028	-0.471
Mof_O 	O 	0.93175	0.4927	0.1542	-0.498
Mof_O 	O 	0.55771	0.46799	0.1102	-0.551
Mof_O 	O 	0.957	0.06824	0.4706	-0.489
Mof_O 	O 	0.9899	0.24476	0.2901	-0.186
Mof_O 	O 	0.75493	0.4607	0.3326	-0.229
Mof_O 	O 	0.6029	0.4915	0.9699	-0.327
Mof_O 	O 	0.64693	0.4594	0.2672	-0.324
Mof_O 	O 	0.9783	0.10145	0.3209	-0.453
Mof_O 	O 	0.9471	0.3981	0.6487	-0.376
Mof_H 	H 	0.49457	0.83926	0.54908	0.037
Mof_Zn	Zn	0.0126	0.52993	0.87155	1.256
Mof_H 	H 	0.0716	0.8383	0.0827	0.088
Mof_H 	H 	0.0869	0.7287	0.1323	0.019
Mof_H 	H 	0.3238	0.5894	0.8862	0.017
Mof_H 	H 	0.3286	0.5078	0.8987	0.022
Mof_H 	H 	0.92176	0.68532	0.78288	0.033
Mof_H 	H 	0.265	0.516	0.4719	0.048
Mof_H 	H 	0.1609	0.5212	0.5376	0.059
Mof_C 	C 	0.0437	0.6094	0.0623	0.426
Mof_C 	C 	0.1122	0.5201	0.7168	0.462
Mof_C 	C 	0.0337	0.8879	0.9097	0.433
Mof_C 	C 	0.027	0.7585	0.8857	0.078
Mof_C 	C 	0.0407	0.8167	0.9426	-0.054
Mof_C 	C 	0.0296	0.6935	0.9231	0.215
Mof_C 	C 	0.0617	0.8018	0.0394	-0.112
Mof_C 	C 	0.0479	0.6792	0.0187	-0.239
Mof_C 	C 	0.0676	0.736	0.0701	0.092
Mof_C 	C 	0.1854	0.5222	0.6788	-0.135
Mof_C 	C 	0.3078	0.53	0.6961	0.155
Mof_C 	C 	0.3147	0.545	0.854	0.191
Mof_C 	C 	0.3203	0.5237	0.5995	-0.155
Mof_C 	C 	0.3902	0.5198	0.5571	0.392
Mof_C 	C 	0.2411	0.5298	0.738	0.137
Mof_C 	C 	0.9798	0.6846	0.7733	0.13
Mof_C 	C 	0.2606	0.5197	0.5402	0.01
Mof_C 	C 	0.1992	0.521	0.5801	-0
Mof_O 	O 	0.03656	0.55691	0.0078	-0.595
Mof_O 	O 	0.013	0.64659	0.8522	-0.32
Mof_O 	O 	0.10176	0.5299	0.8028	-0.461
Mof_O 	O 	0.06825	0.5073	0.6542	-0.489
Mof_O 	O 	0.44229	0.53201	0.6102	-0.563
Mof_O 	O 	0.043	0.93176	0.9706	-0.464
Mof_O 	O 	0.0101	0.75524	0.7901	-0.175
Mof_O 	O 	0.24507	0.5393	0.8326	-0.213
Mof_O 	O 	0.3971	0.5085	0.4699	-0.376
Mof_O 	O 	0.35307	0.5406	0.7672	-0.328
Mof_O 	O 	0.0217	0.89855	0.8209	-0.444
Mof_O 	O 	0.0529	0.6019	0.1487	-0.386
Mof_H 	H 	0.50543	0.16074	0.04908	0.004
Mof_Zn	Zn	0.02993	0.4874	0.12155	1.25
Mof_H 	H 	0.3383	0.4284	0.3327	0.062
Mof_H 	H 	0.2287	0.4131	0.3823	0.045
Mof_H 	H 	0.0894	0.1762	0.1362	-0.002
Mof_H 	H 	0.0078	0.1714	0.1487	0.002
Mof_H 	H 	0.18532	0.57824	0.03288	0.031
Mof_H 	H 	0.016	0.235	0.7219	0.052
Mof_H 	H 	0.0212	0.3391	0.7876	0.053
Mof_C 	C 	0.1094	0.4563	0.3123	0.398
Mof_C 	C 	0.0201	0.3878	0.9668	0.526
Mof_C 	C 	0.3879	0.4663	0.1597	0.463
Mof_C 	C 	0.2585	0.473	0.1357	0.121
Mof_C 	C 	0.3167	0.4593	0.1926	-0.138
Mof_C 	C 	0.1935	0.4704	0.1731	0.138
Mof_C 	C 	0.3018	0.4383	0.2894	-0.007
Mof_C 	C 	0.1792	0.4521	0.2687	-0.154
Mof_C 	C 	0.236	0.4324	0.3201	0.017
Mof_C 	C 	0.0222	0.3146	0.9288	-0.163
Mof_C 	C 	0.03	0.1922	0.9461	0.181
Mof_C 	C 	0.045	0.1853	0.104	0.217
Mof_C 	C 	0.0237	0.1797	0.8495	-0.155
Mof_C 	C 	0.0198	0.1098	0.8071	0.395
Mof_C 	C 	0.0298	0.2589	0.988	0.186
Mof_C 	C 	0.1846	0.5202	0.0233	0.087
Mof_C 	C 	0.0197	0.2394	0.7902	0.002
Mof_C 	C 	0.021	0.3008	0.8301	0.019
Mof_O 	O 	0.05691	0.46344	0.2578	-0.568
Mof_O 	O 	0.14659	0.487	0.1022	-0.309
Mof_O 	O 	0.0299	0.39824	0.0528	-0.509
Mof_O 	O 	0.0073	0.43175	0.9042	-0.496
Mof_O 	O 	0.03201	0.05771	0.8602	-0.552
Mof_O 	O 	0.43176	0.457	0.2206	-0.493
Mof_O 	O 	0.25524	0.4899	0.0401	-0.195
Mof_O 	O 	0.0393	0.25493	0.0826	-0.258
Mof_O 	O 	0.0085	0.1029	0.7199	-0.375
Mof_O 	O 	0.0406	0.14693	0.0172	-0.369
Mof_O 	O 	0.39855	0.4783	0.0709	-0.468
Mof_O 	O 	0.1019	0.4471	0.3987	-0.377
Mof_H 	H 	0.66074	0.99457	0.29908	0.036
Mof_Zn	Zn	0.97007	0.5126	0.62155	1.25
Mof_H 	H 	0.6617	0.5716	0.8327	0.064
Mof_H 	H 	0.7713	0.5869	0.8823	0.053
Mof_H 	H 	0.9106	0.8238	0.6362	0.007
Mof_H 	H 	0.9922	0.8286	0.6487	0.009
Mof_H 	H 	0.81468	0.42176	0.53288	0.031
Mof_H 	H 	0.984	0.765	0.2219	0.046
Mof_H 	H 	0.9788	0.6609	0.2876	0.058
Mof_C 	C 	0.8906	0.5437	0.8123	0.395
Mof_C 	C 	0.9799	0.6122	0.4668	0.464
Mof_C 	C 	0.6121	0.5337	0.6597	0.461
Mof_C 	C 	0.7415	0.527	0.6357	0.122
Mof_C 	C 	0.6833	0.5407	0.6926	-0.133
Mof_C 	C 	0.8065	0.5296	0.6731	0.139
Mof_C 	C 	0.6982	0.5617	0.7894	-0.005
Mof_C 	C 	0.8208	0.5479	0.7687	-0.148
Mof_C 	C 	0.764	0.5676	0.8201	0.015
Mof_C 	C 	0.9778	0.6854	0.4288	-0.138
Mof_C 	C 	0.97	0.8078	0.4461	0.155
Mof_C 	C 	0.955	0.8147	0.604	0.199
Mof_C 	C 	0.9763	0.8203	0.3495	-0.156
Mof_C 	C 	0.9802	0.8902	0.3071	0.394
Mof_C 	C 	0.9702	0.7411	0.488	0.139
Mof_C 	C 	0.8154	0.4798	0.5233	0.128
Mof_C 	C 	0.9803	0.7606	0.2902	0.01
Mof_C 	C 	0.979	0.6992	0.3301	0
Mof_O 	O 	0.94309	0.53656	0.7578	-0.565
Mof_O 	O 	0.85341	0.513	0.6022	-0.311
Mof_O 	O 	0.9701	0.60176	0.5528	-0.466
Mof_O 	O 	0.9927	0.56825	0.4042	-0.489
Mof_O 	O 	0.96799	0.94229	0.3602	-0.564
Mof_O 	O 	0.56824	0.543	0.7206	-0.49
Mof_O 	O 	0.74476	0.5101	0.5401	-0.185
Mof_O 	O 	0.9607	0.74507	0.5826	-0.222
Mof_O 	O 	0.9915	0.8971	0.2199	-0.381
Mof_O 	O 	0.9594	0.85307	0.5172	-0.331
Mof_O 	O 	0.60145	0.5217	0.5709	-0.454
Mof_O 	O 	0.8981	0.5529	0.8987	-0.36
Mof_H 	H 	0.33926	0.00543	0.79908	0.038
Mof_Zn	Zn	0.5126	0.97007	0.37845	1.25
Mof_H 	H 	0.5716	0.6617	0.1673	0.062
Mof_H 	H 	0.5869	0.7713	0.1177	0.036
Mof_H 	H 	0.8238	0.9106	0.3638	0.006
Mof_H 	H 	0.8286	0.9922	0.3513	0.009
Mof_H 	H 	0.42176	0.81468	0.46712	0.03
Mof_H 	H 	0.765	0.984	0.7781	0.05
Mof_H 	H 	0.6609	0.9788	0.7124	0.058
Mof_C 	C 	0.5437	0.8906	0.1877	0.403
Mof_C 	C 	0.6122	0.9799	0.5332	0.464
Mof_C 	C 	0.5337	0.6121	0.3403	0.459
Mof_C 	C 	0.527	0.7415	0.3643	0.119
Mof_C 	C 	0.5407	0.6833	0.3074	-0.131
Mof_C 	C 	0.5296	0.8065	0.3269	0.143
Mof_C 	C 	0.5617	0.6982	0.2106	-0.013
Mof_C 	C 	0.5479	0.8208	0.2313	-0.161
Mof_C 	C 	0.5676	0.764	0.1799	0.025
Mof_C 	C 	0.6854	0.9778	0.5712	-0.139
Mof_C 	C 	0.8078	0.97	0.5539	0.153
Mof_C 	C 	0.8147	0.955	0.396	0.2
Mof_C 	C 	0.8203	0.9763	0.6505	-0.153
Mof_C 	C 	0.8902	0.9802	0.6929	0.39
Mof_C 	C 	0.7411	0.9702	0.512	0.14
Mof_C 	C 	0.4798	0.8154	0.4767	0.128
Mof_C 	C 	0.7606	0.9803	0.7098	0.008
Mof_C 	C 	0.6992	0.979	0.6699	0.003
Mof_O 	O 	0.53656	0.94309	0.2422	-0.571
Mof_O 	O 	0.513	0.85341	0.3978	-0.312
Mof_O 	O 	0.60176	0.9701	0.4472	-0.467
Mof_O 	O 	0.56825	0.9927	0.5958	-0.49
Mof_O 	O 	0.94229	0.96799	0.6398	-0.563
Mof_O 	O 	0.543	0.56824	0.2794	-0.491
Mof_O 	O 	0.5101	0.74476	0.4599	-0.185
Mof_O 	O 	0.74507	0.9607	0.4174	-0.222
Mof_O 	O 	0.8971	0.9915	0.7801	-0.371
Mof_O 	O 	0.85307	0.9594	0.4828	-0.331
Mof_O 	O 	0.5217	0.60145	0.4291	-0.454
Mof_O 	O 	0.5529	0.8981	0.1013	-0.394
Mof_H 	H 	0.00543	0.33926	0.20092	0.036
Mof_Zn	Zn	0.4874	0.02993	0.87845	1.251
Mof_H 	H 	0.4284	0.3383	0.6673	0.064
Mof_H 	H 	0.4131	0.2287	0.6177	0.044
Mof_H 	H 	0.1762	0.0894	0.8638	0.016
Mof_H 	H 	0.1714	0.0078	0.8513	0.017
Mof_H 	H 	0.57824	0.18532	0.96712	0.03
Mof_H 	H 	0.235	0.016	0.2781	0.046
Mof_H 	H 	0.3391	0.0212	0.2124	0.063
Mof_C 	C 	0.4563	0.1094	0.6877	0.4
Mof_C 	C 	0.3878	0.0201	0.0332	0.399
Mof_C 	C 	0.4663	0.3879	0.8403	0.456
Mof_C 	C 	0.473	0.2585	0.8643	0.119
Mof_C 	C 	0.4593	0.3167	0.8074	-0.126
Mof_C 	C 	0.4704	0.1935	0.8269	0.144
Mof_C 	C 	0.4383	0.3018	0.7106	-0.012
Mof_C 	C 	0.4521	0.1792	0.7313	-0.156
Mof_C 	C 	0.4324	0.236	0.6799	0.023
Mof_C 	C 	0.3146	0.0222	0.0712	-0.113
Mof_C 	C 	0.1922	0.03	0.0539	0.126
Mof_C 	C 	0.1853	0.045	0.896	0.181
Mof_C 	C 	0.1797	0.0237	0.1505	-0.152
Mof_C 	C 	0.1098	0.0198	0.1929	0.387
Mof_C 	C 	0.2589	0.0298	0.012	0.09
Mof_C 	C 	0.5202	0.1846	0.9767	0.171
Mof_C 	C 	0.2394	0.0197	0.2098	0.015
Mof_C 	C 	0.3008	0.021	0.1699	-0.016
Mof_O 	O 	0.46344	0.05691	0.7422	-0.567
Mof_O 	O 	0.487	0.14659	0.8978	-0.314
Mof_O 	O 	0.39824	0.0299	0.9472	-0.421
Mof_O 	O 	0.43175	0.0073	0.0958	-0.483
Mof_O 	O 	0.05771	0.03201	0.1398	-0.568
Mof_O 	O 	0.457	0.43176	0.7794	-0.487
Mof_O 	O 	0.4899	0.25524	0.9599	-0.176
Mof_O 	O 	0.25493	0.0393	0.9174	-0.184
Mof_O 	O 	0.1029	0.0085	0.2801	-0.375
Mof_O 	O 	0.14693	0.0406	0.9828	-0.289
Mof_O 	O 	0.4783	0.39855	0.9291	-0.434
Mof_O 	O 	0.4471	0.1019	0.6013	-0.377
Mof_H 	H 	0.99457	0.66074	0.70092	0.037
Mof_Zn	Zn	0.47007	0.9874	0.62845	1.25
Mof_H 	H 	0.1617	0.9284	0.4173	0.062
Mof_H 	H 	0.2713	0.9131	0.3677	0.043
Mof_H 	H 	0.4106	0.6762	0.6138	0.006
Mof_H 	H 	0.4922	0.6714	0.6013	0.008
Mof_H 	H 	0.31468	0.07824	0.71712	0.031
Mof_H 	H 	0.484	0.735	0.0281	-0.018
Mof_H 	H 	0.4788	0.8391	0.9624	0.096
Mof_C 	C 	0.3906	0.9563	0.4377	0.4
Mof_C 	C 	0.4799	0.8878	0.7832	0.451
Mof_C 	C 	0.1121	0.9663	0.5903	0.46
Mof_C 	C 	0.2415	0.973	0.6143	0.121
Mof_C 	C 	0.1833	0.9593	0.5574	-0.133
Mof_C 	C 	0.3065	0.9704	0.5769	0.142
Mof_C 	C 	0.1982	0.9383	0.4606	-0.01
Mof_C 	C 	0.3208	0.9521	0.4813	-0.155
Mof_C 	C 	0.264	0.9324	0.4299	0.02
Mof_C 	C 	0.4778	0.8146	0.8212	-0.098
Mof_C 	C 	0.47	0.6922	0.8039	0.186
Mof_C 	C 	0.455	0.6853	0.646	0.2
Mof_C 	C 	0.4763	0.6797	0.9005	-0.213
Mof_C 	C 	0.4802	0.6098	0.9429	0.462
Mof_C 	C 	0.4702	0.7589	0.762	0.115
Mof_C 	C 	0.3154	0.0202	0.7267	0.132
Mof_C 	C 	0.4803	0.7394	0.9598	0.139
Mof_C 	C 	0.479	0.8008	0.9199	-0.078
Mof_O 	O 	0.44309	0.96344	0.4922	-0.568
Mof_O 	O 	0.35341	0.987	0.6478	-0.313
Mof_O 	O 	0.4701	0.89824	0.6972	-0.463
Mof_O 	O 	0.4927	0.93175	0.8458	-0.483
Mof_O 	O 	0.46799	0.55771	0.8898	-0.572
Mof_O 	O 	0.06824	0.957	0.5294	-0.491
Mof_O 	O 	0.24476	0.9899	0.7099	-0.187
Mof_O 	O 	0.4607	0.75493	0.6674	-0.216
Mof_O 	O 	0.4915	0.6029	0.0301	-0.422
Mof_O 	O 	0.4594	0.64693	0.7328	-0.338
Mof_O 	O 	0.10145	0.9783	0.6791	-0.455
Mof_O 	O 	0.3981	0.9471	0.3513	-0.379
Mof_H 	H 	0.83926	0.49457	0.45092	0.037
Mof_Zn	Zn	0.52993	0.0126	0.12845	1.243
Mof_H 	H 	0.8383	0.0716	0.9173	0.035
Mof_H 	H 	0.7287	0.0869	0.8677	0.073
Mof_H 	H 	0.5894	0.3238	0.1138	-0.005
Mof_H 	H 	0.5078	0.3286	0.1013	-0.005
Mof_H 	H 	0.68532	0.92176	0.21712	0.028
Mof_H 	H 	0.516	0.265	0.5281	0.049
Mof_H 	H 	0.5212	0.1609	0.4624	0.058
Mof_C 	C 	0.6094	0.0437	0.9377	0.37
Mof_C 	C 	0.5201	0.1122	0.2832	0.466
Mof_C 	C 	0.8879	0.0337	0.0903	0.489
Mof_C 	C 	0.7585	0.027	0.1143	0.167
Mof_C 	C 	0.8167	0.0407	0.0574	-0.219
Mof_C 	C 	0.6935	0.0296	0.0769	0.059
Mof_C 	C 	0.8018	0.0617	0.9606	0.105
Mof_C 	C 	0.6792	0.0479	0.9813	-0.061
Mof_C 	C 	0.736	0.0676	0.9299	-0.059
Mof_C 	C 	0.5222	0.1854	0.3212	-0.142
Mof_C 	C 	0.53	0.3078	0.3039	0.153
Mof_C 	C 	0.545	0.3147	0.146	0.21
Mof_C 	C 	0.5237	0.3203	0.4005	-0.154
Mof_C 	C 	0.5198	0.3902	0.4429	0.392
Mof_C 	C 	0.5298	0.2411	0.262	0.141
Mof_C 	C 	0.6846	0.9798	0.2267	0.129
Mof_C 	C 	0.5197	0.2606	0.4598	0.008
Mof_C 	C 	0.521	0.1992	0.4199	0.003
Mof_O 	O 	0.55691	0.03656	0.9922	-0.538
Mof_O 	O 	0.64659	0.013	0.1478	-0.302
Mof_O 	O 	0.5299	0.10176	0.1972	-0.473
Mof_O 	O 	0.5073	0.06825	0.3458	-0.49
Mof_O 	O 	0.53201	0.44229	0.3898	-0.564
Mof_O 	O 	0.93176	0.043	0.0294	-0.516
Mof_O 	O 	0.75524	0.0101	0.2099	-0.197
Mof_O 	O 	0.5393	0.24507	0.1674	-0.232
Mof_O 	O 	0.5085	0.3971	0.5301	-0.376
Mof_O 	O 	0.5406	0.35307	0.2328	-0.335
Mof_O 	O 	0.89855	0.0217	0.1791	-0.463
Mof_O 	O 	0.6019	0.0529	0.8513	-0.367
Mof_H 	H 	0.16074	0.50543	0.95092	0.068
Mof_Zn	Zn	0.48631	0.48631	-0	1.228
Mof_Zn	Zn	0.51369	0.51369	0.5	1.24
Mof_Zn	Zn	0.01369	0.98631	0.75	1.24
Mof_Zn	Zn	0.98631	0.01369	0.25	1.241
Mof_Zn	Zn	0.52986	0.47014	0.25	1.257
Mof_Zn	Zn	0.47014	0.52986	0.75	1.259
Mof_Zn	Zn	0.02986	0.02986	-0	1.246
Mof_Zn	Zn	0.97014	0.97014	0.5	1.258
_end
