data_functionalizedCrystal
_audit_creation_method	'EQeq! by Chris Wilmer'
_symmetry_space_group_name_H-M	'P1'
_symmetry_Int_Tables_number	1
_symmetry_cell_setting	triclinic
loop_
_symmetry_equiv_pos_as_xyz
  x,y,z
_cell_length_a	12.293
_cell_length_b	14.538
_cell_length_c	18.583
_cell_angle_alpha	90
_cell_angle_beta	90
_cell_angle_gamma	97.063
loop_
_atom_site_label
_atom_site_type_symbol
_atom_site_fract_x
_atom_site_fract_y
_atom_site_fract_z
_atom_site_charge
Mof_Co	Co	-0	0	-0	1.065
Mof_Co	Co	0.5	0.5	0.5	1.11
Mof_Co	Co	-9.65317e-18	0.5	0.5	1.099
Mof_Co	Co	0.5	0	-0	1.08
Mof_H 	H 	0.3994	0.9462	0.2706	-0.001
Mof_H 	H 	0.7374	0.4292	0.959	0.056
Mof_H 	H 	0.9604	0.4802	0.3302	-0.005
Mof_H 	H 	0.6006	0.0538	0.7294	0.1
Mof_H 	H 	0.8443	0.6428	0.4701	-0.008
Mof_H 	H 	0.3387	0.9926	0.4531	0.162
Mof_H 	H 	0.5832	0.3953	0.7727	0.059
Mof_H 	H 	0.8931	0.0596	0.2633	0.079
Mof_H 	H 	0.6613	0.5074	0.9531	0.059
Mof_H 	H 	0.3414	0.0556	0.7523	0.073
Mof_H 	H 	0.833	0.3811	0.0653	0.102
Mof_H 	H 	0.8837	0.0459	0.6711	0.055
Mof_H 	H 	0.833	0.8811	0.4347	0.053
Mof_H 	H 	0.7712	0.7245	0.3813	0.102
Mof_H 	H 	0.7484	0.3148	0.2111	0.066
Mof_H 	H 	0.5185	0.1843	0.364	-0.007
Mof_H 	H 	0.2685	0.7382	0.5995	0.096
Mof_H 	H 	0.2133	0.3191	0.8083	0.07
Mof_H 	H 	0.2626	0.0708	0.459	0.127
Mof_H 	H 	0.1123	0.6058	0.1394	0.025
Mof_H 	H 	0.9604	0.9802	0.1698	0.046
Mof_H 	H 	0.7867	0.1809	0.3083	0.059
Mof_H 	H 	0.2685	0.2382	0.9005	0.094
Mof_H 	H 	0.6137	0.1087	0.4459	0.124
Mof_H 	H 	0.9779	0.2738	0.9209	0.16
Mof_H 	H 	0.5763	0.0207	0.1592	-0.057
Mof_H 	H 	0.5603	0.7019	0.823	0.067
Mof_H 	H 	0.5832	0.8953	0.7273	0.014
Mof_H 	H 	0.2516	0.6852	0.7889	0.058
Mof_H 	H 	0.2516	0.1852	0.7111	0.054
Mof_H 	H 	0.6586	0.9444	0.2477	0.121
Mof_H 	H 	0.1163	0.4541	0.1711	0.09
Mof_H 	H 	0.2288	0.2755	0.6187	0.104
Mof_H 	H 	0.0241	0.6588	0.8672	0.096
Mof_H 	H 	0.6137	0.6087	0.0541	0.073
Mof_H 	H 	0.4397	0.7981	0.323	0.035
Mof_H 	H 	0.8443	0.1428	0.0299	-0.02
Mof_H 	H 	0.167	0.1189	0.5653	0.073
Mof_H 	H 	0.352	0.6573	0.5152	0.004
Mof_H 	H 	0.3863	0.3913	0.9459	0.077
Mof_H 	H 	0.2626	0.5708	0.041	0.134
Mof_H 	H 	0.1123	0.1058	0.3606	0.082
Mof_H 	H 	0.0221	0.2262	0.4209	-0.013
Mof_H 	H 	0.1069	0.4404	0.7633	0.092
Mof_H 	H 	0.3863	0.8913	0.5541	0.028
Mof_H 	H 	0.4397	0.2981	0.177	0.051
Mof_H 	H 	0.5763	0.5207	0.3408	-0.004
Mof_H 	H 	0.1163	0.9541	0.3289	0.03
Mof_H 	H 	0.8837	0.5459	0.8289	0.002
Mof_H 	H 	0.6586	0.4444	0.2523	0.096
Mof_H 	H 	0.9759	0.3412	0.1328	0.003
Mof_H 	H 	0.1557	0.8572	0.9701	-0.008
Mof_H 	H 	0.648	0.8427	0.0152	-0.009
Mof_H 	H 	0.6006	0.5538	0.7706	0.061
Mof_H 	H 	0.7315	0.2618	0.4005	0.097
Mof_H 	H 	0.4168	0.6047	0.2273	0.068
Mof_H 	H 	0.648	0.3427	0.4848	0.004
Mof_H 	H 	0.8877	0.8942	0.6394	0.039
Mof_H 	H 	0.167	0.6189	0.9347	0.025
Mof_H 	H 	0.4237	0.9793	0.8408	0.043
Mof_H 	H 	0.1557	0.3572	0.5299	-0.023
Mof_H 	H 	0.3994	0.4462	0.2294	0.043
Mof_H 	H 	0.352	0.1573	0.9848	0.022
Mof_H 	H 	0.7712	0.2245	0.1187	0.093
Mof_H 	H 	0.6613	0.0074	0.5469	0.034
Mof_H 	H 	0.8877	0.3942	0.8606	0.094
Mof_H 	H 	0.1069	0.9404	0.7367	0.113
Mof_H 	H 	0.5603	0.2019	0.677	0.081
Mof_H 	H 	0.7315	0.7618	0.0995	0.101
Mof_H 	H 	0.0221	0.7262	0.0791	-0.056
Mof_H 	H 	0.2288	0.7755	0.8813	0.111
Mof_H 	H 	0.2133	0.8191	0.6917	0.072
Mof_H 	H 	0.0241	0.1588	0.6328	0.044
Mof_H 	H 	0.5185	0.6843	0.136	0.037
Mof_H 	H 	0.9759	0.8412	0.3672	0.06
Mof_H 	H 	0.3387	0.4926	0.0469	0.141
Mof_H 	H 	0.0396	0.0198	0.8302	-0.068
Mof_H 	H 	0.9779	0.7738	0.5791	0.115
Mof_H 	H 	0.4815	0.3157	0.864	0.053
Mof_H 	H 	0.7374	0.9292	0.541	0.059
Mof_H 	H 	0.4168	0.1047	0.2727	0.118
Mof_H 	H 	0.7484	0.8148	0.2889	0.07
Mof_H 	H 	0.0396	0.5198	0.6698	-0.026
Mof_H 	H 	0.4237	0.4793	0.6592	-0.002
Mof_H 	H 	0.7867	0.6809	0.1917	0.062
Mof_H 	H 	0.8931	0.5596	0.2367	0.103
Mof_H 	H 	0.3414	0.5556	0.7477	0.093
Mof_H 	H 	0.4815	0.8157	0.636	0.091
Mof_C 	C 	0.30083	0.68644	0.61338	-0.165
Mof_C 	C 	0.42757	0.92507	0.58926	0.065
Mof_C 	C 	0.82682	0.15452	0.20337	0.102
Mof_C 	C 	0.45198	0.0724	0.30708	-0.229
Mof_C 	C 	0.02603	0.5971	0.8797	-0.195
Mof_C 	C 	0.89338	0.80622	0.99352	0.447
Mof_C 	C 	0.25321	0.21164	0.75669	-0.069
Mof_C 	C 	0.03171	0.81882	0.5617	-0.107
Mof_C 	C 	0.11174	0.57305	0.92043	0.057
Mof_C 	C 	0.74679	0.28836	0.25669	-0.094
Mof_C 	C 	0.48473	0.37985	0.8614	-0.029
Mof_C 	C 	0.94391	0.93883	0.62441	0.029
Mof_C 	C 	0.88291	0.57863	0.28378	-0.171
Mof_C 	C 	0.05895	0.47078	0.14333	-0.19
Mof_C 	C 	0.49889	0.42837	0.14406	-0.016
Mof_C 	C 	0.50111	0.57163	0.85594	0.028
Mof_C 	C 	0.88826	0.92695	0.42043	-0.016
Mof_C 	C 	0.35097	0.13706	0.9373	0.073
Mof_C 	C 	0.57243	0.57493	0.08926	-0.104
Mof_C 	C 	0.07617	0.46905	0.65933	0.103
Mof_C 	C 	0.94105	0.02922	0.64333	-0.043
Mof_C 	C 	0.03036	0.9116	0.58262	-0.027
Mof_C 	C 	0.38873	0.66916	0.95637	0.137
Mof_C 	C 	0.02603	0.0971	0.6203	-0.057
Mof_C 	C 	0.94391	0.43883	0.87559	-0.141
Mof_C 	C 	0.11741	0.4803	0.94097	-0.106
Mof_C 	C 	0.10662	0.69378	0.49352	0.325
Mof_C 	C 	0.42757	0.42507	0.91074	-0.054
Mof_C 	C 	0.85512	0.62637	0.42256	0.1
Mof_C 	C 	0.07617	0.96905	0.84067	0.175
Mof_C 	C 	0.48473	0.87985	0.6386	-0.143
Mof_C 	C 	0.4923	0.32196	0.59083	0.326
Mof_C 	C 	0.48533	0.33023	0.14311	-0.003
Mof_C 	C 	0.7979	0.04636	0.48605	-0.073
Mof_C 	C 	0.17318	0.34548	0.70337	0.129
Mof_C 	C 	0.92383	0.03095	0.15933	0.025
Mof_C 	C 	0.39302	0.53259	0.64703	0.089
Mof_C 	C 	0.92383	0.53095	0.34067	0.108
Mof_C 	C 	0.88954	0.70691	0.01625	-0.272
Mof_C 	C 	0.85512	0.12637	0.07744	0.089
Mof_C 	C 	0.60698	0.46741	0.35297	0.092
Mof_C 	C 	0.7979	0.54636	0.01395	-0.169
Mof_C 	C 	0.62879	0.92672	0.4575	-0.097
Mof_C 	C 	0.64903	0.36294	0.4373	0.086
Mof_C 	C 	0.51467	0.16977	0.64311	-0.076
Mof_C 	C 	0.37121	0.07328	0.5425	0.053
Mof_C 	C 	0.4923	0.82196	0.90917	0.334
Mof_C 	C 	0.88291	0.07863	0.21622	-0.131
Mof_C 	C 	0.78573	0.2067	0.2625	-0.075
Mof_C 	C 	0.34391	0.07858	0.79901	-0.128
Mof_C 	C 	0.97397	0.9029	0.3797	-0.017
Mof_C 	C 	0.25321	0.71164	0.74331	-0.076
Mof_C 	C 	0.2021	0.95364	0.51395	0.039
Mof_C 	C 	0.51527	0.12015	0.3614	0.128
Mof_C 	C 	0.53764	0.28143	0.09368	-0.12
Mof_C 	C 	0.81116	0.67641	0.36926	-0.168
Mof_C 	C 	0.805	0.63795	0.99078	0.277
Mof_C 	C 	0.44303	0.97832	0.30549	0.115
Mof_C 	C 	0.81116	0.17641	0.13074	-0.156
Mof_C 	C 	0.45198	0.5724	0.19292	-0.067
Mof_C 	C 	0.78573	0.7067	0.2375	-0.078
Mof_C 	C 	0.11046	0.29309	0.98375	0.08
Mof_C 	C 	0.38873	0.16916	0.54363	0.093
Mof_C 	C 	0.88954	0.20691	0.48375	-0.141
Mof_C 	C 	0.49889	0.92837	0.35594	-0.099
Mof_C 	C 	0.39302	0.03259	0.85297	0.018
Mof_C 	C 	0.96964	0.5884	0.08262	-0.07
Mof_C 	C 	0.94105	0.52922	0.85667	0.131
Mof_C 	C 	0.69917	0.81356	0.11338	-0.188
Mof_C 	C 	0.11046	0.79309	0.51625	-0.085
Mof_C 	C 	0.50111	0.07163	0.64406	0.101
Mof_C 	C 	0.29812	0.15963	0.81482	0.091
Mof_C 	C 	0.03036	0.4116	0.91738	0.111
Mof_C 	C 	0.96829	0.68118	0.0617	0.174
Mof_C 	C 	0.30083	0.18644	0.88662	-0.146
Mof_C 	C 	0.65609	0.42142	0.29901	-0.173
Mof_C 	C 	0.05895	0.97078	0.35667	0.007
Mof_C 	C 	0.03171	0.31882	0.9383	-0.235
Mof_C 	C 	0.56927	0.47663	0.09134	0.049
Mof_C 	C 	0.70188	0.84037	0.18518	0.149
Mof_C 	C 	0.82682	0.65452	0.29663	0.123
Mof_C 	C 	0.96829	0.18118	0.4383	0.057
Mof_C 	C 	0.195	0.36205	0.00922	-0.044
Mof_C 	C 	0.97397	0.4029	0.1203	0.138
Mof_C 	C 	0.29483	0.52406	0.01372	-0.326
Mof_C 	C 	0.88259	0.5197	0.05903	0.126
Mof_C 	C 	0.11709	0.92137	0.78378	-0.221
Mof_C 	C 	0.57243	0.07493	0.41074	-0.235
Mof_C 	C 	0.70517	0.97594	0.51372	-0.003
Mof_C 	C 	0.61127	0.83084	0.45637	0.175
Mof_C 	C 	0.29812	0.65963	0.68518	0.112
Mof_C 	C 	0.55697	0.52168	0.80549	-0.067
Mof_C 	C 	0.46236	0.21857	0.59368	-0.072
Mof_C 	C 	0.48533	0.83023	0.35689	0.052
Mof_C 	C 	0.54802	0.4276	0.80708	-0.03
Mof_C 	C 	0.62879	0.42672	0.0425	-0.087
Mof_C 	C 	0.70188	0.34037	0.31482	0.124
Mof_C 	C 	0.18884	0.82359	0.86926	-0.19
Mof_C 	C 	0.17318	0.84548	0.79663	0.148
Mof_C 	C 	0.14488	0.37363	0.57744	0.095
Mof_C 	C 	0.195	0.86205	0.49078	0.102
Mof_C 	C 	0.18884	0.32359	0.63074	-0.18
Mof_C 	C 	0.44303	0.47832	0.19451	-0.036
Mof_C 	C 	0.35097	0.63706	0.5627	0.083
Mof_C 	C 	0.2021	0.45364	0.98605	0.156
Mof_C 	C 	0.05609	0.56117	0.12441	-0.011
Mof_C 	C 	0.34391	0.57858	0.70099	-0.166
Mof_C 	C 	0.51527	0.62015	0.1386	0.002
Mof_C 	C 	0.46236	0.71857	0.90632	-0.096
Mof_C 	C 	0.29483	0.02406	0.48628	-0.299
Mof_C 	C 	0.54802	0.9276	0.69292	0.114
Mof_C 	C 	0.14488	0.87363	0.92256	0.106
Mof_C 	C 	0.21427	0.7933	0.7375	-0.11
Mof_C 	C 	0.5077	0.67804	0.40917	0.353
Mof_C 	C 	0.55697	0.02168	0.69451	-0.2
Mof_C 	C 	0.88259	0.0197	0.44097	-0.013
Mof_C 	C 	0.21427	0.2933	0.7625	-0.107
Mof_C 	C 	0.53764	0.78143	0.40632	-0.148
Mof_C 	C 	0.11741	0.9803	0.55903	0.039
Mof_C 	C 	0.10662	0.19378	0.00648	0.195
Mof_C 	C 	0.51467	0.66977	0.85689	-0.029
Mof_C 	C 	0.88826	0.42695	0.07957	-0.185
Mof_C 	C 	0.11174	0.07305	0.57957	-0.109
Mof_C 	C 	0.37121	0.57328	0.9575	0.054
Mof_C 	C 	0.69917	0.31356	0.38662	-0.167
Mof_C 	C 	0.70517	0.47594	0.98628	0.007
Mof_C 	C 	0.60698	0.96741	0.14703	0.18
Mof_C 	C 	0.43073	0.02337	0.59134	-0.098
Mof_C 	C 	0.43073	0.52337	0.90866	-0.009
Mof_C 	C 	0.65609	0.92142	0.20099	-0.219
Mof_C 	C 	0.61127	0.33084	0.04363	0.123
Mof_C 	C 	0.74679	0.78836	0.24331	-0.101
Mof_C 	C 	0.89338	0.30622	0.50648	0.356
Mof_C 	C 	0.96964	0.0884	0.41738	0.063
Mof_C 	C 	0.64903	0.86294	0.0627	0.1
Mof_C 	C 	0.5077	0.17804	0.09083	0.341
Mof_C 	C 	0.805	0.13795	0.50922	0.16
Mof_C 	C 	0.11709	0.42137	0.71622	-0.186
Mof_C 	C 	0.05609	0.06117	0.37559	-0.19
Mof_C 	C 	0.56927	0.97663	0.40866	0.149
Mof_N 	N 	0.60111	0.43948	0.42172	-0.247
Mof_N 	N 	0.08694	0.9453	0.90981	-0.248
Mof_N 	N 	0.39889	0.06052	0.92172	-0.228
Mof_N 	N 	0.60111	0.93948	0.07828	-0.257
Mof_N 	N 	0.08694	0.4453	0.59019	-0.251
Mof_N 	N 	0.91306	0.0547	0.09019	-0.226
Mof_N 	N 	0.91306	0.5547	0.40981	-0.232
Mof_N 	N 	0.39889	0.56052	0.57828	-0.246
Mof_O 	O 	0.56159	0.35913	0.63441	-0.281
Mof_O 	O 	0.27201	0.83797	0.44409	-0.175
Mof_O 	O 	0.44679	0.86611	0.95817	-0.377
Mof_O 	O 	0.72799	0.16203	0.55591	-0.187
Mof_O 	O 	0.55321	0.63389	0.45817	-0.408
Mof_O 	O 	0.33364	0.71843	0.0046	-0.223
Mof_O 	O 	0.04591	0.63437	0.5288	-0.457
Mof_O 	O 	0.16545	0.17615	0.05981	-0.261
Mof_O 	O 	0.95409	0.36563	0.4712	-0.42
Mof_O 	O 	0.95409	0.86563	0.0288	-0.451
Mof_O 	O 	0.04591	0.13437	0.9712	-0.394
Mof_O 	O 	0.66636	0.28157	0.9954	-0.161
Mof_O 	O 	0.72799	0.66203	0.94409	-0.198
Mof_O 	O 	0.44679	0.36611	0.54183	-0.403
Mof_O 	O 	0.27201	0.33797	0.05591	-0.16
Mof_O 	O 	0.66636	0.78157	0.5046	-0.197
Mof_O 	O 	0.16545	0.67615	0.44019	-0.277
Mof_O 	O 	0.83455	0.82385	0.94019	-0.272
Mof_O 	O 	0.56159	0.85913	0.86559	-0.271
Mof_O 	O 	0.33364	0.21843	0.4954	-0.191
Mof_O 	O 	0.55321	0.13389	0.04183	-0.425
Mof_O 	O 	0.43841	0.14087	0.13441	-0.301
Mof_O 	O 	0.43841	0.64087	0.36559	-0.292
Mof_O 	O 	0.83455	0.32385	0.55981	-0.263
_end
