# CIF file generated by openbabel 3.1.0, see https://openbabel.org
data_I
_chemical_name_common 'image0'
_cell_length_a 21.585
_cell_length_b 13.4043
_cell_length_c 22.089
_cell_angle_alpha 90
_cell_angle_beta 110.814
_cell_angle_gamma 90
_space_group_name_H-M_alt 'P 1'
_space_group_name_Hall 'P 1'
loop_
    _symmetry_equiv_pos_as_xyz
    x,y,z
loop_
    _atom_site_label
    _atom_site_type_symbol
    _atom_site_fract_x
    _atom_site_fract_y
    _atom_site_fract_z
    _atom_site_occupancy
    Ag1      Ag       0.92939    0.20117    0.07035    1.000
    N1       N        0.97650    0.06990    0.02680    1.000
    C1       C        0.78270    0.23150    0.06880    1.000
    H1       H        0.80260    0.27260    0.10820    1.000
    H2       H        0.78720    0.16040    0.08190    1.000
    C2       C        0.48500    0.97700    0.92100    1.000
    H3       H        0.50490    0.93010    0.89970    1.000
    H4       H        0.43900    0.99080    0.89330    1.000
    H5       H        0.48520    0.94820    0.96220    1.000
    Ag2      Ag       0.57844    0.32430    0.92262    1.000
    N2       N        0.47510    0.30500    0.68370    1.000
    N3       N        0.81800    0.24980    0.02330    1.000
    N4       N        0.69310    0.29640    0.97040    1.000
    C3       C        0.43520    0.25500    0.71570    1.000
    H6       H        0.39150    0.28850    0.70310    1.000
    H7       H        0.42750    0.18520    0.70040    1.000
    N5       N        0.52840    0.31400    0.81040    1.000
    C4       C        0.54100    0.26900    0.70500    1.000
    H8       H        0.54110    0.19910    0.68980    1.000
    H9       H        0.56780    0.30970    0.68630    1.000
    N6       N        0.52610    0.43500    0.97320    1.000
    C5       C        0.70920    0.25800    0.03640    1.000
    H10      H        0.68220    0.19750    0.03490    1.000
    H11      H        0.69720    0.30860    0.06290    1.000
    N7       N        0.54400    0.16700    0.95620    1.000
    C6       C        0.73570    0.38330    0.97260    1.000
    H12      H        0.72390    0.43820    0.99660    1.000
    H13      H        0.72770    0.40670    0.92800    1.000
    N8       N        0.98980    0.33250    0.04400    1.000
    C7       C        0.80810    0.35760    0.00540    1.000
    H14      H        0.83210    0.37390    0.97590    1.000
    H15      H        0.82710    0.39870    0.04490    1.000
    C8       C        0.78540    0.19040    0.96440    1.000
    H16      H        0.79090    0.11860    0.97560    1.000
    H17      H        0.80730    0.20370    0.93270    1.000
    C9       C        0.71210    0.21430    0.93370    1.000
    H18      H        0.70190    0.23510    0.88820    1.000
    H19      H        0.68580    0.15370    0.93360    1.000
    C10      C        0.51600    0.41300    0.78150    1.000
    H20      H        0.55850    0.44930    0.79280    1.000
    H21      H        0.48740    0.45060    0.80020    1.000
    C11      C        0.48200    0.41000    0.70740    1.000
    H22      H        0.43790    0.44180    0.69470    1.000
    H23      H        0.50900    0.44860    0.68720    1.000
    C12      C        0.46810    0.25600    0.79120    1.000
    H24      H        0.43710    0.28460    0.81030    1.000
    H25      H        0.47840    0.18650    0.80720    1.000
    C13      C        0.57270    0.27200    0.78120    1.000
    H26      H        0.58460    0.20290    0.79780    1.000
    H27      H        0.61390    0.31150    0.79420    1.000
    C14      C        0.46200    0.44700    0.94150    1.000
    H28      H        0.43900    0.38280    0.94100    1.000
    H29      H        0.45470    0.46530    0.89610    1.000
    C15      C        0.52900    0.55000    0.93720    1.000
    H30      H        0.57510    0.57080    0.94550    1.000
    H31      H        0.50470    0.54740    0.88990    1.000
    C16      C        0.49300    0.62800    0.97100    1.000
    H32      H        0.45210    0.65550    0.93830    1.000
    H33      H        0.52290    0.68390    0.99130    1.000
    C17      C        0.43240    0.52700    0.97170    1.000
    H34      H        0.41570    0.58150    0.94000    1.000
    H35      H        0.39390    0.49790    0.97990    1.000
    C18      C        0.03100    0.36910    0.03510    1.000
    C19      C        0.08880    0.41600    0.02180    1.000
    H36      H        0.09490    0.38170    0.98500    1.000
    H37      H        0.12910    0.40860    0.06020    1.000
    H38      H        0.07980    0.48640    0.01160    1.000
    C20      C        0.52600    0.08000    0.93600    1.000
    C21      C        0.03400    0.09600    0.01600    1.000
    H39      H        0.07020    0.10630    0.05780    1.000
    H40      H        0.02640    0.16080    0.99220    1.000
    C22      C        0.92500    0.02500    0.97090    1.000
    H41      H        0.90700    0.07680    0.93700    1.000
    H42      H        0.88830    0.00170    0.98420    1.000
    C23      C        0.00300    0.97200    0.07260    1.000
    H43      H        0.03470    0.99380    0.11500    1.000
    H44      H        0.96450    0.94100    0.08040    1.000
    C24      C        0.96400    0.10800    0.95700    1.000
    H45      H        0.98390    0.17420    0.95760    1.000
    H46      H        0.91570    0.11180    0.93180    1.000
    C25      C        0.94360    0.98200    0.02400    1.000
    H47      H        0.89520    0.99310    0.00360    1.000
    H48      H        0.95270    0.95650    0.06850    1.000
    C26      C        0.04820    0.06500    0.05860    1.000
    H49      H        0.05980    0.05550    0.10580    1.000
    H50      H        0.06860    0.12810    0.05150    1.000
    Ag3      Ag       0.57061    0.70117    0.42965    1.000
    N9       N        0.52350    0.56990    0.47320    1.000
    C27      C        0.71730    0.73150    0.43120    1.000
    H51      H        0.69740    0.77260    0.39180    1.000
    H52      H        0.71280    0.66040    0.41810    1.000
    C28      C        0.01500    0.47700    0.57900    1.000
    H53      H        0.99510    0.43010    0.60030    1.000
    H54      H        0.06100    0.49080    0.60670    1.000
    H55      H        0.01480    0.44820    0.53780    1.000
    Ag4      Ag       0.92156    0.82430    0.57738    1.000
    N10      N        0.02490    0.80500    0.81630    1.000
    N11      N        0.68200    0.74980    0.47670    1.000
    N12      N        0.80690    0.79640    0.52960    1.000
    C29      C        0.06480    0.75500    0.78430    1.000
    H56      H        0.10850    0.78850    0.79690    1.000
    H57      H        0.07250    0.68520    0.79960    1.000
    N13      N        0.97160    0.81400    0.68960    1.000
    C30      C        0.95900    0.76900    0.79500    1.000
    H58      H        0.95890    0.69910    0.81020    1.000
    H59      H        0.93220    0.80970    0.81370    1.000
    N14      N        0.97390    0.93500    0.52680    1.000
    C31      C        0.79080    0.75800    0.46360    1.000
    H60      H        0.81780    0.69750    0.46510    1.000
    H61      H        0.80280    0.80860    0.43710    1.000
    N15      N        0.95600    0.66700    0.54380    1.000
    C32      C        0.76430    0.88330    0.52740    1.000
    H62      H        0.77610    0.93820    0.50340    1.000
    H63      H        0.77230    0.90670    0.57200    1.000
    N16      N        0.51020    0.83250    0.45600    1.000
    C33      C        0.69190    0.85760    0.49460    1.000
    H64      H        0.66790    0.87390    0.52410    1.000
    H65      H        0.67290    0.89870    0.45510    1.000
    C34      C        0.71460    0.69040    0.53560    1.000
    H66      H        0.70910    0.61860    0.52440    1.000
    H67      H        0.69270    0.70370    0.56730    1.000
    C35      C        0.78790    0.71430    0.56630    1.000
    H68      H        0.79810    0.73510    0.61180    1.000
    H69      H        0.81420    0.65370    0.56640    1.000
    C36      C        0.98400    0.91300    0.71850    1.000
    H70      H        0.94150    0.94930    0.70720    1.000
    H71      H        0.01260    0.95060    0.69980    1.000
    C37      C        0.01800    0.91000    0.79260    1.000
    H72      H        0.06210    0.94180    0.80530    1.000
    H73      H        0.99100    0.94860    0.81280    1.000
    C38      C        0.03190    0.75600    0.70880    1.000
    H74      H        0.06290    0.78460    0.68970    1.000
    H75      H        0.02160    0.68650    0.69280    1.000
    C39      C        0.92730    0.77200    0.71880    1.000
    H76      H        0.91540    0.70290    0.70220    1.000
    H77      H        0.88610    0.81150    0.70580    1.000
    C40      C        0.03800    0.94700    0.55850    1.000
    H78      H        0.06100    0.88280    0.55900    1.000
    H79      H        0.04530    0.96530    0.60390    1.000
    C41      C        0.97100    0.05000    0.56280    1.000
    H80      H        0.92490    0.07080    0.55450    1.000
    H81      H        0.99530    0.04740    0.61010    1.000
    C42      C        0.00700    0.12800    0.52900    1.000
    H82      H        0.04790    0.15550    0.56170    1.000
    H83      H        0.97710    0.18390    0.50870    1.000
    C43      C        0.06760    0.02700    0.52830    1.000
    H84      H        0.08430    0.08150    0.56000    1.000
    H85      H        0.10610    0.99790    0.52010    1.000
    C44      C        0.46900    0.86910    0.46490    1.000
    C45      C        0.41120    0.91600    0.47820    1.000
    H86      H        0.40510    0.88170    0.51500    1.000
    H87      H        0.37090    0.90860    0.43980    1.000
    H88      H        0.42020    0.98640    0.48840    1.000
    C46      C        0.97400    0.58000    0.56400    1.000
    C47      C        0.46600    0.59600    0.48400    1.000
    H89      H        0.42980    0.60630    0.44220    1.000
    H90      H        0.47360    0.66080    0.50780    1.000
    C48      C        0.57500    0.52500    0.52910    1.000
    H91      H        0.59300    0.57680    0.56300    1.000
    H92      H        0.61170    0.50170    0.51580    1.000
    C49      C        0.49700    0.47200    0.42740    1.000
    H93      H        0.46530    0.49380    0.38500    1.000
    H94      H        0.53550    0.44100    0.41960    1.000
    C50      C        0.53600    0.60800    0.54300    1.000
    H95      H        0.51610    0.67420    0.54240    1.000
    H96      H        0.58430    0.61180    0.56820    1.000
    C51      C        0.55640    0.48200    0.47600    1.000
    H97      H        0.60480    0.49310    0.49640    1.000
    H98      H        0.54730    0.45650    0.43150    1.000
    C52      C        0.45180    0.56500    0.44140    1.000
    H99      H        0.44020    0.55550    0.39420    1.000
    H100     H        0.43140    0.62810    0.44850    1.000
    Ag5      Ag       0.07061    0.79883    0.92965    1.000
    N17      N        0.02350    0.93010    0.97320    1.000
    C53      C        0.21730    0.76850    0.93120    1.000
    H101     H        0.19740    0.72740    0.89180    1.000
    H102     H        0.21280    0.83960    0.91810    1.000
    C54      C        0.51500    0.02300    0.07900    1.000
    H103     H        0.49510    0.06990    0.10030    1.000
    H104     H        0.56100    0.00920    0.10670    1.000
    H105     H        0.51480    0.05180    0.03780    1.000
    Ag6      Ag       0.42156    0.67570    0.07738    1.000
    N18      N        0.52490    0.69500    0.31630    1.000
    N19      N        0.18200    0.75020    0.97670    1.000
    N20      N        0.30690    0.70360    0.02960    1.000
    C55      C        0.56480    0.74500    0.28430    1.000
    H106     H        0.60850    0.71150    0.29690    1.000
    H107     H        0.57250    0.81480    0.29960    1.000
    N21      N        0.47160    0.68600    0.18960    1.000
    C56      C        0.45900    0.73100    0.29500    1.000
    H108     H        0.45890    0.80090    0.31020    1.000
    H109     H        0.43220    0.69030    0.31370    1.000
    N22      N        0.47390    0.56500    0.02680    1.000
    C57      C        0.29080    0.74200    0.96360    1.000
    H110     H        0.31780    0.80250    0.96510    1.000
    H111     H        0.30280    0.69140    0.93710    1.000
    N23      N        0.45600    0.83300    0.04380    1.000
    C58      C        0.26430    0.61670    0.02740    1.000
    H112     H        0.27610    0.56180    0.00340    1.000
    H113     H        0.27230    0.59330    0.07200    1.000
    N24      N        0.01020    0.66750    0.95600    1.000
    C59      C        0.19190    0.64240    0.99460    1.000
    H114     H        0.16790    0.62610    0.02410    1.000
    H115     H        0.17290    0.60130    0.95510    1.000
    C60      C        0.21460    0.80960    0.03560    1.000
    H116     H        0.20910    0.88140    0.02440    1.000
    H117     H        0.19270    0.79630    0.06730    1.000
    C61      C        0.28790    0.78570    0.06630    1.000
    H118     H        0.29810    0.76490    0.11180    1.000
    H119     H        0.31420    0.84630    0.06640    1.000
    C62      C        0.48400    0.58700    0.21850    1.000
    H120     H        0.44150    0.55070    0.20720    1.000
    H121     H        0.51260    0.54940    0.19980    1.000
    C63      C        0.51800    0.59000    0.29260    1.000
    H122     H        0.56210    0.55820    0.30530    1.000
    H123     H        0.49100    0.55140    0.31280    1.000
    C64      C        0.53190    0.74400    0.20880    1.000
    H124     H        0.56290    0.71540    0.18970    1.000
    H125     H        0.52160    0.81350    0.19280    1.000
    C65      C        0.42730    0.72800    0.21880    1.000
    H126     H        0.41540    0.79710    0.20220    1.000
    H127     H        0.38610    0.68850    0.20580    1.000
    C66      C        0.53800    0.55300    0.05850    1.000
    H128     H        0.56100    0.61720    0.05900    1.000
    H129     H        0.54530    0.53470    0.10390    1.000
    C67      C        0.47100    0.45000    0.06280    1.000
    H130     H        0.42490    0.42920    0.05450    1.000
    H131     H        0.49530    0.45260    0.11010    1.000
    C68      C        0.50700    0.37200    0.02900    1.000
    H132     H        0.54790    0.34450    0.06170    1.000
    H133     H        0.47710    0.31610    0.00870    1.000
    C69      C        0.56760    0.47300    0.02830    1.000
    H134     H        0.58430    0.41850    0.06000    1.000
    H135     H        0.60610    0.50210    0.02010    1.000
    C70      C        0.96900    0.63090    0.96490    1.000
    C71      C        0.91120    0.58400    0.97820    1.000
    H136     H        0.90510    0.61830    0.01500    1.000
    H137     H        0.87090    0.59140    0.93980    1.000
    H138     H        0.92020    0.51360    0.98840    1.000
    C72      C        0.47400    0.92000    0.06400    1.000
    C73      C        0.96600    0.90400    0.98400    1.000
    H139     H        0.92980    0.89370    0.94220    1.000
    H140     H        0.97360    0.83920    0.00780    1.000
    C74      C        0.07500    0.97500    0.02910    1.000
    H141     H        0.09300    0.92320    0.06300    1.000
    H142     H        0.11170    0.99830    0.01580    1.000
    C75      C        0.99700    0.02800    0.92740    1.000
    H143     H        0.96530    0.00620    0.88500    1.000
    H144     H        0.03550    0.05900    0.91960    1.000
    C76      C        0.03600    0.89200    0.04300    1.000
    H145     H        0.01610    0.82580    0.04240    1.000
    H146     H        0.08430    0.88820    0.06820    1.000
    C77      C        0.05640    0.01800    0.97600    1.000
    H147     H        0.10480    0.00690    0.99640    1.000
    H148     H        0.04730    0.04350    0.93150    1.000
    C78      C        0.95180    0.93500    0.94140    1.000
    H149     H        0.94020    0.94450    0.89420    1.000
    H150     H        0.93140    0.87190    0.94850    1.000
    Ag7      Ag       0.42939    0.29883    0.57035    1.000
    N25      N        0.47650    0.43010    0.52680    1.000
    C79      C        0.28270    0.26850    0.56880    1.000
    H151     H        0.30260    0.22740    0.60820    1.000
    H152     H        0.28720    0.33960    0.58190    1.000
    C80      C        0.98500    0.52300    0.42100    1.000
    H153     H        0.00490    0.56990    0.39970    1.000
    H154     H        0.93900    0.50920    0.39330    1.000
    H155     H        0.98520    0.55180    0.46220    1.000
    Ag8      Ag       0.07844    0.17570    0.42262    1.000
    N26      N        0.97510    0.19500    0.18370    1.000
    N27      N        0.31800    0.25020    0.52330    1.000
    N28      N        0.19310    0.20360    0.47040    1.000
    C81      C        0.93520    0.24500    0.21570    1.000
    H156     H        0.89150    0.21150    0.20310    1.000
    H157     H        0.92750    0.31480    0.20040    1.000
    N29      N        0.02840    0.18600    0.31040    1.000
    C82      C        0.04100    0.23100    0.20500    1.000
    H158     H        0.04110    0.30090    0.18980    1.000
    H159     H        0.06780    0.19030    0.18630    1.000
    N30      N        0.02610    0.06500    0.47320    1.000
    C83      C        0.20920    0.24200    0.53640    1.000
    H160     H        0.18220    0.30250    0.53490    1.000
    H161     H        0.19720    0.19140    0.56290    1.000
    N31      N        0.04400    0.33300    0.45620    1.000
    C84      C        0.23570    0.11670    0.47260    1.000
    H162     H        0.22390    0.06180    0.49660    1.000
    H163     H        0.22770    0.09330    0.42800    1.000
    N32      N        0.48980    0.16750    0.54400    1.000
    C85      C        0.30810    0.14240    0.50540    1.000
    H164     H        0.33210    0.12610    0.47590    1.000
    H165     H        0.32710    0.10130    0.54490    1.000
    C86      C        0.28540    0.30960    0.46440    1.000
    H166     H        0.29090    0.38140    0.47560    1.000
    H167     H        0.30730    0.29630    0.43270    1.000
    C87      C        0.21210    0.28570    0.43370    1.000
    H168     H        0.20190    0.26490    0.38820    1.000
    H169     H        0.18580    0.34630    0.43360    1.000
    C88      C        0.01600    0.08700    0.28150    1.000
    H170     H        0.05850    0.05070    0.29280    1.000
    H171     H        0.98740    0.04940    0.30020    1.000
    C89      C        0.98200    0.09000    0.20740    1.000
    H172     H        0.93790    0.05820    0.19470    1.000
    H173     H        0.00900    0.05140    0.18720    1.000
    C90      C        0.96810    0.24400    0.29120    1.000
    H174     H        0.93710    0.21540    0.31030    1.000
    H175     H        0.97840    0.31350    0.30720    1.000
    C91      C        0.07270    0.22800    0.28120    1.000
    H176     H        0.08460    0.29710    0.29780    1.000
    H177     H        0.11390    0.18850    0.29420    1.000
    C92      C        0.96200    0.05300    0.44150    1.000
    H178     H        0.93900    0.11720    0.44100    1.000
    H179     H        0.95470    0.03470    0.39610    1.000
    C93      C        0.02900    0.95000    0.43720    1.000
    H180     H        0.07510    0.92920    0.44550    1.000
    H181     H        0.00470    0.95260    0.38990    1.000
    C94      C        0.99300    0.87200    0.47100    1.000
    H182     H        0.95210    0.84450    0.43830    1.000
    H183     H        0.02290    0.81610    0.49130    1.000
    C95      C        0.93240    0.97300    0.47170    1.000
    H184     H        0.91570    0.91850    0.44000    1.000
    H185     H        0.89390    0.00210    0.47990    1.000
    C96      C        0.53100    0.13090    0.53510    1.000
    C97      C        0.58880    0.08400    0.52180    1.000
    H186     H        0.59490    0.11830    0.48500    1.000
    H187     H        0.62910    0.09140    0.56020    1.000
    H188     H        0.57980    0.01360    0.51160    1.000
    C98      C        0.02600    0.42000    0.43600    1.000
    C99      C        0.53400    0.40400    0.51600    1.000
    H189     H        0.57020    0.39370    0.55780    1.000
    H190     H        0.52640    0.33920    0.49220    1.000
    C100     C        0.42500    0.47500    0.47090    1.000
    H191     H        0.40700    0.42320    0.43700    1.000
    H192     H        0.38830    0.49830    0.48420    1.000
    C101     C        0.50300    0.52800    0.57260    1.000
    H193     H        0.53470    0.50620    0.61500    1.000
    H194     H        0.46450    0.55900    0.58040    1.000
    C102     C        0.46400    0.39200    0.45700    1.000
    H195     H        0.48390    0.32580    0.45760    1.000
    H196     H        0.41570    0.38820    0.43180    1.000
    C103     C        0.44360    0.51800    0.52400    1.000
    H197     H        0.39520    0.50690    0.50360    1.000
    H198     H        0.45270    0.54350    0.56850    1.000
    C104     C        0.54820    0.43500    0.55860    1.000
    H199     H        0.55980    0.44450    0.60580    1.000
    H200     H        0.56860    0.37190    0.55150    1.000
