data_functionalizedCrystal
_audit_creation_method	'EQeq! by Chris Wilmer'
_symmetry_space_group_name_H-M	'P1'
_symmetry_Int_Tables_number	1
_symmetry_cell_setting	triclinic
loop_
_symmetry_equiv_pos_as_xyz
  x,y,z
_cell_length_a	20.034
_cell_length_b	20.0338
_cell_length_c	20.0338
_cell_angle_alpha	109.471
_cell_angle_beta	109.471
_cell_angle_gamma	109.471
loop_
_atom_site_label
_atom_site_type_symbol
_atom_site_fract_x
_atom_site_fract_y
_atom_site_fract_z
_atom_site_charge
Mof_Ni	Ni	3.67337e-17	0.5	-0	1.097
Mof_Ni	Ni	0.5	0.5	0.5	1.13
Mof_Ni	Ni	0.5	0	-0	1.097
Mof_Ni	Ni	3.67337e-17	0	0.5	1.097
Mof_H 	H 	0.0805	0.3354	0.9665	0.079
Mof_H 	H 	0.4239	0.7213	0.6146	0.061
Mof_H 	H 	0.0643	0.7301	0.8852	0.043
Mof_H 	H 	0.1907	0.2974	0.5761	0.056
Mof_H 	H 	0.6658	0.9357	0.8209	0.099
Mof_H 	H 	0.6146	0.4239	0.7213	0.062
Mof_H 	H 	0.8852	0.1551	0.8209	0.074
Mof_H 	H 	0.2549	0.3689	0.3354	0.023
Mof_H 	H 	0.8068	0.8983	0.3831	0.045
Mof_H 	H 	0.114	0.0335	0.3689	-0.037
Mof_H 	H 	0.2787	0.7026	0.8933	0.073
Mof_H 	H 	0.1067	0.8093	0.3854	0.07
Mof_H 	H 	0.9665	0.0805	0.3354	0.08
Mof_H 	H 	0.5761	0.1907	0.2974	0.057
Mof_H 	H 	0.1551	0.8209	0.8852	0.074
Mof_H 	H 	0.7301	0.8852	0.0643	0.044
Mof_H 	H 	0.7026	0.4239	0.8093	0.074
Mof_H 	H 	0.8983	0.0915	0.5152	0.047
Mof_H 	H 	0.1907	0.6146	0.8933	0.062
Mof_H 	H 	0.6311	0.6646	0.7451	0.032
Mof_H 	H 	0.8093	0.3854	0.1067	0.07
Mof_H 	H 	0.4848	0.1017	0.9085	0.042
Mof_H 	H 	0.8449	0.1791	0.1148	0.059
Mof_H 	H 	0.8852	0.0643	0.7301	0.044
Mof_H 	H 	0.9085	0.4848	0.1017	0.042
Mof_H 	H 	0.8209	0.6658	0.9357	0.1
Mof_H 	H 	0.0335	0.3689	0.114	-0.037
Mof_H 	H 	0.2787	0.3854	0.5761	0.069
Mof_H 	H 	0.1932	0.5763	0.0915	0.045
Mof_H 	H 	0.6646	0.7451	0.6311	0.032
Mof_H 	H 	0.3854	0.5761	0.2787	0.069
Mof_H 	H 	0.6646	0.0335	0.9195	-0.021
Mof_H 	H 	0.3342	0.0643	0.1791	0.031
Mof_H 	H 	0.7451	0.0805	0.114	0.021
Mof_H 	H 	0.6169	0.1932	0.1017	0.044
Mof_H 	H 	0.1791	0.1148	0.8449	0.059
Mof_H 	H 	0.3689	0.114	0.0335	-0.037
Mof_H 	H 	0.1017	0.9085	0.4848	0.042
Mof_H 	H 	0.6311	0.886	0.9665	0.088
Mof_H 	H 	0.8093	0.7026	0.4239	0.074
Mof_H 	H 	0.5152	0.4237	0.6169	0.045
Mof_H 	H 	0.0805	0.114	0.7451	0.021
Mof_H 	H 	0.6658	0.8449	0.7301	0.07
Mof_H 	H 	0.3354	0.9665	0.0805	0.08
Mof_H 	H 	0.2699	0.1148	0.9357	0.091
Mof_H 	H 	0.2974	0.1067	0.7213	0.057
Mof_H 	H 	0.7026	0.8933	0.2787	0.073
Mof_H 	H 	0.6169	0.5152	0.4237	0.045
Mof_H 	H 	0.9665	0.6311	0.886	0.088
Mof_H 	H 	0.4237	0.9085	0.8068	0.043
Mof_H 	H 	0.0915	0.1932	0.5763	0.045
Mof_H 	H 	0.8933	0.1907	0.6146	0.062
Mof_H 	H 	0.0915	0.5152	0.8983	0.047
Mof_H 	H 	0.3689	0.3354	0.2549	0.023
Mof_H 	H 	0.1932	0.1017	0.6169	0.044
Mof_H 	H 	0.4239	0.8093	0.7026	0.074
Mof_H 	H 	0.886	0.2549	0.9195	0.034
Mof_H 	H 	0.9195	0.886	0.2549	0.034
Mof_H 	H 	0.8449	0.7301	0.6658	0.07
Mof_H 	H 	0.7213	0.2974	0.1067	0.057
Mof_H 	H 	0.2974	0.5761	0.1907	0.057
Mof_H 	H 	0.8068	0.4237	0.9085	0.043
Mof_H 	H 	0.3342	0.1551	0.2699	0.063
Mof_H 	H 	0.1148	0.9357	0.2699	0.091
Mof_H 	H 	0.2699	0.3342	0.1551	0.063
Mof_H 	H 	0.9357	0.2699	0.1148	0.091
Mof_H 	H 	0.9357	0.8209	0.6658	0.1
Mof_H 	H 	0.4848	0.5763	0.3831	0.043
Mof_H 	H 	0.1791	0.3342	0.0643	0.031
Mof_H 	H 	0.3831	0.4848	0.5763	0.043
Mof_H 	H 	0.3854	0.1067	0.8093	0.07
Mof_H 	H 	0.7451	0.6311	0.6646	0.032
Mof_H 	H 	0.3831	0.8068	0.8983	0.045
Mof_H 	H 	0.5152	0.8983	0.0915	0.047
Mof_H 	H 	0.7213	0.6146	0.4239	0.062
Mof_H 	H 	0.9195	0.6646	0.0335	-0.021
Mof_H 	H 	0.8983	0.3831	0.8068	0.045
Mof_H 	H 	0.8209	0.8852	0.1551	0.074
Mof_H 	H 	0.1551	0.2699	0.3342	0.063
Mof_H 	H 	0.8933	0.2787	0.7026	0.073
Mof_H 	H 	0.9085	0.8068	0.4237	0.043
Mof_H 	H 	0.1067	0.7213	0.2974	0.057
Mof_H 	H 	0.0335	0.9195	0.6646	-0.021
Mof_H 	H 	0.5763	0.0915	0.1932	0.045
Mof_H 	H 	0.5761	0.2787	0.3854	0.069
Mof_H 	H 	0.5763	0.3831	0.4848	0.043
Mof_H 	H 	0.7301	0.6658	0.8449	0.07
Mof_H 	H 	0.4237	0.6169	0.5152	0.045
Mof_H 	H 	0.6146	0.8933	0.1907	0.062
Mof_H 	H 	0.3354	0.2549	0.3689	0.023
Mof_H 	H 	0.886	0.9665	0.6311	0.088
Mof_H 	H 	0.1148	0.8449	0.1791	0.059
Mof_H 	H 	0.2549	0.9195	0.886	0.034
Mof_H 	H 	0.1017	0.6169	0.1932	0.044
Mof_H 	H 	0.0643	0.1791	0.3342	0.031
Mof_H 	H 	0.114	0.7451	0.0805	0.021
Mof_C 	C 	0.5455	0.8612	0.7493	0.079
Mof_C 	C 	0.9865	0.3705	0.1096	0.16
Mof_C 	C 	0.1119	0.8612	0.3157	0.075
Mof_C 	C 	0.2609	0.8769	0.8904	0.074
Mof_C 	C 	0.8928	0.1458	0.6192	-0.068
Mof_C 	C 	0.2038	0.7493	0.8881	0.063
Mof_C 	C 	0.2507	0.1119	0.7962	0.025
Mof_C 	C 	0.103	0.6628	0.1906	0.018
Mof_C 	C 	0.8163	0.8875	0.2004	-0.121
Mof_C 	C 	0.103	0.9124	0.4402	0.042
Mof_C 	C 	0.1096	0.7391	0.1231	0.048
Mof_C 	C 	0.8769	0.616	0.9865	0.162
Mof_C 	C 	0.7264	0.6192	0.4734	-0.08
Mof_C 	C 	0.3841	0.0712	0.1837	-0.051
Mof_C 	C 	0.2736	0.747	0.8928	-0.098
Mof_C 	C 	0.1906	0.5278	0.0876	0.01
Mof_C 	C 	0.897	0.0876	0.5598	0.021
Mof_C 	C 	0.1388	0.2507	0.4545	0.009
Mof_C 	C 	0.1231	0.384	0.0135	-0.047
Mof_C 	C 	0.7493	0.8881	0.2038	0.063
Mof_C 	C 	0.0712	0.6871	0.8875	-0.053
Mof_C 	C 	0.1072	0.7264	0.253	-0.081
Mof_C 	C 	0.1231	0.1096	0.7391	0.048
Mof_C 	C 	0.6159	0.7996	0.6871	-0.102
Mof_C 	C 	0.3808	0.1072	0.8542	-0.113
Mof_C 	C 	0.4722	0.9124	0.8094	0.05
Mof_C 	C 	0.1906	0.103	0.6628	0.018
Mof_C 	C 	0.7996	0.6871	0.6159	-0.102
Mof_C 	C 	0.5278	0.3372	0.4402	0.033
Mof_C 	C 	0.7493	0.5455	0.8612	0.079
Mof_C 	C 	0.6159	0.9288	0.8163	-0.169
Mof_C 	C 	0.747	0.4734	0.8542	-0.111
Mof_C 	C 	0.7264	0.253	0.1072	-0.081
Mof_C 	C 	0.3808	0.5266	0.2736	-0.099
Mof_C 	C 	0.8875	0.2004	0.8163	-0.121
Mof_C 	C 	0.4722	0.6628	0.5598	0.027
Mof_C 	C 	0.897	0.3372	0.8094	0.043
Mof_C 	C 	0.384	0.0135	0.1231	-0.047
Mof_C 	C 	0.3705	0.1096	0.9865	0.16
Mof_C 	C 	0.2004	0.3129	0.3841	-0.122
Mof_C 	C 	0.1837	0.1125	0.7996	-0.102
Mof_C 	C 	0.5266	0.2736	0.3808	-0.099
Mof_C 	C 	0.9865	0.8769	0.616	0.162
Mof_C 	C 	0.8163	0.6159	0.9288	-0.169
Mof_C 	C 	0.3372	0.8094	0.897	0.043
Mof_C 	C 	0.3841	0.2004	0.3129	-0.122
Mof_C 	C 	0.4545	0.2038	0.3157	0.057
Mof_C 	C 	0.5598	0.897	0.0876	0.021
Mof_C 	C 	0.6628	0.1906	0.103	0.018
Mof_C 	C 	0.8875	0.0712	0.6871	-0.053
Mof_C 	C 	0.1119	0.7962	0.2507	0.025
Mof_C 	C 	0.4545	0.1388	0.2507	0.009
Mof_C 	C 	0.5266	0.1458	0.253	-0.068
Mof_C 	C 	0.8904	0.0135	0.6295	-0.03
Mof_C 	C 	0.5598	0.4722	0.6628	0.027
Mof_C 	C 	0.747	0.8928	0.2736	-0.098
Mof_C 	C 	0.8881	0.2038	0.7493	0.063
Mof_C 	C 	0.2736	0.3808	0.5266	-0.099
Mof_C 	C 	0.9288	0.8163	0.6159	-0.169
Mof_C 	C 	0.1125	0.9288	0.3129	-0.175
Mof_C 	C 	0.8612	0.7493	0.5455	0.079
Mof_C 	C 	0.3157	0.1119	0.8612	0.075
Mof_C 	C 	0.1072	0.8542	0.3808	-0.113
Mof_C 	C 	0.384	0.2609	0.3705	0.063
Mof_C 	C 	0.4402	0.5278	0.3372	0.033
Mof_C 	C 	0.6295	0.616	0.7391	0.059
Mof_C 	C 	0.7962	0.2507	0.1119	0.025
Mof_C 	C 	0.6192	0.8928	0.1458	-0.068
Mof_C 	C 	0.6628	0.5598	0.4722	0.027
Mof_C 	C 	0.8542	0.747	0.4734	-0.111
Mof_C 	C 	0.253	0.1072	0.7264	-0.081
Mof_C 	C 	0.6871	0.8875	0.0712	-0.053
Mof_C 	C 	0.8094	0.4722	0.9124	0.05
Mof_C 	C 	0.3129	0.3841	0.2004	-0.122
Mof_C 	C 	0.2609	0.3705	0.384	0.063
Mof_C 	C 	0.1096	0.9865	0.3705	0.16
Mof_C 	C 	0.3372	0.4402	0.5278	0.033
Mof_C 	C 	0.1458	0.6192	0.8928	-0.068
Mof_C 	C 	0.6192	0.4734	0.7264	-0.08
Mof_C 	C 	0.8542	0.3808	0.1072	-0.113
Mof_C 	C 	0.8769	0.8904	0.2609	0.074
Mof_C 	C 	0.5278	0.0876	0.1906	0.01
Mof_C 	C 	0.2507	0.4545	0.1388	0.009
Mof_C 	C 	0.1837	0.3841	0.0712	-0.051
Mof_C 	C 	0.0135	0.1231	0.384	-0.047
Mof_C 	C 	0.616	0.9865	0.8769	0.162
Mof_C 	C 	0.1125	0.7996	0.1837	-0.102
Mof_C 	C 	0.3129	0.1125	0.9288	-0.175
Mof_C 	C 	0.0876	0.5598	0.897	0.021
Mof_C 	C 	0.9288	0.3129	0.1125	-0.175
Mof_C 	C 	0.253	0.5266	0.1458	-0.068
Mof_C 	C 	0.7391	0.6295	0.616	0.059
Mof_C 	C 	0.2004	0.8163	0.8875	-0.121
Mof_C 	C 	0.9124	0.4402	0.103	0.042
Mof_C 	C 	0.3705	0.384	0.2609	0.063
Mof_C 	C 	0.8094	0.897	0.3372	0.043
Mof_C 	C 	0.5455	0.7962	0.6843	0.033
Mof_C 	C 	0.6843	0.5455	0.7962	0.033
Mof_C 	C 	0.0135	0.6295	0.8904	-0.03
Mof_C 	C 	0.616	0.7391	0.6295	0.059
Mof_C 	C 	0.6843	0.8881	0.1388	0.017
Mof_C 	C 	0.4734	0.8542	0.747	-0.111
Mof_C 	C 	0.8904	0.2609	0.8769	0.074
Mof_C 	C 	0.0712	0.1837	0.3841	-0.051
Mof_C 	C 	0.8612	0.3157	0.1119	0.075
Mof_C 	C 	0.7962	0.6843	0.5455	0.033
Mof_C 	C 	0.0876	0.1906	0.5278	0.01
Mof_C 	C 	0.6871	0.6159	0.7996	-0.102
Mof_C 	C 	0.7996	0.1837	0.1125	-0.102
Mof_C 	C 	0.3157	0.4545	0.2038	0.057
Mof_C 	C 	0.4402	0.103	0.9124	0.042
Mof_C 	C 	0.2038	0.3157	0.4545	0.057
Mof_C 	C 	0.4734	0.7264	0.6192	-0.08
Mof_C 	C 	0.7391	0.1231	0.1096	0.048
Mof_C 	C 	0.1458	0.253	0.5266	-0.068
Mof_C 	C 	0.8928	0.2736	0.747	-0.098
Mof_C 	C 	0.8881	0.1388	0.6843	0.017
Mof_C 	C 	0.1388	0.6843	0.8881	0.017
Mof_C 	C 	0.6295	0.8904	0.0135	-0.03
Mof_C 	C 	0.9124	0.8094	0.4722	0.05
Mof_N 	N 	0.1265	0.1009	0.6728	-0.068
Mof_N 	N 	0.4281	0.1009	0.9744	-0.075
Mof_N 	N 	0.9744	0.4281	0.1009	-0.075
Mof_N 	N 	0.6728	0.1265	0.1009	-0.068
Mof_N 	N 	0.8991	0.3272	0.8735	-0.071
Mof_N 	N 	0.5463	0.9744	0.8735	-0.074
Mof_N 	N 	0.3272	0.4281	0.4537	-0.071
Mof_N 	N 	0.4281	0.4537	0.3272	-0.071
Mof_N 	N 	0.8991	0.0256	0.5719	-0.065
Mof_N 	N 	0.6728	0.5719	0.5463	-0.067
Mof_N 	N 	0.3272	0.8735	0.8991	-0.071
Mof_N 	N 	0.5719	0.5463	0.6728	-0.067
Mof_N 	N 	0.0256	0.5719	0.8991	-0.065
Mof_N 	N 	0.1265	0.4537	0.0256	-0.065
Mof_N 	N 	0.0256	0.1265	0.4537	-0.065
Mof_N 	N 	0.1009	0.6728	0.1265	-0.068
Mof_N 	N 	0.5719	0.8991	0.0256	-0.065
Mof_N 	N 	0.4537	0.0256	0.1265	-0.065
Mof_N 	N 	0.9744	0.8735	0.5463	-0.074
Mof_N 	N 	0.1009	0.9744	0.4281	-0.075
Mof_N 	N 	0.8735	0.8991	0.3272	-0.071
Mof_N 	N 	0.4537	0.3272	0.4281	-0.071
Mof_N 	N 	0.8735	0.5463	0.9744	-0.074
Mof_N 	N 	0.5463	0.6728	0.5719	-0.067
Mof_O 	O 	0.6143	0.0664	0.0991	-0.273
Mof_O 	O 	0.5152	0.9009	0.9673	-0.22
Mof_O 	O 	0.6143	0.5152	0.5479	-0.256
Mof_O 	O 	0.9673	0.0664	0.4521	-0.241
Mof_O 	O 	0.5152	0.5479	0.6143	-0.256
Mof_O 	O 	0.4521	0.9673	0.0664	-0.241
Mof_O 	O 	0.3857	0.9336	0.9009	-0.231
Mof_O 	O 	0.9336	0.9009	0.3857	-0.231
Mof_O 	O 	0.9336	0.5479	0.0327	-0.261
Mof_O 	O 	0.0664	0.4521	0.9673	-0.241
Mof_O 	O 	0.5479	0.6143	0.5152	-0.256
Mof_O 	O 	0.9009	0.3857	0.9336	-0.231
Mof_O 	O 	0.9009	0.9673	0.5152	-0.22
Mof_O 	O 	0.4848	0.0991	0.0327	-0.285
Mof_O 	O 	0.0327	0.4848	0.0991	-0.285
Mof_O 	O 	0.0991	0.0327	0.4848	-0.285
Mof_O 	O 	0.0664	0.0991	0.6143	-0.273
Mof_O 	O 	0.5479	0.0327	0.9336	-0.261
Mof_O 	O 	0.4848	0.4521	0.3857	-0.257
Mof_O 	O 	0.9673	0.5152	0.9009	-0.22
Mof_O 	O 	0.4521	0.3857	0.4848	-0.257
Mof_O 	O 	0.0327	0.9336	0.5479	-0.261
Mof_O 	O 	0.0991	0.6143	0.0664	-0.273
Mof_O 	O 	0.3857	0.4848	0.4521	-0.257
_end
