data_functionalizedCrystal
_audit_creation_method	'EQeq! by Chris Wilmer'
_symmetry_space_group_name_H-M	'P1'
_symmetry_Int_Tables_number	1
_symmetry_cell_setting	triclinic
loop_
_symmetry_equiv_pos_as_xyz
  x,y,z
_cell_length_a	17.2821
_cell_length_b	17.2821
_cell_length_c	17.5985
_cell_angle_alpha	117.126
_cell_angle_beta	117.127
_cell_angle_gamma	94.0941
loop_
_atom_site_label
_atom_site_type_symbol
_atom_site_fract_x
_atom_site_fract_y
_atom_site_fract_z
_atom_site_charge
Mof_Zn	Zn	0.22276	0.73484	0.05538	1.233
Mof_Zn	Zn	0.67946	0.16738	0.94462	1.239
Mof_Zn	Zn	0.91738	0.92946	0.44462	1.225
Mof_Zn	Zn	0.48484	0.47276	0.55538	1.237
Mof_Co	Co	0.72296	0.78116	0.48846	1.185
Mof_Co	Co	0.10688	0.48642	0.88512	1.179
Mof_Co	Co	0.2927	0.2345	0.51154	1.187
Mof_Co	Co	0.6013	0.22176	0.11488	1.171
Mof_Co	Co	0.9845	0.5427	0.01154	1.169
Mof_Co	Co	0.97176	0.8513	0.61488	1.16
Mof_Co	Co	0.53116	0.97296	0.98846	1.178
Mof_Co	Co	0.23642	0.35688	0.38512	1.174
Mof_P 	P 	0.1961	0.59766	0.12154	0.427
Mof_P 	P 	0.388	0.26256	0.40582	0.445
Mof_P 	P 	0.47612	0.07456	0.87846	0.465
Mof_P 	P 	0.85674	0.98218	0.59418	0.393
Mof_P 	P 	0.82456	0.72612	0.37846	0.428
Mof_P 	P 	0.73218	0.10674	0.09418	0.426
Mof_P 	P 	0.34766	0.4461	0.62154	0.428
Mof_P 	P 	0.01256	0.638	0.90582	0.498
Mof_H 	H 	0.3887	0.6821	0.248	0.052
Mof_H 	H 	0.48	0.6018	0.442	0.056
Mof_H 	H 	0.2083	0.5113	0.2334	0.056
Mof_H 	H 	0.3218	0.0646	0.2988	0.057
Mof_H 	H 	0.4242	0.9758	0.1222	-0.006
Mof_H 	H 	0.4813	0.2481	0.2998	0.04
Mof_H 	H 	0.4341	0.1407	0.752	0.035
Mof_H 	H 	0.1598	0.038	0.558	0.035
Mof_H 	H 	0.2779	0.9749	0.7666	-0.021
Mof_H 	H 	0.7658	0.023	0.7012	0.067
Mof_H 	H 	0.8536	0.302	0.8778	0.055
Mof_H 	H 	0.9483	0.1815	0.7002	0.05
Mof_H 	H 	0.8907	0.6841	0.252	0.045
Mof_H 	H 	0.788	0.4098	0.058	0.051
Mof_H 	H 	0.7249	0.5279	0.2666	0.048
Mof_H 	H 	0.773	0.0158	0.2012	0.093
Mof_H 	H 	0.052	0.1036	0.3778	0.163
Mof_H 	H 	0.9315	0.1983	0.2002	0.085
Mof_H 	H 	0.4321	0.6387	0.748	0.054
Mof_H 	H 	0.3518	0.73	0.942	0.06
Mof_H 	H 	0.2613	0.4583	0.7334	0.055
Mof_H 	H 	0.8146	0.5718	0.7988	0.039
Mof_H 	H 	0.7258	0.6742	0.6222	0.039
Mof_H 	H 	0.9981	0.7313	0.7998	0.023
Mof_C 	C 	0.2853	0.5987	0.2284	-0.056
Mof_C 	C 	0.3761	0.6489	0.2728	0.013
Mof_C 	C 	0.4489	0.6513	0.3534	-0.067
Mof_C 	C 	0.5498	0.711	0.3996	0.312
Mof_C 	C 	0.4313	0.6007	0.388	0.027
Mof_C 	C 	0.3401	0.5475	0.3428	-0.098
Mof_C 	C 	0.3244	0.4892	0.382	0.389
Mof_C 	C 	0.269	0.5472	0.2638	0.032
Mof_C 	C 	0.4013	0.1707	0.3148	-0.073
Mof_C 	C 	0.3573	0.0779	0.2766	0.04
Mof_C 	C 	0.3673	0.0057	0.2054	-0.093
Mof_C 	C 	0.3151	0.9109	0.1644	0.315
Mof_C 	C 	0.4183	0.0245	0.1698	0.133
Mof_C 	C 	0.4605	0.1153	0.2048	-0.154
Mof_C 	C 	0.5137	0.1331	0.1626	0.435
Mof_C 	C 	0.4524	0.1872	0.2762	0.066
Mof_C 	C 	0.3703	0.0569	0.7716	-0.127
Mof_C 	C 	0.3761	0.1033	0.7272	0.081
Mof_C 	C 	0.2979	0.0955	0.6466	-0.123
Mof_C 	C 	0.3114	0.1502	0.6004	0.334
Mof_C 	C 	0.2127	0.0433	0.612	0.142
Mof_C 	C 	0.2047	0.9973	0.6572	-0.235
Mof_C 	C 	0.1072	0.9424	0.618	0.428
Mof_C 	C 	0.2834	0.0052	0.7362	0.205
Mof_C 	C 	0.8559	0.0865	0.6852	-0.029
Mof_C 	C 	0.8013	0.0807	0.7234	0.013
Mof_C 	C 	0.8003	0.1619	0.7946	-0.084
Mof_C 	C 	0.7465	0.1507	0.8356	0.333
Mof_C 	C 	0.8547	0.2485	0.8302	0.038
Mof_C 	C 	0.9105	0.2557	0.7952	-0.102
Mof_C 	C 	0.9705	0.3511	0.8374	0.366
Mof_C 	C 	0.911	0.1762	0.7238	0.02
Mof_C 	C 	0.8069	0.6203	0.2716	-0.066
Mof_C 	C 	0.8533	0.6261	0.2272	0.019
Mof_C 	C 	0.8455	0.5479	0.1466	-0.077
Mof_C 	C 	0.9002	0.5614	0.1004	0.314
Mof_C 	C 	0.7933	0.4627	0.112	0.033
Mof_C 	C 	0.7473	0.4547	0.1572	-0.108
Mof_C 	C 	0.6924	0.3572	0.118	0.391
Mof_C 	C 	0.7552	0.5334	0.2362	0.037
Mof_C 	C 	0.8365	0.1059	0.1852	0.011
Mof_C 	C 	0.8307	0.0513	0.2234	-0.071
Mof_C 	C 	0.9119	0.0503	0.2946	0.055
Mof_C 	C 	0.9007	0.9965	0.3356	0.248
Mof_C 	C 	0.9985	0.1047	0.3302	-0.193
Mof_C 	C 	0.0057	0.1605	0.2952	0.073
Mof_C 	C 	0.1011	0.2205	0.3374	0.36
Mof_C 	C 	0.9262	0.161	0.2238	-0.106
Mof_C 	C 	0.3487	0.5353	0.7284	-0.054
Mof_C 	C 	0.3989	0.6261	0.7728	0.014
Mof_C 	C 	0.4013	0.6989	0.8534	-0.063
Mof_C 	C 	0.461	0.7998	0.8996	0.313
Mof_C 	C 	0.3507	0.6813	0.888	0.027
Mof_C 	C 	0.2975	0.5901	0.8428	-0.095
Mof_C 	C 	0.2392	0.5744	0.882	0.389
Mof_C 	C 	0.2972	0.519	0.7638	0.033
Mof_C 	C 	0.9207	0.6513	0.8148	-0.115
Mof_C 	C 	0.8279	0.6073	0.7766	0.057
Mof_C 	C 	0.7557	0.6173	0.7054	-0.12
Mof_C 	C 	0.6609	0.5651	0.6644	0.346
Mof_C 	C 	0.7745	0.6683	0.6698	0.074
Mof_C 	C 	0.8653	0.7105	0.7048	-0.15
Mof_C 	C 	0.8831	0.7637	0.6626	0.43
Mof_C 	C 	0.9372	0.7024	0.7762	0.072
Mof_O 	O 	0.1093	0.5815	0.1238	-0.396
Mof_O 	O 	0.1847	0.5195	0.0248	-0.443
Mof_O 	O 	0.2292	0.693	0.1404	-0.446
Mof_O 	O 	0.5641	0.7581	0.3692	-0.323
Mof_O 	O 	0.614	0.7092	0.4712	-0.397
Mof_O 	O 	0.3909	0.4985	0.4586	-0.5
Mof_O 	O 	0.2404	0.4362	0.333	-0.423
Mof_O 	O 	0.3028	0.277	0.3432	-0.444
Mof_O 	O 	0.3747	0.2279	0.4652	-0.43
Mof_O 	O 	0.4763	0.3473	0.4732	-0.431
Mof_O 	O 	0.2682	0.8958	0.1946	-0.329
Mof_O 	O 	0.3161	0.8433	0.094	-0.415
Mof_O 	O 	0.5249	0.0675	0.1054	-0.487
Mof_O 	O 	0.5456	0.2148	0.1898	-0.445
Mof_O 	O 	0.4577	0.9855	0.8762	-0.438
Mof_O 	O 	0.4947	0.1599	0.9752	-0.438
Mof_O 	O 	0.5526	0.0888	0.8596	-0.44
Mof_O 	O 	0.3889	0.1949	0.6308	-0.318
Mof_O 	O 	0.238	0.1428	0.5288	-0.393
Mof_O 	O 	0.0399	0.9323	0.5414	-0.491
Mof_O 	O 	0.1032	0.9074	0.667	-0.42
Mof_O 	O 	0.9338	0.9596	0.6568	-0.462
Mof_O 	O 	0.7627	0.9095	0.5348	-0.438
Mof_O 	O 	0.8741	0.0031	0.5268	-0.397
Mof_O 	O 	0.7012	0.0736	0.8054	-0.315
Mof_O 	O 	0.7493	0.2221	0.906	-0.406
Mof_O 	O 	0.9621	0.4195	0.8946	-0.487
Mof_O 	O 	0.025	0.3558	0.8102	-0.394
Mof_O 	O 	0.7355	0.7077	0.3762	-0.417
Mof_O 	O 	0.9099	0.7447	0.4752	-0.455
Mof_O 	O 	0.8388	0.8026	0.3596	-0.455
Mof_O 	O 	0.9449	0.6389	0.1308	-0.335
Mof_O 	O 	0.8928	0.488	0.0288	-0.406
Mof_O 	O 	0.6823	0.2899	0.0414	-0.506
Mof_O 	O 	0.6574	0.3532	0.167	-0.431
Mof_O 	O 	0.7096	0.1838	0.1568	-0.447
Mof_O 	O 	0.6595	0.0127	0.0348	-0.421
Mof_O 	O 	0.7531	0.1241	0.0268	-0.434
Mof_O 	O 	0.8236	0.9512	0.3054	-0.323
Mof_O 	O 	0.9721	0.9993	0.406	-0.428
Mof_O 	O 	0.1695	0.2121	0.3946	-0.472
Mof_O 	O 	0.1058	0.275	0.3102	-0.414
Mof_O 	O 	0.3315	0.3593	0.6238	-0.413
Mof_O 	O 	0.2695	0.4347	0.5248	-0.44
Mof_O 	O 	0.443	0.4792	0.6404	-0.444
Mof_O 	O 	0.5081	0.8141	0.8692	-0.321
Mof_O 	O 	0.4592	0.864	0.9712	-0.394
Mof_O 	O 	0.2485	0.6409	0.9586	-0.494
Mof_O 	O 	0.1862	0.4904	0.833	-0.422
Mof_O 	O 	0.027	0.5528	0.8432	-0.436
Mof_O 	O 	0.9779	0.6247	0.9652	-0.461
Mof_O 	O 	0.0973	0.7263	0.9732	-0.421
Mof_O 	O 	0.6458	0.5182	0.6946	-0.327
Mof_O 	O 	0.5933	0.5661	0.594	-0.415
Mof_O 	O 	0.8175	0.7749	0.6054	-0.501
Mof_O 	O 	0.9648	0.7956	0.6898	-0.458
_end
