data_functionalizedCrystal
_audit_creation_method	'EQeq! by Chris Wilmer'
_symmetry_space_group_name_H-M	'P1'
_symmetry_Int_Tables_number	1
_symmetry_cell_setting	triclinic
loop_
_symmetry_equiv_pos_as_xyz
  x,y,z
_cell_length_a	13.51
_cell_length_b	27.37
_cell_length_c	27.991
_cell_angle_alpha	90
_cell_angle_beta	90
_cell_angle_gamma	90
loop_
_atom_site_label
_atom_site_type_symbol
_atom_site_fract_x
_atom_site_fract_y
_atom_site_fract_z
_atom_site_charge
Mof_Zn	Zn	0.38402	0.5037	0.04142	1.209
Mof_Zn	Zn	0.59191	0.4638	0.97295	1.21
Mof_Zn	Zn	0.26001	0.687	0.7448	1.21
Mof_Zn	Zn	0.06382	0.76478	0.78483	1.208
Mof_Zn	Zn	0.11598	0.4963	0.54142	1.209
Mof_Zn	Zn	0.90809	0.5362	0.47295	1.209
Mof_Zn	Zn	0.23999	0.313	0.2448	1.21
Mof_Zn	Zn	0.43618	0.23522	0.28483	1.208
Mof_Zn	Zn	0.61598	0.0037	0.45858	1.209
Mof_Zn	Zn	0.40809	0.9638	0.52705	1.21
Mof_Zn	Zn	0.73999	0.187	0.7552	1.211
Mof_Zn	Zn	0.93618	0.26478	0.71517	1.209
Mof_Zn	Zn	0.88402	0.9963	0.95858	1.21
Mof_Zn	Zn	0.09191	0.0362	0.02705	1.21
Mof_Zn	Zn	0.76001	0.813	0.2552	1.211
Mof_Zn	Zn	0.56382	0.73522	0.21517	1.209
Mof_H 	H 	0.023	0.681	0.907	0.023
Mof_H 	H 	0.2804	0.6117	0.879	0.028
Mof_H 	H 	0.1316	0.589	0.0026	0.03
Mof_H 	H 	0.6911	0.3743	0.0754	0.019
Mof_H 	H 	0.4337	0.3897	0.1455	0.014
Mof_H 	H 	0.6276	0.2828	0.1796	0.02
Mof_H 	H 	0.7459	0.5847	0.9902	0.022
Mof_H 	H 	0.5692	0.6221	0.1001	0.025
Mof_H 	H 	0.84	0.6836	0.0842	0.037
Mof_H 	H 	0.5056	0.2068	0.8511	0.024
Mof_H 	H 	0.6484	0.3298	0.8927	0.032
Mof_H 	H 	0.3719	0.2987	0.9378	0.031
Mof_H 	H 	0.477	0.319	0.407	0.023
Mof_H 	H 	0.2196	0.3883	0.379	0.028
Mof_H 	H 	0.3684	0.411	0.5026	0.03
Mof_H 	H 	0.8089	0.6257	0.5754	0.018
Mof_H 	H 	0.0663	0.6103	0.6455	0.013
Mof_H 	H 	0.8724	0.7172	0.6796	0.02
Mof_H 	H 	0.7541	0.4153	0.4902	0.023
Mof_H 	H 	0.9308	0.3779	0.6001	0.024
Mof_H 	H 	0.66	0.3164	0.5842	0.037
Mof_H 	H 	0.9944	0.7932	0.3511	0.024
Mof_H 	H 	0.8516	0.6702	0.3927	0.032
Mof_H 	H 	0.1281	0.7013	0.4378	0.031
Mof_H 	H 	0.977	0.181	0.593	0.023
Mof_H 	H 	0.7196	0.1117	0.621	0.028
Mof_H 	H 	0.8684	0.089	0.4974	0.03
Mof_H 	H 	0.3089	0.8743	0.4246	0.019
Mof_H 	H 	0.5663	0.8897	0.3545	0.014
Mof_H 	H 	0.3724	0.7828	0.3204	0.02
Mof_H 	H 	0.2541	0.0847	0.5098	0.023
Mof_H 	H 	0.4308	0.1221	0.3999	0.025
Mof_H 	H 	0.16	0.1836	0.4158	0.037
Mof_H 	H 	0.4944	0.7068	0.6489	0.024
Mof_H 	H 	0.3516	0.8298	0.6073	0.032
Mof_H 	H 	0.6281	0.7987	0.5622	0.031
Mof_H 	H 	0.523	0.819	0.093	0.023
Mof_H 	H 	0.7804	0.8883	0.121	0.028
Mof_H 	H 	0.6316	0.911	0.9974	0.03
Mof_H 	H 	0.1911	0.1257	0.9246	0.019
Mof_H 	H 	0.9337	0.1103	0.8545	0.014
Mof_H 	H 	0.1276	0.2172	0.8204	0.02
Mof_H 	H 	0.2459	0.9153	0.0098	0.023
Mof_H 	H 	0.0692	0.8779	0.8999	0.025
Mof_H 	H 	0.34	0.8164	0.9158	0.037
Mof_H 	H 	0.0056	0.2932	0.1489	0.024
Mof_H 	H 	0.1484	0.1702	0.1073	0.032
Mof_H 	H 	0.8719	0.2013	0.0622	0.031
Mof_Pd	Pd	0.93492	0.63725	0.99568	0.642
Mof_Pd	Pd	0.79978	0.28868	0.11457	0.645
Mof_Pd	Pd	0.56508	0.36275	0.49568	0.643
Mof_Pd	Pd	0.70022	0.71132	0.61457	0.645
Mof_Pd	Pd	0.06508	0.13725	0.50432	0.642
Mof_Pd	Pd	0.20022	0.78868	0.38543	0.646
Mof_Pd	Pd	0.43492	0.86275	0.00432	0.644
Mof_Pd	Pd	0.29978	0.21132	0.88543	0.645
Mof_C 	C 	0.0726	0.6582	0.9161	0.119
Mof_C 	C 	0.1523	0.6512	0.8859	-0.159
Mof_C 	C 	0.226	0.6183	0.8995	0.095
Mof_C 	C 	0.2181	0.5955	0.9435	-0.135
Mof_C 	C 	0.136	0.6043	0.9723	0.096
Mof_C 	C 	0.1566	0.6773	0.8385	0.439
Mof_C 	C 	0.2963	0.5594	0.9613	0.387
Mof_C 	C 	0.6467	0.3635	0.0994	0.127
Mof_C 	C 	0.5564	0.388	0.1059	-0.176
Mof_C 	C 	0.4944	0.3729	0.1404	0.129
Mof_C 	C 	0.5185	0.3329	0.1685	-0.173
Mof_C 	C 	0.6092	0.3099	0.1605	0.12
Mof_C 	C 	0.5312	0.4306	0.0735	0.437
Mof_C 	C 	0.4523	0.3124	0.2069	0.442
Mof_C 	C 	0.735	0.6036	0.0182	0.114
Mof_C 	C 	0.6473	0.5978	0.0426	-0.162
Mof_C 	C 	0.6296	0.6252	0.083	0.096
Mof_C 	C 	0.7028	0.6579	0.0981	-0.133
Mof_C 	C 	0.79	0.662	0.0731	0.095
Mof_C 	C 	0.6907	0.687	0.1437	0.367
Mof_C 	C 	0.5757	0.5593	0.0246	0.441
Mof_C 	C 	0.5069	0.2365	0.8687	0.099
Mof_C 	C 	0.5919	0.266	0.8676	-0.132
Mof_C 	C 	0.5924	0.3088	0.8935	0.085
Mof_C 	C 	0.511	0.3209	0.9208	-0.135
Mof_C 	C 	0.4288	0.2902	0.9197	0.11
Mof_C 	C 	0.6745	0.2533	0.833	0.378
Mof_C 	C 	0.5048	0.3686	0.9474	0.367
Mof_C 	C 	0.4274	0.3418	0.4161	0.119
Mof_C 	C 	0.3477	0.3488	0.3859	-0.159
Mof_C 	C 	0.274	0.3817	0.3995	0.095
Mof_C 	C 	0.2819	0.4045	0.4435	-0.135
Mof_C 	C 	0.364	0.3957	0.4723	0.095
Mof_C 	C 	0.3434	0.3227	0.3385	0.439
Mof_C 	C 	0.2037	0.4406	0.4613	0.387
Mof_C 	C 	0.8533	0.6365	0.5994	0.128
Mof_C 	C 	0.9436	0.612	0.6059	-0.179
Mof_C 	C 	0.0056	0.6271	0.6404	0.133
Mof_C 	C 	0.9815	0.6671	0.6685	-0.177
Mof_C 	C 	0.8908	0.6901	0.6605	0.121
Mof_C 	C 	0.9688	0.5694	0.5735	0.436
Mof_C 	C 	0.0477	0.6876	0.7069	0.444
Mof_C 	C 	0.765	0.3964	0.5182	0.113
Mof_C 	C 	0.8527	0.4022	0.5426	-0.161
Mof_C 	C 	0.8704	0.3748	0.583	0.096
Mof_C 	C 	0.7972	0.3421	0.5981	-0.133
Mof_C 	C 	0.71	0.338	0.5731	0.095
Mof_C 	C 	0.8093	0.313	0.6437	0.367
Mof_C 	C 	0.9243	0.4407	0.5246	0.441
Mof_C 	C 	0.9931	0.7635	0.3687	0.098
Mof_C 	C 	0.9081	0.734	0.3676	-0.132
Mof_C 	C 	0.9076	0.6912	0.3935	0.085
Mof_C 	C 	0.989	0.6791	0.4208	-0.136
Mof_C 	C 	0.0712	0.7098	0.4197	0.111
Mof_C 	C 	0.8255	0.7467	0.333	0.378
Mof_C 	C 	0.9952	0.6314	0.4474	0.366
Mof_C 	C 	0.9274	0.1582	0.5839	0.119
Mof_C 	C 	0.8477	0.1512	0.6141	-0.159
Mof_C 	C 	0.774	0.1183	0.6005	0.095
Mof_C 	C 	0.7819	0.0955	0.5565	-0.135
Mof_C 	C 	0.864	0.1043	0.5277	0.095
Mof_C 	C 	0.8434	0.1773	0.6615	0.439
Mof_C 	C 	0.7037	0.0594	0.5387	0.387
Mof_C 	C 	0.3533	0.8635	0.4006	0.127
Mof_C 	C 	0.4436	0.888	0.3941	-0.176
Mof_C 	C 	0.5056	0.8729	0.3596	0.129
Mof_C 	C 	0.4815	0.8329	0.3315	-0.173
Mof_C 	C 	0.3908	0.8099	0.3395	0.12
Mof_C 	C 	0.4688	0.9306	0.4265	0.437
Mof_C 	C 	0.5477	0.8124	0.2931	0.442
Mof_C 	C 	0.265	0.1036	0.4818	0.113
Mof_C 	C 	0.3527	0.0978	0.4574	-0.161
Mof_C 	C 	0.3704	0.1252	0.417	0.096
Mof_C 	C 	0.2972	0.1579	0.4019	-0.133
Mof_C 	C 	0.21	0.162	0.4269	0.095
Mof_C 	C 	0.3093	0.187	0.3563	0.367
Mof_C 	C 	0.4243	0.0593	0.4754	0.441
Mof_C 	C 	0.4931	0.7365	0.6313	0.099
Mof_C 	C 	0.4081	0.766	0.6324	-0.132
Mof_C 	C 	0.4076	0.8088	0.6065	0.085
Mof_C 	C 	0.489	0.8209	0.5792	-0.135
Mof_C 	C 	0.5712	0.7902	0.5803	0.11
Mof_C 	C 	0.3255	0.7533	0.667	0.378
Mof_C 	C 	0.4952	0.8686	0.5526	0.367
Mof_C 	C 	0.5726	0.8418	0.0839	0.12
Mof_C 	C 	0.6523	0.8488	0.1141	-0.16
Mof_C 	C 	0.726	0.8817	0.1005	0.095
Mof_C 	C 	0.7181	0.9045	0.0565	-0.135
Mof_C 	C 	0.636	0.8957	0.0277	0.096
Mof_C 	C 	0.6566	0.8227	0.1615	0.439
Mof_C 	C 	0.7963	0.9406	0.0387	0.388
Mof_C 	C 	0.1467	0.1365	0.9006	0.127
Mof_C 	C 	0.0564	0.112	0.8941	-0.177
Mof_C 	C 	0.9944	0.1271	0.8596	0.131
Mof_C 	C 	0.0185	0.1671	0.8315	-0.175
Mof_C 	C 	0.1092	0.1901	0.8395	0.121
Mof_C 	C 	0.0312	0.0694	0.9265	0.436
Mof_C 	C 	0.9523	0.1876	0.7931	0.443
Mof_C 	C 	0.235	0.8964	0.9818	0.113
Mof_C 	C 	0.1473	0.9022	0.9574	-0.162
Mof_C 	C 	0.1296	0.8748	0.917	0.097
Mof_C 	C 	0.2028	0.8421	0.9019	-0.133
Mof_C 	C 	0.29	0.838	0.9269	0.095
Mof_C 	C 	0.1907	0.813	0.8563	0.367
Mof_C 	C 	0.0757	0.9407	0.9754	0.443
Mof_C 	C 	0.0069	0.2635	0.1313	0.098
Mof_C 	C 	0.0919	0.234	0.1324	-0.132
Mof_C 	C 	0.0924	0.1912	0.1065	0.085
Mof_C 	C 	0.011	0.1791	0.0792	-0.136
Mof_C 	C 	0.9288	0.2098	0.0803	0.112
Mof_C 	C 	0.1745	0.2467	0.167	0.378
Mof_C 	C 	0.0048	0.1314	0.0526	0.365
Mof_N 	N 	0.0617	0.6345	0.9576	-0.183
Mof_N 	N 	0.8058	0.635	0.0321	-0.18
Mof_N 	N 	0.6709	0.3256	0.126	-0.189
Mof_N 	N 	0.4275	0.2497	0.8944	-0.182
Mof_N 	N 	0.4383	0.3655	0.4576	-0.183
Mof_N 	N 	0.6942	0.365	0.5321	-0.18
Mof_N 	N 	0.8291	0.6744	0.626	-0.19
Mof_N 	N 	0.0725	0.7503	0.3944	-0.182
Mof_N 	N 	0.9383	0.1345	0.5424	-0.183
Mof_N 	N 	0.1942	0.135	0.4679	-0.18
Mof_N 	N 	0.3291	0.8256	0.374	-0.189
Mof_N 	N 	0.5725	0.7497	0.6056	-0.182
Mof_N 	N 	0.5617	0.8655	0.0424	-0.183
Mof_N 	N 	0.3058	0.865	0.9679	-0.18
Mof_N 	N 	0.1709	0.1744	0.874	-0.19
Mof_N 	N 	0.9275	0.2503	0.1056	-0.182
Mof_Cl	Cl	0.84764	0.63218	0.92452	-0.394
Mof_Cl	Cl	0.02173	0.64039	0.06591	-0.391
Mof_Cl	Cl	0.88307	0.3611	0.10584	-0.398
Mof_Cl	Cl	0.7181	0.21626	0.12452	-0.393
Mof_Cl	Cl	0.65236	0.36782	0.42452	-0.394
Mof_Cl	Cl	0.47827	0.35961	0.56591	-0.391
Mof_Cl	Cl	0.61693	0.6389	0.60584	-0.398
Mof_Cl	Cl	0.7819	0.78374	0.62452	-0.394
Mof_Cl	Cl	0.15236	0.13218	0.57548	-0.394
Mof_Cl	Cl	0.97827	0.14039	0.43409	-0.391
Mof_Cl	Cl	0.11693	0.8611	0.39416	-0.397
Mof_Cl	Cl	0.2819	0.71626	0.37548	-0.393
Mof_Cl	Cl	0.34764	0.86782	0.07548	-0.394
Mof_Cl	Cl	0.52173	0.85961	0.93409	-0.391
Mof_Cl	Cl	0.38307	0.1389	0.89416	-0.398
Mof_Cl	Cl	0.2181	0.28374	0.87548	-0.393
Mof_O 	O 	0.0878	0.7071	0.831	-0.459
Mof_O 	O 	0.2252	0.6648	0.81111	-0.486
Mof_O 	O 	0.2938	0.5498	0.0043	-0.451
Mof_O 	O 	0.3543	0.543	0.9309	-0.272
Mof_O 	O 	0.451	0.4509	0.08066	-0.487
Mof_O 	O 	0.5969	0.4421	0.04284	-0.462
Mof_O 	O 	0.3686	0.3327	0.2111	-0.465
Mof_O 	O 	0.4849	0.2769	0.2297	-0.487
Mof_O 	O 	0.6061	0.6878	0.1621	-0.439
Mof_O 	O 	0.7664	0.7082	0.159	-0.264
Mof_O 	O 	0.4979	0.5538	0.047	-0.467
Mof_O 	O 	0.6055	0.5357	0.98883	-0.479
Mof_O 	O 	0.6732	0.211	0.8168	-0.443
Mof_O 	O 	0.7307	0.2874	0.8225	-0.269
Mof_O 	O 	0.4217	0.3794	0.9654	-0.259
Mof_O 	O 	0.5816	0.3938	0.9494	-0.446
Mof_O 	O 	0.4364	0.4722	0.97557	-0.409
Mof_O 	O 	0.2118	0.759	0.7604	-0.415
Mof_O 	O 	0.4122	0.2929	0.331	-0.459
Mof_O 	O 	0.2748	0.3352	0.31111	-0.486
Mof_O 	O 	0.2062	0.4502	0.5043	-0.451
Mof_O 	O 	0.1457	0.457	0.4309	-0.272
Mof_O 	O 	0.049	0.5491	0.58066	-0.487
Mof_O 	O 	0.9031	0.5579	0.54284	-0.462
Mof_O 	O 	0.1314	0.6673	0.7111	-0.465
Mof_O 	O 	0.0151	0.7231	0.7297	-0.487
Mof_O 	O 	0.8939	0.3122	0.6621	-0.439
Mof_O 	O 	0.7336	0.2918	0.659	-0.263
Mof_O 	O 	0.0021	0.4462	0.547	-0.467
Mof_O 	O 	0.8945	0.4643	0.48883	-0.479
Mof_O 	O 	0.8268	0.789	0.3168	-0.443
Mof_O 	O 	0.7693	0.7126	0.3225	-0.269
Mof_O 	O 	0.0783	0.6206	0.4654	-0.258
Mof_O 	O 	0.9184	0.6062	0.4494	-0.446
Mof_O 	O 	0.0636	0.5278	0.47557	-0.408
Mof_O 	O 	0.2882	0.241	0.2604	-0.415
Mof_O 	O 	0.9122	0.2071	0.669	-0.459
Mof_O 	O 	0.7748	0.1648	0.68889	-0.486
Mof_O 	O 	0.7062	0.0498	0.4957	-0.451
Mof_O 	O 	0.6457	0.043	0.5691	-0.271
Mof_O 	O 	0.549	0.9509	0.41934	-0.487
Mof_O 	O 	0.4031	0.9421	0.45716	-0.462
Mof_O 	O 	0.6314	0.8327	0.2889	-0.465
Mof_O 	O 	0.5151	0.7769	0.2703	-0.487
Mof_O 	O 	0.3939	0.1878	0.3379	-0.439
Mof_O 	O 	0.2336	0.2082	0.341	-0.264
Mof_O 	O 	0.5021	0.0538	0.453	-0.467
Mof_O 	O 	0.3945	0.0357	0.51117	-0.479
Mof_O 	O 	0.3268	0.711	0.6832	-0.443
Mof_O 	O 	0.2693	0.7874	0.6775	-0.269
Mof_O 	O 	0.5783	0.8794	0.5346	-0.259
Mof_O 	O 	0.4184	0.8938	0.5506	-0.446
Mof_O 	O 	0.5636	0.9722	0.52443	-0.409
Mof_O 	O 	0.7882	0.259	0.7396	-0.415
Mof_O 	O 	0.5878	0.7929	0.169	-0.459
Mof_O 	O 	0.7252	0.8352	0.18889	-0.486
Mof_O 	O 	0.7938	0.9502	0.9957	-0.451
Mof_O 	O 	0.8543	0.957	0.0691	-0.272
Mof_O 	O 	0.951	0.0491	0.91934	-0.486
Mof_O 	O 	0.0969	0.0579	0.95716	-0.462
Mof_O 	O 	0.8686	0.1673	0.7889	-0.465
Mof_O 	O 	0.9849	0.2231	0.7703	-0.487
Mof_O 	O 	0.1061	0.8122	0.8379	-0.438
Mof_O 	O 	0.2664	0.7918	0.841	-0.263
Mof_O 	O 	0.9979	0.9462	0.953	-0.469
Mof_O 	O 	0.1055	0.9643	0.01117	-0.479
Mof_O 	O 	0.1732	0.289	0.1832	-0.443
Mof_O 	O 	0.2307	0.2126	0.1775	-0.27
Mof_O 	O 	0.9217	0.1206	0.0346	-0.258
Mof_O 	O 	0.0816	0.1062	0.0506	-0.447
Mof_O 	O 	0.9364	0.0278	0.02443	-0.408
Mof_O 	O 	0.7118	0.741	0.2396	-0.415
_end
