data_functionalizedCrystal
_audit_creation_method	'EQeq! by Chris Wilmer'
_symmetry_space_group_name_H-M	'P1'
_symmetry_Int_Tables_number	1
_symmetry_cell_setting	triclinic
loop_
_symmetry_equiv_pos_as_xyz
  x,y,z
_cell_length_a	9.8488
_cell_length_b	10.613
_cell_length_c	12.6336
_cell_angle_alpha	69.658
_cell_angle_beta	73.772
_cell_angle_gamma	62.537
loop_
_atom_site_label
_atom_site_type_symbol
_atom_site_fract_x
_atom_site_fract_y
_atom_site_fract_z
_atom_site_charge
Mof_Y 	Y 	0.04889	0.78007	0.6912	1.336
Mof_Y 	Y 	0.95111	0.21993	0.3088	1.336
Mof_H 	H 	0.2446	0.6268	0.0613	0.053
Mof_H 	H 	0.5782	0.4856	0.8137	0.049
Mof_H 	H 	0.3853	0.8897	0.6706	0.045
Mof_H 	H 	0.3635	0.134	0.3457	0.044
Mof_H 	H 	0.6564	0.1281	0.9276	0.057
Mof_H 	H 	0.5572	0.7965	0.9385	0.055
Mof_H 	H 	0.7554	0.3732	0.9387	0.053
Mof_H 	H 	0.4218	0.5144	0.1863	0.049
Mof_H 	H 	0.6147	0.1103	0.3294	0.045
Mof_H 	H 	0.6365	0.866	0.6543	0.044
Mof_H 	H 	0.3436	0.8719	0.0724	0.057
Mof_H 	H 	0.4428	0.2035	0.0615	0.055
Mof_C 	C 	0.3916	0.5704	0.9233	-0.058
Mof_C 	C 	0.348	0.5759	0.0356	-0.027
Mof_C 	C 	0.5455	0.4924	0.8888	-0.028
Mof_C 	C 	0.2754	0.6451	0.8409	0.294
Mof_C 	C 	0.3508	0.0136	0.5098	-0.111
Mof_C 	C 	0.4315	0.9337	0.6024	-0.013
Mof_C 	C 	0.4184	0.0804	0.4073	-0.013
Mof_C 	C 	0.1899	0.0256	0.5191	0.43
Mof_C 	C 	0.6309	0.9544	0.9186	-0.05
Mof_C 	C 	0.5938	0.0762	0.9566	-0.035
Mof_C 	C 	0.5349	0.8781	0.9629	-0.024
Mof_C 	C 	0.7744	0.9012	0.836	0.301
Mof_C 	C 	0.6084	0.4296	0.0767	-0.058
Mof_C 	C 	0.652	0.4241	0.9644	-0.027
Mof_C 	C 	0.4545	0.5076	0.1112	-0.028
Mof_C 	C 	0.7246	0.3549	0.1591	0.294
Mof_C 	C 	0.6492	0.9864	0.4902	-0.111
Mof_C 	C 	0.5685	0.0663	0.3976	-0.013
Mof_C 	C 	0.5816	0.9196	0.5927	-0.013
Mof_C 	C 	0.8101	0.9744	0.4809	0.43
Mof_C 	C 	0.3691	0.0456	0.0814	-0.05
Mof_C 	C 	0.4062	0.9238	0.0434	-0.035
Mof_C 	C 	0.4651	0.1219	0.0371	-0.024
Mof_C 	C 	0.2256	0.0988	0.164	0.301
Mof_O 	O 	0.1367	0.7239	0.87249	-0.347
Mof_O 	O 	0.3163	0.6268	0.74137	-0.37
Mof_O 	O 	0.1342	0.9601	0.61183	-0.445
Mof_O 	O 	0.1219	0.1016	0.43328	-0.459
Mof_O 	O 	0.8184	0.776	0.82051	-0.366
Mof_O 	O 	0.8498	0.9796	0.78368	-0.318
Mof_O 	O 	0.8633	0.2761	0.12751	-0.347
Mof_O 	O 	0.6837	0.3732	0.25863	-0.37
Mof_O 	O 	0.8658	0.0399	0.38817	-0.445
Mof_O 	O 	0.8781	0.8984	0.56672	-0.459
Mof_O 	O 	0.1816	0.224	0.17949	-0.366
Mof_O 	O 	0.1502	0.0204	0.21632	-0.318
_end
