# CIF file generated by openbabel 3.1.0, see https://openbabel.org
data_I
_chemical_name_common 'GAYFUJ_clean'
_cell_length_a 10.0903
_cell_length_b 10.0903
_cell_length_c 21.2568
_cell_angle_alpha 90
_cell_angle_beta 90
_cell_angle_gamma 120
_space_group_name_H-M_alt 'P 1'
_space_group_name_Hall 'P 1'
loop_
    _symmetry_equiv_pos_as_xyz
    x,y,z
loop_
    _atom_site_label
    _atom_site_type_symbol
    _atom_site_fract_x
    _atom_site_fract_y
    _atom_site_fract_z
    _atom_site_occupancy
    Cd1      Cd       0.91181    0.08818    0.75000    1.000
    Cd2      Cd       0.17637    0.08818    0.41667    1.000
    Cd3      Cd       0.91181    0.82362    0.08333    1.000
    Cd4      Cd       0.08818    0.91181    0.25000    1.000
    Cd5      Cd       0.82363    0.91182    0.91667    1.000
    Cd6      Cd       0.08818    0.17637    0.58333    1.000
    H1       H        0.21032    0.39891    0.80602    1.000
    H2       H        0.44173    0.51080    0.64326    1.000
    H3       H        0.18859    0.78968    0.47269    1.000
    H4       H        0.06907    0.55827    0.30993    1.000
    H5       H        0.60109    0.81141    0.13935    1.000
    H6       H        0.48920    0.93093    0.97659    1.000
    H7       H        0.78968    0.60109    0.30602    1.000
    H8       H        0.55827    0.48920    0.14326    1.000
    H9       H        0.81141    0.21032    0.97269    1.000
    H10      H        0.93093    0.44173    0.80993    1.000
    H11      H        0.39891    0.18859    0.63935    1.000
    H12      H        0.51080    0.06907    0.47659    1.000
    H13      H        0.81141    0.60109    0.86065    1.000
    H14      H        0.93093    0.48920    0.02341    1.000
    H15      H        0.39891    0.21032    0.19398    1.000
    H16      H        0.51080    0.44173    0.35674    1.000
    H17      H        0.78968    0.18859    0.52731    1.000
    H18      H        0.55827    0.06907    0.69007    1.000
    H19      H        0.18859    0.39891    0.36065    1.000
    H20      H        0.06907    0.51080    0.52341    1.000
    H21      H        0.60109    0.78968    0.69398    1.000
    H22      H        0.48920    0.55827    0.85674    1.000
    H23      H        0.21032    0.81141    0.02731    1.000
    H24      H        0.44173    0.93093    0.19007    1.000
    C1       C        0.36993    0.50100    0.73506    1.000
    C2       C        0.23701    0.39735    0.76328    1.000
    C3       C        0.36408    0.45879    0.67391    1.000
    C4       C        0.13107    0.63007    0.40173    1.000
    C5       C        0.16034    0.76299    0.42995    1.000
    C6       C        0.09471    0.63592    0.34058    1.000
    C7       C        0.49900    0.86893    0.06839    1.000
    C8       C        0.60265    0.83966    0.09661    1.000
    C9       C        0.54121    0.90529    0.00724    1.000
    C10      C        0.63007    0.49900    0.23506    1.000
    C11      C        0.76299    0.60265    0.26328    1.000
    C12      C        0.63592    0.54121    0.17391    1.000
    C13      C        0.86893    0.36993    0.90173    1.000
    C14      C        0.83966    0.23701    0.92995    1.000
    C15      C        0.90529    0.36408    0.84058    1.000
    C16      C        0.50100    0.13107    0.56839    1.000
    C17      C        0.39735    0.16034    0.59661    1.000
    C18      C        0.45879    0.09471    0.50724    1.000
    C19      C        0.86893    0.49900    0.93161    1.000
    C20      C        0.83966    0.60265    0.90339    1.000
    C21      C        0.90529    0.54121    0.99276    1.000
    C22      C        0.50100    0.36993    0.26494    1.000
    C23      C        0.39735    0.23701    0.23672    1.000
    C24      C        0.45879    0.36408    0.32609    1.000
    C25      C        0.63007    0.13107    0.59827    1.000
    C26      C        0.76299    0.16034    0.57005    1.000
    C27      C        0.63592    0.09471    0.65942    1.000
    C28      C        0.13107    0.50100    0.43161    1.000
    C29      C        0.16034    0.39735    0.40339    1.000
    C30      C        0.09471    0.45879    0.49276    1.000
    C31      C        0.49900    0.63007    0.76494    1.000
    C32      C        0.60265    0.76299    0.73672    1.000
    C33      C        0.54121    0.63592    0.82609    1.000
    C34      C        0.36993    0.86893    0.09827    1.000
    C35      C        0.23701    0.83966    0.07005    1.000
    C36      C        0.36408    0.90529    0.15942    1.000
    N1       N        0.14901    0.29110    0.71956    1.000
    N2       N        0.22754    0.32907    0.66433    1.000
    N3       N        0.14209    0.85099    0.38623    1.000
    N4       N        0.10153    0.77246    0.33100    1.000
    N5       N        0.70890    0.85791    0.05289    1.000
    N6       N        0.67093    0.89847    0.99766    1.000
    N7       N        0.85099    0.70890    0.21956    1.000
    N8       N        0.77246    0.67093    0.16433    1.000
    N9       N        0.85791    0.14901    0.88623    1.000
    N10      N        0.89847    0.22754    0.83100    1.000
    N11      N        0.29110    0.14209    0.55289    1.000
    N12      N        0.32907    0.10153    0.49766    1.000
    N13      N        0.85791    0.70890    0.94711    1.000
    N14      N        0.89847    0.67093    0.00234    1.000
    N15      N        0.29110    0.14901    0.28044    1.000
    N16      N        0.32907    0.22754    0.33567    1.000
    N17      N        0.85099    0.14209    0.61377    1.000
    N18      N        0.77246    0.10153    0.66900    1.000
    N19      N        0.14209    0.29110    0.44711    1.000
    N20      N        0.10153    0.32907    0.50234    1.000
    N21      N        0.70890    0.85099    0.78044    1.000
    N22      N        0.67093    0.77246    0.83567    1.000
    N23      N        0.14901    0.85791    0.11377    1.000
    N24      N        0.22754    0.89847    0.16900    1.000
