data_functionalizedCrystal
_audit_creation_method	'EQeq! by Chris Wilmer'
_symmetry_space_group_name_H-M	'P1'
_symmetry_Int_Tables_number	1
_symmetry_cell_setting	triclinic
loop_
_symmetry_equiv_pos_as_xyz
  x,y,z
_cell_length_a	9.099
_cell_length_b	9.6732
_cell_length_c	22.299
_cell_angle_alpha	90
_cell_angle_beta	90
_cell_angle_gamma	117.874
loop_
_atom_site_label
_atom_site_type_symbol
_atom_site_fract_x
_atom_site_fract_y
_atom_site_fract_z
_atom_site_charge
Mof_Tb	Tb	0.35588	0.11751	0.00853	2.406
Mof_Tb	Tb	0.64412	0.38249	0.50853	2.406
Mof_Tb	Tb	0.64412	0.88249	0.99147	2.406
Mof_Tb	Tb	0.35588	0.61751	0.49147	2.406
Mof_Ag	Ag	0.32053	0.98093	0.35157	0.708
Mof_Ag	Ag	0.67947	0.51907	0.85157	0.712
Mof_Ag	Ag	0.67947	0.01907	0.64843	0.708
Mof_Ag	Ag	0.32053	0.48093	0.14843	0.712
Mof_H 	H 	0.5988	0.8953	0.332	-0.044
Mof_H 	H 	0.7497	0.8684	0.2568	0.124
Mof_H 	H 	0.694	0.8991	0.1585	-0.047
Mof_H 	H 	0.3591	0.0123	0.2176	-0.042
Mof_H 	H 	0.8166	0.2856	0.8374	-0.042
Mof_H 	H 	0.0327	0.2483	0.8675	0.123
Mof_H 	H 	0.2291	0.4444	0.9279	-0.017
Mof_H 	H 	0.9667	0.6775	0.9328	-0.04
Mof_H 	H 	0.4012	0.6047	0.832	-0.045
Mof_H 	H 	0.2503	0.6316	0.7568	0.125
Mof_H 	H 	0.306	0.6009	0.6585	-0.048
Mof_H 	H 	0.6409	0.4877	0.7176	-0.046
Mof_H 	H 	0.1834	0.2144	0.3374	-0.043
Mof_H 	H 	0.9673	0.2517	0.3675	0.125
Mof_H 	H 	0.7709	0.0556	0.4279	-0.016
Mof_H 	H 	0.0333	0.8225	0.4328	-0.037
Mof_H 	H 	0.4012	0.1047	0.668	-0.044
Mof_H 	H 	0.2503	0.1316	0.7432	0.124
Mof_H 	H 	0.306	0.1009	0.8415	-0.047
Mof_H 	H 	0.6409	0.9877	0.7824	-0.042
Mof_H 	H 	0.1834	0.7144	0.1626	-0.042
Mof_H 	H 	0.9673	0.7517	0.1325	0.123
Mof_H 	H 	0.7709	0.5556	0.0721	-0.017
Mof_H 	H 	0.0333	0.3225	0.0672	-0.04
Mof_H 	H 	0.5988	0.3953	0.168	-0.045
Mof_H 	H 	0.7497	0.3684	0.2432	0.125
Mof_H 	H 	0.694	0.3991	0.3415	-0.048
Mof_H 	H 	0.3591	0.5123	0.2824	-0.046
Mof_H 	H 	0.8166	0.7856	0.6626	-0.043
Mof_H 	H 	0.0327	0.7483	0.6325	0.125
Mof_H 	H 	0.2291	0.9444	0.5721	-0.016
Mof_H 	H 	0.9667	0.1775	0.5672	-0.037
Mof_C 	C 	0.5781	0.9132	0.2927	0.187
Mof_C 	C 	0.6666	0.8954	0.2479	-0.292
Mof_C 	C 	0.636	0.9166	0.1894	0.217
Mof_C 	C 	0.5213	0.963	0.1772	-0.317
Mof_C 	C 	0.4392	0.9803	0.2251	0.178
Mof_C 	C 	0.4817	0.9922	0.1148	0.596
Mof_C 	C 	0.8961	0.3579	0.863	0.137
Mof_C 	C 	0.0214	0.335	0.8793	-0.229
Mof_C 	C 	0.1354	0.452	0.9158	0.16
Mof_C 	C 	0.1173	0.5848	0.9358	-0.254
Mof_C 	C 	0.9852	0.596	0.9193	0.158
Mof_C 	C 	0.2431	0.7197	0.9732	0.579
Mof_C 	C 	0.4801	0.5033	0.0332	0.235
Mof_C 	C 	0.9918	0.9922	0.0346	0.313
Mof_C 	C 	0.4219	0.5868	0.7927	0.188
Mof_C 	C 	0.3334	0.6046	0.7479	-0.294
Mof_C 	C 	0.364	0.5834	0.6894	0.22
Mof_C 	C 	0.4787	0.537	0.6772	-0.32
Mof_C 	C 	0.5608	0.5197	0.7251	0.183
Mof_C 	C 	0.5183	0.5078	0.6148	0.598
Mof_C 	C 	0.1039	0.1421	0.363	0.143
Mof_C 	C 	0.9786	0.165	0.3793	-0.235
Mof_C 	C 	0.8646	0.048	0.4158	0.159
Mof_C 	C 	0.8827	0.9152	0.4358	-0.249
Mof_C 	C 	0.0148	0.904	0.4193	0.15
Mof_C 	C 	0.7569	0.7803	0.4732	0.578
Mof_C 	C 	0.5199	0.9967	0.5332	0.236
Mof_C 	C 	0.0082	0.5078	0.5346	0.31
Mof_C 	C 	0.4219	0.0868	0.7073	0.187
Mof_C 	C 	0.3334	0.1046	0.7521	-0.292
Mof_C 	C 	0.364	0.0834	0.8106	0.217
Mof_C 	C 	0.4787	0.037	0.8228	-0.317
Mof_C 	C 	0.5608	0.0197	0.7749	0.178
Mof_C 	C 	0.5183	0.0078	0.8852	0.596
Mof_C 	C 	0.1039	0.6421	0.137	0.137
Mof_C 	C 	0.9786	0.665	0.1207	-0.229
Mof_C 	C 	0.8646	0.548	0.0842	0.16
Mof_C 	C 	0.8827	0.4152	0.0642	-0.254
Mof_C 	C 	0.0148	0.404	0.0807	0.158
Mof_C 	C 	0.7569	0.2803	0.0268	0.579
Mof_C 	C 	0.5199	0.4967	0.9668	0.235
Mof_C 	C 	0.0082	0.0078	0.9654	0.313
Mof_C 	C 	0.5781	0.4132	0.2073	0.188
Mof_C 	C 	0.6666	0.3954	0.2521	-0.294
Mof_C 	C 	0.636	0.4166	0.3106	0.22
Mof_C 	C 	0.5213	0.463	0.3228	-0.32
Mof_C 	C 	0.4392	0.4803	0.2749	0.183
Mof_C 	C 	0.4817	0.4922	0.3852	0.598
Mof_C 	C 	0.8961	0.8579	0.637	0.143
Mof_C 	C 	0.0214	0.835	0.6207	-0.235
Mof_C 	C 	0.1354	0.952	0.5842	0.159
Mof_C 	C 	0.1173	0.0848	0.5642	-0.249
Mof_C 	C 	0.9852	0.096	0.5807	0.15
Mof_C 	C 	0.2431	0.2197	0.5268	0.578
Mof_C 	C 	0.4801	0.0033	0.4668	0.236
Mof_C 	C 	0.9918	0.4922	0.4654	0.31
Mof_N 	N 	0.4647	0.9548	0.2821	-0.268
Mof_N 	N 	0.8765	0.485	0.8821	-0.25
Mof_N 	N 	0.5353	0.5452	0.7821	-0.269
Mof_N 	N 	0.1235	0.015	0.3821	-0.247
Mof_N 	N 	0.5353	0.0452	0.7179	-0.268
Mof_N 	N 	0.1235	0.515	0.1179	-0.25
Mof_N 	N 	0.4647	0.4548	0.2179	-0.269
Mof_N 	N 	0.8765	0.985	0.6179	-0.247
Mof_O 	O 	0.5414	0.9549	0.07209	-0.673
Mof_O 	O 	0.3911	0.0544	0.10909	-0.562
Mof_O 	O 	0.2109	0.8232	0.99849	-0.517
Mof_O 	O 	0.3706	0.7178	0.975	-0.642
Mof_O 	O 	0.3835	0.3657	0.05648	-0.448
Mof_O 	O 	0.5427	0.639	0.0591	-0.417
Mof_O 	O 	0.1171	0.0484	0.06369	-0.505
Mof_O 	O 	0.8564	0.9236	0.05591	-0.518
Mof_O 	O 	0.4586	0.5451	0.57209	-0.674
Mof_O 	O 	0.6089	0.4456	0.60909	-0.564
Mof_O 	O 	0.7891	0.6768	0.49849	-0.515
Mof_O 	O 	0.6294	0.7822	0.475	-0.642
Mof_O 	O 	0.6165	0.1343	0.55648	-0.448
Mof_O 	O 	0.4573	0.861	0.5591	-0.417
Mof_O 	O 	0.8829	0.4516	0.56369	-0.503
Mof_O 	O 	0.1436	0.5764	0.55591	-0.518
Mof_O 	O 	0.4586	0.0451	0.92791	-0.673
Mof_O 	O 	0.6089	0.9456	0.89091	-0.562
Mof_O 	O 	0.7891	0.1768	0.00151	-0.517
Mof_O 	O 	0.6294	0.2822	0.025	-0.642
Mof_O 	O 	0.6165	0.6343	0.94352	-0.448
Mof_O 	O 	0.4573	0.361	0.9409	-0.417
Mof_O 	O 	0.8829	0.9516	0.93631	-0.505
Mof_O 	O 	0.1436	0.0764	0.94409	-0.518
Mof_O 	O 	0.5414	0.4549	0.42791	-0.674
Mof_O 	O 	0.3911	0.5544	0.39091	-0.564
Mof_O 	O 	0.2109	0.3232	0.50151	-0.515
Mof_O 	O 	0.3706	0.2178	0.525	-0.642
Mof_O 	O 	0.3835	0.8657	0.44352	-0.448
Mof_O 	O 	0.5427	0.139	0.4409	-0.417
Mof_O 	O 	0.1171	0.5484	0.43631	-0.503
Mof_O 	O 	0.8564	0.4236	0.44409	-0.518
_end
