data_functionalizedCrystal
_audit_creation_method	'EQeq! by Chris Wilmer'
_symmetry_space_group_name_H-M	'P1'
_symmetry_Int_Tables_number	1
_symmetry_cell_setting	triclinic
loop_
_symmetry_equiv_pos_as_xyz
  x,y,z
_cell_length_a	5.1028
_cell_length_b	21.1626
_cell_length_c	8.8581
_cell_angle_alpha	90
_cell_angle_beta	89.9965
_cell_angle_gamma	90
loop_
_atom_site_label
_atom_site_type_symbol
_atom_site_fract_x
_atom_site_fract_y
_atom_site_fract_z
_atom_site_charge
Mof_Ti	Ti	0.2791	0.84165	0.52814	2.074
Mof_Ti	Ti	0.0168	0.93546	0.01	1.701
Mof_Ti	Ti	0.7249	0.04166	0.48775	2.042
Mof_Ga	Ga	0.6938	0.69017	0.74802	3.973
Mof_P 	P 	0.7937	0.82584	0.7749	0.796
Mof_P 	P 	0.2061	0.05294	0.2423	0.764
Mof_P 	P 	0.2369	0.98796	0.6704	0.771
Mof_P 	P 	0.7623	0.8961	0.3462	0.778
Mof_P 	P 	0.2052	0.69133	0.55848	0.852
Mof_O 	O 	0.0612	0.8231	0.7015	-0.624
Mof_O 	O 	0.2835	0.7518	0.4734	-0.589
Mof_O 	O 	0.2482	0.9295	0.572	-0.592
Mof_O 	O 	0.7472	0.7621	0.8591	-1.039
Mof_O 	O 	0.5812	0.8334	0.6558	-0.653
Mof_O 	O 	0.7823	0.8783	0.8915	-0.479
Mof_O 	O 	0.1773	0.9702	0.8351	-0.526
Mof_O 	O 	0.5068	0.0228	0.6696	-0.515
Mof_O 	O 	0.0236	0.0333	0.6172	-0.574
Mof_O 	O 	0.2684	0.8744	0.0412	-0.644
Mof_O 	O 	0.9311	0.0579	0.3119	-0.622
Mof_O 	O 	0.2908	0.6327	0.4677	-0.591
Mof_O 	O 	0.7528	0.9533	0.4494	-0.577
Mof_O 	O 	0.2649	0.1151	0.1543	-1.077
Mof_O 	O 	0.4082	0.0443	0.3658	-0.625
Mof_O 	O 	0.2204	0.9981	0.128	-0.499
Mof_O 	O 	0.8003	0.9156	0.1813	-0.516
Mof_O 	O 	0.5069	0.8594	0.3565	-0.532
Mof_O 	O 	0.9861	0.8513	0.3924	-0.54
Mof_O 	O 	0.9045	0.6909	0.5823	-1.1
Mof_O 	O 	0.3416	0.6901	0.7136	-1.153
Mof_H 	H 	0.413	0.884	-0	0.313
Mof_Ti	Ti	0.7209	0.34165	0.47186	2.067
Mof_Ti	Ti	0.9832	0.43546	0.99	1.808
Mof_Ti	Ti	0.2751	0.54166	0.51225	2.06
Mof_Ga	Ga	0.3062	0.19017	0.25198	3.959
Mof_P 	P 	0.2063	0.32584	0.2251	0.806
Mof_P 	P 	0.7939	0.55294	0.7577	0.768
Mof_P 	P 	0.7631	0.48796	0.3296	0.765
Mof_P 	P 	0.2377	0.3961	0.6538	0.781
Mof_P 	P 	0.7948	0.19133	0.44152	0.845
Mof_O 	O 	0.9388	0.3231	0.2985	-0.637
Mof_O 	O 	0.7165	0.2518	0.5266	-0.583
Mof_O 	O 	0.7518	0.4295	0.428	-0.597
Mof_O 	O 	0.2528	0.2621	0.1409	-1.055
Mof_O 	O 	0.4188	0.3334	0.3442	-0.655
Mof_O 	O 	0.2177	0.3783	0.1085	-0.528
Mof_O 	O 	0.8227	0.4702	0.1649	-0.58
Mof_O 	O 	0.4932	0.5228	0.3304	-0.52
Mof_O 	O 	0.9764	0.5333	0.3828	-0.584
Mof_O 	O 	0.7316	0.3744	0.9588	-0.608
Mof_O 	O 	0.0689	0.5579	0.6881	-0.613
Mof_O 	O 	0.7092	0.1327	0.5323	-0.583
Mof_O 	O 	0.2472	0.4533	0.5506	-0.584
Mof_O 	O 	0.7351	0.6151	0.8457	-1.066
Mof_O 	O 	0.5918	0.5443	0.6342	-0.626
Mof_O 	O 	0.7796	0.4981	0.872	-0.506
Mof_O 	O 	0.1997	0.4156	0.8187	-0.518
Mof_O 	O 	0.4931	0.3594	0.6435	-0.528
Mof_O 	O 	0.0139	0.3513	0.6076	-0.531
Mof_O 	O 	0.0955	0.1909	0.4177	-1.087
Mof_O 	O 	0.6584	0.1901	0.2864	-1.157
Mof_H 	H 	0.587	0.384	-0	0.29
_end
