data_functionalizedCrystal
_audit_creation_method	'EQeq! by Chris Wilmer'
_symmetry_space_group_name_H-M	'P1'
_symmetry_Int_Tables_number	1
_symmetry_cell_setting	triclinic
loop_
_symmetry_equiv_pos_as_xyz
  x,y,z
_cell_length_a	9.5321
_cell_length_b	9.5321
_cell_length_c	15.451
_cell_angle_alpha	92.8651
_cell_angle_beta	92.8651
_cell_angle_gamma	99.0412
loop_
_atom_site_label
_atom_site_type_symbol
_atom_site_fract_x
_atom_site_fract_y
_atom_site_fract_z
_atom_site_charge
Mof_Er	Er	0.01086	0.98914	0.75	1.489
Mof_Er	Er	0.98914	0.01086	0.25	1.489
Mof_P 	P 	0.35393	0.04491	0.64596	0.405
Mof_P 	P 	0.65165	0.97627	0.65429	0.408
Mof_P 	P 	0.95509	0.64607	0.85404	0.404
Mof_P 	P 	0.02373	0.34835	0.84571	0.408
Mof_P 	P 	0.64607	0.95509	0.35404	0.404
Mof_P 	P 	0.34835	0.02373	0.34571	0.407
Mof_P 	P 	0.04491	0.35393	0.14596	0.404
Mof_P 	P 	0.97627	0.65165	0.15429	0.408
Mof_H 	H 	0.4204	0.8296	0.7325	0.206
Mof_H 	H 	0.472	0.159	0.8143	0.168
Mof_H 	H 	0.6316	0.1262	0.8165	0.164
Mof_H 	H 	0.579	0.2252	0.745	0.152
Mof_H 	H 	0.1704	0.5796	0.7675	0.206
Mof_H 	H 	0.841	0.528	0.6857	0.167
Mof_H 	H 	0.8738	0.3684	0.6835	0.163
Mof_H 	H 	0.7748	0.421	0.755	0.152
Mof_H 	H 	0.5796	0.1704	0.2675	0.206
Mof_H 	H 	0.528	0.841	0.1857	0.168
Mof_H 	H 	0.3684	0.8738	0.1835	0.164
Mof_H 	H 	0.421	0.7748	0.255	0.152
Mof_H 	H 	0.8296	0.4204	0.2325	0.206
Mof_H 	H 	0.159	0.472	0.3143	0.167
Mof_H 	H 	0.1262	0.6316	0.3165	0.163
Mof_H 	H 	0.2252	0.579	0.245	0.152
Mof_Ru	Ru	0.54568	0.12164	0.5019	0.864
Mof_Ru	Ru	0.87836	0.45432	0.9981	0.863
Mof_Ru	Ru	0.45432	0.87836	0.4981	0.864
Mof_Ru	Ru	0.12164	0.54568	0.0019	0.863
Mof_C 	C 	0.5047	0.0167	0.7197	0.089
Mof_C 	C 	0.5506	0.1422	0.7787	-0.444
Mof_C 	C 	0.9833	0.4953	0.7803	0.087
Mof_C 	C 	0.8578	0.4494	0.7213	-0.441
Mof_C 	C 	0.4953	0.9833	0.2803	0.089
Mof_C 	C 	0.4494	0.8578	0.2213	-0.444
Mof_C 	C 	0.0167	0.5047	0.2197	0.087
Mof_C 	C 	0.1422	0.5506	0.2787	-0.441
Mof_O 	O 	0.4086	0.1678	0.5896	-0.381
Mof_O 	O 	0.3089	0.9097	0.5861	-0.404
Mof_O 	O 	0.2331	0.0741	0.6995	-0.405
Mof_O 	O 	0.6913	0.1043	0.5987	-0.407
Mof_O 	O 	0.5944	0.8418	0.5942	-0.379
Mof_O 	O 	0.7726	0.955	0.7148	-0.417
Mof_O 	O 	0.4507	0.9001	0.7674	-0.362
Mof_O 	O 	0.8322	0.5914	0.9104	-0.381
Mof_O 	O 	0.0903	0.6911	0.9139	-0.404
Mof_O 	O 	0.9259	0.7669	0.8005	-0.406
Mof_O 	O 	0.8957	0.3087	0.9013	-0.407
Mof_O 	O 	0.1582	0.4056	0.9058	-0.379
Mof_O 	O 	0.045	0.2274	0.7852	-0.416
Mof_O 	O 	0.0999	0.5493	0.7326	-0.361
Mof_O 	O 	0.5914	0.8322	0.4104	-0.381
Mof_O 	O 	0.6911	0.0903	0.4139	-0.404
Mof_O 	O 	0.7669	0.9259	0.3005	-0.405
Mof_O 	O 	0.3087	0.8957	0.4013	-0.407
Mof_O 	O 	0.4056	0.1582	0.4058	-0.379
Mof_O 	O 	0.2274	0.045	0.2852	-0.417
Mof_O 	O 	0.5493	0.0999	0.2326	-0.362
Mof_O 	O 	0.1678	0.4086	0.0896	-0.381
Mof_O 	O 	0.9097	0.3089	0.0861	-0.404
Mof_O 	O 	0.0741	0.2331	0.1995	-0.406
Mof_O 	O 	0.1043	0.6913	0.0987	-0.407
Mof_O 	O 	0.8418	0.5944	0.0942	-0.379
Mof_O 	O 	0.955	0.7726	0.2148	-0.416
Mof_O 	O 	0.9001	0.4507	0.2674	-0.361
_end
