data_functionalizedCrystal
_audit_creation_method	'EQeq! by Chris Wilmer'
_symmetry_space_group_name_H-M	'P1'
_symmetry_Int_Tables_number	1
_symmetry_cell_setting	triclinic
loop_
_symmetry_equiv_pos_as_xyz
  x,y,z
_cell_length_a	13.9985
_cell_length_b	13.9985
_cell_length_c	16.688
_cell_angle_alpha	80.9515
_cell_angle_beta	80.9515
_cell_angle_gamma	61.6348
loop_
_atom_site_label
_atom_site_type_symbol
_atom_site_fract_x
_atom_site_fract_y
_atom_site_fract_z
_atom_site_charge
Mof_Fe	Fe	0.83911	0.78031	0.4184	0.659
Mof_Fe	Fe	0.21969	0.16089	0.0816	0.66
Mof_Fe	Fe	0.16089	0.21969	0.5816	0.66
Mof_Fe	Fe	0.78031	0.83911	0.9184	0.661
Mof_Ni	Ni	0.95366	0.59122	0.69343	1.06
Mof_Ni	Ni	0.40878	0.04634	0.80657	1.059
Mof_Ni	Ni	0.04634	0.40878	0.30657	1.06
Mof_Ni	Ni	0.59122	0.95366	0.19343	1.059
Mof_Ni	Ni	0.10709	0.89291	0.25	1.036
Mof_Ni	Ni	0.89291	0.10709	0.75	1.036
Mof_H 	H 	0.1352	0.591	0.6524	0.106
Mof_H 	H 	0.0775	0.6681	0.7147	0.109
Mof_H 	H 	0.2177	0.4475	0.7395	-0.111
Mof_H 	H 	0.2172	0.5412	0.7806	-0.115
Mof_H 	H 	0.0945	0.5451	0.8646	0.245
Mof_H 	H 	0.1991	0.4313	0.8626	0.254
Mof_H 	H 	0.053	0.4108	0.898	-0.083
Mof_H 	H 	0.1108	0.3608	0.8147	-0.082
Mof_H 	H 	0.9354	0.544	0.8392	0.088
Mof_H 	H 	0.8838	0.4488	0.8833	-0.032
Mof_H 	H 	0.941	0.3724	0.8132	-0.036
Mof_H 	H 	0.7481	0.5333	0.835	0.125
Mof_H 	H 	0.7889	0.4175	0.8075	0.106
Mof_H 	H 	0.7744	0.477	0.6773	-0.022
Mof_H 	H 	0.6797	0.5803	0.7178	-0.016
Mof_H 	H 	0.7573	0.6693	0.677	0.103
Mof_H 	H 	0.8161	0.5901	0.6176	0.102
Mof_H 	H 	0.1648	0.8692	0.3895	0.109
Mof_H 	H 	0.2227	0.9209	0.3349	0.115
Mof_H 	H 	0.0932	0.9942	0.4454	-0.164
Mof_H 	H 	0.1416	0.055	0.3782	-0.161
Mof_H 	H 	0.0015	0.1613	0.3718	0.272
Mof_H 	H 	0.9535	0.0883	0.4239	0.289
Mof_H 	H 	0.9229	0.1799	0.2836	-0.137
Mof_H 	H 	0.8651	0.1181	0.3397	-0.129
Mof_H 	H 	0.9247	0.0047	0.2825	0.094
Mof_H 	H 	0.409	0.8648	0.8476	0.106
Mof_H 	H 	0.3319	0.9225	0.7853	0.11
Mof_H 	H 	0.5525	0.7823	0.7605	-0.112
Mof_H 	H 	0.4588	0.7828	0.7194	-0.116
Mof_H 	H 	0.4549	0.9055	0.6354	0.246
Mof_H 	H 	0.5687	0.8009	0.6374	0.255
Mof_H 	H 	0.5892	0.947	0.602	-0.084
Mof_H 	H 	0.6392	0.8892	0.6853	-0.083
Mof_H 	H 	0.456	0.0646	0.6608	0.088
Mof_H 	H 	0.5512	0.1162	0.6167	-0.031
Mof_H 	H 	0.6276	0.059	0.6868	-0.036
Mof_H 	H 	0.4667	0.2519	0.665	0.126
Mof_H 	H 	0.5825	0.2111	0.6925	0.106
Mof_H 	H 	0.523	0.2256	0.8227	-0.022
Mof_H 	H 	0.4197	0.3203	0.7822	-0.016
Mof_H 	H 	0.3307	0.2427	0.823	0.103
Mof_H 	H 	0.4099	0.1839	0.8824	0.102
Mof_H 	H 	0.1308	0.8352	0.1105	0.106
Mof_H 	H 	0.0791	0.7773	0.1651	0.113
Mof_H 	H 	0.0058	0.9068	0.0546	-0.15
Mof_H 	H 	0.945	0.8584	0.1218	-0.147
Mof_H 	H 	0.8387	0.9985	0.1282	0.252
Mof_H 	H 	0.9117	0.0465	0.0761	0.272
Mof_H 	H 	0.8201	0.0771	0.2164	-0.126
Mof_H 	H 	0.8819	0.1349	0.1603	-0.118
Mof_H 	H 	0.9953	0.0753	0.2175	0.094
Mof_H 	H 	0.8648	0.409	0.3476	0.106
Mof_H 	H 	0.9225	0.3319	0.2853	0.109
Mof_H 	H 	0.7823	0.5525	0.2605	-0.111
Mof_H 	H 	0.7828	0.4588	0.2194	-0.115
Mof_H 	H 	0.9055	0.4549	0.1354	0.245
Mof_H 	H 	0.8009	0.5687	0.1374	0.254
Mof_H 	H 	0.947	0.5892	0.102	-0.083
Mof_H 	H 	0.8892	0.6392	0.1853	-0.082
Mof_H 	H 	0.0646	0.456	0.1608	0.088
Mof_H 	H 	0.1162	0.5512	0.1167	-0.032
Mof_H 	H 	0.059	0.6276	0.1868	-0.036
Mof_H 	H 	0.2519	0.4667	0.165	0.125
Mof_H 	H 	0.2111	0.5825	0.1925	0.106
Mof_H 	H 	0.2256	0.523	0.3227	-0.022
Mof_H 	H 	0.3203	0.4197	0.2822	-0.016
Mof_H 	H 	0.2427	0.3307	0.323	0.103
Mof_H 	H 	0.1839	0.4099	0.3824	0.102
Mof_H 	H 	0.8352	0.1308	0.6105	0.109
Mof_H 	H 	0.7773	0.0791	0.6651	0.115
Mof_H 	H 	0.9068	0.0058	0.5546	-0.164
Mof_H 	H 	0.8584	0.945	0.6218	-0.161
Mof_H 	H 	0.9985	0.8387	0.6282	0.272
Mof_H 	H 	0.0465	0.9117	0.5761	0.289
Mof_H 	H 	0.0771	0.8201	0.7164	-0.137
Mof_H 	H 	0.1349	0.8819	0.6603	-0.129
Mof_H 	H 	0.0753	0.9953	0.7175	0.094
Mof_H 	H 	0.591	0.1352	0.1524	0.106
Mof_H 	H 	0.6681	0.0775	0.2147	0.11
Mof_H 	H 	0.4475	0.2177	0.2395	-0.112
Mof_H 	H 	0.5412	0.2172	0.2806	-0.116
Mof_H 	H 	0.5451	0.0945	0.3646	0.246
Mof_H 	H 	0.4313	0.1991	0.3626	0.255
Mof_H 	H 	0.4108	0.053	0.398	-0.084
Mof_H 	H 	0.3608	0.1108	0.3147	-0.083
Mof_H 	H 	0.544	0.9354	0.3392	0.088
Mof_H 	H 	0.4488	0.8838	0.3833	-0.031
Mof_H 	H 	0.3724	0.941	0.3132	-0.036
Mof_H 	H 	0.5333	0.7481	0.335	0.126
Mof_H 	H 	0.4175	0.7889	0.3075	0.106
Mof_H 	H 	0.477	0.7744	0.1773	-0.022
Mof_H 	H 	0.5803	0.6797	0.2178	-0.016
Mof_H 	H 	0.6693	0.7573	0.177	0.103
Mof_H 	H 	0.5901	0.8161	0.1176	0.102
Mof_H 	H 	0.8692	0.1648	0.8895	0.106
Mof_H 	H 	0.9209	0.2227	0.8349	0.113
Mof_H 	H 	0.9942	0.0932	0.9454	-0.15
Mof_H 	H 	0.055	0.1416	0.8782	-0.147
Mof_H 	H 	0.1613	0.0015	0.8718	0.252
Mof_H 	H 	0.0883	0.9535	0.9239	0.272
Mof_H 	H 	0.1799	0.9229	0.7836	-0.126
Mof_H 	H 	0.1181	0.8651	0.8397	-0.118
Mof_H 	H 	0.0047	0.9247	0.7825	0.094
Mof_C 	C 	0.9018	0.728	0.5218	-0.103
Mof_C 	C 	0.9603	0.8013	0.3647	-0.114
Mof_C 	C 	0.9148	0.6326	0.3875	-0.089
Mof_C 	C 	0.7664	0.931	0.4448	-0.123
Mof_C 	C 	0.7159	0.7551	0.465	-0.119
Mof_C 	C 	0.7716	0.8316	0.3176	-0.1
Mof_C 	C 	0.17	0.513	0.7675	0.455
Mof_C 	C 	0.1351	0.4813	0.8335	-0.775
Mof_C 	C 	0.0688	0.4294	0.8401	0.366
Mof_C 	C 	0.8986	0.4492	0.8239	0.187
Mof_C 	C 	0.8004	0.4824	0.7968	-0.358
Mof_C 	C 	0.7589	0.5347	0.7112	0.102
Mof_C 	C 	0.0966	0.0172	0.3869	0.606
Mof_C 	C 	0.9985	0.0923	0.3736	-0.912
Mof_C 	C 	0.9359	0.1087	0.3122	0.499
Mof_C 	C 	0.272	0.0982	0.9782	-0.105
Mof_C 	C 	0.1987	0.0397	0.1353	-0.111
Mof_C 	C 	0.3674	0.0852	0.1125	-0.089
Mof_C 	C 	0.069	0.2336	0.0552	-0.124
Mof_C 	C 	0.2449	0.2841	0.035	-0.118
Mof_C 	C 	0.1684	0.2284	0.1824	-0.1
Mof_C 	C 	0.487	0.83	0.7325	0.458
Mof_C 	C 	0.5187	0.8649	0.6665	-0.778
Mof_C 	C 	0.5706	0.9312	0.6599	0.369
Mof_C 	C 	0.5508	0.1014	0.6761	0.188
Mof_C 	C 	0.5176	0.1996	0.7032	-0.359
Mof_C 	C 	0.4653	0.2411	0.7888	0.102
Mof_C 	C 	0.9828	0.9034	0.1131	0.557
Mof_C 	C 	0.9077	0.0015	0.1264	-0.849
Mof_C 	C 	0.8913	0.0641	0.1878	0.463
Mof_C 	C 	0.0982	0.272	0.4782	-0.103
Mof_C 	C 	0.0397	0.1987	0.6353	-0.114
Mof_C 	C 	0.0852	0.3674	0.6125	-0.089
Mof_C 	C 	0.2336	0.069	0.5552	-0.123
Mof_C 	C 	0.2841	0.2449	0.535	-0.119
Mof_C 	C 	0.2284	0.1684	0.6824	-0.1
Mof_C 	C 	0.83	0.487	0.2325	0.455
Mof_C 	C 	0.8649	0.5187	0.1665	-0.775
Mof_C 	C 	0.9312	0.5706	0.1599	0.366
Mof_C 	C 	0.1014	0.5508	0.1761	0.187
Mof_C 	C 	0.1996	0.5176	0.2032	-0.358
Mof_C 	C 	0.2411	0.4653	0.2888	0.102
Mof_C 	C 	0.9034	0.9828	0.6131	0.606
Mof_C 	C 	0.0015	0.9077	0.6264	-0.912
Mof_C 	C 	0.0641	0.8913	0.6878	0.499
Mof_C 	C 	0.728	0.9018	0.0218	-0.105
Mof_C 	C 	0.8013	0.9603	0.8647	-0.111
Mof_C 	C 	0.6326	0.9148	0.8875	-0.089
Mof_C 	C 	0.931	0.7664	0.9448	-0.124
Mof_C 	C 	0.7551	0.7159	0.965	-0.118
Mof_C 	C 	0.8316	0.7716	0.8176	-0.1
Mof_C 	C 	0.513	0.17	0.2675	0.458
Mof_C 	C 	0.4813	0.1351	0.3335	-0.778
Mof_C 	C 	0.4294	0.0688	0.3401	0.369
Mof_C 	C 	0.4492	0.8986	0.3239	0.188
Mof_C 	C 	0.4824	0.8004	0.2968	-0.359
Mof_C 	C 	0.5347	0.7589	0.2112	0.102
Mof_C 	C 	0.0172	0.0966	0.8869	0.557
Mof_C 	C 	0.0923	0.9985	0.8736	-0.849
Mof_C 	C 	0.1087	0.9359	0.8122	0.463
Mof_N 	N 	0.9362	0.691	0.5833	-0.21
Mof_N 	N 	0.0281	0.8185	0.328	-0.218
Mof_N 	N 	0.9607	0.5475	0.3668	-0.207
Mof_N 	N 	0.7251	0.0205	0.4569	-0.083
Mof_N 	N 	0.6481	0.7331	0.4903	-0.096
Mof_N 	N 	0.7259	0.8663	0.2603	-0.209
Mof_N 	N 	0.0958	0.6002	0.702	-0.391
Mof_N 	N 	0.968	0.4896	0.8046	-0.344
Mof_N 	N 	0.8084	0.599	0.6714	-0.347
Mof_N 	N 	0.1555	0.9253	0.3504	-0.459
Mof_N 	N 	0.309	0.0638	0.9167	-0.21
Mof_N 	N 	0.1815	0.9719	0.172	-0.22
Mof_N 	N 	0.4525	0.0393	0.1332	-0.207
Mof_N 	N 	0.9795	0.2749	0.0431	-0.083
Mof_N 	N 	0.2669	0.3519	0.0097	-0.096
Mof_N 	N 	0.1337	0.2741	0.2397	-0.208
Mof_N 	N 	0.3998	0.9042	0.798	-0.391
Mof_N 	N 	0.5104	0.032	0.6954	-0.345
Mof_N 	N 	0.401	0.1916	0.8286	-0.347
Mof_N 	N 	0.0747	0.8445	0.1496	-0.449
Mof_N 	N 	0.0638	0.309	0.4167	-0.21
Mof_N 	N 	0.9719	0.1815	0.672	-0.218
Mof_N 	N 	0.0393	0.4525	0.6332	-0.207
Mof_N 	N 	0.2749	0.9795	0.5431	-0.083
Mof_N 	N 	0.3519	0.2669	0.5097	-0.096
Mof_N 	N 	0.2741	0.1337	0.7397	-0.209
Mof_N 	N 	0.9042	0.3998	0.298	-0.391
Mof_N 	N 	0.032	0.5104	0.1954	-0.344
Mof_N 	N 	0.1916	0.401	0.3286	-0.347
Mof_N 	N 	0.8445	0.0747	0.6496	-0.459
Mof_N 	N 	0.691	0.9362	0.0833	-0.21
Mof_N 	N 	0.8185	0.0281	0.828	-0.22
Mof_N 	N 	0.5475	0.9607	0.8668	-0.207
Mof_N 	N 	0.0205	0.7251	0.9569	-0.083
Mof_N 	N 	0.7331	0.6481	0.9903	-0.096
Mof_N 	N 	0.8663	0.7259	0.7603	-0.208
Mof_N 	N 	0.6002	0.0958	0.202	-0.391
Mof_N 	N 	0.4896	0.968	0.3046	-0.345
Mof_N 	N 	0.599	0.8084	0.1714	-0.347
Mof_N 	N 	0.9253	0.1555	0.8504	-0.449
Mof_N 	N 	0.96	0.04	0.25	-0.448
Mof_N 	N 	0.04	0.96	0.75	-0.448
_end
