data_functionalizedCrystal
_audit_creation_method	'EQeq! by Chris Wilmer'
_symmetry_space_group_name_H-M	'P1'
_symmetry_Int_Tables_number	1
_symmetry_cell_setting	triclinic
loop_
_symmetry_equiv_pos_as_xyz
  x,y,z
_cell_length_a	16.3816
_cell_length_b	16.3816
_cell_length_c	16.3816
_cell_angle_alpha	90.8925
_cell_angle_beta	90.8925
_cell_angle_gamma	90.8925
loop_
_atom_site_label
_atom_site_type_symbol
_atom_site_fract_x
_atom_site_fract_y
_atom_site_fract_z
_atom_site_charge
Mof_Cd	Cd	0.5	0.5	-0	0.337
Mof_Cd	Cd	2.40007e-18	0.5	0.5	0.337
Mof_Cd	Cd	0.5	0	0.5	0.337
Mof_H 	H 	0.42916	0.3309	0.94518	0.012
Mof_H 	H 	0.42502	0.18865	0.99173	0.062
Mof_H 	H 	0.57785	0.26081	0.19819	0.055
Mof_H 	H 	0.57305	0.40291	0.1509	0.004
Mof_H 	H 	0.39758	0.99672	0.1099	0.043
Mof_H 	H 	0.94518	0.42916	0.3309	0.013
Mof_H 	H 	0.99173	0.42502	0.18865	0.063
Mof_H 	H 	0.19819	0.57785	0.26081	0.056
Mof_H 	H 	0.1509	0.57305	0.40291	0.005
Mof_H 	H 	0.1099	0.39758	0.99672	0.043
Mof_H 	H 	0.3309	0.94518	0.42916	0.013
Mof_H 	H 	0.18865	0.99173	0.42502	0.063
Mof_H 	H 	0.26081	0.19819	0.57785	0.056
Mof_H 	H 	0.40291	0.1509	0.57305	0.005
Mof_H 	H 	0.99672	0.1099	0.39758	0.043
Mof_H 	H 	0.67286	0.44197	0.06246	0.013
Mof_H 	H 	0.81304	0.4356	0.01542	0.049
Mof_H 	H 	0.73739	0.55219	0.7927	0.056
Mof_H 	H 	0.59572	0.54727	0.84097	0.012
Mof_H 	H 	0.00348	0.39574	0.88868	0.049
Mof_H 	H 	0.44197	0.06246	0.67286	0.013
Mof_H 	H 	0.4356	0.01542	0.81304	0.049
Mof_H 	H 	0.55219	0.7927	0.73739	0.056
Mof_H 	H 	0.54727	0.84096	0.59572	0.012
Mof_H 	H 	0.39574	0.88868	0.00348	0.049
Mof_H 	H 	0.06246	0.67286	0.44197	0.013
Mof_H 	H 	0.01542	0.81304	0.4356	0.049
Mof_H 	H 	0.7927	0.73739	0.55219	0.056
Mof_H 	H 	0.84096	0.59572	0.54727	0.012
Mof_H 	H 	0.88868	0.00348	0.39574	0.049
Mof_H 	H 	0.57084	0.6691	0.05482	0.003
Mof_H 	H 	0.57498	0.81135	0.00827	0.052
Mof_H 	H 	0.42215	0.73919	0.80181	0.057
Mof_H 	H 	0.42695	0.59709	0.8491	0.006
Mof_H 	H 	0.60241	0.00328	0.8901	0.049
Mof_H 	H 	0.05482	0.57084	0.6691	0.003
Mof_H 	H 	0.00827	0.57498	0.81135	0.052
Mof_H 	H 	0.80181	0.42215	0.73919	0.057
Mof_H 	H 	0.8491	0.42695	0.59709	0.006
Mof_H 	H 	0.8901	0.60242	0.00328	0.049
Mof_H 	H 	0.6691	0.05482	0.57084	0.003
Mof_H 	H 	0.81135	0.00827	0.57498	0.052
Mof_H 	H 	0.73919	0.80181	0.42215	0.057
Mof_H 	H 	0.59709	0.8491	0.42695	0.006
Mof_H 	H 	0.00328	0.8901	0.60241	0.049
Mof_H 	H 	0.32714	0.55803	0.93754	0.006
Mof_H 	H 	0.18696	0.5644	0.98458	0.066
Mof_H 	H 	0.26261	0.44781	0.2073	0.057
Mof_H 	H 	0.40428	0.45273	0.15904	0.011
Mof_H 	H 	0.99652	0.60426	0.11132	0.044
Mof_H 	H 	0.55803	0.93754	0.32714	0.006
Mof_H 	H 	0.5644	0.98458	0.18696	0.066
Mof_H 	H 	0.44781	0.2073	0.26261	0.057
Mof_H 	H 	0.45273	0.15904	0.40428	0.011
Mof_H 	H 	0.60426	0.11132	0.99652	0.044
Mof_H 	H 	0.93754	0.32714	0.55803	0.006
Mof_H 	H 	0.98458	0.18696	0.5644	0.066
Mof_H 	H 	0.2073	0.26261	0.44781	0.057
Mof_H 	H 	0.15904	0.40428	0.45273	0.011
Mof_H 	H 	0.11132	0.99652	0.60426	0.044
Mof_C 	C 	0.46157	0.3151	0.00061	0.046
Mof_C 	C 	0.45932	0.23387	0.02752	-0.111
Mof_C 	C 	0.50109	0.21149	0.0997	0.1
Mof_C 	C 	0.5436	0.27418	0.14314	-0.108
Mof_C 	C 	0.54265	0.35521	0.11501	0.049
Mof_C 	C 	0.44261	0.99856	0.06226	-0.04
Mof_C 	C 	0.00062	0.46157	0.3151	0.046
Mof_C 	C 	0.02752	0.45932	0.23387	-0.111
Mof_C 	C 	0.0997	0.50109	0.21149	0.1
Mof_C 	C 	0.14314	0.5436	0.27418	-0.108
Mof_C 	C 	0.11501	0.54265	0.35521	0.049
Mof_C 	C 	0.06227	0.44262	0.99856	-0.04
Mof_C 	C 	0.3151	0.00061	0.46157	0.046
Mof_C 	C 	0.23387	0.02752	0.45932	-0.111
Mof_C 	C 	0.21149	0.0997	0.50109	0.1
Mof_C 	C 	0.27418	0.14314	0.5436	-0.108
Mof_C 	C 	0.35521	0.11501	0.54265	0.049
Mof_C 	C 	0.99856	0.06227	0.44261	-0.04
Mof_C 	C 	0.68625	0.46361	0.00235	0.033
Mof_C 	C 	0.76727	0.46127	0.97545	-0.084
Mof_C 	C 	0.78895	0.49326	0.89906	0.094
Mof_C 	C 	0.72496	0.52481	0.85095	-0.102
Mof_C 	C 	0.64375	0.52298	0.87902	0.049
Mof_C 	C 	0.00163	0.44165	0.93684	-0.075
Mof_C 	C 	0.46361	0.00235	0.68625	0.033
Mof_C 	C 	0.46126	0.97544	0.76727	-0.084
Mof_C 	C 	0.49326	0.89906	0.78894	0.094
Mof_C 	C 	0.52481	0.85095	0.72496	-0.102
Mof_C 	C 	0.52297	0.87902	0.64375	0.049
Mof_C 	C 	0.44165	0.93684	0.00163	-0.075
Mof_C 	C 	0.00235	0.68625	0.46361	0.033
Mof_C 	C 	0.97544	0.76727	0.46126	-0.084
Mof_C 	C 	0.89905	0.78894	0.49326	0.094
Mof_C 	C 	0.85095	0.72496	0.52481	-0.102
Mof_C 	C 	0.87902	0.64375	0.52298	0.049
Mof_C 	C 	0.93684	0.00163	0.44165	-0.075
Mof_C 	C 	0.53843	0.6849	0.99939	0.059
Mof_C 	C 	0.54068	0.76613	0.97248	-0.098
Mof_C 	C 	0.49891	0.78851	0.9003	0.1
Mof_C 	C 	0.4564	0.72582	0.85686	-0.107
Mof_C 	C 	0.45735	0.64479	0.88499	0.05
Mof_C 	C 	0.55738	0.00144	0.93773	-0.076
Mof_C 	C 	0.99939	0.53843	0.6849	0.059
Mof_C 	C 	0.97248	0.54068	0.76613	-0.098
Mof_C 	C 	0.9003	0.49891	0.78851	0.1
Mof_C 	C 	0.85686	0.4564	0.72582	-0.107
Mof_C 	C 	0.88499	0.45735	0.64479	0.05
Mof_C 	C 	0.93774	0.55738	0.00144	-0.076
Mof_C 	C 	0.6849	0.99939	0.53843	0.059
Mof_C 	C 	0.76613	0.97248	0.54068	-0.098
Mof_C 	C 	0.78851	0.9003	0.49891	0.1
Mof_C 	C 	0.72582	0.85686	0.4564	-0.107
Mof_C 	C 	0.64479	0.88499	0.45735	0.05
Mof_C 	C 	0.00144	0.93774	0.55738	-0.076
Mof_C 	C 	0.31375	0.53639	0.99765	0.069
Mof_C 	C 	0.23273	0.53873	0.02456	-0.125
Mof_C 	C 	0.21106	0.50674	0.10095	0.104
Mof_C 	C 	0.27504	0.47519	0.14905	-0.11
Mof_C 	C 	0.35625	0.47702	0.12098	0.052
Mof_C 	C 	0.99837	0.55835	0.06316	-0.04
Mof_C 	C 	0.53638	0.99765	0.31375	0.069
Mof_C 	C 	0.53873	0.02455	0.23273	-0.126
Mof_C 	C 	0.50674	0.10094	0.21106	0.104
Mof_C 	C 	0.47519	0.14905	0.27504	-0.11
Mof_C 	C 	0.47702	0.12098	0.35625	0.052
Mof_C 	C 	0.55835	0.06316	0.99837	-0.04
Mof_C 	C 	0.99765	0.31375	0.53639	0.069
Mof_C 	C 	0.02455	0.23273	0.53873	-0.126
Mof_C 	C 	0.10094	0.21106	0.50674	0.104
Mof_C 	C 	0.14905	0.27504	0.47519	-0.11
Mof_C 	C 	0.12098	0.35625	0.47702	0.052
Mof_C 	C 	0.06316	0.99837	0.55835	-0.04
Mof_C 	C 	0.5011	0.06245	0.06154	0.045
Mof_C 	C 	0.06154	0.5011	0.06245	0.045
Mof_C 	C 	0.06245	0.06154	0.5011	0.045
Mof_C 	C 	0.93846	0.4989	0.93755	0.088
Mof_C 	C 	0.4989	0.93755	0.93846	0.088
Mof_C 	C 	0.93755	0.93846	0.4989	0.088
Mof_N 	N 	0.50351	0.3744	0.04369	-0.155
Mof_N 	N 	0.04369	0.50351	0.3744	-0.155
Mof_N 	N 	0.3744	0.04369	0.50351	-0.155
Mof_N 	N 	0.62534	0.49357	0.95434	-0.147
Mof_N 	N 	0.49357	0.95433	0.62534	-0.147
Mof_N 	N 	0.95433	0.62534	0.49357	-0.147
Mof_N 	N 	0.49649	0.6256	0.95631	-0.154
Mof_N 	N 	0.95631	0.49649	0.6256	-0.154
Mof_N 	N 	0.6256	0.95631	0.49649	-0.154
Mof_N 	N 	0.37466	0.50643	0.04567	-0.16
Mof_N 	N 	0.50643	0.04566	0.37466	-0.16
Mof_N 	N 	0.04566	0.37466	0.50643	-0.16
Mof_N 	N 	0.50292	0.12585	0.1251	-0.145
Mof_N 	N 	0.1251	0.50292	0.12586	-0.145
Mof_N 	N 	0.12585	0.1251	0.50292	-0.145
Mof_N 	N 	0.8749	0.49708	0.87415	-0.146
Mof_N 	N 	0.49708	0.87415	0.8749	-0.146
Mof_N 	N 	0.87415	0.8749	0.49708	-0.146
_end
