data_functionalizedCrystal
_audit_creation_method	'EQeq! by Chris Wilmer'
_symmetry_space_group_name_H-M	'P1'
_symmetry_Int_Tables_number	1
_symmetry_cell_setting	triclinic
loop_
_symmetry_equiv_pos_as_xyz
  x,y,z
_cell_length_a	10.15
_cell_length_b	11.0784
_cell_length_c	13.878
_cell_angle_alpha	107.373
_cell_angle_beta	92.242
_cell_angle_gamma	115.042
loop_
_atom_site_label
_atom_site_type_symbol
_atom_site_fract_x
_atom_site_fract_y
_atom_site_fract_z
_atom_site_charge
Mof_Eu	Eu	0.44153	0.45346	0.34788	2.056
Mof_Eu	Eu	0.55847	0.54654	0.65212	2.056
Mof_H 	H 	0.7756	0.8933	0.3885	0.035
Mof_H 	H 	0.1613	0.4869	0.3892	-0.013
Mof_H 	H 	0.9643	0.1783	0.1154	0.062
Mof_H 	H 	0.9492	0.8065	0.6907	0.062
Mof_H 	H 	0.9938	0.5815	0.7808	0.033
Mof_H 	H 	0.3983	0.0869	0.0865	0.069
Mof_H 	H 	0.2244	0.1067	0.6115	0.035
Mof_H 	H 	0.8387	0.5131	0.6108	-0.013
Mof_H 	H 	0.0357	0.8217	0.8846	0.062
Mof_H 	H 	0.0508	0.1935	0.3093	0.062
Mof_H 	H 	0.0062	0.4185	0.2192	0.033
Mof_H 	H 	0.6017	0.9131	0.9135	0.069
Mof_C 	C 	0.74	0.7576	0.5133	0.472
Mof_C 	C 	0.8781	0.8828	0.5107	-0.134
Mof_C 	C 	0.8676	0.9371	0.4347	-0.023
Mof_C 	C 	0.0149	0.947	0.5777	0.051
Mof_C 	C 	0.3016	0.5648	0.5744	0.418
Mof_C 	C 	0.1462	0.5341	0.5386	-0.132
Mof_C 	C 	0.0951	0.4929	0.4348	-0
Mof_C 	C 	0.0483	0.5404	0.6069	0.036
Mof_C 	C 	0.2318	0.2269	0.1721	0.313
Mof_C 	C 	0.1161	0.107	0.0819	-0.076
Mof_C 	C 	0.1389	0.9994	0.0117	0.045
Mof_C 	C 	0.9789	0.105	0.0681	-0.052
Mof_C 	C 	0.26	0.2424	0.4867	0.472
Mof_C 	C 	0.1219	0.1172	0.4893	-0.134
Mof_C 	C 	0.1324	0.0629	0.5653	-0.023
Mof_C 	C 	0.9851	0.053	0.4223	0.051
Mof_C 	C 	0.6984	0.4352	0.4256	0.418
Mof_C 	C 	0.8538	0.4659	0.4614	-0.132
Mof_C 	C 	0.9049	0.5071	0.5652	-0
Mof_C 	C 	0.9517	0.4596	0.3931	0.036
Mof_C 	C 	0.7682	0.7731	0.8279	0.313
Mof_C 	C 	0.8839	0.893	0.9181	-0.076
Mof_C 	C 	0.8611	0.0006	0.9883	0.045
Mof_C 	C 	0.0211	0.895	0.9319	-0.052
Mof_S 	S 	0.06066	0.8889	0.67397	-0.071
Mof_S 	S 	0.09924	0.58971	0.74175	-0.043
Mof_S 	S 	0.3083	0.98975	0.01481	-0.076
Mof_S 	S 	0.93934	0.1111	0.32603	-0.071
Mof_S 	S 	0.90076	0.41029	0.25825	-0.043
Mof_S 	S 	0.6917	0.01025	0.98519	-0.076
Mof_O 	O 	0.6515	0.6812	0.4287	-0.549
Mof_O 	O 	0.7212	0.7378	0.5977	-0.5
Mof_O 	O 	0.3462	0.596	0.6685	-0.475
Mof_O 	O 	0.3851	0.5538	0.5102	-0.619
Mof_O 	O 	0.2055	0.327	0.222	-0.466
Mof_O 	O 	0.3516	0.2243	0.197	-0.423
Mof_O 	O 	0.3485	0.3188	0.5713	-0.549
Mof_O 	O 	0.2788	0.2622	0.4023	-0.5
Mof_O 	O 	0.6538	0.404	0.3315	-0.475
Mof_O 	O 	0.6149	0.4462	0.4898	-0.619
Mof_O 	O 	0.7945	0.673	0.778	-0.466
Mof_O 	O 	0.6484	0.7757	0.803	-0.423
_end
