data_functionalizedCrystal
_audit_creation_method	'EQeq! by Chris Wilmer'
_symmetry_space_group_name_H-M	'P1'
_symmetry_Int_Tables_number	1
_symmetry_cell_setting	triclinic
loop_
_symmetry_equiv_pos_as_xyz
  x,y,z
_cell_length_a	13.5114
_cell_length_b	13.5114
_cell_length_c	8.0589
_cell_angle_alpha	90
_cell_angle_beta	90
_cell_angle_gamma	120
loop_
_atom_site_label
_atom_site_type_symbol
_atom_site_fract_x
_atom_site_fract_y
_atom_site_fract_z
_atom_site_charge
Mof_Mn	Mn	0.30247	0.33808	0.54568	0.789
Mof_O 	O 	0.2289	0.18047	0.4065	-0.343
Mof_C 	C 	0.53511	0.32253	0.5488	-0.143
Mof_C 	C 	0.35407	0.55993	0.7765	-0.138
Mof_O 	O 	0.24345	0.05717	0.24514	-0.347
Mof_C 	C 	0.26635	0.15693	0.2799	0.355
Mof_N 	N 	0.34674	0.20787	0.9997	-0.237
Mof_H 	H 	0.4112	0.2559	0.9448	0.114
Mof_H 	H 	0.2864	0.1977	0.9391	0.151
Mof_C 	C 	0.34533	0.25423	0.1635	-0.161
Mof_H 	H 	0.4227	0.2865	0.2086	0.058
Mof_N 	N 	0.36706	0.42788	0.3022	-0.297
Mof_H 	H 	0.3499	0.4841	0.2947	0.101
Mof_H 	H 	0.4437	0.4606	0.3004	0.105
Mof_C 	C 	0.3196	0.35242	0.1551	0.01
Mof_H 	H 	0.3528	0.3966	0.055	-0.001
Mof_H 	H 	0.2376	0.3215	0.1506	0.022
Mof_N 	N 	0.45571	0.32051	0.6058	-0.146
Mof_N 	N 	0.36818	0.49968	0.6904	-0.149
Mof_Mn	Mn	0.66192	0.96439	0.54568	0.785
Mof_O 	O 	0.81953	0.04843	0.4065	-0.338
Mof_C 	C 	0.67747	0.21258	0.5488	-0.142
Mof_C 	C 	0.44007	0.79414	0.7765	-0.139
Mof_O 	O 	0.94283	0.18628	0.24514	-0.346
Mof_C 	C 	0.84307	0.10942	0.2799	0.354
Mof_N 	N 	0.79213	0.13887	0.9997	-0.237
Mof_H 	H 	0.7441	0.1553	0.9448	0.115
Mof_H 	H 	0.8023	0.0887	0.9391	0.154
Mof_C 	C 	0.74577	0.0911	0.1635	-0.158
Mof_H 	H 	0.7135	0.1362	0.2086	0.058
Mof_N 	N 	0.57212	0.93918	0.3022	-0.296
Mof_H 	H 	0.5159	0.8658	0.2947	0.101
Mof_H 	H 	0.5394	0.9831	0.3004	0.103
Mof_C 	C 	0.64758	0.96718	0.1551	0.005
Mof_H 	H 	0.6034	0.9562	0.055	0
Mof_H 	H 	0.6785	0.9161	0.1506	0.023
Mof_N 	N 	0.67949	0.1352	0.6058	-0.144
Mof_N 	N 	0.50032	0.8685	0.6904	-0.15
Mof_Mn	Mn	0.03561	0.69753	0.54568	0.784
Mof_O 	O 	0.95157	0.7711	0.4065	-0.339
Mof_C 	C 	0.78742	0.46489	0.5488	-0.143
Mof_C 	C 	0.20586	0.64593	0.7765	-0.14
Mof_O 	O 	0.81372	0.75655	0.24514	-0.348
Mof_C 	C 	0.89058	0.73365	0.2799	0.354
Mof_N 	N 	0.86113	0.65326	0.9997	-0.238
Mof_H 	H 	0.8447	0.5888	0.9448	0.115
Mof_H 	H 	0.9113	0.7136	0.9391	0.153
Mof_C 	C 	0.9089	0.65467	0.1635	-0.157
Mof_H 	H 	0.8638	0.5773	0.2086	0.058
Mof_N 	N 	0.06082	0.63294	0.3022	-0.296
Mof_H 	H 	0.1342	0.6501	0.2947	0.101
Mof_H 	H 	0.0169	0.5563	0.3004	0.103
Mof_C 	C 	0.03282	0.6804	0.1551	0.004
Mof_H 	H 	0.0438	0.6472	0.055	0.001
Mof_H 	H 	0.0839	0.7624	0.1506	0.024
Mof_N 	N 	0.8648	0.54429	0.6058	-0.144
Mof_N 	N 	0.1315	0.63182	0.6904	-0.15
Mof_Mn	Mn	0.69753	0.66192	0.04568	0.708
Mof_O 	O 	0.7711	0.81953	0.9065	-0.3
Mof_C 	C 	0.46489	0.67747	0.0488	-0.205
Mof_C 	C 	0.64593	0.44007	0.2765	-0.148
Mof_O 	O 	0.75655	0.94283	0.74514	-0.334
Mof_C 	C 	0.73365	0.84307	0.7799	0.344
Mof_N 	N 	0.65326	0.79213	0.4997	-0.275
Mof_H 	H 	0.5888	0.7441	0.4448	0.102
Mof_H 	H 	0.7136	0.8023	0.4391	0.141
Mof_C 	C 	0.65467	0.74577	0.6635	-0.103
Mof_H 	H 	0.5773	0.7135	0.7086	0.054
Mof_N 	N 	0.63294	0.57212	0.8022	-0.283
Mof_H 	H 	0.6501	0.5159	0.7947	0.11
Mof_H 	H 	0.5563	0.5394	0.8004	0.117
Mof_C 	C 	0.6804	0.64758	0.6551	-0.019
Mof_H 	H 	0.6472	0.6034	0.555	0.027
Mof_H 	H 	0.7624	0.6785	0.6506	0.044
Mof_N 	N 	0.54429	0.67949	0.1058	-0.138
Mof_N 	N 	0.63182	0.50032	0.1904	-0.157
Mof_Mn	Mn	0.33808	0.03561	0.04568	0.712
Mof_O 	O 	0.18047	0.95157	0.9065	-0.307
Mof_C 	C 	0.32253	0.78742	0.0488	-0.204
Mof_C 	C 	0.55993	0.20586	0.2765	-0.148
Mof_O 	O 	0.05717	0.81372	0.74514	-0.336
Mof_C 	C 	0.15693	0.89058	0.7799	0.346
Mof_N 	N 	0.20787	0.86113	0.4997	-0.273
Mof_H 	H 	0.2559	0.8447	0.4448	0.101
Mof_H 	H 	0.1977	0.9113	0.4391	0.139
Mof_C 	C 	0.25423	0.9089	0.6635	-0.111
Mof_H 	H 	0.2865	0.8638	0.7086	0.055
Mof_N 	N 	0.42788	0.06082	0.8022	-0.284
Mof_H 	H 	0.4841	0.1342	0.7947	0.11
Mof_H 	H 	0.4606	0.0169	0.8004	0.119
Mof_C 	C 	0.35242	0.03282	0.6551	-0.009
Mof_H 	H 	0.3966	0.0438	0.555	0.025
Mof_H 	H 	0.3215	0.0839	0.6506	0.042
Mof_N 	N 	0.32051	0.8648	0.1058	-0.139
Mof_N 	N 	0.49968	0.1315	0.1904	-0.157
Mof_Mn	Mn	0.96439	0.30247	0.04568	0.71
Mof_O 	O 	0.04843	0.2289	0.9065	-0.303
Mof_C 	C 	0.21258	0.53511	0.0488	-0.205
Mof_C 	C 	0.79414	0.35407	0.2765	-0.148
Mof_O 	O 	0.18628	0.24345	0.74514	-0.332
Mof_C 	C 	0.10942	0.26635	0.7799	0.345
Mof_N 	N 	0.13887	0.34674	0.4997	-0.274
Mof_H 	H 	0.1553	0.4112	0.4448	0.101
Mof_H 	H 	0.0887	0.2864	0.4391	0.14
Mof_C 	C 	0.0911	0.34533	0.6635	-0.11
Mof_H 	H 	0.1362	0.4227	0.7086	0.055
Mof_N 	N 	0.93918	0.36706	0.8022	-0.284
Mof_H 	H 	0.8658	0.3499	0.7947	0.111
Mof_H 	H 	0.9831	0.4437	0.8004	0.119
Mof_C 	C 	0.96718	0.3196	0.6551	-0.01
Mof_H 	H 	0.9562	0.3528	0.555	0.026
Mof_H 	H 	0.9161	0.2376	0.6506	0.043
Mof_N 	N 	0.1352	0.45571	0.1058	-0.139
Mof_N 	N 	0.8685	0.36818	0.1904	-0.157
Mof_Mn	Mn	0.33333	0.66667	0.92125	0.919
Mof_Mn	Mn	0.66667	0.33333	0.42125	0.794
_end
