# CIF file generated by openbabel 3.1.0, see https://openbabel.org
data_I
_chemical_name_common 'OKIWUB01_charged'
_cell_length_a 15.8633
_cell_length_b 15.8633
_cell_length_c 21.76
_cell_angle_alpha 90
_cell_angle_beta 90
_cell_angle_gamma 90
_space_group_name_H-M_alt 'P 1'
_space_group_name_Hall 'P 1'
loop_
    _symmetry_equiv_pos_as_xyz
    x,y,z
loop_
    _atom_site_label
    _atom_site_type_symbol
    _atom_site_fract_x
    _atom_site_fract_y
    _atom_site_fract_z
    _atom_site_occupancy
    Cd1      Cd       0.94096    0.05904    0.75000    1.000
    Cd2      Cd       0.05904    0.94096    0.25000    1.000
    Cd3      Cd       0.44096    0.44096    0.50000    1.000
    Cd4      Cd       0.55904    0.55904    0.00000    1.000
    H1       H        0.46460    0.38690    0.64930    1.000
    H2       H        0.41550    0.28600    0.71610    1.000
    H3       H        0.21090    0.26250    0.60590    1.000
    H4       H        0.26980    0.36040    0.54060    1.000
    H5       H        0.34680    0.20490    0.78110    1.000
    H6       H        0.29590    0.09110    0.83620    1.000
    H7       H        0.19770    0.99850    0.79270    1.000
    H8       H        0.19720    0.13930    0.63720    1.000
    H9       H        0.95580    0.88110    0.54020    1.000
    H10      H        0.93480    0.76960    0.47300    1.000
    H11      H        0.03660    0.66590    0.46180    1.000
    H12      H        0.17520    0.77690    0.59540    1.000
    H13      H        0.14870    0.60100    0.43750    1.000
    H14      H        0.25810    0.50410    0.42730    1.000
    H15      H        0.34260    0.55970    0.59180    1.000
    H16      H        0.23450    0.65440    0.60780    1.000
    H17      H        0.26020    0.89870    0.64700    1.000
    H18      H        0.25700    0.97490    0.60740    1.000
    H19      H        0.53540    0.61310    0.14930    1.000
    H20      H        0.58450    0.71400    0.21610    1.000
    H21      H        0.78910    0.73750    0.10590    1.000
    H22      H        0.73020    0.63960    0.04060    1.000
    H23      H        0.65320    0.79510    0.28110    1.000
    H24      H        0.70410    0.90890    0.33620    1.000
    H25      H        0.80230    0.00150    0.29270    1.000
    H26      H        0.80280    0.86070    0.13720    1.000
    H27      H        0.04420    0.11890    0.04020    1.000
    H28      H        0.06520    0.23040    0.97300    1.000
    H29      H        0.96340    0.33410    0.96180    1.000
    H30      H        0.82480    0.22310    0.09540    1.000
    H31      H        0.85130    0.39900    0.93750    1.000
    H32      H        0.74190    0.49590    0.92730    1.000
    H33      H        0.65740    0.44030    0.09180    1.000
    H34      H        0.76550    0.34560    0.10780    1.000
    H35      H        0.73980    0.10130    0.14700    1.000
    H36      H        0.74300    0.02510    0.10740    1.000
    H37      H        0.11310    0.96460    0.39930    1.000
    H38      H        0.21400    0.91550    0.46610    1.000
    H39      H        0.23750    0.71090    0.35590    1.000
    H40      H        0.13960    0.76980    0.29060    1.000
    H41      H        0.29510    0.84680    0.53110    1.000
    H42      H        0.40890    0.79590    0.58620    1.000
    H43      H        0.50150    0.69770    0.54270    1.000
    H44      H        0.36070    0.69720    0.38720    1.000
    H45      H        0.61890    0.45580    0.29020    1.000
    H46      H        0.73040    0.43480    0.22300    1.000
    H47      H        0.83410    0.53660    0.21180    1.000
    H48      H        0.72310    0.67520    0.34540    1.000
    H49      H        0.89900    0.64870    0.18750    1.000
    H50      H        0.99590    0.75810    0.17730    1.000
    H51      H        0.94030    0.84260    0.34180    1.000
    H52      H        0.84560    0.73450    0.35780    1.000
    H53      H        0.60130    0.76020    0.39700    1.000
    H54      H        0.52510    0.75700    0.35740    1.000
    H55      H        0.88690    0.03540    0.89930    1.000
    H56      H        0.78600    0.08450    0.96610    1.000
    H57      H        0.76250    0.28910    0.85590    1.000
    H58      H        0.86040    0.23020    0.79060    1.000
    H59      H        0.70490    0.15320    0.03110    1.000
    H60      H        0.59110    0.20410    0.08620    1.000
    H61      H        0.49850    0.30230    0.04270    1.000
    H62      H        0.63930    0.30280    0.88720    1.000
    H63      H        0.38110    0.54420    0.79020    1.000
    H64      H        0.26960    0.56520    0.72300    1.000
    H65      H        0.16590    0.46340    0.71180    1.000
    H66      H        0.27690    0.32480    0.84540    1.000
    H67      H        0.10100    0.35130    0.68750    1.000
    H68      H        0.00410    0.24190    0.67730    1.000
    H69      H        0.05970    0.15740    0.84180    1.000
    H70      H        0.15440    0.26550    0.85780    1.000
    H71      H        0.39870    0.23980    0.89700    1.000
    H72      H        0.47490    0.24300    0.85740    1.000
    H73      H        0.03540    0.88690    0.10070    1.000
    H74      H        0.08450    0.78600    0.03390    1.000
    H75      H        0.28910    0.76250    0.14410    1.000
    H76      H        0.23020    0.86040    0.20940    1.000
    H77      H        0.15320    0.70490    0.96890    1.000
    H78      H        0.20410    0.59110    0.91380    1.000
    H79      H        0.30230    0.49850    0.95730    1.000
    H80      H        0.30280    0.63930    0.11280    1.000
    H81      H        0.54420    0.38110    0.20980    1.000
    H82      H        0.56520    0.26960    0.27700    1.000
    H83      H        0.46340    0.16590    0.28820    1.000
    H84      H        0.32480    0.27690    0.15460    1.000
    H85      H        0.35130    0.10100    0.31250    1.000
    H86      H        0.24190    0.00410    0.32270    1.000
    H87      H        0.15740    0.05970    0.15820    1.000
    H88      H        0.26550    0.15440    0.14220    1.000
    H89      H        0.23980    0.39870    0.10300    1.000
    H90      H        0.24300    0.47490    0.14260    1.000
    H91      H        0.96460    0.11310    0.60070    1.000
    H92      H        0.91550    0.21400    0.53390    1.000
    H93      H        0.71090    0.23750    0.64410    1.000
    H94      H        0.76980    0.13960    0.70940    1.000
    H95      H        0.84680    0.29510    0.46890    1.000
    H96      H        0.79590    0.40890    0.41380    1.000
    H97      H        0.69770    0.50150    0.45730    1.000
    H98      H        0.69720    0.36070    0.61280    1.000
    H99      H        0.45580    0.61890    0.70980    1.000
    H100     H        0.43480    0.73040    0.77700    1.000
    H101     H        0.53660    0.83410    0.78820    1.000
    H102     H        0.67520    0.72310    0.65460    1.000
    H103     H        0.64870    0.89900    0.81250    1.000
    H104     H        0.75810    0.99590    0.82270    1.000
    H105     H        0.84260    0.94030    0.65820    1.000
    H106     H        0.73450    0.84560    0.64220    1.000
    H107     H        0.76020    0.60130    0.60300    1.000
    H108     H        0.75700    0.52510    0.64260    1.000
    H109     H        0.38690    0.46460    0.35070    1.000
    H110     H        0.28600    0.41550    0.28390    1.000
    H111     H        0.26250    0.21090    0.39410    1.000
    H112     H        0.36040    0.26980    0.45940    1.000
    H113     H        0.20490    0.34680    0.21890    1.000
    H114     H        0.09110    0.29590    0.16380    1.000
    H115     H        0.99850    0.19770    0.20730    1.000
    H116     H        0.13930    0.19720    0.36280    1.000
    H117     H        0.88110    0.95580    0.45980    1.000
    H118     H        0.76960    0.93480    0.52700    1.000
    H119     H        0.66590    0.03660    0.53820    1.000
    H120     H        0.77690    0.17520    0.40460    1.000
    H121     H        0.60100    0.14870    0.56250    1.000
    H122     H        0.50410    0.25810    0.57270    1.000
    H123     H        0.55970    0.34260    0.40820    1.000
    H124     H        0.65440    0.23450    0.39220    1.000
    H125     H        0.89870    0.26020    0.35300    1.000
    H126     H        0.97490    0.25700    0.39260    1.000
    H127     H        0.61310    0.53540    0.85070    1.000
    H128     H        0.71400    0.58450    0.78390    1.000
    H129     H        0.73750    0.78910    0.89410    1.000
    H130     H        0.63960    0.73020    0.95940    1.000
    H131     H        0.79510    0.65320    0.71890    1.000
    H132     H        0.90890    0.70410    0.66380    1.000
    H133     H        0.00150    0.80230    0.70730    1.000
    H134     H        0.86070    0.80280    0.86280    1.000
    H135     H        0.11890    0.04420    0.95980    1.000
    H136     H        0.23040    0.06520    0.02700    1.000
    H137     H        0.33410    0.96340    0.03820    1.000
    H138     H        0.22310    0.82480    0.90460    1.000
    H139     H        0.39900    0.85130    0.06250    1.000
    H140     H        0.49590    0.74190    0.07270    1.000
    H141     H        0.44030    0.65740    0.90820    1.000
    H142     H        0.34560    0.76550    0.89220    1.000
    H143     H        0.10130    0.73980    0.85300    1.000
    H144     H        0.02510    0.74300    0.89260    1.000
    C1       C        0.41350    0.35870    0.63940    1.000
    C2       C        0.38500    0.29860    0.67970    1.000
    C3       C        0.30900    0.25580    0.66580    1.000
    C4       C        0.26540    0.28440    0.61460    1.000
    C5       C        0.30010    0.34410    0.57630    1.000
    C6       C        0.27850    0.18420    0.70330    1.000
    C7       C        0.30640    0.16840    0.76280    1.000
    C8       C        0.27630    0.10060    0.79560    1.000
    C9       C        0.21770    0.04560    0.77000    1.000
    C10      C        0.18890    0.06060    0.71060    1.000
    C11      C        0.21800    0.12920    0.67750    1.000
    C12      C        0.12660    0.00510    0.68010    1.000
    C13      C        0.07580    0.90940    0.61830    1.000
    C14      C        0.06760    0.83900    0.57390    1.000
    C15      C        0.99640    0.83720    0.53750    1.000
    C16      C        0.98460    0.77170    0.49730    1.000
    C17      C        0.04390    0.70910    0.49160    1.000
    C18      C        0.11480    0.70870    0.52940    1.000
    C19      C        0.12640    0.77530    0.57010    1.000
    C20      C        0.18070    0.64180    0.52290    1.000
    C21      C        0.18830    0.59420    0.46990    1.000
    C22      C        0.25420    0.53620    0.46400    1.000
    C23      C        0.30280    0.56830    0.55980    1.000
    C24      C        0.23890    0.62590    0.56960    1.000
    C25      C        0.58650    0.64130    0.13940    1.000
    C26      C        0.61500    0.70140    0.17970    1.000
    C27      C        0.69100    0.74420    0.16580    1.000
    C28      C        0.73460    0.71560    0.11460    1.000
    C29      C        0.69990    0.65590    0.07630    1.000
    C30      C        0.72150    0.81580    0.20330    1.000
    C31      C        0.69360    0.83160    0.26280    1.000
    C32      C        0.72370    0.89940    0.29560    1.000
    C33      C        0.78230    0.95440    0.27000    1.000
    C34      C        0.81110    0.93940    0.21060    1.000
    C35      C        0.78200    0.87080    0.17750    1.000
    C36      C        0.87340    0.99490    0.18010    1.000
    C37      C        0.92420    0.09060    0.11830    1.000
    C38      C        0.93240    0.16100    0.07390    1.000
    C39      C        0.00360    0.16280    0.03750    1.000
    C40      C        0.01540    0.22830    0.99730    1.000
    C41      C        0.95610    0.29090    0.99160    1.000
    C42      C        0.88520    0.29130    0.02940    1.000
    C43      C        0.87360    0.22470    0.07010    1.000
    C44      C        0.81930    0.35820    0.02290    1.000
    C45      C        0.81170    0.40580    0.96990    1.000
    C46      C        0.74580    0.46380    0.96400    1.000
    C47      C        0.69720    0.43170    0.05980    1.000
    C48      C        0.76110    0.37410    0.06960    1.000
    C49      C        0.14130    0.91350    0.38940    1.000
    C50      C        0.20140    0.88500    0.42970    1.000
    C51      C        0.24420    0.80900    0.41580    1.000
    C52      C        0.21560    0.76540    0.36460    1.000
    C53      C        0.15590    0.80010    0.32630    1.000
    C54      C        0.31580    0.77850    0.45330    1.000
    C55      C        0.33160    0.80640    0.51280    1.000
    C56      C        0.39940    0.77630    0.54560    1.000
    C57      C        0.45440    0.71770    0.52000    1.000
    C58      C        0.43940    0.68890    0.46060    1.000
    C59      C        0.37080    0.71800    0.42750    1.000
    C60      C        0.49490    0.62660    0.43010    1.000
    C61      C        0.59060    0.57580    0.36830    1.000
    C62      C        0.66100    0.56760    0.32390    1.000
    C63      C        0.66280    0.49640    0.28750    1.000
    C64      C        0.72830    0.48460    0.24730    1.000
    C65      C        0.79090    0.54390    0.24160    1.000
    C66      C        0.79130    0.61480    0.27940    1.000
    C67      C        0.72470    0.62640    0.32010    1.000
    C68      C        0.85820    0.68070    0.27290    1.000
    C69      C        0.90580    0.68830    0.21990    1.000
    C70      C        0.96380    0.75420    0.21400    1.000
    C71      C        0.93170    0.80280    0.30980    1.000
    C72      C        0.87410    0.73890    0.31960    1.000
    C73      C        0.85870    0.08650    0.88940    1.000
    C74      C        0.79860    0.11500    0.92970    1.000
    C75      C        0.75580    0.19100    0.91580    1.000
    C76      C        0.78440    0.23460    0.86460    1.000
    C77      C        0.84410    0.19990    0.82630    1.000
    C78      C        0.68420    0.22150    0.95330    1.000
    C79      C        0.66840    0.19360    0.01280    1.000
    C80      C        0.60060    0.22370    0.04560    1.000
    C81      C        0.54560    0.28230    0.02000    1.000
    C82      C        0.56060    0.31110    0.96060    1.000
    C83      C        0.62920    0.28200    0.92750    1.000
    C84      C        0.50510    0.37340    0.93010    1.000
    C85      C        0.40940    0.42420    0.86830    1.000
    C86      C        0.33900    0.43240    0.82390    1.000
    C87      C        0.33720    0.50360    0.78750    1.000
    C88      C        0.27170    0.51540    0.74730    1.000
    C89      C        0.20910    0.45610    0.74160    1.000
    C90      C        0.20870    0.38520    0.77940    1.000
    C91      C        0.27530    0.37360    0.82010    1.000
    C92      C        0.14180    0.31930    0.77290    1.000
    C93      C        0.09420    0.31170    0.71990    1.000
    C94      C        0.03620    0.24580    0.71400    1.000
    C95      C        0.06830    0.19720    0.80980    1.000
    C96      C        0.12590    0.26110    0.81960    1.000
    C97      C        0.08650    0.85870    0.11060    1.000
    C98      C        0.11500    0.79860    0.07030    1.000
    C99      C        0.19100    0.75580    0.08420    1.000
    C100     C        0.23460    0.78440    0.13540    1.000
    C101     C        0.19990    0.84410    0.17370    1.000
    C102     C        0.22150    0.68420    0.04670    1.000
    C103     C        0.19360    0.66840    0.98720    1.000
    C104     C        0.22370    0.60060    0.95440    1.000
    C105     C        0.28230    0.54560    0.98000    1.000
    C106     C        0.31110    0.56060    0.03940    1.000
    C107     C        0.28200    0.62920    0.07250    1.000
    C108     C        0.37340    0.50510    0.06990    1.000
    C109     C        0.42420    0.40940    0.13170    1.000
    C110     C        0.43240    0.33900    0.17610    1.000
    C111     C        0.50360    0.33720    0.21250    1.000
    C112     C        0.51540    0.27170    0.25270    1.000
    C113     C        0.45610    0.20910    0.25840    1.000
    C114     C        0.38520    0.20870    0.22060    1.000
    C115     C        0.37360    0.27530    0.17990    1.000
    C116     C        0.31930    0.14180    0.22710    1.000
    C117     C        0.31170    0.09420    0.28010    1.000
    C118     C        0.24580    0.03620    0.28600    1.000
    C119     C        0.19720    0.06830    0.19020    1.000
    C120     C        0.26110    0.12590    0.18040    1.000
    C121     C        0.91350    0.14130    0.61060    1.000
    C122     C        0.88500    0.20140    0.57030    1.000
    C123     C        0.80900    0.24420    0.58420    1.000
    C124     C        0.76540    0.21560    0.63540    1.000
    C125     C        0.80010    0.15590    0.67370    1.000
    C126     C        0.77850    0.31580    0.54670    1.000
    C127     C        0.80640    0.33160    0.48720    1.000
    C128     C        0.77630    0.39940    0.45440    1.000
    C129     C        0.71770    0.45440    0.48000    1.000
    C130     C        0.68890    0.43940    0.53940    1.000
    C131     C        0.71800    0.37080    0.57250    1.000
    C132     C        0.62660    0.49490    0.56990    1.000
    C133     C        0.57580    0.59060    0.63170    1.000
    C134     C        0.56760    0.66100    0.67610    1.000
    C135     C        0.49640    0.66280    0.71250    1.000
    C136     C        0.48460    0.72830    0.75270    1.000
    C137     C        0.54390    0.79090    0.75840    1.000
    C138     C        0.61480    0.79130    0.72060    1.000
    C139     C        0.62640    0.72470    0.67990    1.000
    C140     C        0.68070    0.85820    0.72710    1.000
    C141     C        0.68830    0.90580    0.78010    1.000
    C142     C        0.75420    0.96380    0.78600    1.000
    C143     C        0.80280    0.93170    0.69020    1.000
    C144     C        0.73890    0.87410    0.68040    1.000
    C145     C        0.35870    0.41350    0.36060    1.000
    C146     C        0.29860    0.38500    0.32030    1.000
    C147     C        0.25580    0.30900    0.33420    1.000
    C148     C        0.28440    0.26540    0.38540    1.000
    C149     C        0.34410    0.30010    0.42370    1.000
    C150     C        0.18420    0.27850    0.29670    1.000
    C151     C        0.16840    0.30640    0.23720    1.000
    C152     C        0.10060    0.27630    0.20440    1.000
    C153     C        0.04560    0.21770    0.23000    1.000
    C154     C        0.06060    0.18890    0.28940    1.000
    C155     C        0.12920    0.21800    0.32250    1.000
    C156     C        0.00510    0.12660    0.31990    1.000
    C157     C        0.90940    0.07580    0.38170    1.000
    C158     C        0.83900    0.06760    0.42610    1.000
    C159     C        0.83720    0.99640    0.46250    1.000
    C160     C        0.77170    0.98460    0.50270    1.000
    C161     C        0.70910    0.04390    0.50840    1.000
    C162     C        0.70870    0.11480    0.47060    1.000
    C163     C        0.77530    0.12640    0.42990    1.000
    C164     C        0.64180    0.18070    0.47710    1.000
    C165     C        0.59420    0.18830    0.53010    1.000
    C166     C        0.53620    0.25420    0.53600    1.000
    C167     C        0.56830    0.30280    0.44020    1.000
    C168     C        0.62590    0.23890    0.43040    1.000
    C169     C        0.64130    0.58650    0.86060    1.000
    C170     C        0.70140    0.61500    0.82030    1.000
    C171     C        0.74420    0.69100    0.83420    1.000
    C172     C        0.71560    0.73460    0.88540    1.000
    C173     C        0.65590    0.69990    0.92370    1.000
    C174     C        0.81580    0.72150    0.79670    1.000
    C175     C        0.83160    0.69360    0.73720    1.000
    C176     C        0.89940    0.72370    0.70440    1.000
    C177     C        0.95440    0.78230    0.73000    1.000
    C178     C        0.93940    0.81110    0.78940    1.000
    C179     C        0.87080    0.78200    0.82250    1.000
    C180     C        0.99490    0.87340    0.81990    1.000
    C181     C        0.09060    0.92420    0.88170    1.000
    C182     C        0.16100    0.93240    0.92610    1.000
    C183     C        0.16280    0.00360    0.96250    1.000
    C184     C        0.22830    0.01540    0.00270    1.000
    C185     C        0.29090    0.95610    0.00840    1.000
    C186     C        0.29130    0.88520    0.97060    1.000
    C187     C        0.22470    0.87360    0.92990    1.000
    C188     C        0.35820    0.81930    0.97710    1.000
    C189     C        0.40580    0.81170    0.03010    1.000
    C190     C        0.46380    0.74580    0.03600    1.000
    C191     C        0.43170    0.69720    0.94020    1.000
    C192     C        0.37410    0.76110    0.93040    1.000
    N1       N        0.37490    0.38040    0.58729    1.000
    N2       N        0.04420    0.00650    0.68380    1.000
    N3       N        0.01190    0.94530    0.64557    1.000
    N4       N        0.14910    0.94440    0.63957    1.000
    N5       N        0.23040    0.92600    0.61730    1.000
    N6       N        0.31200    0.52410    0.50810    1.000
    N7       N        0.62510    0.61960    0.08729    1.000
    N8       N        0.95580    0.99350    0.18380    1.000
    N9       N        0.98810    0.05470    0.14557    1.000
    N10      N        0.85090    0.05560    0.13957    1.000
    N11      N        0.76960    0.07400    0.11730    1.000
    N12      N        0.68800    0.47590    0.00810    1.000
    N13      N        0.11960    0.87490    0.33729    1.000
    N14      N        0.49350    0.54420    0.43380    1.000
    N15      N        0.55470    0.51190    0.39557    1.000
    N16      N        0.55560    0.64910    0.38957    1.000
    N17      N        0.57400    0.73040    0.36730    1.000
    N18      N        0.97590    0.81200    0.25810    1.000
    N19      N        0.88040    0.12510    0.83729    1.000
    N20      N        0.50650    0.45580    0.93380    1.000
    N21      N        0.44530    0.48810    0.89557    1.000
    N22      N        0.44440    0.35090    0.88957    1.000
    N23      N        0.42600    0.26960    0.86730    1.000
    N24      N        0.02410    0.18800    0.75810    1.000
    N25      N        0.12510    0.88040    0.16271    1.000
    N26      N        0.45580    0.50650    0.06620    1.000
    N27      N        0.48810    0.44530    0.10443    1.000
    N28      N        0.35090    0.44440    0.11043    1.000
    N29      N        0.26960    0.42600    0.13270    1.000
    N30      N        0.18800    0.02410    0.24190    1.000
    N31      N        0.87490    0.11960    0.66271    1.000
    N32      N        0.54420    0.49350    0.56620    1.000
    N33      N        0.51190    0.55470    0.60443    1.000
    N34      N        0.64910    0.55560    0.61043    1.000
    N35      N        0.73040    0.57400    0.63270    1.000
    N36      N        0.81200    0.97590    0.74190    1.000
    N37      N        0.38040    0.37490    0.41271    1.000
    N38      N        0.00650    0.04420    0.31620    1.000
    N39      N        0.94530    0.01190    0.35443    1.000
    N40      N        0.94440    0.14910    0.36043    1.000
    N41      N        0.92600    0.23040    0.38270    1.000
    N42      N        0.52410    0.31200    0.49190    1.000
    N43      N        0.61960    0.62510    0.91271    1.000
    N44      N        0.99350    0.95580    0.81620    1.000
    N45      N        0.05470    0.98810    0.85443    1.000
    N46      N        0.05560    0.85090    0.86043    1.000
    N47      N        0.07400    0.76960    0.88270    1.000
    N48      N        0.47590    0.68800    0.99190    1.000
    Cl1      Cl       0.87739    0.87739    0.00000    1.000
    O1       O        0.81230    0.88370    0.96480    1.000
    O2       O        0.93650    0.87340    0.96110    1.000
    O3       O        0.88370    0.81230    0.03520    1.000
    O4       O        0.87340    0.93650    0.03890    1.000
    Cl2      Cl       0.12261    0.12261    0.50000    1.000
    O5       O        0.18770    0.11630    0.46480    1.000
    O6       O        0.06350    0.12660    0.46110    1.000
    O7       O        0.11630    0.18770    0.53520    1.000
    O8       O        0.12660    0.06350    0.53890    1.000
    Cl3      Cl       0.62261    0.37739    0.75000    1.000
    O9       O        0.61630    0.31230    0.71480    1.000
    O10      O        0.62660    0.43650    0.71110    1.000
    O11      O        0.68770    0.38370    0.78520    1.000
    O12      O        0.56350    0.37340    0.78890    1.000
    Cl4      Cl       0.37739    0.62261    0.25000    1.000
    O13      O        0.38370    0.68770    0.21480    1.000
    O14      O        0.37340    0.56350    0.21110    1.000
    O15      O        0.31230    0.61630    0.28520    1.000
    O16      O        0.43650    0.62660    0.28890    1.000
