data_functionalizedCrystal
_audit_creation_method	'EQeq! by Chris Wilmer'
_symmetry_space_group_name_H-M	'P1'
_symmetry_Int_Tables_number	1
_symmetry_cell_setting	triclinic
loop_
_symmetry_equiv_pos_as_xyz
  x,y,z
_cell_length_a	10.0292
_cell_length_b	10.0292
_cell_length_c	20.808
_cell_angle_alpha	90
_cell_angle_beta	90
_cell_angle_gamma	90
loop_
_atom_site_label
_atom_site_type_symbol
_atom_site_fract_x
_atom_site_fract_y
_atom_site_fract_z
_atom_site_charge
Mof_Na	Na	0.9571	0.8456	0.02198	2.637
Mof_Na	Na	0.289	0.8291	0.025	1.663
Mof_Na	Na	0.0429	0.1544	0.52198	2.863
Mof_Na	Na	0.711	0.1709	0.525	1.84
Mof_Na	Na	0.1544	0.9571	0.77198	2.888
Mof_Na	Na	0.1709	0.289	0.775	1.824
Mof_Na	Na	0.8456	0.0429	0.27198	2.875
Mof_Na	Na	0.8291	0.711	0.275	1.822
Mof_Co	Co	0.11843	0.79001	0.8944	1.078
Mof_Co	Co	0.88157	0.20999	0.3944	1.07
Mof_Co	Co	0.20999	0.11843	0.6444	1.067
Mof_Co	Co	0.79001	0.88157	0.1444	1.072
Mof_H 	H 	0.6273	0.7922	0.9058	-0.1
Mof_H 	H 	0.4183	0.8029	0.7391	-0.122
Mof_H 	H 	0.6194	0.8179	0.6809	0.094
Mof_H 	H 	0.8215	0.8208	0.736	-0.122
Mof_H 	H 	0.1412	0.3291	0.9046	-0.189
Mof_H 	H 	0.1323	0.4778	0.0846	-0.053
Mof_H 	H 	0.1356	0.2599	0.126	0.041
Mof_H 	H 	0.1341	0.0779	0.0566	-0.167
Mof_H 	H 	0.3727	0.2078	0.4058	-0.123
Mof_H 	H 	0.5817	0.1971	0.2391	-0.131
Mof_H 	H 	0.3806	0.1821	0.1809	0.097
Mof_H 	H 	0.1785	0.1792	0.236	-0.129
Mof_H 	H 	0.8588	0.6709	0.4046	-0.236
Mof_H 	H 	0.8677	0.5222	0.5846	-0.124
Mof_H 	H 	0.8644	0.7401	0.626	0.109
Mof_H 	H 	0.8659	0.9221	0.5566	-0.244
Mof_H 	H 	0.2078	0.6273	0.6558	-0.123
Mof_H 	H 	0.1971	0.4183	0.4891	-0.128
Mof_H 	H 	0.1821	0.6194	0.4309	0.098
Mof_H 	H 	0.1792	0.8215	0.486	-0.13
Mof_H 	H 	0.6709	0.1412	0.6546	-0.239
Mof_H 	H 	0.5222	0.1323	0.8346	-0.12
Mof_H 	H 	0.7401	0.1356	0.876	0.113
Mof_H 	H 	0.9221	0.1341	0.8066	-0.244
Mof_H 	H 	0.7922	0.3727	0.1558	-0.024
Mof_H 	H 	0.8029	0.5817	0.9891	0.147
Mof_H 	H 	0.8179	0.3806	0.9309	-0.128
Mof_H 	H 	0.8208	0.1785	0.986	0.145
Mof_H 	H 	0.3291	0.8588	0.1546	-0.225
Mof_H 	H 	0.4778	0.8677	0.3346	-0.123
Mof_H 	H 	0.2599	0.8644	0.376	0.106
Mof_H 	H 	0.0779	0.8659	0.3066	-0.245
Mof_C 	C 	0.7442	0.8087	0.8259	-0.403
Mof_C 	C 	0.6252	0.799	0.8603	0.292
Mof_C 	C 	0.5041	0.7993	0.8284	-0.402
Mof_C 	C 	0.5012	0.8049	0.7612	0.24
Mof_C 	C 	0.6207	0.8134	0.7265	-0.325
Mof_C 	C 	0.7404	0.8151	0.7594	0.259
Mof_C 	C 	0.876	0.8082	0.8596	0.652
Mof_C 	C 	0.3771	0.7926	0.8655	0.614
Mof_C 	C 	0.1381	0.1849	0.9732	-0.33
Mof_C 	C 	0.1383	0.3147	0.9497	0.242
Mof_C 	C 	0.1342	0.4239	0.9909	-0.252
Mof_C 	C 	0.1336	0.4037	0.0562	0.056
Mof_C 	C 	0.135	0.2738	0.0808	-0.203
Mof_C 	C 	0.1355	0.1658	0.0396	0.085
Mof_C 	C 	0.1344	0.0672	0.9277	0.628
Mof_C 	C 	0.1259	0.5664	0.9667	0.596
Mof_C 	C 	0.2558	0.1913	0.3259	-0.428
Mof_C 	C 	0.3748	0.201	0.3603	0.312
Mof_C 	C 	0.4959	0.2007	0.3284	-0.428
Mof_C 	C 	0.4988	0.1951	0.2612	0.255
Mof_C 	C 	0.3793	0.1866	0.2265	-0.341
Mof_C 	C 	0.2596	0.1849	0.2594	0.274
Mof_C 	C 	0.124	0.1918	0.3596	0.674
Mof_C 	C 	0.6229	0.2074	0.3655	0.634
Mof_C 	C 	0.8619	0.8151	0.4732	-0.533
Mof_C 	C 	0.8617	0.6853	0.4497	0.386
Mof_C 	C 	0.8658	0.5761	0.4909	-0.435
Mof_C 	C 	0.8664	0.5963	0.5562	0.29
Mof_C 	C 	0.865	0.7262	0.5808	-0.396
Mof_C 	C 	0.8645	0.8342	0.5396	0.333
Mof_C 	C 	0.8656	0.9328	0.4277	0.715
Mof_C 	C 	0.8741	0.4336	0.4667	0.572
Mof_C 	C 	0.1913	0.7442	0.5759	-0.428
Mof_C 	C 	0.201	0.6252	0.6103	0.311
Mof_C 	C 	0.2007	0.5041	0.5784	-0.426
Mof_C 	C 	0.1951	0.5012	0.5112	0.253
Mof_C 	C 	0.1866	0.6207	0.4765	-0.341
Mof_C 	C 	0.1849	0.7404	0.5094	0.274
Mof_C 	C 	0.1918	0.876	0.6096	0.674
Mof_C 	C 	0.2074	0.3771	0.6155	0.632
Mof_C 	C 	0.8151	0.1381	0.7232	-0.537
Mof_C 	C 	0.6853	0.1383	0.6997	0.387
Mof_C 	C 	0.5761	0.1342	0.7409	-0.437
Mof_C 	C 	0.5963	0.1336	0.8062	0.289
Mof_C 	C 	0.7262	0.135	0.8308	-0.394
Mof_C 	C 	0.8342	0.1355	0.7896	0.334
Mof_C 	C 	0.9328	0.1344	0.6777	0.721
Mof_C 	C 	0.4336	0.1259	0.7167	0.572
Mof_C 	C 	0.8087	0.2558	0.0759	-0.094
Mof_C 	C 	0.799	0.3748	0.1103	0.006
Mof_C 	C 	0.7993	0.4959	0.0784	-0.099
Mof_C 	C 	0.8049	0.4988	0.0112	-0.38
Mof_C 	C 	0.8134	0.3793	0.9765	0.365
Mof_C 	C 	0.8151	0.2596	0.0094	-0.376
Mof_C 	C 	0.8082	0.124	0.1096	0.543
Mof_C 	C 	0.7926	0.6229	0.1155	0.502
Mof_C 	C 	0.1849	0.8619	0.2232	-0.521
Mof_C 	C 	0.3147	0.8617	0.1997	0.372
Mof_C 	C 	0.4239	0.8658	0.2409	-0.429
Mof_C 	C 	0.4037	0.8664	0.3062	0.283
Mof_C 	C 	0.2738	0.865	0.3308	-0.391
Mof_C 	C 	0.1658	0.8645	0.2896	0.323
Mof_C 	C 	0.0672	0.8656	0.1777	0.687
Mof_C 	C 	0.5664	0.8741	0.2167	0.569
Mof_O 	O 	0.8825	0.7951	0.919	-0.808
Mof_O 	O 	0.9811	0.8196	0.82532	-0.838
Mof_O 	O 	0.3763	0.7831	0.9239	-0.692
Mof_O 	O 	0.2676	0.8015	0.8319	-0.907
Mof_O 	O 	0.1362	0.0878	0.8687	-0.896
Mof_O 	O 	0.1278	0.9512	0.95405	-0.966
Mof_O 	O 	0.1165	0.583	0.9061	-0.574
Mof_O 	O 	0.1264	0.6609	0.0049	-0.957
Mof_O 	O 	0.1175	0.2049	0.419	-0.868
Mof_O 	O 	0.0189	0.1804	0.32532	-0.858
Mof_O 	O 	0.6237	0.2169	0.4239	-0.753
Mof_O 	O 	0.7324	0.1985	0.3319	-0.915
Mof_O 	O 	0.8638	0.9122	0.3687	-0.912
Mof_O 	O 	0.8722	0.0488	0.45405	-1.064
Mof_O 	O 	0.8835	0.417	0.4061	-0.573
Mof_O 	O 	0.8736	0.3391	0.5049	-0.93
Mof_O 	O 	0.2049	0.8825	0.669	-0.868
Mof_O 	O 	0.1804	0.9811	0.57532	-0.851
Mof_O 	O 	0.2169	0.3763	0.6739	-0.75
Mof_O 	O 	0.1985	0.2676	0.5819	-0.913
Mof_O 	O 	0.9122	0.1362	0.6187	-0.915
Mof_O 	O 	0.0488	0.1278	0.70405	-1.075
Mof_O 	O 	0.417	0.1165	0.6561	-0.577
Mof_O 	O 	0.3391	0.1264	0.7549	-0.934
Mof_O 	O 	0.7951	0.1175	0.169	-0.832
Mof_O 	O 	0.8196	0.0189	0.07532	-0.817
Mof_O 	O 	0.7831	0.6237	0.1739	-0.713
Mof_O 	O 	0.8015	0.7324	0.0819	-0.869
Mof_O 	O 	0.0878	0.8638	0.1187	-0.879
Mof_O 	O 	0.9512	0.8722	0.20405	-1.047
Mof_O 	O 	0.583	0.8835	0.1561	-0.575
Mof_O 	O 	0.6609	0.8736	0.2549	-0.931
_end
