data_functionalizedCrystal
_audit_creation_method	'EQeq! by Chris Wilmer'
_symmetry_space_group_name_H-M	'P1'
_symmetry_Int_Tables_number	1
_symmetry_cell_setting	triclinic
loop_
_symmetry_equiv_pos_as_xyz
  x,y,z
_cell_length_a	22.1152
_cell_length_b	22.1152
_cell_length_c	22.1152
_cell_angle_alpha	90
_cell_angle_beta	90
_cell_angle_gamma	90
loop_
_atom_site_label
_atom_site_type_symbol
_atom_site_fract_x
_atom_site_fract_y
_atom_site_fract_z
_atom_site_charge
Mof_Ni	Ni	0.23945	0.30666	0.17772	1.116
Mof_C 	C 	0.2214	0.60478	0.30259	0.372
Mof_C 	C 	0.2074	0.37407	0.2917	0.393
Mof_C 	C 	0.2024	0.43123	0.3888	-0.069
Mof_H 	H 	0.1985	0.3942	0.4083	0.078
Mof_C 	C 	0.21	0.53966	0.39309	-0.069
Mof_H 	H 	0.212	0.5749	0.4159	0.083
Mof_C 	C 	0.2082	0.43381	0.3259	-0.065
Mof_C 	C 	0.2027	0.4842	0.42146	0.094
Mof_C 	C 	0.2141	0.54236	0.33122	-0.059
Mof_C 	C 	0.2153	0.48978	0.29765	0.007
Mof_H 	H 	0.2208	0.4916	0.256	0.051
Mof_O 	O 	0.19003	0.32988	0.3213	-0.431
Mof_O 	O 	0.20578	0.64817	0.33543	-0.414
Mof_O 	O 	0.24209	0.60592	0.25007	-0.412
Mof_O 	O 	0.22276	0.37645	0.23812	-0.424
Mof_N 	N 	0.2012	0.47728	0.48678	-0.082
Mof_Ni	Ni	0.76055	0.69334	0.17772	1.117
Mof_C 	C 	0.7786	0.39522	0.30259	0.373
Mof_C 	C 	0.7926	0.62593	0.2917	0.394
Mof_C 	C 	0.7976	0.56877	0.3888	-0.068
Mof_H 	H 	0.8015	0.6058	0.4083	0.079
Mof_C 	C 	0.79	0.46034	0.39309	-0.068
Mof_H 	H 	0.788	0.4251	0.4159	0.084
Mof_C 	C 	0.7918	0.56619	0.3259	-0.064
Mof_C 	C 	0.7973	0.5158	0.42146	0.095
Mof_C 	C 	0.7859	0.45764	0.33122	-0.058
Mof_C 	C 	0.7847	0.51022	0.29765	0.008
Mof_H 	H 	0.7792	0.5084	0.256	0.052
Mof_O 	O 	0.80997	0.67012	0.3213	-0.43
Mof_O 	O 	0.79422	0.35183	0.33543	-0.413
Mof_O 	O 	0.75791	0.39408	0.25007	-0.411
Mof_O 	O 	0.77724	0.62355	0.23812	-0.423
Mof_N 	N 	0.7988	0.52272	0.48678	-0.082
Mof_Ni	Ni	0.76055	0.30666	0.82228	1.117
Mof_C 	C 	0.7786	0.60478	0.69741	0.373
Mof_C 	C 	0.7926	0.37407	0.7083	0.394
Mof_C 	C 	0.7976	0.43123	0.6112	-0.068
Mof_H 	H 	0.8015	0.3942	0.5917	0.079
Mof_C 	C 	0.79	0.53966	0.60691	-0.068
Mof_H 	H 	0.788	0.5749	0.5841	0.084
Mof_C 	C 	0.7918	0.43381	0.6741	-0.064
Mof_C 	C 	0.7973	0.4842	0.57854	0.095
Mof_C 	C 	0.7859	0.54236	0.66878	-0.058
Mof_C 	C 	0.7847	0.48978	0.70235	0.008
Mof_H 	H 	0.7792	0.4916	0.744	0.052
Mof_O 	O 	0.80997	0.32988	0.6787	-0.43
Mof_O 	O 	0.79422	0.64817	0.66457	-0.413
Mof_O 	O 	0.75791	0.60592	0.74993	-0.411
Mof_O 	O 	0.77724	0.37645	0.76188	-0.423
Mof_N 	N 	0.7988	0.47728	0.51322	-0.082
Mof_Ni	Ni	0.23945	0.69334	0.82228	1.117
Mof_C 	C 	0.2214	0.39522	0.69741	0.373
Mof_C 	C 	0.2074	0.62593	0.7083	0.394
Mof_C 	C 	0.2024	0.56877	0.6112	-0.068
Mof_H 	H 	0.1985	0.6058	0.5917	0.079
Mof_C 	C 	0.21	0.46034	0.60691	-0.068
Mof_H 	H 	0.212	0.4251	0.5841	0.084
Mof_C 	C 	0.2082	0.56619	0.6741	-0.064
Mof_C 	C 	0.2027	0.5158	0.57854	0.095
Mof_C 	C 	0.2141	0.45764	0.66878	-0.058
Mof_C 	C 	0.2153	0.51022	0.70235	0.008
Mof_H 	H 	0.2208	0.5084	0.744	0.052
Mof_O 	O 	0.19003	0.67012	0.6787	-0.43
Mof_O 	O 	0.20578	0.35183	0.66457	-0.413
Mof_O 	O 	0.24209	0.39408	0.74993	-0.411
Mof_O 	O 	0.22276	0.62355	0.76188	-0.423
Mof_N 	N 	0.2012	0.52272	0.51322	-0.082
Mof_Ni	Ni	0.17772	0.23945	0.30666	1.117
Mof_C 	C 	0.30259	0.2214	0.60478	0.373
Mof_C 	C 	0.2917	0.2074	0.37407	0.394
Mof_C 	C 	0.3888	0.2024	0.43123	-0.068
Mof_H 	H 	0.4083	0.1985	0.3942	0.079
Mof_C 	C 	0.39309	0.21	0.53966	-0.068
Mof_H 	H 	0.4159	0.212	0.5749	0.084
Mof_C 	C 	0.3259	0.2082	0.43381	-0.064
Mof_C 	C 	0.42146	0.2027	0.4842	0.095
Mof_C 	C 	0.33122	0.2141	0.54236	-0.058
Mof_C 	C 	0.29765	0.2153	0.48978	0.008
Mof_H 	H 	0.256	0.2208	0.4916	0.052
Mof_O 	O 	0.3213	0.19003	0.32988	-0.43
Mof_O 	O 	0.33543	0.20578	0.64817	-0.413
Mof_O 	O 	0.25007	0.24209	0.60592	-0.411
Mof_O 	O 	0.23812	0.22276	0.37645	-0.423
Mof_N 	N 	0.48678	0.2012	0.47728	-0.082
Mof_Ni	Ni	0.17772	0.76055	0.69334	1.117
Mof_C 	C 	0.30259	0.7786	0.39522	0.373
Mof_C 	C 	0.2917	0.7926	0.62593	0.394
Mof_C 	C 	0.3888	0.7976	0.56877	-0.068
Mof_H 	H 	0.4083	0.8015	0.6058	0.079
Mof_C 	C 	0.39309	0.79	0.46034	-0.068
Mof_H 	H 	0.4159	0.788	0.4251	0.084
Mof_C 	C 	0.3259	0.7918	0.56619	-0.064
Mof_C 	C 	0.42146	0.7973	0.5158	0.095
Mof_C 	C 	0.33122	0.7859	0.45764	-0.058
Mof_C 	C 	0.29765	0.7847	0.51022	0.008
Mof_H 	H 	0.256	0.7792	0.5084	0.052
Mof_O 	O 	0.3213	0.80997	0.67012	-0.43
Mof_O 	O 	0.33543	0.79422	0.35183	-0.413
Mof_O 	O 	0.25007	0.75791	0.39408	-0.411
Mof_O 	O 	0.23812	0.77724	0.62355	-0.423
Mof_N 	N 	0.48678	0.7988	0.52272	-0.082
Mof_Ni	Ni	0.82228	0.76055	0.30666	1.117
Mof_C 	C 	0.69741	0.7786	0.60478	0.373
Mof_C 	C 	0.7083	0.7926	0.37407	0.394
Mof_C 	C 	0.6112	0.7976	0.43123	-0.068
Mof_H 	H 	0.5917	0.8015	0.3942	0.079
Mof_C 	C 	0.60691	0.79	0.53966	-0.068
Mof_H 	H 	0.5841	0.788	0.5749	0.084
Mof_C 	C 	0.6741	0.7918	0.43381	-0.064
Mof_C 	C 	0.57854	0.7973	0.4842	0.095
Mof_C 	C 	0.66878	0.7859	0.54236	-0.058
Mof_C 	C 	0.70235	0.7847	0.48978	0.008
Mof_H 	H 	0.744	0.7792	0.4916	0.052
Mof_O 	O 	0.6787	0.80997	0.32988	-0.43
Mof_O 	O 	0.66457	0.79422	0.64817	-0.413
Mof_O 	O 	0.74993	0.75791	0.60592	-0.411
Mof_O 	O 	0.76188	0.77724	0.37645	-0.423
Mof_N 	N 	0.51322	0.7988	0.47728	-0.082
Mof_Ni	Ni	0.82228	0.23945	0.69334	1.117
Mof_C 	C 	0.69741	0.2214	0.39522	0.373
Mof_C 	C 	0.7083	0.2074	0.62593	0.394
Mof_C 	C 	0.6112	0.2024	0.56877	-0.068
Mof_H 	H 	0.5917	0.1985	0.6058	0.079
Mof_C 	C 	0.60691	0.21	0.46034	-0.068
Mof_H 	H 	0.5841	0.212	0.4251	0.084
Mof_C 	C 	0.6741	0.2082	0.56619	-0.064
Mof_C 	C 	0.57854	0.2027	0.5158	0.095
Mof_C 	C 	0.66878	0.2141	0.45764	-0.058
Mof_C 	C 	0.70235	0.2153	0.51022	0.008
Mof_H 	H 	0.744	0.2208	0.5084	0.052
Mof_O 	O 	0.6787	0.19003	0.67012	-0.43
Mof_O 	O 	0.66457	0.20578	0.35183	-0.413
Mof_O 	O 	0.74993	0.24209	0.39408	-0.411
Mof_O 	O 	0.76188	0.22276	0.62355	-0.423
Mof_N 	N 	0.51322	0.2012	0.52272	-0.082
Mof_Ni	Ni	0.30666	0.17772	0.23945	1.117
Mof_C 	C 	0.60478	0.30259	0.2214	0.373
Mof_C 	C 	0.37407	0.2917	0.2074	0.394
Mof_C 	C 	0.43123	0.3888	0.2024	-0.068
Mof_H 	H 	0.3942	0.4083	0.1985	0.079
Mof_C 	C 	0.53966	0.39309	0.21	-0.068
Mof_H 	H 	0.5749	0.4159	0.212	0.084
Mof_C 	C 	0.43381	0.3259	0.2082	-0.064
Mof_C 	C 	0.4842	0.42146	0.2027	0.095
Mof_C 	C 	0.54236	0.33122	0.2141	-0.058
Mof_C 	C 	0.48978	0.29765	0.2153	0.008
Mof_H 	H 	0.4916	0.256	0.2208	0.052
Mof_O 	O 	0.32988	0.3213	0.19003	-0.43
Mof_O 	O 	0.64817	0.33543	0.20578	-0.413
Mof_O 	O 	0.60592	0.25007	0.24209	-0.411
Mof_O 	O 	0.37645	0.23812	0.22276	-0.423
Mof_N 	N 	0.47728	0.48678	0.2012	-0.082
Mof_Ni	Ni	0.69334	0.17772	0.76055	1.117
Mof_C 	C 	0.39522	0.30259	0.7786	0.373
Mof_C 	C 	0.62593	0.2917	0.7926	0.394
Mof_C 	C 	0.56877	0.3888	0.7976	-0.068
Mof_H 	H 	0.6058	0.4083	0.8015	0.079
Mof_C 	C 	0.46034	0.39309	0.79	-0.068
Mof_H 	H 	0.4251	0.4159	0.788	0.084
Mof_C 	C 	0.56619	0.3259	0.7918	-0.064
Mof_C 	C 	0.5158	0.42146	0.7973	0.095
Mof_C 	C 	0.45764	0.33122	0.7859	-0.058
Mof_C 	C 	0.51022	0.29765	0.7847	0.008
Mof_H 	H 	0.5084	0.256	0.7792	0.052
Mof_O 	O 	0.67012	0.3213	0.80997	-0.43
Mof_O 	O 	0.35183	0.33543	0.79422	-0.413
Mof_O 	O 	0.39408	0.25007	0.75791	-0.411
Mof_O 	O 	0.62355	0.23812	0.77724	-0.423
Mof_N 	N 	0.52272	0.48678	0.7988	-0.082
Mof_Ni	Ni	0.30666	0.82228	0.76055	1.117
Mof_C 	C 	0.60478	0.69741	0.7786	0.373
Mof_C 	C 	0.37407	0.7083	0.7926	0.394
Mof_C 	C 	0.43123	0.6112	0.7976	-0.068
Mof_H 	H 	0.3942	0.5917	0.8015	0.079
Mof_C 	C 	0.53966	0.60691	0.79	-0.068
Mof_H 	H 	0.5749	0.5841	0.788	0.084
Mof_C 	C 	0.43381	0.6741	0.7918	-0.064
Mof_C 	C 	0.4842	0.57854	0.7973	0.095
Mof_C 	C 	0.54236	0.66878	0.7859	-0.058
Mof_C 	C 	0.48978	0.70235	0.7847	0.008
Mof_H 	H 	0.4916	0.744	0.7792	0.052
Mof_O 	O 	0.32988	0.6787	0.80997	-0.43
Mof_O 	O 	0.64817	0.66457	0.79422	-0.413
Mof_O 	O 	0.60592	0.74993	0.75791	-0.411
Mof_O 	O 	0.37645	0.76188	0.77724	-0.423
Mof_N 	N 	0.47728	0.51322	0.7988	-0.082
Mof_Ni	Ni	0.69334	0.82228	0.23945	1.117
Mof_C 	C 	0.39522	0.69741	0.2214	0.373
Mof_C 	C 	0.62593	0.7083	0.2074	0.394
Mof_C 	C 	0.56877	0.6112	0.2024	-0.068
Mof_H 	H 	0.6058	0.5917	0.1985	0.079
Mof_C 	C 	0.46034	0.60691	0.21	-0.068
Mof_H 	H 	0.4251	0.5841	0.212	0.084
Mof_C 	C 	0.56619	0.6741	0.2082	-0.064
Mof_C 	C 	0.5158	0.57854	0.2027	0.095
Mof_C 	C 	0.45764	0.66878	0.2141	-0.058
Mof_C 	C 	0.51022	0.70235	0.2153	0.008
Mof_H 	H 	0.5084	0.744	0.2208	0.052
Mof_O 	O 	0.67012	0.6787	0.19003	-0.43
Mof_O 	O 	0.35183	0.66457	0.20578	-0.413
Mof_O 	O 	0.39408	0.74993	0.24209	-0.411
Mof_O 	O 	0.62355	0.76188	0.22276	-0.423
Mof_N 	N 	0.52272	0.51322	0.2012	-0.082
Mof_Ni	Ni	0.80666	0.73945	0.67772	1.117
Mof_C 	C 	0.10478	0.7214	0.80259	0.373
Mof_C 	C 	0.87407	0.7074	0.7917	0.394
Mof_C 	C 	0.93123	0.7024	0.8888	-0.068
Mof_H 	H 	0.8942	0.6985	0.9083	0.079
Mof_C 	C 	0.03966	0.71	0.89309	-0.068
Mof_H 	H 	0.0749	0.712	0.9159	0.084
Mof_C 	C 	0.93381	0.7082	0.8259	-0.064
Mof_C 	C 	0.9842	0.7027	0.92146	0.094
Mof_C 	C 	0.04236	0.7141	0.83122	-0.058
Mof_C 	C 	0.98978	0.7153	0.79765	0.008
Mof_H 	H 	0.9916	0.7208	0.756	0.052
Mof_O 	O 	0.82988	0.69003	0.8213	-0.43
Mof_O 	O 	0.14817	0.70578	0.83543	-0.413
Mof_O 	O 	0.10592	0.74209	0.75007	-0.411
Mof_O 	O 	0.87645	0.72276	0.73812	-0.423
Mof_N 	N 	0.97728	0.7012	0.98678	-0.083
Mof_Ni	Ni	0.19334	0.26055	0.67772	1.117
Mof_C 	C 	0.89522	0.2786	0.80259	0.373
Mof_C 	C 	0.12593	0.2926	0.7917	0.394
Mof_C 	C 	0.06877	0.2976	0.8888	-0.068
Mof_H 	H 	0.1058	0.3015	0.9083	0.079
Mof_C 	C 	0.96034	0.29	0.89309	-0.068
Mof_H 	H 	0.9251	0.288	0.9159	0.084
Mof_C 	C 	0.06619	0.2918	0.8259	-0.064
Mof_C 	C 	0.0158	0.2973	0.92146	0.094
Mof_C 	C 	0.95764	0.2859	0.83122	-0.058
Mof_C 	C 	0.01022	0.2847	0.79765	0.008
Mof_H 	H 	0.0084	0.2792	0.756	0.052
Mof_O 	O 	0.17012	0.30997	0.8213	-0.43
Mof_O 	O 	0.85183	0.29422	0.83543	-0.413
Mof_O 	O 	0.89408	0.25791	0.75007	-0.411
Mof_O 	O 	0.12355	0.27724	0.73812	-0.423
Mof_N 	N 	0.02272	0.2988	0.98678	-0.083
Mof_Ni	Ni	0.80666	0.26055	0.32228	1.117
Mof_C 	C 	0.10478	0.2786	0.19741	0.373
Mof_C 	C 	0.87407	0.2926	0.2083	0.394
Mof_C 	C 	0.93123	0.2976	0.1112	-0.068
Mof_H 	H 	0.8942	0.3015	0.0917	0.079
Mof_C 	C 	0.03966	0.29	0.10691	-0.068
Mof_H 	H 	0.0749	0.288	0.0841	0.084
Mof_C 	C 	0.93381	0.2918	0.1741	-0.064
Mof_C 	C 	0.9842	0.2973	0.07854	0.094
Mof_C 	C 	0.04236	0.2859	0.16878	-0.058
Mof_C 	C 	0.98978	0.2847	0.20235	0.008
Mof_H 	H 	0.9916	0.2792	0.244	0.052
Mof_O 	O 	0.82988	0.30997	0.1787	-0.43
Mof_O 	O 	0.14817	0.29422	0.16457	-0.413
Mof_O 	O 	0.10592	0.25791	0.24993	-0.411
Mof_O 	O 	0.87645	0.27724	0.26188	-0.423
Mof_N 	N 	0.97728	0.2988	0.01322	-0.083
Mof_Ni	Ni	0.19334	0.73945	0.32228	1.117
Mof_C 	C 	0.89522	0.7214	0.19741	0.373
Mof_C 	C 	0.12593	0.7074	0.2083	0.394
Mof_C 	C 	0.06877	0.7024	0.1112	-0.068
Mof_H 	H 	0.1058	0.6985	0.0917	0.079
Mof_C 	C 	0.96034	0.71	0.10691	-0.068
Mof_H 	H 	0.9251	0.712	0.0841	0.084
Mof_C 	C 	0.06619	0.7082	0.1741	-0.064
Mof_C 	C 	0.0158	0.7027	0.07854	0.094
Mof_C 	C 	0.95764	0.7141	0.16878	-0.058
Mof_C 	C 	0.01022	0.7153	0.20235	0.008
Mof_H 	H 	0.0084	0.7208	0.244	0.052
Mof_O 	O 	0.17012	0.69003	0.1787	-0.43
Mof_O 	O 	0.85183	0.70578	0.16457	-0.413
Mof_O 	O 	0.89408	0.74209	0.24993	-0.411
Mof_O 	O 	0.12355	0.72276	0.26188	-0.423
Mof_N 	N 	0.02272	0.7012	0.01322	-0.083
Mof_Ni	Ni	0.73945	0.67772	0.80666	1.117
Mof_C 	C 	0.7214	0.80259	0.10478	0.373
Mof_C 	C 	0.7074	0.7917	0.87407	0.394
Mof_C 	C 	0.7024	0.8888	0.93123	-0.068
Mof_H 	H 	0.6985	0.9083	0.8942	0.079
Mof_C 	C 	0.71	0.89309	0.03966	-0.068
Mof_H 	H 	0.712	0.9159	0.0749	0.084
Mof_C 	C 	0.7082	0.8259	0.93381	-0.064
Mof_C 	C 	0.7027	0.92146	0.9842	0.094
Mof_C 	C 	0.7141	0.83122	0.04236	-0.058
Mof_C 	C 	0.7153	0.79765	0.98978	0.008
Mof_H 	H 	0.7208	0.756	0.9916	0.052
Mof_O 	O 	0.69003	0.8213	0.82988	-0.43
Mof_O 	O 	0.70578	0.83543	0.14817	-0.413
Mof_O 	O 	0.74209	0.75007	0.10592	-0.411
Mof_O 	O 	0.72276	0.73812	0.87645	-0.423
Mof_N 	N 	0.7012	0.98678	0.97728	-0.083
Mof_Ni	Ni	0.26055	0.67772	0.19334	1.117
Mof_C 	C 	0.2786	0.80259	0.89522	0.373
Mof_C 	C 	0.2926	0.7917	0.12593	0.394
Mof_C 	C 	0.2976	0.8888	0.06877	-0.068
Mof_H 	H 	0.3015	0.9083	0.1058	0.079
Mof_C 	C 	0.29	0.89309	0.96034	-0.068
Mof_H 	H 	0.288	0.9159	0.9251	0.084
Mof_C 	C 	0.2918	0.8259	0.06619	-0.064
Mof_C 	C 	0.2973	0.92146	0.0158	0.094
Mof_C 	C 	0.2859	0.83122	0.95764	-0.058
Mof_C 	C 	0.2847	0.79765	0.01022	0.008
Mof_H 	H 	0.2792	0.756	0.0084	0.052
Mof_O 	O 	0.30997	0.8213	0.17012	-0.43
Mof_O 	O 	0.29422	0.83543	0.85183	-0.413
Mof_O 	O 	0.25791	0.75007	0.89408	-0.411
Mof_O 	O 	0.27724	0.73812	0.12355	-0.423
Mof_N 	N 	0.2988	0.98678	0.02272	-0.083
Mof_Ni	Ni	0.26055	0.32228	0.80666	1.117
Mof_C 	C 	0.2786	0.19741	0.10478	0.373
Mof_C 	C 	0.2926	0.2083	0.87407	0.394
Mof_C 	C 	0.2976	0.1112	0.93123	-0.068
Mof_H 	H 	0.3015	0.0917	0.8942	0.079
Mof_C 	C 	0.29	0.10691	0.03966	-0.068
Mof_H 	H 	0.288	0.0841	0.0749	0.084
Mof_C 	C 	0.2918	0.1741	0.93381	-0.064
Mof_C 	C 	0.2973	0.07854	0.9842	0.094
Mof_C 	C 	0.2859	0.16878	0.04236	-0.058
Mof_C 	C 	0.2847	0.20235	0.98978	0.008
Mof_H 	H 	0.2792	0.244	0.9916	0.052
Mof_O 	O 	0.30997	0.1787	0.82988	-0.43
Mof_O 	O 	0.29422	0.16457	0.14817	-0.413
Mof_O 	O 	0.25791	0.24993	0.10592	-0.411
Mof_O 	O 	0.27724	0.26188	0.87645	-0.423
Mof_N 	N 	0.2988	0.01322	0.97728	-0.083
Mof_Ni	Ni	0.73945	0.32228	0.19334	1.117
Mof_C 	C 	0.7214	0.19741	0.89522	0.373
Mof_C 	C 	0.7074	0.2083	0.12593	0.394
Mof_C 	C 	0.7024	0.1112	0.06877	-0.068
Mof_H 	H 	0.6985	0.0917	0.1058	0.079
Mof_C 	C 	0.71	0.10691	0.96034	-0.068
Mof_H 	H 	0.712	0.0841	0.9251	0.084
Mof_C 	C 	0.7082	0.1741	0.06619	-0.064
Mof_C 	C 	0.7027	0.07854	0.0158	0.094
Mof_C 	C 	0.7141	0.16878	0.95764	-0.058
Mof_C 	C 	0.7153	0.20235	0.01022	0.008
Mof_H 	H 	0.7208	0.244	0.0084	0.052
Mof_O 	O 	0.69003	0.1787	0.17012	-0.43
Mof_O 	O 	0.70578	0.16457	0.85183	-0.413
Mof_O 	O 	0.74209	0.24993	0.89408	-0.411
Mof_O 	O 	0.72276	0.26188	0.12355	-0.423
Mof_N 	N 	0.7012	0.01322	0.02272	-0.083
Mof_Ni	Ni	0.67772	0.80666	0.73945	1.117
Mof_C 	C 	0.80259	0.10478	0.7214	0.373
Mof_C 	C 	0.7917	0.87407	0.7074	0.394
Mof_C 	C 	0.8888	0.93123	0.7024	-0.068
Mof_H 	H 	0.9083	0.8942	0.6985	0.079
Mof_C 	C 	0.89309	0.03966	0.71	-0.068
Mof_H 	H 	0.9159	0.0749	0.712	0.084
Mof_C 	C 	0.8259	0.93381	0.7082	-0.064
Mof_C 	C 	0.92146	0.9842	0.7027	0.094
Mof_C 	C 	0.83122	0.04236	0.7141	-0.058
Mof_C 	C 	0.79765	0.98978	0.7153	0.008
Mof_H 	H 	0.756	0.9916	0.7208	0.052
Mof_O 	O 	0.8213	0.82988	0.69003	-0.43
Mof_O 	O 	0.83543	0.14817	0.70578	-0.413
Mof_O 	O 	0.75007	0.10592	0.74209	-0.411
Mof_O 	O 	0.73812	0.87645	0.72276	-0.423
Mof_N 	N 	0.98678	0.97728	0.7012	-0.083
Mof_Ni	Ni	0.67772	0.19334	0.26055	1.117
Mof_C 	C 	0.80259	0.89522	0.2786	0.373
Mof_C 	C 	0.7917	0.12593	0.2926	0.394
Mof_C 	C 	0.8888	0.06877	0.2976	-0.068
Mof_H 	H 	0.9083	0.1058	0.3015	0.079
Mof_C 	C 	0.89309	0.96034	0.29	-0.068
Mof_H 	H 	0.9159	0.9251	0.288	0.084
Mof_C 	C 	0.8259	0.06619	0.2918	-0.064
Mof_C 	C 	0.92146	0.0158	0.2973	0.094
Mof_C 	C 	0.83122	0.95764	0.2859	-0.058
Mof_C 	C 	0.79765	0.01022	0.2847	0.008
Mof_H 	H 	0.756	0.0084	0.2792	0.052
Mof_O 	O 	0.8213	0.17012	0.30997	-0.43
Mof_O 	O 	0.83543	0.85183	0.29422	-0.413
Mof_O 	O 	0.75007	0.89408	0.25791	-0.411
Mof_O 	O 	0.73812	0.12355	0.27724	-0.423
Mof_N 	N 	0.98678	0.02272	0.2988	-0.083
Mof_Ni	Ni	0.32228	0.80666	0.26055	1.117
Mof_C 	C 	0.19741	0.10478	0.2786	0.373
Mof_C 	C 	0.2083	0.87407	0.2926	0.394
Mof_C 	C 	0.1112	0.93123	0.2976	-0.068
Mof_H 	H 	0.0917	0.8942	0.3015	0.079
Mof_C 	C 	0.10691	0.03966	0.29	-0.068
Mof_H 	H 	0.0841	0.0749	0.288	0.084
Mof_C 	C 	0.1741	0.93381	0.2918	-0.064
Mof_C 	C 	0.07854	0.9842	0.2973	0.094
Mof_C 	C 	0.16878	0.04236	0.2859	-0.058
Mof_C 	C 	0.20235	0.98978	0.2847	0.008
Mof_H 	H 	0.244	0.9916	0.2792	0.052
Mof_O 	O 	0.1787	0.82988	0.30997	-0.43
Mof_O 	O 	0.16457	0.14817	0.29422	-0.413
Mof_O 	O 	0.24993	0.10592	0.25791	-0.411
Mof_O 	O 	0.26188	0.87645	0.27724	-0.423
Mof_N 	N 	0.01322	0.97728	0.2988	-0.083
Mof_Ni	Ni	0.32228	0.19334	0.73945	1.117
Mof_C 	C 	0.19741	0.89522	0.7214	0.373
Mof_C 	C 	0.2083	0.12593	0.7074	0.394
Mof_C 	C 	0.1112	0.06877	0.7024	-0.068
Mof_H 	H 	0.0917	0.1058	0.6985	0.079
Mof_C 	C 	0.10691	0.96034	0.71	-0.068
Mof_H 	H 	0.0841	0.9251	0.712	0.084
Mof_C 	C 	0.1741	0.06619	0.7082	-0.064
Mof_C 	C 	0.07854	0.0158	0.7027	0.094
Mof_C 	C 	0.16878	0.95764	0.7141	-0.058
Mof_C 	C 	0.20235	0.01022	0.7153	0.008
Mof_H 	H 	0.244	0.0084	0.7208	0.052
Mof_O 	O 	0.1787	0.17012	0.69003	-0.43
Mof_O 	O 	0.16457	0.85183	0.70578	-0.413
Mof_O 	O 	0.24993	0.89408	0.74209	-0.411
Mof_O 	O 	0.26188	0.12355	0.72276	-0.423
Mof_N 	N 	0.01322	0.02272	0.7012	-0.083
Mof_O 	O 	0.23843	0.23843	0.23843	-0.55
Mof_O 	O 	0.76157	0.76157	0.23843	-0.55
Mof_O 	O 	0.76157	0.23843	0.76157	-0.55
Mof_O 	O 	0.23843	0.76157	0.76157	-0.55
Mof_O 	O 	0.73843	0.73843	0.73843	-0.55
Mof_O 	O 	0.26157	0.26157	0.73843	-0.55
Mof_O 	O 	0.73843	0.26157	0.26157	-0.55
Mof_O 	O 	0.26157	0.73843	0.26157	-0.55
_end
