data_functionalizedCrystal
_audit_creation_method	'EQeq! by Chris Wilmer'
_symmetry_space_group_name_H-M	'P1'
_symmetry_Int_Tables_number	1
_symmetry_cell_setting	triclinic
loop_
_symmetry_equiv_pos_as_xyz
  x,y,z
_cell_length_a	13.5554
_cell_length_b	13.5554
_cell_length_c	8.1351
_cell_angle_alpha	90
_cell_angle_beta	90
_cell_angle_gamma	120
loop_
_atom_site_label
_atom_site_type_symbol
_atom_site_fract_x
_atom_site_fract_y
_atom_site_fract_z
_atom_site_charge
Mof_Mn	Mn	0.2947	0.33115	0.5445	0.786
Mof_O 	O 	0.2268	0.1768	0.4073	-0.352
Mof_C 	C 	0.5313	0.321	0.5595	-0.264
Mof_C 	C 	0.352	0.5535	0.7728	-0.249
Mof_O 	O 	0.2375	0.0546	0.2449	-0.347
Mof_C 	C 	0.2612	0.1546	0.2813	0.361
Mof_N 	N 	0.3388	0.2067	0.0006	-0.246
Mof_H 	H 	0.4025	0.2547	0.9452	0.081
Mof_H 	H 	0.278	0.1965	0.9422	0.124
Mof_C 	C 	0.339	0.2527	0.1655	-0.117
Mof_H 	H 	0.4166	0.2847	0.2084	0.048
Mof_N 	N 	0.3617	0.4229	0.305	-0.295
Mof_H 	H 	0.3459	0.4798	0.2981	0.1
Mof_H 	H 	0.4379	0.4542	0.3034	0.104
Mof_C 	C 	0.3136	0.3487	0.1615	-0.007
Mof_H 	H 	0.3453	0.393	0.0621	0.028
Mof_H 	H 	0.2318	0.3177	0.1593	0.039
Mof_N 	N 	0.4521	0.3193	0.6111	-0.113
Mof_N 	N 	0.3616	0.4924	0.6909	-0.123
Mof_Mn	Mn	0.66885	0.96355	0.5445	0.785
Mof_O 	O 	0.8232	0.05	0.4073	-0.354
Mof_C 	C 	0.679	0.2103	0.5595	-0.266
Mof_C 	C 	0.4465	0.7985	0.7728	-0.249
Mof_O 	O 	0.9454	0.1829	0.2449	-0.347
Mof_C 	C 	0.8454	0.1066	0.2813	0.362
Mof_N 	N 	0.7933	0.1321	0.0006	-0.249
Mof_H 	H 	0.7453	0.1478	0.9452	0.082
Mof_H 	H 	0.8035	0.0815	0.9422	0.125
Mof_C 	C 	0.7473	0.0863	0.1655	-0.118
Mof_H 	H 	0.7153	0.1319	0.2084	0.049
Mof_N 	N 	0.5771	0.9388	0.305	-0.296
Mof_H 	H 	0.5202	0.8661	0.2981	0.1
Mof_H 	H 	0.5458	0.9837	0.3034	0.104
Mof_C 	C 	0.6513	0.9649	0.1615	-0.005
Mof_H 	H 	0.607	0.9523	0.0621	0.027
Mof_H 	H 	0.6823	0.9141	0.1593	0.038
Mof_N 	N 	0.6807	0.1328	0.6111	-0.113
Mof_N 	N 	0.5076	0.8692	0.6909	-0.123
Mof_Mn	Mn	0.03645	0.7053	0.5445	0.785
Mof_O 	O 	0.95	0.7732	0.4073	-0.354
Mof_C 	C 	0.7897	0.4687	0.5595	-0.265
Mof_C 	C 	0.2015	0.648	0.7728	-0.249
Mof_O 	O 	0.8171	0.7625	0.2449	-0.346
Mof_C 	C 	0.8934	0.7388	0.2813	0.361
Mof_N 	N 	0.8679	0.6612	0.0006	-0.247
Mof_H 	H 	0.8522	0.5975	0.9452	0.081
Mof_H 	H 	0.9185	0.722	0.9422	0.124
Mof_C 	C 	0.9137	0.661	0.1655	-0.118
Mof_H 	H 	0.8681	0.5834	0.2084	0.049
Mof_N 	N 	0.0612	0.6383	0.305	-0.295
Mof_H 	H 	0.1339	0.6541	0.2981	0.1
Mof_H 	H 	0.0163	0.5621	0.3034	0.104
Mof_C 	C 	0.0351	0.6864	0.1615	-0.006
Mof_H 	H 	0.0477	0.6547	0.0621	0.028
Mof_H 	H 	0.0859	0.7682	0.1593	0.039
Mof_N 	N 	0.8672	0.5479	0.6111	-0.113
Mof_N 	N 	0.1308	0.6384	0.6909	-0.123
Mof_Mn	Mn	0.7053	0.66885	0.0445	0.808
Mof_O 	O 	0.7732	0.8232	0.9073	-0.366
Mof_C 	C 	0.4687	0.679	0.0595	-0.237
Mof_C 	C 	0.648	0.4465	0.2728	-0.254
Mof_O 	O 	0.7625	0.9454	0.7449	-0.349
Mof_C 	C 	0.7388	0.8454	0.7813	0.361
Mof_N 	N 	0.6612	0.7933	0.5006	-0.276
Mof_H 	H 	0.5975	0.7453	0.4452	0.101
Mof_H 	H 	0.722	0.8035	0.4422	0.144
Mof_C 	C 	0.661	0.7473	0.6655	-0.118
Mof_H 	H 	0.5834	0.7153	0.7084	0.045
Mof_N 	N 	0.6383	0.5771	0.805	-0.299
Mof_H 	H 	0.6541	0.5202	0.7981	0.097
Mof_H 	H 	0.5621	0.5458	0.8034	0.1
Mof_C 	C 	0.6864	0.6513	0.6615	-0.006
Mof_H 	H 	0.6547	0.607	0.5621	0.021
Mof_H 	H 	0.7682	0.6823	0.6593	0.034
Mof_N 	N 	0.5479	0.6807	0.1111	-0.118
Mof_N 	N 	0.6384	0.5076	0.1909	-0.118
Mof_Mn	Mn	0.33115	0.03645	0.0445	0.807
Mof_O 	O 	0.1768	0.95	0.9073	-0.367
Mof_C 	C 	0.321	0.7897	0.0595	-0.237
Mof_C 	C 	0.5535	0.2015	0.2728	-0.254
Mof_O 	O 	0.0546	0.8171	0.7449	-0.349
Mof_C 	C 	0.1546	0.8934	0.7813	0.361
Mof_N 	N 	0.2067	0.8679	0.5006	-0.276
Mof_H 	H 	0.2547	0.8522	0.4452	0.101
Mof_H 	H 	0.1965	0.9185	0.4422	0.144
Mof_C 	C 	0.2527	0.9137	0.6655	-0.118
Mof_H 	H 	0.2847	0.8681	0.7084	0.045
Mof_N 	N 	0.4229	0.0612	0.805	-0.299
Mof_H 	H 	0.4798	0.1339	0.7981	0.097
Mof_H 	H 	0.4542	0.0163	0.8034	0.1
Mof_C 	C 	0.3487	0.0351	0.6615	-0.005
Mof_H 	H 	0.393	0.0477	0.5621	0.021
Mof_H 	H 	0.3177	0.0859	0.6593	0.034
Mof_N 	N 	0.3193	0.8672	0.1111	-0.118
Mof_N 	N 	0.4924	0.1308	0.1909	-0.118
Mof_Mn	Mn	0.96355	0.2947	0.0445	0.806
Mof_O 	O 	0.05	0.2268	0.9073	-0.366
Mof_C 	C 	0.2103	0.5313	0.0595	-0.237
Mof_C 	C 	0.7985	0.352	0.2728	-0.254
Mof_O 	O 	0.1829	0.2375	0.7449	-0.349
Mof_C 	C 	0.1066	0.2612	0.7813	0.361
Mof_N 	N 	0.1321	0.3388	0.5006	-0.276
Mof_H 	H 	0.1478	0.4025	0.4452	0.101
Mof_H 	H 	0.0815	0.278	0.4422	0.144
Mof_C 	C 	0.0863	0.339	0.6655	-0.118
Mof_H 	H 	0.1319	0.4166	0.7084	0.045
Mof_N 	N 	0.9388	0.3617	0.805	-0.298
Mof_H 	H 	0.8661	0.3459	0.7981	0.098
Mof_H 	H 	0.9837	0.4379	0.8034	0.1
Mof_C 	C 	0.9649	0.3136	0.6615	-0.005
Mof_H 	H 	0.9523	0.3453	0.5621	0.021
Mof_H 	H 	0.9141	0.2318	0.6593	0.034
Mof_N 	N 	0.1328	0.4521	0.1111	-0.118
Mof_N 	N 	0.8692	0.3616	0.1909	-0.118
Mof_Cr	Cr	0.33333	0.66667	0.923	1.274
Mof_Cr	Cr	0.66667	0.33333	0.423	1.351
_end
