data_functionalizedCrystal
_audit_creation_method	'EQeq! by Chris Wilmer'
_symmetry_space_group_name_H-M	'P1'
_symmetry_Int_Tables_number	1
_symmetry_cell_setting	triclinic
loop_
_symmetry_equiv_pos_as_xyz
  x,y,z
_cell_length_a	9.1571
_cell_length_b	9.157
_cell_length_c	33.3706
_cell_angle_alpha	94.307
_cell_angle_beta	94.307
_cell_angle_gamma	116.913
loop_
_atom_site_label
_atom_site_type_symbol
_atom_site_fract_x
_atom_site_fract_y
_atom_site_fract_z
_atom_site_charge
Mof_Cs	Cs	0.88502	0.32486	0.64098	1.738
Mof_Cs	Cs	0.75596	0.81612	0.64098	1.786
Mof_Cs	Cs	0.67514	0.11498	0.85902	1.738
Mof_Cs	Cs	0.18388	0.24404	0.85902	1.785
Mof_Cs	Cs	0.11498	0.67514	0.35902	1.737
Mof_Cs	Cs	0.24404	0.18388	0.35902	1.785
Mof_Cs	Cs	0.32486	0.88502	0.14098	1.738
Mof_Cs	Cs	0.81612	0.75596	0.14098	1.785
Mof_Cs	Cs	0.27934	0.52934	0.55868	2.611
Mof_Cs	Cs	0.47066	0.72066	0.94132	2.61
Mof_Cs	Cs	0.72066	0.47066	0.44132	2.611
Mof_Cs	Cs	0.52934	0.27934	0.05868	2.61
Mof_Ag	Ag	0.91895	0.10983	0.47706	0.156
Mof_Ag	Ag	0.30649	0.23469	0.64894	0.019
Mof_Ag	Ag	0.55811	0.86723	0.47706	0.161
Mof_Ag	Ag	0.34245	0.91425	0.64894	0.027
Mof_Ag	Ag	0.89017	0.08105	0.02294	0.155
Mof_Ag	Ag	0.76531	0.69351	0.85106	0.019
Mof_Ag	Ag	0.13277	0.44189	0.02294	0.161
Mof_Ag	Ag	0.08575	0.65755	0.85106	0.027
Mof_Ag	Ag	0.08105	0.89017	0.52294	0.156
Mof_Ag	Ag	0.69351	0.76531	0.35106	0.019
Mof_Ag	Ag	0.44189	0.13277	0.52294	0.161
Mof_Ag	Ag	0.65755	0.08575	0.35106	0.027
Mof_Ag	Ag	0.10983	0.91895	0.97706	0.155
Mof_Ag	Ag	0.23469	0.30649	0.14894	0.019
Mof_Ag	Ag	0.86723	0.55811	0.97706	0.161
Mof_Ag	Ag	0.91425	0.34245	0.14894	0.027
Mof_Ag	Ag	0.77931	0.52931	0.55862	-0.305
Mof_Ag	Ag	0.47069	0.22069	0.94138	-0.305
Mof_Ag	Ag	0.22069	0.47069	0.44138	-0.305
Mof_Ag	Ag	0.52931	0.77931	0.05862	-0.305
Mof_Ag	Ag	0.875	0.125	0.75	-0.045
Mof_Ag	Ag	0.125	0.875	0.25	-0.045
Mof_Ag	Ag	0.375	0.625	0.75	-0.01
Mof_Ag	Ag	0.625	0.375	0.25	-0.01
Mof_C 	C 	0.5051	0.3451	0.6154	-0.412
Mof_C 	C 	0.8675	0.2801	0.5112	-0.476
Mof_C 	C 	0.9431	0.9379	0.4356	-0.248
Mof_C 	C 	0.1395	0.1631	0.6912	-0.354
Mof_C 	C 	0.1103	0.7703	0.6154	-0.408
Mof_C 	C 	0.6437	0.7311	0.5112	-0.476
Mof_C 	C 	0.4925	0.9977	0.4356	-0.253
Mof_C 	C 	0.5517	0.0281	0.6912	-0.36
Mof_C 	C 	0.6549	0.4949	0.8846	-0.411
Mof_C 	C 	0.7199	0.1325	0.9888	-0.475
Mof_C 	C 	0.0621	0.0569	0.0644	-0.248
Mof_C 	C 	0.8369	0.8605	0.8088	-0.354
Mof_C 	C 	0.2297	0.8897	0.8846	-0.408
Mof_C 	C 	0.2689	0.3563	0.9888	-0.476
Mof_C 	C 	0.0023	0.5075	0.0644	-0.253
Mof_C 	C 	0.9719	0.4483	0.8088	-0.36
Mof_C 	C 	0.4949	0.6549	0.3846	-0.412
Mof_C 	C 	0.1325	0.7199	0.4888	-0.476
Mof_C 	C 	0.0569	0.0621	0.5644	-0.248
Mof_C 	C 	0.8605	0.8369	0.3088	-0.354
Mof_C 	C 	0.8897	0.2297	0.3846	-0.408
Mof_C 	C 	0.3563	0.2689	0.4888	-0.476
Mof_C 	C 	0.5075	0.0023	0.5644	-0.253
Mof_C 	C 	0.4483	0.9719	0.3088	-0.36
Mof_C 	C 	0.3451	0.5051	0.1154	-0.411
Mof_C 	C 	0.2801	0.8675	0.0112	-0.475
Mof_C 	C 	0.9379	0.9431	0.9356	-0.248
Mof_C 	C 	0.1631	0.1395	0.1912	-0.354
Mof_C 	C 	0.7703	0.1103	0.1154	-0.408
Mof_C 	C 	0.7311	0.6437	0.0112	-0.476
Mof_C 	C 	0.9977	0.4925	0.9356	-0.253
Mof_C 	C 	0.0281	0.5517	0.1912	-0.36
Mof_C 	C 	0.3412	0.5912	0.6824	-0.2
Mof_C 	C 	0.4088	0.6588	0.8176	-0.2
Mof_C 	C 	0.6588	0.4088	0.3176	-0.2
Mof_C 	C 	0.5912	0.3412	0.1824	-0.2
Mof_N 	N 	0.6084	0.4194	0.597	-0.31
Mof_N 	N 	0.8297	0.3679	0.5296	-0.273
Mof_N 	N 	0.9553	0.8583	0.412	-0.406
Mof_N 	N 	0.043	0.145	0.7134	-0.275
Mof_N 	N 	0.9886	0.6776	0.597	-0.313
Mof_N 	N 	0.6999	0.6617	0.5296	-0.274
Mof_N 	N 	0.4567	0.0537	0.412	-0.406
Mof_N 	N 	0.6704	0.0684	0.7134	-0.278
Mof_N 	N 	0.5806	0.3916	0.903	-0.31
Mof_N 	N 	0.6321	0.1703	0.9704	-0.273
Mof_N 	N 	0.1417	0.0447	0.088	-0.406
Mof_N 	N 	0.855	0.957	0.7866	-0.275
Mof_N 	N 	0.3224	0.0114	0.903	-0.313
Mof_N 	N 	0.3383	0.3001	0.9704	-0.273
Mof_N 	N 	0.9463	0.5433	0.088	-0.406
Mof_N 	N 	0.9316	0.3296	0.7866	-0.278
Mof_N 	N 	0.3916	0.5806	0.403	-0.31
Mof_N 	N 	0.1703	0.6321	0.4704	-0.273
Mof_N 	N 	0.0447	0.1417	0.588	-0.406
Mof_N 	N 	0.957	0.855	0.2866	-0.275
Mof_N 	N 	0.0114	0.3224	0.403	-0.313
Mof_N 	N 	0.3001	0.3383	0.4704	-0.274
Mof_N 	N 	0.5433	0.9463	0.588	-0.406
Mof_N 	N 	0.3296	0.9316	0.2866	-0.278
Mof_N 	N 	0.4194	0.6084	0.097	-0.31
Mof_N 	N 	0.3679	0.8297	0.0296	-0.273
Mof_N 	N 	0.8583	0.9553	0.912	-0.406
Mof_N 	N 	0.145	0.043	0.2134	-0.275
Mof_N 	N 	0.6776	0.9886	0.097	-0.313
Mof_N 	N 	0.6617	0.6999	0.0296	-0.273
Mof_N 	N 	0.0537	0.4567	0.912	-0.406
Mof_N 	N 	0.0684	0.6704	0.2134	-0.278
Mof_N 	N 	0.3269	0.5769	0.6538	-0.443
Mof_N 	N 	0.4231	0.6731	0.8462	-0.443
Mof_N 	N 	0.6731	0.4231	0.3462	-0.443
Mof_N 	N 	0.5769	0.3269	0.1538	-0.443
_end
