# CIF file generated by openbabel 3.1.0, see https://openbabel.org
data_I
_chemical_name_common 'MOBBIO_clean'
_cell_length_a 11.578
_cell_length_b 11.578
_cell_length_c 15.1063
_cell_angle_alpha 112.533
_cell_angle_beta 112.533
_cell_angle_gamma 90
_space_group_name_H-M_alt 'P 1'
_space_group_name_Hall 'P 1'
loop_
    _symmetry_equiv_pos_as_xyz
    x,y,z
loop_
    _atom_site_label
    _atom_site_type_symbol
    _atom_site_fract_x
    _atom_site_fract_y
    _atom_site_fract_z
    _atom_site_occupancy
    Y1       Y        0.37500    0.12500    0.25000    1.000
    Y2       Y        0.62500    0.87500    0.75000    1.000
    C1       C        0.57500    0.52880    0.45200    1.000
    C2       C        0.50130    0.41450    0.40300    1.000
    C3       C        0.58030    0.62010    0.54720    1.000
    C4       C        0.37700    0.92320    0.45200    1.000
    C5       C        0.40170    0.98850    0.40300    1.000
    C6       C        0.46690    0.92710    0.54720    1.000
    C7       C        0.02880    0.87700    0.95200    1.000
    C8       C        0.91450    0.90170    0.90300    1.000
    C9       C        0.12010    0.96690    0.04720    1.000
    C10      C        0.42320    0.07500    0.95200    1.000
    C11      C        0.48850    0.00130    0.90300    1.000
    C12      C        0.42710    0.08030    0.04720    1.000
    C13      C        0.42500    0.47120    0.54800    1.000
    C14      C        0.49870    0.58550    0.59700    1.000
    C15      C        0.41970    0.37990    0.45280    1.000
    C16      C        0.62300    0.07680    0.54800    1.000
    C17      C        0.59830    0.01150    0.59700    1.000
    C18      C        0.53310    0.07290    0.45280    1.000
    C19      C        0.97120    0.12300    0.04800    1.000
    C20      C        0.08550    0.09830    0.09700    1.000
    C21      C        0.87990    0.03310    0.95280    1.000
    C22      C        0.57680    0.92500    0.04800    1.000
    C23      C        0.51150    0.99870    0.09700    1.000
    C24      C        0.57290    0.91970    0.95280    1.000
    Cl1      Cl       0.66444    0.56824    0.39508    1.000
    Cl2      Cl       0.23064    0.82684    0.39508    1.000
    Cl3      Cl       0.06824    0.73064    0.89508    1.000
    Cl4      Cl       0.32684    0.16444    0.89508    1.000
    Cl5      Cl       0.33556    0.43176    0.60492    1.000
    Cl6      Cl       0.76936    0.17316    0.60492    1.000
    Cl7      Cl       0.93176    0.26936    0.10492    1.000
    Cl8      Cl       0.67316    0.83556    0.10492    1.000
    O1       O        0.48700    0.32560    0.31480    1.000
    O2       O        0.64880    0.72700    0.59820    1.000
    O3       O        0.32780    0.98920    0.31480    1.000
    O4       O        0.44940    0.87120    0.59820    1.000
    O5       O        0.82560    0.82780    0.81480    1.000
    O6       O        0.22700    0.94940    0.09820    1.000
    O7       O        0.48920    0.98700    0.81480    1.000
    O8       O        0.37120    0.14880    0.09820    1.000
    O9       O        0.51300    0.67440    0.68520    1.000
    O10      O        0.35120    0.27300    0.40180    1.000
    O11      O        0.67220    0.01080    0.68520    1.000
    O12      O        0.55060    0.12880    0.40180    1.000
    O13      O        0.17440    0.17220    0.18520    1.000
    O14      O        0.77300    0.05060    0.90180    1.000
    O15      O        0.51080    0.01300    0.18520    1.000
    O16      O        0.62880    0.85120    0.90180    1.000
