data_functionalizedCrystal
_audit_creation_method	'EQeq! by Chris Wilmer'
_symmetry_space_group_name_H-M	'P1'
_symmetry_Int_Tables_number	1
_symmetry_cell_setting	triclinic
loop_
_symmetry_equiv_pos_as_xyz
  x,y,z
_cell_length_a	12.7526
_cell_length_b	26.6465
_cell_length_c	26.6465
_cell_angle_alpha	60.6468
_cell_angle_beta	76.1552
_cell_angle_gamma	76.1554
loop_
_atom_site_label
_atom_site_type_symbol
_atom_site_fract_x
_atom_site_fract_y
_atom_site_fract_z
_atom_site_charge
Mof_Zn	Zn	0.34755	0.52644	0.61854	1.22
Mof_Zn	Zn	0.53238	0.4319	0.69772	1.19
Mof_Zn	Zn	0.50747	0.11854	0.02644	1.218
Mof_Zn	Zn	0.338	0.19772	0.9319	1.192
Mof_Zn	Zn	0.15245	0.38146	0.47356	1.223
Mof_Zn	Zn	0.96762	0.30228	0.5681	1.186
Mof_Zn	Zn	0.99253	0.97356	0.88146	1.214
Mof_Zn	Zn	0.162	0.0681	0.80228	1.192
Mof_H 	H 	0.8399	0.9633	0.6445	0.235
Mof_H 	H 	0.606	0.9786	0.5296	0.229
Mof_H 	H 	0.6606	0.5538	0.7228	0.023
Mof_H 	H 	0.7111	0.6341	0.7195	0.08
Mof_H 	H 	0.4776	0.7409	0.6223	0.083
Mof_H 	H 	0.4264	0.6634	0.6242	0.02
Mof_H 	H 	0.7962	0.7153	0.6633	0.041
Mof_H 	H 	0.0101	0.8467	0.6401	0.154
Mof_H 	H 	0.5489	0.8708	0.6698	0.073
Mof_H 	H 	0.4863	0.7915	0.6777	0.039
Mof_H 	H 	0.0278	0.8165	0.5483	0.045
Mof_H 	H 	0.1711	0.7531	0.5239	0.065
Mof_H 	H 	0.0986	0.6183	0.6835	0.071
Mof_H 	H 	0.9723	0.685	0.712	0.009
Mof_H 	H 	0.5101	0.0484	0.5536	0.096
Mof_H 	H 	0.5032	0.0763	0.7125	0.05
Mof_H 	H 	0.7122	0.9409	0.8107	0.059
Mof_H 	H 	0.7507	0.9073	0.7429	0.047
Mof_H 	H 	0.3238	0.0685	0.6891	0.061
Mof_H 	H 	0.1892	0.1499	0.6615	0.015
Mof_H 	H 	0.3836	0.2337	0.5101	0.026
Mof_H 	H 	0.5173	0.1532	0.5358	0.069
Mof_H 	H 	0.4247	0.0677	0.8009	0.039
Mof_H 	H 	0.3842	0.1006	0.8728	-0.015
Mof_H 	H 	0.6997	0.0482	0.9008	0.03
Mof_H 	H 	0.7386	0.0178	0.8284	0.086
Mof_H 	H 	0.5523	0.1445	0.4633	0.233
Mof_H 	H 	0.8858	0.0296	0.4786	0.235
Mof_H 	H 	0.0628	0.2228	0.0538	0.033
Mof_H 	H 	0.9353	0.2195	0.1341	0.056
Mof_H 	H 	0.1592	0.1223	0.2409	0.083
Mof_H 	H 	0.286	0.1242	0.1634	0.024
Mof_H 	H 	0.8252	0.1633	0.2153	0.05
Mof_H 	H 	0.5031	0.1401	0.3467	0.115
Mof_H 	H 	0.9105	0.1698	0.3708	0.059
Mof_H 	H 	0.0445	0.1777	0.2915	0.068
Mof_H 	H 	0.6074	0.0483	0.3165	0.065
Mof_H 	H 	0.5519	0.0239	0.2531	0.049
Mof_H 	H 	0.5996	0.1835	0.1183	0.043
Mof_H 	H 	0.6307	0.212	0.185	0.06
Mof_H 	H 	0.8879	0.0536	0.5484	0.104
Mof_H 	H 	0.708	0.2125	0.5763	0.042
Mof_H 	H 	0.5362	0.3107	0.4409	0.049
Mof_H 	H 	0.5991	0.2429	0.4073	0.057
Mof_H 	H 	0.9186	0.1891	0.5685	0.053
Mof_H 	H 	0.9994	0.1615	0.6499	0.009
Mof_H 	H 	0.8726	0.0101	0.7337	0.031
Mof_H 	H 	0.7937	0.0358	0.6532	0.068
Mof_H 	H 	0.7067	0.3009	0.5677	0.041
Mof_H 	H 	0.6424	0.3728	0.6006	-0.019
Mof_H 	H 	0.3513	0.4008	0.5482	0.027
Mof_H 	H 	0.4152	0.3284	0.5178	0.087
Mof_H 	H 	0.6601	0.3555	0.0367	0.231
Mof_H 	H 	0.894	0.4704	0.0214	0.227
Mof_H 	H 	0.8394	0.2772	0.4462	0.008
Mof_H 	H 	0.7889	0.2805	0.3659	0.093
Mof_H 	H 	0.0224	0.3777	0.2591	0.131
Mof_H 	H 	0.0736	0.3758	0.3366	-0.013
Mof_H 	H 	0.7038	0.3367	0.2847	0.047
Mof_H 	H 	0.4899	0.3599	0.1533	0.116
Mof_H 	H 	0.9511	0.3302	0.1292	0.059
Mof_H 	H 	0.0137	0.3223	0.2085	0.064
Mof_H 	H 	0.4722	0.4517	0.1835	0.063
Mof_H 	H 	0.3289	0.4761	0.2469	0.049
Mof_H 	H 	0.4014	0.3165	0.3817	0.045
Mof_H 	H 	0.5277	0.288	0.315	0.059
Mof_H 	H 	0.9899	0.4464	0.9516	0.09
Mof_H 	H 	0.9968	0.2875	0.9237	0.045
Mof_H 	H 	0.7878	0.1893	0.0591	0.059
Mof_H 	H 	0.7493	0.2571	0.0927	0.047
Mof_H 	H 	0.1762	0.3109	0.9315	0.063
Mof_H 	H 	0.3108	0.3385	0.8501	0.014
Mof_H 	H 	0.1164	0.4899	0.7663	0.036
Mof_H 	H 	0.9827	0.4642	0.8468	0.046
Mof_H 	H 	0.0753	0.1991	0.9323	0.036
Mof_H 	H 	0.1158	0.1272	0.8994	-0.017
Mof_H 	H 	0.8003	0.0992	0.9518	0.031
Mof_H 	H 	0.7614	0.1716	0.9822	0.083
Mof_H 	H 	0.9477	0.5367	0.8555	0.233
Mof_H 	H 	0.6142	0.5214	0.9704	0.237
Mof_H 	H 	0.4372	0.9462	0.7772	0.021
Mof_H 	H 	0.5647	0.8659	0.7805	0.079
Mof_H 	H 	0.3408	0.7591	0.8777	0.084
Mof_H 	H 	0.214	0.8366	0.8758	0.026
Mof_H 	H 	0.6748	0.7847	0.8367	0.051
Mof_H 	H 	0.9969	0.6533	0.8599	0.112
Mof_H 	H 	0.5895	0.6292	0.8302	0.069
Mof_H 	H 	0.4555	0.7085	0.8223	0.044
Mof_H 	H 	0.8926	0.6835	0.9517	0.064
Mof_H 	H 	0.9481	0.7469	0.9761	0.046
Mof_H 	H 	0.9004	0.8817	0.8165	0.041
Mof_H 	H 	0.8693	0.815	0.788	0.059
Mof_H 	H 	0.6121	0.4516	0.9464	0.105
Mof_H 	H 	0.792	0.4237	0.7875	0.045
Mof_H 	H 	0.9638	0.5591	0.6893	0.047
Mof_H 	H 	0.9009	0.5927	0.7571	0.052
Mof_H 	H 	0.5814	0.4315	0.8109	0.056
Mof_H 	H 	0.5006	0.3501	0.8385	0.013
Mof_H 	H 	0.6274	0.2663	0.9899	0.03
Mof_H 	H 	0.7063	0.3468	0.9642	0.07
Mof_H 	H 	0.7933	0.4323	0.6991	0.028
Mof_H 	H 	0.8576	0.3994	0.6272	-0.005
Mof_H 	H 	0.1487	0.4518	0.5992	0.039
Mof_H 	H 	0.0848	0.4822	0.6716	0.072
Mof_C 	C 	0.5115	0.5514	0.669	0.441
Mof_C 	C 	0.53929	0.60111	0.67051	-0.165
Mof_C 	C 	0.62399	0.59181	0.70161	0.071
Mof_C 	C 	0.65238	0.64022	0.70002	-0.136
Mof_C 	C 	0.60006	0.69604	0.67184	0.085
Mof_C 	C 	0.51549	0.70291	0.64291	-0.142
Mof_C 	C 	0.48599	0.65681	0.64341	0.087
Mof_C 	C 	0.63831	0.74569	0.66789	-0.026
Mof_C 	C 	0.74554	0.74786	0.66326	-0.024
Mof_C 	C 	0.78782	0.79428	0.65828	-0.058
Mof_C 	C 	0.90064	0.79966	0.64746	0.112
Mof_C 	C 	0.93425	0.84605	0.64425	-0.271
Mof_C 	C 	0.85881	0.89299	0.64679	0.275
Mof_C 	C 	0.74908	0.89282	0.65362	-0.108
Mof_C 	C 	0.71227	0.84293	0.66033	0.085
Mof_C 	C 	0.60081	0.83949	0.66769	-0.085
Mof_C 	C 	0.56247	0.79223	0.67203	-0.014
Mof_C 	C 	0.98471	0.75509	0.63529	-0.08
Mof_C 	C 	0.04404	0.77696	0.57596	-0.001
Mof_C 	C 	0.12501	0.73909	0.56029	-0.047
Mof_C 	C 	0.13569	0.67811	0.60151	-0.023
Mof_C 	C 	0.08457	0.65823	0.65623	-0.063
Mof_C 	C 	0.00789	0.69871	0.67291	0.043
Mof_C 	C 	0.66861	0.94609	0.64589	-0.048
Mof_C 	C 	0.62176	0.97654	0.59674	0.19
Mof_C 	C 	0.5439	0.0282	0.5878	-0.16
Mof_C 	C 	0.51864	0.04806	0.62746	0.023
Mof_C 	C 	0.56932	0.02058	0.67798	0.01
Mof_C 	C 	0.5524	0.0415	0.7187	-0.077
Mof_C 	C 	0.60436	0.01354	0.76794	0.019
Mof_C 	C 	0.67751	0.96159	0.77679	-0.072
Mof_C 	C 	0.2152	0.6344	0.583	0.299
Mof_C 	C 	0.69845	0.94115	0.73695	-0.05
Mof_C 	C 	0.64559	0.96821	0.68741	-0.006
Mof_C 	C 	0.43535	0.10215	0.61415	0.054
Mof_C 	C 	0.33574	0.10176	0.65276	-0.122
Mof_C 	C 	0.25663	0.15057	0.63657	0.047
Mof_C 	C 	0.27485	0.20115	0.58375	-0.15
Mof_C 	C 	0.37184	0.20036	0.54656	0.062
Mof_C 	C 	0.45097	0.15223	0.56163	-0.115
Mof_C 	C 	0.1885	0.2514	0.566	0.423
Mof_C 	C 	0.48016	0.06284	0.82184	-0.12
Mof_C 	C 	0.58353	0.03547	0.81147	0.063
Mof_C 	C 	0.4564	0.0839	0.8639	0.051
Mof_C 	C 	0.54044	0.07996	0.89196	-0.17
Mof_C 	C 	0.6435	0.0531	0.8803	0.068
Mof_C 	C 	0.66607	0.03309	0.83837	-0.129
Mof_C 	C 	0.51492	0.09988	0.93528	0.395
Mof_C 	C 	0.2681	0.169	0.0514	0.438
Mof_C 	C 	0.18909	0.17051	0.10111	-0.154
Mof_C 	C 	0.08259	0.20161	0.09181	0.05
Mof_C 	C 	0.00738	0.20002	0.14022	-0.091
Mof_C 	C 	0.03206	0.17184	0.19604	0.077
Mof_C 	C 	0.13869	0.14291	0.20291	-0.131
Mof_C 	C 	0.21379	0.14341	0.15681	0.078
Mof_C 	C 	0.94811	0.16789	0.24569	-0.009
Mof_C 	C 	0.84334	0.16326	0.24786	-0.05
Mof_C 	C 	0.75962	0.15828	0.29428	-0.021
Mof_C 	C 	0.65224	0.14746	0.29966	0.052
Mof_C 	C 	0.57545	0.14425	0.34605	-0.195
Mof_C 	C 	0.60141	0.14679	0.39299	0.24
Mof_C 	C 	0.70448	0.15362	0.39282	-0.079
Mof_C 	C 	0.78447	0.16033	0.34293	0.054
Mof_C 	C 	0.89201	0.16769	0.33949	-0.051
Mof_C 	C 	0.97327	0.17203	0.29223	-0.065
Mof_C 	C 	0.62491	0.13529	0.25509	0.023
Mof_C 	C 	0.60304	0.07596	0.27696	-0.074
Mof_C 	C 	0.57561	0.06029	0.23909	0.001
Mof_C 	C 	0.58469	0.10151	0.17811	-0.068
Mof_C 	C 	0.60097	0.15623	0.15823	0.005
Mof_C 	C 	0.62049	0.17291	0.19871	-0.081
Mof_C 	C 	0.73941	0.14589	0.44609	-0.072
Mof_C 	C 	0.80496	0.09674	0.47654	0.218
Mof_C 	C 	0.8401	0.0878	0.5282	-0.192
Mof_C 	C 	0.80584	0.12746	0.54806	0.043
Mof_C 	C 	0.73212	0.17798	0.52058	-0.022
Mof_C 	C 	0.6874	0.2187	0.5415	-0.054
Mof_C 	C 	0.61416	0.26794	0.51354	-0.011
Mof_C 	C 	0.58411	0.27679	0.46159	-0.036
Mof_C 	C 	0.5674	0.083	0.1344	0.312
Mof_C 	C 	0.62345	0.23695	0.44115	-0.077
Mof_C 	C 	0.69879	0.18741	0.46821	0.028
Mof_C 	C 	0.84835	0.11415	0.60215	0.042
Mof_C 	C 	0.90974	0.15276	0.60176	-0.116
Mof_C 	C 	0.95623	0.13657	0.65057	0.036
Mof_C 	C 	0.94025	0.08375	0.70115	-0.142
Mof_C 	C 	0.88124	0.04656	0.70036	0.053
Mof_C 	C 	0.83517	0.06163	0.65223	-0.106
Mof_C 	C 	0.9941	0.066	0.7514	0.398
Mof_C 	C 	0.63516	0.32184	0.56284	-0.129
Mof_C 	C 	0.56953	0.31147	0.53547	0.074
Mof_C 	C 	0.5958	0.3639	0.5839	0.055
Mof_C 	C 	0.48764	0.39196	0.57996	-0.176
Mof_C 	C 	0.4231	0.3803	0.5531	0.073
Mof_C 	C 	0.46247	0.33837	0.53309	-0.139
Mof_C 	C 	0.44992	0.43528	0.59988	0.397
Mof_C 	C 	0.9885	0.331	0.4486	0.441
Mof_C 	C 	0.96071	0.32949	0.39889	-0.227
Mof_C 	C 	0.87601	0.29839	0.40819	0.113
Mof_C 	C 	0.84762	0.29998	0.35978	-0.177
Mof_C 	C 	0.89994	0.32816	0.30396	0.129
Mof_C 	C 	0.98451	0.35709	0.29709	-0.255
Mof_C 	C 	0.01401	0.35659	0.34319	0.199
Mof_C 	C 	0.86169	0.33211	0.25431	-0.025
Mof_C 	C 	0.75446	0.33674	0.25214	-0.038
Mof_C 	C 	0.71218	0.34172	0.20572	-0.029
Mof_C 	C 	0.59936	0.35254	0.20034	0.056
Mof_C 	C 	0.56575	0.35575	0.15395	-0.2
Mof_C 	C 	0.64119	0.35321	0.10701	0.244
Mof_C 	C 	0.75092	0.34638	0.10718	-0.088
Mof_C 	C 	0.78773	0.33967	0.15707	0.061
Mof_C 	C 	0.89919	0.33231	0.16051	-0.059
Mof_C 	C 	0.93753	0.32797	0.20777	-0.055
Mof_C 	C 	0.51529	0.36471	0.24491	0.02
Mof_C 	C 	0.45596	0.42404	0.22304	-0.072
Mof_C 	C 	0.37499	0.43971	0.26091	-0.001
Mof_C 	C 	0.36431	0.39849	0.32189	-0.065
Mof_C 	C 	0.41543	0.34377	0.34177	0.003
Mof_C 	C 	0.49211	0.32709	0.30129	-0.078
Mof_C 	C 	0.83139	0.35411	0.05391	-0.053
Mof_C 	C 	0.87824	0.40326	0.02346	0.19
Mof_C 	C 	0.9561	0.4122	0.9718	-0.157
Mof_C 	C 	0.98136	0.37254	0.95194	0.007
Mof_C 	C 	0.93068	0.32202	0.97942	0.012
Mof_C 	C 	0.9476	0.2813	0.9585	-0.085
Mof_C 	C 	0.89564	0.23206	0.98646	0.023
Mof_C 	C 	0.82249	0.22321	0.03841	-0.076
Mof_C 	C 	0.2848	0.417	0.3656	0.312
Mof_C 	C 	0.80155	0.26305	0.05885	-0.049
Mof_C 	C 	0.85441	0.31259	0.03179	-0.006
Mof_C 	C 	0.06465	0.38585	0.89785	0.062
Mof_C 	C 	0.16426	0.34724	0.89824	-0.121
Mof_C 	C 	0.24337	0.36343	0.84943	0.043
Mof_C 	C 	0.22515	0.41625	0.79885	-0.143
Mof_C 	C 	0.12816	0.45344	0.79964	0.045
Mof_C 	C 	0.04903	0.43837	0.84777	-0.077
Mof_C 	C 	0.3115	0.434	0.7486	0.421
Mof_C 	C 	0.01984	0.17816	0.93716	-0.095
Mof_C 	C 	0.91647	0.18853	0.96453	0.038
Mof_C 	C 	0.0436	0.1361	0.9161	0.064
Mof_C 	C 	0.95956	0.10804	0.92004	-0.181
Mof_C 	C 	0.8565	0.1197	0.9469	0.064
Mof_C 	C 	0.83393	0.16163	0.96691	-0.121
Mof_C 	C 	0.98508	0.06472	0.90012	0.377
Mof_C 	C 	0.2319	0.9486	0.831	0.44
Mof_C 	C 	0.31091	0.89889	0.82949	-0.161
Mof_C 	C 	0.41741	0.90819	0.79839	0.068
Mof_C 	C 	0.49262	0.85978	0.79998	-0.131
Mof_C 	C 	0.46794	0.80396	0.82816	0.079
Mof_C 	C 	0.36131	0.79709	0.85709	-0.136
Mof_C 	C 	0.28621	0.84319	0.85659	0.084
Mof_C 	C 	0.55189	0.75431	0.83211	-0.011
Mof_C 	C 	0.65666	0.75214	0.83674	-0.045
Mof_C 	C 	0.74038	0.70572	0.84172	-0.025
Mof_C 	C 	0.84776	0.70034	0.85254	0.054
Mof_C 	C 	0.92455	0.65395	0.85575	-0.197
Mof_C 	C 	0.89859	0.60701	0.85321	0.242
Mof_C 	C 	0.79552	0.60718	0.84638	-0.083
Mof_C 	C 	0.71553	0.65707	0.83967	0.064
Mof_C 	C 	0.60799	0.66051	0.83231	-0.07
Mof_C 	C 	0.52673	0.70777	0.82797	-0.026
Mof_C 	C 	0.87509	0.74491	0.86471	0.022
Mof_C 	C 	0.89696	0.72304	0.92404	-0.075
Mof_C 	C 	0.92439	0.76091	0.93971	0.001
Mof_C 	C 	0.91531	0.82189	0.89849	-0.07
Mof_C 	C 	0.89903	0.84177	0.84377	0.004
Mof_C 	C 	0.87951	0.80129	0.82709	-0.082
Mof_C 	C 	0.76059	0.55391	0.85411	-0.068
Mof_C 	C 	0.69504	0.52346	0.90326	0.217
Mof_C 	C 	0.6599	0.4718	0.9122	-0.189
Mof_C 	C 	0.69416	0.45194	0.87254	0.04
Mof_C 	C 	0.76788	0.47942	0.82202	-0.016
Mof_C 	C 	0.8126	0.4585	0.7813	-0.067
Mof_C 	C 	0.88584	0.48646	0.73206	0.006
Mof_C 	C 	0.91589	0.53841	0.72321	-0.05
Mof_C 	C 	0.9326	0.8656	0.917	0.312
Mof_C 	C 	0.87655	0.55885	0.76305	-0.071
Mof_C 	C 	0.80121	0.53179	0.81259	0.023
Mof_C 	C 	0.65165	0.39785	0.88585	0.046
Mof_C 	C 	0.59026	0.39824	0.84724	-0.118
Mof_C 	C 	0.54377	0.34943	0.86343	0.043
Mof_C 	C 	0.55975	0.29885	0.91625	-0.149
Mof_C 	C 	0.61876	0.29964	0.95344	0.059
Mof_C 	C 	0.66483	0.34777	0.93837	-0.11
Mof_C 	C 	0.5059	0.2486	0.934	0.422
Mof_C 	C 	0.86484	0.43716	0.67816	-0.093
Mof_C 	C 	0.93047	0.46453	0.68853	0.025
Mof_C 	C 	0.9042	0.4161	0.6361	0.006
Mof_C 	C 	0.01236	0.42004	0.60804	-0.135
Mof_C 	C 	0.0769	0.4469	0.6197	0.037
Mof_C 	C 	0.03753	0.46691	0.66163	-0.083
Mof_C 	C 	0.05008	0.40012	0.56472	0.404
Mof_O 	O 	0.8938	0.93933	0.64107	-0.427
Mof_O 	O 	0.64246	0.9562	0.55688	-0.382
Mof_O 	O 	0.56572	0.50126	0.6953	-0.513
Mof_O 	O 	0.43739	0.5616	0.64162	-0.51
Mof_O 	O 	0.28566	0.65954	0.53474	-0.263
Mof_O 	O 	0.21305	0.58286	0.61384	-0.432
Mof_O 	O 	0.21434	0.29916	0.52316	-0.473
Mof_O 	O 	0.09486	0.24645	0.59383	-0.521
Mof_O 	O 	0.41653	0.12088	0.94766	-0.568
Mof_O 	O 	0.58651	0.09584	0.96214	-0.457
Mof_O 	O 	0.5258	0.14107	0.43933	-0.406
Mof_O 	O 	0.84446	0.05688	0.4562	-0.388
Mof_O 	O 	0.23772	0.1953	0.00126	-0.516
Mof_O 	O 	0.35939	0.14162	0.0616	-0.511
Mof_O 	O 	0.52006	0.03474	0.15954	-0.266
Mof_O 	O 	0.59025	0.11384	0.08286	-0.442
Mof_O 	O 	0.96334	0.02316	0.79916	-0.47
Mof_O 	O 	0.06486	0.09383	0.74645	-0.509
Mof_O 	O 	0.51493	0.44766	0.62088	-0.574
Mof_O 	O 	0.35551	0.46214	0.59584	-0.461
Mof_O 	O 	0.6062	0.35893	0.06067	-0.411
Mof_O 	O 	0.85754	0.44312	0.0438	-0.382
Mof_O 	O 	0.93428	0.3047	0.49874	-0.516
Mof_O 	O 	0.06261	0.35838	0.4384	-0.497
Mof_O 	O 	0.21434	0.46526	0.34046	-0.263
Mof_O 	O 	0.28695	0.38616	0.41714	-0.437
Mof_O 	O 	0.28566	0.47684	0.70084	-0.474
Mof_O 	O 	0.40514	0.40617	0.75355	-0.53
Mof_O 	O 	0.08347	0.05234	0.87912	-0.553
Mof_O 	O 	0.91349	0.03786	0.90416	-0.455
Mof_O 	O 	0.9742	0.56067	0.85893	-0.413
Mof_O 	O 	0.65554	0.5438	0.94312	-0.386
Mof_O 	O 	0.26228	0.99874	0.8047	-0.517
Mof_O 	O 	0.14061	0.9384	0.85838	-0.503
Mof_O 	O 	0.97994	0.84046	0.96526	-0.272
Mof_O 	O 	0.90975	0.91714	0.88616	-0.445
Mof_O 	O 	0.53666	0.20084	0.97684	-0.471
Mof_O 	O 	0.43514	0.25355	0.90617	-0.529
Mof_O 	O 	0.98507	0.37912	0.55234	-0.589
Mof_O 	O 	0.14449	0.40416	0.53786	-0.46
_end
