# CIF file generated by openbabel 3.1.0, see https://openbabel.org
data_I
_chemical_name_common 'image0'
_cell_length_a 24.795
_cell_length_b 13.651
_cell_length_c 14.936
_cell_angle_alpha 90
_cell_angle_beta 97.077
_cell_angle_gamma 90
_space_group_name_H-M_alt 'P 1'
_space_group_name_Hall 'P 1'
loop_
    _symmetry_equiv_pos_as_xyz
    x,y,z
loop_
    _atom_site_label
    _atom_site_type_symbol
    _atom_site_fract_x
    _atom_site_fract_y
    _atom_site_fract_z
    _atom_site_occupancy
    La1      La       0.83091    0.21018    0.53028    1.000
    C1       C        0.07000    0.72170    0.54160    1.000
    C2       C        0.01970    0.68880    0.58140    1.000
    C3       C        0.98630    0.75470    0.61740    1.000
    H1       H        0.99620    0.82020    0.62330    1.000
    C4       C        0.93720    0.72300    0.64510    1.000
    H2       H        0.91410    0.76840    0.66690    1.000
    C5       C        0.92270    0.62520    0.64050    1.000
    C6       C        0.95760    0.56070    0.60710    1.000
    H3       H        0.94830    0.49470    0.60320    1.000
    C7       C        0.00630    0.59060    0.57870    1.000
    H4       H        0.02970    0.54480    0.55810    1.000
    C8       C        0.86840    0.59460    0.66540    1.000
    C9       C        0.84580    0.64050    0.73560    1.000
    H5       H        0.86650    0.68590    0.77140    1.000
    C10      C        0.79310    0.62040    0.75370    1.000
    C11      C        0.76280    0.55200    0.70130    1.000
    H6       H        0.72720    0.53940    0.71160    1.000
    C12      C        0.78480    0.50180    0.63340    1.000
    C13      C        0.83770    0.52160    0.61640    1.000
    H7       H        0.85280    0.48640    0.57230    1.000
    C14      C        0.74990    0.42850    0.57660    1.000
    C15      C        0.77160    0.67180    0.83150    1.000
    O1       O        0.08265    0.81150    0.54700    1.000
    O2       O        0.09742    0.66130    0.50380    1.000
    O3       O        0.77297    0.35790    0.54160    1.000
    O4       O        0.70008    0.43950    0.56600    1.000
    O5       O        0.72369    0.65000    0.84780    1.000
    O6       O        0.80241    0.73150    0.87540    1.000
    O7       O        0.88150    0.06250    0.60790    1.000
    H8       H        0.85560    0.02100    0.56380    1.000
    H9       H        0.90720    0.10140    0.61960    1.000
    La2      La       0.33091    0.71018    0.53028    1.000
    C16      C        0.57000    0.22170    0.54160    1.000
    C17      C        0.51970    0.18880    0.58140    1.000
    C18      C        0.48630    0.25470    0.61740    1.000
    H10      H        0.49620    0.32020    0.62330    1.000
    C19      C        0.43720    0.22300    0.64510    1.000
    H11      H        0.41410    0.26840    0.66690    1.000
    C20      C        0.42270    0.12520    0.64050    1.000
    C21      C        0.45760    0.06070    0.60710    1.000
    H12      H        0.44830    0.99470    0.60320    1.000
    C22      C        0.50630    0.09060    0.57870    1.000
    H13      H        0.52970    0.04480    0.55810    1.000
    C23      C        0.36840    0.09460    0.66540    1.000
    C24      C        0.34580    0.14050    0.73560    1.000
    H14      H        0.36650    0.18590    0.77140    1.000
    C25      C        0.29310    0.12040    0.75370    1.000
    C26      C        0.26280    0.05200    0.70130    1.000
    H15      H        0.22720    0.03940    0.71160    1.000
    C27      C        0.28480    0.00180    0.63340    1.000
    C28      C        0.33770    0.02160    0.61640    1.000
    H16      H        0.35280    0.98640    0.57230    1.000
    C29      C        0.24990    0.92850    0.57660    1.000
    C30      C        0.27160    0.17180    0.83150    1.000
    O8       O        0.58265    0.31150    0.54700    1.000
    O9       O        0.59742    0.16130    0.50380    1.000
    O10      O        0.27297    0.85790    0.54160    1.000
    O11      O        0.20008    0.93950    0.56600    1.000
    O12      O        0.22369    0.15000    0.84780    1.000
    O13      O        0.30241    0.23150    0.87540    1.000
    O14      O        0.38150    0.56250    0.60790    1.000
    H17      H        0.35560    0.52100    0.56380    1.000
    H18      H        0.40720    0.60140    0.61960    1.000
    La3      La       0.16909    0.21018    0.96972    1.000
    C31      C        0.93000    0.72170    0.95840    1.000
    C32      C        0.98030    0.68880    0.91860    1.000
    C33      C        0.01370    0.75470    0.88260    1.000
    H19      H        0.00380    0.82020    0.87670    1.000
    C34      C        0.06280    0.72300    0.85490    1.000
    H20      H        0.08590    0.76840    0.83310    1.000
    C35      C        0.07730    0.62520    0.85950    1.000
    C36      C        0.04240    0.56070    0.89290    1.000
    H21      H        0.05170    0.49470    0.89680    1.000
    C37      C        0.99370    0.59060    0.92130    1.000
    H22      H        0.97030    0.54480    0.94190    1.000
    C38      C        0.13160    0.59460    0.83460    1.000
    C39      C        0.15420    0.64050    0.76440    1.000
    H23      H        0.13350    0.68590    0.72860    1.000
    C40      C        0.20690    0.62040    0.74630    1.000
    C41      C        0.23720    0.55200    0.79870    1.000
    H24      H        0.27280    0.53940    0.78840    1.000
    C42      C        0.21520    0.50180    0.86660    1.000
    C43      C        0.16230    0.52160    0.88360    1.000
    H25      H        0.14720    0.48640    0.92770    1.000
    C44      C        0.25010    0.42850    0.92340    1.000
    C45      C        0.22840    0.67180    0.66850    1.000
    O15      O        0.91735    0.81150    0.95300    1.000
    O16      O        0.90258    0.66130    0.99620    1.000
    O17      O        0.22703    0.35790    0.95840    1.000
    O18      O        0.29992    0.43950    0.93400    1.000
    O19      O        0.27631    0.65000    0.65220    1.000
    O20      O        0.19759    0.73150    0.62460    1.000
    O21      O        0.11850    0.06250    0.89210    1.000
    H26      H        0.14440    0.02100    0.93620    1.000
    H27      H        0.09280    0.10140    0.88040    1.000
    La4      La       0.66909    0.71018    0.96972    1.000
    C46      C        0.43000    0.22170    0.95840    1.000
    C47      C        0.48030    0.18880    0.91860    1.000
    C48      C        0.51370    0.25470    0.88260    1.000
    H28      H        0.50380    0.32020    0.87670    1.000
    C49      C        0.56280    0.22300    0.85490    1.000
    H29      H        0.58590    0.26840    0.83310    1.000
    C50      C        0.57730    0.12520    0.85950    1.000
    C51      C        0.54240    0.06070    0.89290    1.000
    H30      H        0.55170    0.99470    0.89680    1.000
    C52      C        0.49370    0.09060    0.92130    1.000
    H31      H        0.47030    0.04480    0.94190    1.000
    C53      C        0.63160    0.09460    0.83460    1.000
    C54      C        0.65420    0.14050    0.76440    1.000
    H32      H        0.63350    0.18590    0.72860    1.000
    C55      C        0.70690    0.12040    0.74630    1.000
    C56      C        0.73720    0.05200    0.79870    1.000
    H33      H        0.77280    0.03940    0.78840    1.000
    C57      C        0.71520    0.00180    0.86660    1.000
    C58      C        0.66230    0.02160    0.88360    1.000
    H34      H        0.64720    0.98640    0.92770    1.000
    C59      C        0.75010    0.92850    0.92340    1.000
    C60      C        0.72840    0.17180    0.66850    1.000
    O22      O        0.41735    0.31150    0.95300    1.000
    O23      O        0.40258    0.16130    0.99620    1.000
    O24      O        0.72703    0.85790    0.95840    1.000
    O25      O        0.79992    0.93950    0.93400    1.000
    O26      O        0.77631    0.15000    0.65220    1.000
    O27      O        0.69759    0.23150    0.62460    1.000
    O28      O        0.61850    0.56250    0.89210    1.000
    H35      H        0.64440    0.52100    0.93620    1.000
    H36      H        0.59280    0.60140    0.88040    1.000
    La5      La       0.16909    0.78982    0.46972    1.000
    C61      C        0.93000    0.27830    0.45840    1.000
    C62      C        0.98030    0.31120    0.41860    1.000
    C63      C        0.01370    0.24530    0.38260    1.000
    H37      H        0.00380    0.17980    0.37670    1.000
    C64      C        0.06280    0.27700    0.35490    1.000
    H38      H        0.08590    0.23160    0.33310    1.000
    C65      C        0.07730    0.37480    0.35950    1.000
    C66      C        0.04240    0.43930    0.39290    1.000
    H39      H        0.05170    0.50530    0.39680    1.000
    C67      C        0.99370    0.40940    0.42130    1.000
    H40      H        0.97030    0.45520    0.44190    1.000
    C68      C        0.13160    0.40540    0.33460    1.000
    C69      C        0.15420    0.35950    0.26440    1.000
    H41      H        0.13350    0.31410    0.22860    1.000
    C70      C        0.20690    0.37960    0.24630    1.000
    C71      C        0.23720    0.44800    0.29870    1.000
    H42      H        0.27280    0.46060    0.28840    1.000
    C72      C        0.21520    0.49820    0.36660    1.000
    C73      C        0.16230    0.47840    0.38360    1.000
    H43      H        0.14720    0.51360    0.42770    1.000
    C74      C        0.25010    0.57150    0.42340    1.000
    C75      C        0.22840    0.32820    0.16850    1.000
    O29      O        0.91735    0.18850    0.45300    1.000
    O30      O        0.90258    0.33870    0.49620    1.000
    O31      O        0.22703    0.64210    0.45840    1.000
    O32      O        0.29992    0.56050    0.43400    1.000
    O33      O        0.27631    0.35000    0.15220    1.000
    O34      O        0.19759    0.26850    0.12460    1.000
    O35      O        0.11850    0.93750    0.39210    1.000
    H44      H        0.14440    0.97900    0.43620    1.000
    H45      H        0.09280    0.89860    0.38040    1.000
    La6      La       0.66909    0.28982    0.46972    1.000
    C76      C        0.43000    0.77830    0.45840    1.000
    C77      C        0.48030    0.81120    0.41860    1.000
    C78      C        0.51370    0.74530    0.38260    1.000
    H46      H        0.50380    0.67980    0.37670    1.000
    C79      C        0.56280    0.77700    0.35490    1.000
    H47      H        0.58590    0.73160    0.33310    1.000
    C80      C        0.57730    0.87480    0.35950    1.000
    C81      C        0.54240    0.93930    0.39290    1.000
    H48      H        0.55170    0.00530    0.39680    1.000
    C82      C        0.49370    0.90940    0.42130    1.000
    H49      H        0.47030    0.95520    0.44190    1.000
    C83      C        0.63160    0.90540    0.33460    1.000
    C84      C        0.65420    0.85950    0.26440    1.000
    H50      H        0.63350    0.81410    0.22860    1.000
    C85      C        0.70690    0.87960    0.24630    1.000
    C86      C        0.73720    0.94800    0.29870    1.000
    H51      H        0.77280    0.96060    0.28840    1.000
    C87      C        0.71520    0.99820    0.36660    1.000
    C88      C        0.66230    0.97840    0.38360    1.000
    H52      H        0.64720    0.01360    0.42770    1.000
    C89      C        0.75010    0.07150    0.42340    1.000
    C90      C        0.72840    0.82820    0.16850    1.000
    O36      O        0.41735    0.68850    0.45300    1.000
    O37      O        0.40258    0.83870    0.49620    1.000
    O38      O        0.72703    0.14210    0.45840    1.000
    O39      O        0.79992    0.06050    0.43400    1.000
    O40      O        0.77631    0.85000    0.15220    1.000
    O41      O        0.69759    0.76850    0.12460    1.000
    O42      O        0.61850    0.43750    0.39210    1.000
    H53      H        0.64440    0.47900    0.43620    1.000
    H54      H        0.59280    0.39860    0.38040    1.000
    La7      La       0.83091    0.78982    0.03028    1.000
    C91      C        0.07000    0.27830    0.04160    1.000
    C92      C        0.01970    0.31120    0.08140    1.000
    C93      C        0.98630    0.24530    0.11740    1.000
    H55      H        0.99620    0.17980    0.12330    1.000
    C94      C        0.93720    0.27700    0.14510    1.000
    H56      H        0.91410    0.23160    0.16690    1.000
    C95      C        0.92270    0.37480    0.14050    1.000
    C96      C        0.95760    0.43930    0.10710    1.000
    H57      H        0.94830    0.50530    0.10320    1.000
    C97      C        0.00630    0.40940    0.07870    1.000
    H58      H        0.02970    0.45520    0.05810    1.000
    C98      C        0.86840    0.40540    0.16540    1.000
    C99      C        0.84580    0.35950    0.23560    1.000
    H59      H        0.86650    0.31410    0.27140    1.000
    C100     C        0.79310    0.37960    0.25370    1.000
    C101     C        0.76280    0.44800    0.20130    1.000
    H60      H        0.72720    0.46060    0.21160    1.000
    C102     C        0.78480    0.49820    0.13340    1.000
    C103     C        0.83770    0.47840    0.11640    1.000
    H61      H        0.85280    0.51360    0.07230    1.000
    C104     C        0.74990    0.57150    0.07660    1.000
    C105     C        0.77160    0.32820    0.33150    1.000
    O43      O        0.08265    0.18850    0.04700    1.000
    O44      O        0.09742    0.33870    0.00380    1.000
    O45      O        0.77297    0.64210    0.04160    1.000
    O46      O        0.70008    0.56050    0.06600    1.000
    O47      O        0.72369    0.35000    0.34780    1.000
    O48      O        0.80241    0.26850    0.37540    1.000
    O49      O        0.88150    0.93750    0.10790    1.000
    H62      H        0.85560    0.97900    0.06380    1.000
    H63      H        0.90720    0.89860    0.11960    1.000
    La8      La       0.33091    0.28982    0.03028    1.000
    C106     C        0.57000    0.77830    0.04160    1.000
    C107     C        0.51970    0.81120    0.08140    1.000
    C108     C        0.48630    0.74530    0.11740    1.000
    H64      H        0.49620    0.67980    0.12330    1.000
    C109     C        0.43720    0.77700    0.14510    1.000
    H65      H        0.41410    0.73160    0.16690    1.000
    C110     C        0.42270    0.87480    0.14050    1.000
    C111     C        0.45760    0.93930    0.10710    1.000
    H66      H        0.44830    0.00530    0.10320    1.000
    C112     C        0.50630    0.90940    0.07870    1.000
    H67      H        0.52970    0.95520    0.05810    1.000
    C113     C        0.36840    0.90540    0.16540    1.000
    C114     C        0.34580    0.85950    0.23560    1.000
    H68      H        0.36650    0.81410    0.27140    1.000
    C115     C        0.29310    0.87960    0.25370    1.000
    C116     C        0.26280    0.94800    0.20130    1.000
    H69      H        0.22720    0.96060    0.21160    1.000
    C117     C        0.28480    0.99820    0.13340    1.000
    C118     C        0.33770    0.97840    0.11640    1.000
    H70      H        0.35280    0.01360    0.07230    1.000
    C119     C        0.24990    0.07150    0.07660    1.000
    C120     C        0.27160    0.82820    0.33150    1.000
    O50      O        0.58265    0.68850    0.04700    1.000
    O51      O        0.59742    0.83870    0.00380    1.000
    O52      O        0.27297    0.14210    0.04160    1.000
    O53      O        0.20008    0.06050    0.06600    1.000
    O54      O        0.22369    0.85000    0.34780    1.000
    O55      O        0.30241    0.76850    0.37540    1.000
    O56      O        0.38150    0.43750    0.10790    1.000
    H71      H        0.35560    0.47900    0.06380    1.000
    H72      H        0.40720    0.39860    0.11960    1.000
