# CIF file generated by openbabel 3.1.0, see https://openbabel.org
data_I
_chemical_name_common 'image0'
_cell_length_a 27.579
_cell_length_b 10.154
_cell_length_c 20.35
_cell_angle_alpha 90
_cell_angle_beta 127.334
_cell_angle_gamma 90
_space_group_name_H-M_alt 'P 1'
_space_group_name_Hall 'P 1'
loop_
    _symmetry_equiv_pos_as_xyz
    x,y,z
loop_
    _atom_site_label
    _atom_site_type_symbol
    _atom_site_fract_x
    _atom_site_fract_y
    _atom_site_fract_z
    _atom_site_occupancy
    Cu1      Cu       0.16050    0.74110    0.26550    1.000
    O1       O        0.15547    0.59200    0.33080    1.000
    O2       O        0.16250    0.47400    0.24590    1.000
    O3       O        0.15410    0.88970    0.34130    1.000
    O4       O        0.15480    0.99320    0.24870    1.000
    N1       N        0.06853    0.73070    0.17910    1.000
    N2       N        0.16888    0.25160    0.66850    1.000
    N3       N        0.75188    0.74840    0.85430    1.000
    C1       C        0.04330    0.65160    0.11520    1.000
    H1       H        0.06870    0.59560    0.11240    1.000
    C2       C        0.98200    0.64600    0.05240    1.000
    H2       H        0.96710    0.58820    0.00860    1.000
    C3       C        0.94250    0.72610    0.05400    1.000
    C4       C        0.96840    0.80460    0.12290    1.000
    H3       H        0.94370    0.85770    0.12870    1.000
    C5       C        0.03060    0.80480    0.18320    1.000
    H4       H        0.04690    0.85930    0.22880    1.000
    C6       C        0.87640    0.72990    0.98520    1.000
    C7       C        0.85420    0.70380    0.90480    1.000
    H5       H        0.88080    0.68090    0.89310    1.000
    C8       C        0.79200    0.71200    0.84170    1.000
    H6       H        0.77780    0.69110    0.78820    1.000
    C9       C        0.77340    0.77190    0.93270    1.000
    H7       H        0.74580    0.79510    0.94280    1.000
    C10      C        0.83390    0.76360    0.99840    1.000
    H8       H        0.84660    0.78030    0.05160    1.000
    C11      C        0.15580    0.99210    0.31050    1.000
    C12      C        0.19120    0.35150    0.65150    1.000
    H9       H        0.20820    0.42240    0.68790    1.000
    C13      C        0.14560    0.15130    0.61570    1.000
    H10      H        0.13020    0.07990    0.62620    1.000
    C14      C        0.16000    0.48390    0.30480    1.000
    C15      C        0.16110    0.35940    0.34610    1.000
    C16      C        0.15920    0.23890    0.31340    1.000
    H11      H        0.15790    0.23590    0.26670    1.000
    C17      C        0.15920    0.12290    0.34850    1.000
    C18      C        0.16330    0.12770    0.41970    1.000
    H12      H        0.16480    0.04970    0.44490    1.000
    C19      C        0.16500    0.24810    0.45400    1.000
    C20      C        0.16430    0.36340    0.41680    1.000
    H13      H        0.16600    0.44430    0.43960    1.000
    C21      C        0.14330    0.14770    0.54640    1.000
    H14      H        0.12570    0.07570    0.51110    1.000
    C22      C        0.16680    0.25060    0.52850    1.000
    C23      C        0.19030    0.35520    0.58340    1.000
    H15      H        0.20570    0.42840    0.57410    1.000
    Cu2      Cu       0.66050    0.24110    0.26550    1.000
    O5       O        0.65547    0.09200    0.33080    1.000
    O6       O        0.66250    0.97400    0.24590    1.000
    O7       O        0.65410    0.38970    0.34130    1.000
    O8       O        0.65480    0.49320    0.24870    1.000
    N4       N        0.56853    0.23070    0.17910    1.000
    N5       N        0.66888    0.75160    0.66850    1.000
    N6       N        0.25188    0.24840    0.85430    1.000
    C24      C        0.54330    0.15160    0.11520    1.000
    H16      H        0.56870    0.09560    0.11240    1.000
    C25      C        0.48200    0.14600    0.05240    1.000
    H17      H        0.46710    0.08820    0.00860    1.000
    C26      C        0.44250    0.22610    0.05400    1.000
    C27      C        0.46840    0.30460    0.12290    1.000
    H18      H        0.44370    0.35770    0.12870    1.000
    C28      C        0.53060    0.30480    0.18320    1.000
    H19      H        0.54690    0.35930    0.22880    1.000
    C29      C        0.37640    0.22990    0.98520    1.000
    C30      C        0.35420    0.20380    0.90480    1.000
    H20      H        0.38080    0.18090    0.89310    1.000
    C31      C        0.29200    0.21200    0.84170    1.000
    H21      H        0.27780    0.19110    0.78820    1.000
    C32      C        0.27340    0.27190    0.93270    1.000
    H22      H        0.24580    0.29510    0.94280    1.000
    C33      C        0.33390    0.26360    0.99840    1.000
    H23      H        0.34660    0.28030    0.05160    1.000
    C34      C        0.65580    0.49210    0.31050    1.000
    C35      C        0.69120    0.85150    0.65150    1.000
    H24      H        0.70820    0.92240    0.68790    1.000
    C36      C        0.64560    0.65130    0.61570    1.000
    H25      H        0.63020    0.57990    0.62620    1.000
    C37      C        0.66000    0.98390    0.30480    1.000
    C38      C        0.66110    0.85940    0.34610    1.000
    C39      C        0.65920    0.73890    0.31340    1.000
    H26      H        0.65790    0.73590    0.26670    1.000
    C40      C        0.65920    0.62290    0.34850    1.000
    C41      C        0.66330    0.62770    0.41970    1.000
    H27      H        0.66480    0.54970    0.44490    1.000
    C42      C        0.66500    0.74810    0.45400    1.000
    C43      C        0.66430    0.86340    0.41680    1.000
    H28      H        0.66600    0.94430    0.43960    1.000
    C44      C        0.64330    0.64770    0.54640    1.000
    H29      H        0.62570    0.57570    0.51110    1.000
    C45      C        0.66680    0.75060    0.52850    1.000
    C46      C        0.69030    0.85520    0.58340    1.000
    H30      H        0.70570    0.92840    0.57410    1.000
    Cu3      Cu       0.16050    0.25890    0.76550    1.000
    O9       O        0.15547    0.40800    0.83080    1.000
    O10      O        0.16250    0.52600    0.74590    1.000
    O11      O        0.15410    0.11030    0.84130    1.000
    O12      O        0.15480    0.00680    0.74870    1.000
    N7       N        0.06853    0.26930    0.67910    1.000
    N8       N        0.16888    0.74840    0.16850    1.000
    N9       N        0.75188    0.25160    0.35430    1.000
    C47      C        0.04330    0.34840    0.61520    1.000
    H31      H        0.06870    0.40440    0.61240    1.000
    C48      C        0.98200    0.35400    0.55240    1.000
    H32      H        0.96710    0.41180    0.50860    1.000
    C49      C        0.94250    0.27390    0.55400    1.000
    C50      C        0.96840    0.19540    0.62290    1.000
    H33      H        0.94370    0.14230    0.62870    1.000
    C51      C        0.03060    0.19520    0.68320    1.000
    H34      H        0.04690    0.14070    0.72880    1.000
    C52      C        0.87640    0.27010    0.48520    1.000
    C53      C        0.85420    0.29620    0.40480    1.000
    H35      H        0.88080    0.31910    0.39310    1.000
    C54      C        0.79200    0.28800    0.34170    1.000
    H36      H        0.77780    0.30890    0.28820    1.000
    C55      C        0.77340    0.22810    0.43270    1.000
    H37      H        0.74580    0.20490    0.44280    1.000
    C56      C        0.83390    0.23640    0.49840    1.000
    H38      H        0.84660    0.21970    0.55160    1.000
    C57      C        0.15580    0.00790    0.81050    1.000
    C58      C        0.19120    0.64850    0.15150    1.000
    H39      H        0.20820    0.57760    0.18790    1.000
    C59      C        0.14560    0.84870    0.11570    1.000
    H40      H        0.13020    0.92010    0.12620    1.000
    C60      C        0.16000    0.51610    0.80480    1.000
    C61      C        0.16110    0.64060    0.84610    1.000
    C62      C        0.15920    0.76110    0.81340    1.000
    H41      H        0.15790    0.76410    0.76670    1.000
    C63      C        0.15920    0.87710    0.84850    1.000
    C64      C        0.16330    0.87230    0.91970    1.000
    H42      H        0.16480    0.95030    0.94490    1.000
    C65      C        0.16500    0.75190    0.95400    1.000
    C66      C        0.16430    0.63660    0.91680    1.000
    H43      H        0.16600    0.55570    0.93960    1.000
    C67      C        0.14330    0.85230    0.04640    1.000
    H44      H        0.12570    0.92430    0.01110    1.000
    C68      C        0.16680    0.74940    0.02850    1.000
    C69      C        0.19030    0.64480    0.08340    1.000
    H45      H        0.20570    0.57160    0.07410    1.000
    Cu4      Cu       0.66050    0.75890    0.76550    1.000
    O13      O        0.65547    0.90800    0.83080    1.000
    O14      O        0.66250    0.02600    0.74590    1.000
    O15      O        0.65410    0.61030    0.84130    1.000
    O16      O        0.65480    0.50680    0.74870    1.000
    N10      N        0.56853    0.76930    0.67910    1.000
    N11      N        0.66888    0.24840    0.16850    1.000
    N12      N        0.25188    0.75160    0.35430    1.000
    C70      C        0.54330    0.84840    0.61520    1.000
    H46      H        0.56870    0.90440    0.61240    1.000
    C71      C        0.48200    0.85400    0.55240    1.000
    H47      H        0.46710    0.91180    0.50860    1.000
    C72      C        0.44250    0.77390    0.55400    1.000
    C73      C        0.46840    0.69540    0.62290    1.000
    H48      H        0.44370    0.64230    0.62870    1.000
    C74      C        0.53060    0.69520    0.68320    1.000
    H49      H        0.54690    0.64070    0.72880    1.000
    C75      C        0.37640    0.77010    0.48520    1.000
    C76      C        0.35420    0.79620    0.40480    1.000
    H50      H        0.38080    0.81910    0.39310    1.000
    C77      C        0.29200    0.78800    0.34170    1.000
    H51      H        0.27780    0.80890    0.28820    1.000
    C78      C        0.27340    0.72810    0.43270    1.000
    H52      H        0.24580    0.70490    0.44280    1.000
    C79      C        0.33390    0.73640    0.49840    1.000
    H53      H        0.34660    0.71970    0.55160    1.000
    C80      C        0.65580    0.50790    0.81050    1.000
    C81      C        0.69120    0.14850    0.15150    1.000
    H54      H        0.70820    0.07760    0.18790    1.000
    C82      C        0.64560    0.34870    0.11570    1.000
    H55      H        0.63020    0.42010    0.12620    1.000
    C83      C        0.66000    0.01610    0.80480    1.000
    C84      C        0.66110    0.14060    0.84610    1.000
    C85      C        0.65920    0.26110    0.81340    1.000
    H56      H        0.65790    0.26410    0.76670    1.000
    C86      C        0.65920    0.37710    0.84850    1.000
    C87      C        0.66330    0.37230    0.91970    1.000
    H57      H        0.66480    0.45030    0.94490    1.000
    C88      C        0.66500    0.25190    0.95400    1.000
    C89      C        0.66430    0.13660    0.91680    1.000
    H58      H        0.66600    0.05570    0.93960    1.000
    C90      C        0.64330    0.35230    0.04640    1.000
    H59      H        0.62570    0.42430    0.01110    1.000
    C91      C        0.66680    0.24940    0.02850    1.000
    C92      C        0.69030    0.14480    0.08340    1.000
    H60      H        0.70570    0.07160    0.07410    1.000
    Cu5      Cu       0.83950    0.74110    0.23450    1.000
    O17      O        0.84453    0.59200    0.16920    1.000
    O18      O        0.83750    0.47400    0.25410    1.000
    O19      O        0.84590    0.88970    0.15870    1.000
    O20      O        0.84520    0.99320    0.25130    1.000
    N13      N        0.93147    0.73070    0.32090    1.000
    N14      N        0.83112    0.25160    0.83150    1.000
    N15      N        0.24812    0.74840    0.64570    1.000
    C93      C        0.95670    0.65160    0.38480    1.000
    H61      H        0.93130    0.59560    0.38760    1.000
    C94      C        0.01800    0.64600    0.44760    1.000
    H62      H        0.03290    0.58820    0.49140    1.000
    C95      C        0.05750    0.72610    0.44600    1.000
    C96      C        0.03160    0.80460    0.37710    1.000
    H63      H        0.05630    0.85770    0.37130    1.000
    C97      C        0.96940    0.80480    0.31680    1.000
    H64      H        0.95310    0.85930    0.27120    1.000
    C98      C        0.12360    0.72990    0.51480    1.000
    C99      C        0.14580    0.70380    0.59520    1.000
    H65      H        0.11920    0.68090    0.60690    1.000
    C100     C        0.20800    0.71200    0.65830    1.000
    H66      H        0.22220    0.69110    0.71180    1.000
    C101     C        0.22660    0.77190    0.56730    1.000
    H67      H        0.25420    0.79510    0.55720    1.000
    C102     C        0.16610    0.76360    0.50160    1.000
    H68      H        0.15340    0.78030    0.44840    1.000
    C103     C        0.84420    0.99210    0.18950    1.000
    C104     C        0.80880    0.35150    0.84850    1.000
    H69      H        0.79180    0.42240    0.81210    1.000
    C105     C        0.85440    0.15130    0.88430    1.000
    H70      H        0.86980    0.07990    0.87380    1.000
    C106     C        0.84000    0.48390    0.19520    1.000
    C107     C        0.83890    0.35940    0.15390    1.000
    C108     C        0.84080    0.23890    0.18660    1.000
    H71      H        0.84210    0.23590    0.23330    1.000
    C109     C        0.84080    0.12290    0.15150    1.000
    C110     C        0.83670    0.12770    0.08030    1.000
    H72      H        0.83520    0.04970    0.05510    1.000
    C111     C        0.83500    0.24810    0.04600    1.000
    C112     C        0.83570    0.36340    0.08320    1.000
    H73      H        0.83400    0.44430    0.06040    1.000
    C113     C        0.85670    0.14770    0.95360    1.000
    H74      H        0.87430    0.07570    0.98890    1.000
    C114     C        0.83320    0.25060    0.97150    1.000
    C115     C        0.80970    0.35520    0.91660    1.000
    H75      H        0.79430    0.42840    0.92590    1.000
    Cu6      Cu       0.33950    0.24110    0.23450    1.000
    O21      O        0.34453    0.09200    0.16920    1.000
    O22      O        0.33750    0.97400    0.25410    1.000
    O23      O        0.34590    0.38970    0.15870    1.000
    O24      O        0.34520    0.49320    0.25130    1.000
    N16      N        0.43147    0.23070    0.32090    1.000
    N17      N        0.33112    0.75160    0.83150    1.000
    N18      N        0.74812    0.24840    0.64570    1.000
    C116     C        0.45670    0.15160    0.38480    1.000
    H76      H        0.43130    0.09560    0.38760    1.000
    C117     C        0.51800    0.14600    0.44760    1.000
    H77      H        0.53290    0.08820    0.49140    1.000
    C118     C        0.55750    0.22610    0.44600    1.000
    C119     C        0.53160    0.30460    0.37710    1.000
    H78      H        0.55630    0.35770    0.37130    1.000
    C120     C        0.46940    0.30480    0.31680    1.000
    H79      H        0.45310    0.35930    0.27120    1.000
    C121     C        0.62360    0.22990    0.51480    1.000
    C122     C        0.64580    0.20380    0.59520    1.000
    H80      H        0.61920    0.18090    0.60690    1.000
    C123     C        0.70800    0.21200    0.65830    1.000
    H81      H        0.72220    0.19110    0.71180    1.000
    C124     C        0.72660    0.27190    0.56730    1.000
    H82      H        0.75420    0.29510    0.55720    1.000
    C125     C        0.66610    0.26360    0.50160    1.000
    H83      H        0.65340    0.28030    0.44840    1.000
    C126     C        0.34420    0.49210    0.18950    1.000
    C127     C        0.30880    0.85150    0.84850    1.000
    H84      H        0.29180    0.92240    0.81210    1.000
    C128     C        0.35440    0.65130    0.88430    1.000
    H85      H        0.36980    0.57990    0.87380    1.000
    C129     C        0.34000    0.98390    0.19520    1.000
    C130     C        0.33890    0.85940    0.15390    1.000
    C131     C        0.34080    0.73890    0.18660    1.000
    H86      H        0.34210    0.73590    0.23330    1.000
    C132     C        0.34080    0.62290    0.15150    1.000
    C133     C        0.33670    0.62770    0.08030    1.000
    H87      H        0.33520    0.54970    0.05510    1.000
    C134     C        0.33500    0.74810    0.04600    1.000
    C135     C        0.33570    0.86340    0.08320    1.000
    H88      H        0.33400    0.94430    0.06040    1.000
    C136     C        0.35670    0.64770    0.95360    1.000
    H89      H        0.37430    0.57570    0.98890    1.000
    C137     C        0.33320    0.75060    0.97150    1.000
    C138     C        0.30970    0.85520    0.91660    1.000
    H90      H        0.29430    0.92840    0.92590    1.000
    Cu7      Cu       0.83950    0.25890    0.73450    1.000
    O25      O        0.84453    0.40800    0.66920    1.000
    O26      O        0.83750    0.52600    0.75410    1.000
    O27      O        0.84590    0.11030    0.65870    1.000
    O28      O        0.84520    0.00680    0.75130    1.000
    N19      N        0.93147    0.26930    0.82090    1.000
    N20      N        0.83112    0.74840    0.33150    1.000
    N21      N        0.24812    0.25160    0.14570    1.000
    C139     C        0.95670    0.34840    0.88480    1.000
    H91      H        0.93130    0.40440    0.88760    1.000
    C140     C        0.01800    0.35400    0.94760    1.000
    H92      H        0.03290    0.41180    0.99140    1.000
    C141     C        0.05750    0.27390    0.94600    1.000
    C142     C        0.03160    0.19540    0.87710    1.000
    H93      H        0.05630    0.14230    0.87130    1.000
    C143     C        0.96940    0.19520    0.81680    1.000
    H94      H        0.95310    0.14070    0.77120    1.000
    C144     C        0.12360    0.27010    0.01480    1.000
    C145     C        0.14580    0.29620    0.09520    1.000
    H95      H        0.11920    0.31910    0.10690    1.000
    C146     C        0.20800    0.28800    0.15830    1.000
    H96      H        0.22220    0.30890    0.21180    1.000
    C147     C        0.22660    0.22810    0.06730    1.000
    H97      H        0.25420    0.20490    0.05720    1.000
    C148     C        0.16610    0.23640    0.00160    1.000
    H98      H        0.15340    0.21970    0.94840    1.000
    C149     C        0.84420    0.00790    0.68950    1.000
    C150     C        0.80880    0.64850    0.34850    1.000
    H99      H        0.79180    0.57760    0.31210    1.000
    C151     C        0.85440    0.84870    0.38430    1.000
    H100     H        0.86980    0.92010    0.37380    1.000
    C152     C        0.84000    0.51610    0.69520    1.000
    C153     C        0.83890    0.64060    0.65390    1.000
    C154     C        0.84080    0.76110    0.68660    1.000
    H101     H        0.84210    0.76410    0.73330    1.000
    C155     C        0.84080    0.87710    0.65150    1.000
    C156     C        0.83670    0.87230    0.58030    1.000
    H102     H        0.83520    0.95030    0.55510    1.000
    C157     C        0.83500    0.75190    0.54600    1.000
    C158     C        0.83570    0.63660    0.58320    1.000
    H103     H        0.83400    0.55570    0.56040    1.000
    C159     C        0.85670    0.85230    0.45360    1.000
    H104     H        0.87430    0.92430    0.48890    1.000
    C160     C        0.83320    0.74940    0.47150    1.000
    C161     C        0.80970    0.64480    0.41660    1.000
    H105     H        0.79430    0.57160    0.42590    1.000
    Cu8      Cu       0.33950    0.75890    0.73450    1.000
    O29      O        0.34453    0.90800    0.66920    1.000
    O30      O        0.33750    0.02600    0.75410    1.000
    O31      O        0.34590    0.61030    0.65870    1.000
    O32      O        0.34520    0.50680    0.75130    1.000
    N22      N        0.43147    0.76930    0.82090    1.000
    N23      N        0.33112    0.24840    0.33150    1.000
    N24      N        0.74812    0.75160    0.14570    1.000
    C162     C        0.45670    0.84840    0.88480    1.000
    H106     H        0.43130    0.90440    0.88760    1.000
    C163     C        0.51800    0.85400    0.94760    1.000
    H107     H        0.53290    0.91180    0.99140    1.000
    C164     C        0.55750    0.77390    0.94600    1.000
    C165     C        0.53160    0.69540    0.87710    1.000
    H108     H        0.55630    0.64230    0.87130    1.000
    C166     C        0.46940    0.69520    0.81680    1.000
    H109     H        0.45310    0.64070    0.77120    1.000
    C167     C        0.62360    0.77010    0.01480    1.000
    C168     C        0.64580    0.79620    0.09520    1.000
    H110     H        0.61920    0.81910    0.10690    1.000
    C169     C        0.70800    0.78800    0.15830    1.000
    H111     H        0.72220    0.80890    0.21180    1.000
    C170     C        0.72660    0.72810    0.06730    1.000
    H112     H        0.75420    0.70490    0.05720    1.000
    C171     C        0.66610    0.73640    0.00160    1.000
    H113     H        0.65340    0.71970    0.94840    1.000
    C172     C        0.34420    0.50790    0.68950    1.000
    C173     C        0.30880    0.14850    0.34850    1.000
    H114     H        0.29180    0.07760    0.31210    1.000
    C174     C        0.35440    0.34870    0.38430    1.000
    H115     H        0.36980    0.42010    0.37380    1.000
    C175     C        0.34000    0.01610    0.69520    1.000
    C176     C        0.33890    0.14060    0.65390    1.000
    C177     C        0.34080    0.26110    0.68660    1.000
    H116     H        0.34210    0.26410    0.73330    1.000
    C178     C        0.34080    0.37710    0.65150    1.000
    C179     C        0.33670    0.37230    0.58030    1.000
    H117     H        0.33520    0.45030    0.55510    1.000
    C180     C        0.33500    0.25190    0.54600    1.000
    C181     C        0.33570    0.13660    0.58320    1.000
    H118     H        0.33400    0.05570    0.56040    1.000
    C182     C        0.35670    0.35230    0.45360    1.000
    H119     H        0.37430    0.42430    0.48890    1.000
    C183     C        0.33320    0.24940    0.47150    1.000
    C184     C        0.30970    0.14480    0.41660    1.000
    H120     H        0.29430    0.07160    0.42590    1.000
