data_functionalizedCrystal
_audit_creation_method	'EQeq! by Chris Wilmer'
_symmetry_space_group_name_H-M	'P1'
_symmetry_Int_Tables_number	1
_symmetry_cell_setting	triclinic
loop_
_symmetry_equiv_pos_as_xyz
  x,y,z
_cell_length_a	22.7528
_cell_length_b	10.9039
_cell_length_c	11.5602
_cell_angle_alpha	90
_cell_angle_beta	112.208
_cell_angle_gamma	90
loop_
_atom_site_label
_atom_site_type_symbol
_atom_site_fract_x
_atom_site_fract_y
_atom_site_fract_z
_atom_site_charge
Mof_Co	Co	0.17943	0.08246	0.43709	1.152
Mof_N 	N 	0.24648	0.94757	0.54969	-0.219
Mof_N 	N 	0.11921	0.21836	0.30865	-0.248
Mof_O 	O 	0.25295	0.85345	0.89634	-0.457
Mof_O 	O 	0.30461	0.67953	0.89873	-0.442
Mof_O 	O 	0.35073	0.54548	0.71152	-0.412
Mof_O 	O 	0.42042	0.67802	0.83492	-0.27
Mof_C 	C 	0.28818	0.89415	0.50817	0.05
Mof_H 	H 	0.2901	0.9218	0.4336	0.018
Mof_C 	C 	0.32822	0.80015	0.57133	-0.084
Mof_H 	H 	0.3564	0.766	0.5394	0.054
Mof_C 	C 	0.32616	0.75688	0.68307	-0.018
Mof_C 	C 	0.36867	0.65154	0.74925	0.327
Mof_C 	C 	0.28444	0.81417	0.72853	-0.119
Mof_C 	C 	0.27972	0.7788	0.85076	0.415
Mof_C 	C 	0.24601	0.90837	0.659	0.068
Mof_H 	H 	0.2185	0.9462	0.6902	0.007
Mof_C 	C 	0.07762	0.1933	0.1943	0.113
Mof_H 	H 	0.0707	0.1113	0.1706	-0.01
Mof_C 	C 	0.04426	0.2806	0.1088	-0.206
Mof_H 	H 	0.0159	0.2571	0.0302	0.115
Mof_C 	C 	0.12706	0.3358	0.3373	0.121
Mof_H 	H 	0.1558	0.3572	0.4163	-0.012
Mof_C 	C 	0.09543	0.4287	0.2579	-0.205
Mof_H 	H 	0.103	0.5096	0.2846	0.112
Mof_C 	C 	0.05309	0.4038	0.1403	0.153
Mof_C 	C 	0.02146	0.5055	0.0571	-0.098
Mof_H 	H 	0.0327	0.5846	0.0875	0.077
Mof_Co	Co	0.67943	0.58246	0.43709	1.153
Mof_N 	N 	0.74648	0.44757	0.54969	-0.218
Mof_N 	N 	0.61921	0.71836	0.30865	-0.247
Mof_O 	O 	0.75295	0.35345	0.89634	-0.454
Mof_O 	O 	0.80461	0.17953	0.89873	-0.439
Mof_O 	O 	0.85073	0.04548	0.71152	-0.41
Mof_O 	O 	0.92042	0.17802	0.83492	-0.267
Mof_C 	C 	0.78818	0.39415	0.50817	0.052
Mof_H 	H 	0.7901	0.4218	0.4336	0.019
Mof_C 	C 	0.82822	0.30015	0.57133	-0.083
Mof_H 	H 	0.8564	0.266	0.5394	0.055
Mof_C 	C 	0.82616	0.25688	0.68307	-0.017
Mof_C 	C 	0.86867	0.15154	0.74925	0.328
Mof_C 	C 	0.78444	0.31417	0.72853	-0.117
Mof_C 	C 	0.77972	0.2788	0.85076	0.415
Mof_C 	C 	0.74601	0.40837	0.659	0.068
Mof_H 	H 	0.7185	0.4462	0.6902	0.008
Mof_C 	C 	0.57762	0.6933	0.1943	0.114
Mof_H 	H 	0.5707	0.6113	0.1706	-0.01
Mof_C 	C 	0.54426	0.7806	0.1088	-0.207
Mof_H 	H 	0.5159	0.7571	0.0302	0.117
Mof_C 	C 	0.62706	0.8358	0.3373	0.12
Mof_H 	H 	0.6558	0.8572	0.4163	-0.012
Mof_C 	C 	0.59543	0.9287	0.2579	-0.202
Mof_H 	H 	0.603	0.0096	0.2846	0.11
Mof_C 	C 	0.55309	0.9038	0.1403	0.157
Mof_C 	C 	0.52146	0.0055	0.0571	-0.102
Mof_H 	H 	0.5327	0.0846	0.0875	0.076
Mof_Co	Co	0.82057	0.08246	0.06291	1.152
Mof_N 	N 	0.75352	0.94757	0.95031	-0.217
Mof_N 	N 	0.88079	0.21836	0.19135	-0.247
Mof_O 	O 	0.74705	0.85345	0.60366	-0.455
Mof_O 	O 	0.69539	0.67953	0.60127	-0.44
Mof_O 	O 	0.64927	0.54548	0.78848	-0.411
Mof_O 	O 	0.57958	0.67802	0.66508	-0.269
Mof_C 	C 	0.71182	0.89415	0.99183	0.043
Mof_H 	H 	0.7099	0.9218	0.0664	0.024
Mof_C 	C 	0.67178	0.80015	0.92867	-0.078
Mof_H 	H 	0.6436	0.766	0.9606	0.053
Mof_C 	C 	0.67384	0.75688	0.81693	-0.019
Mof_C 	C 	0.63133	0.65154	0.75075	0.329
Mof_C 	C 	0.71556	0.81417	0.77147	-0.116
Mof_C 	C 	0.72028	0.7788	0.64924	0.415
Mof_C 	C 	0.75399	0.90837	0.841	0.067
Mof_H 	H 	0.7815	0.9462	0.8098	0.007
Mof_C 	C 	0.92238	0.1933	0.3057	0.113
Mof_H 	H 	0.9293	0.1113	0.3294	-0.01
Mof_C 	C 	0.95574	0.2806	0.3912	-0.206
Mof_H 	H 	0.9841	0.2571	0.4698	0.115
Mof_C 	C 	0.87294	0.3358	0.1627	0.121
Mof_H 	H 	0.8442	0.3572	0.0837	-0.013
Mof_C 	C 	0.90457	0.4287	0.2421	-0.205
Mof_H 	H 	0.897	0.5096	0.2154	0.112
Mof_C 	C 	0.94691	0.4038	0.3597	0.153
Mof_C 	C 	0.97854	0.5055	0.4429	-0.098
Mof_H 	H 	0.9673	0.5846	0.4125	0.076
Mof_Co	Co	0.32057	0.58246	0.06291	1.154
Mof_N 	N 	0.25352	0.44757	0.95031	-0.218
Mof_N 	N 	0.38079	0.71836	0.19135	-0.246
Mof_O 	O 	0.24705	0.35345	0.60366	-0.455
Mof_O 	O 	0.19539	0.17953	0.60127	-0.44
Mof_O 	O 	0.14927	0.04548	0.78848	-0.409
Mof_O 	O 	0.07958	0.17802	0.66508	-0.268
Mof_C 	C 	0.21182	0.39415	0.99183	0.053
Mof_H 	H 	0.2099	0.4218	0.0664	0.018
Mof_C 	C 	0.17178	0.30015	0.92867	-0.083
Mof_H 	H 	0.1436	0.266	0.9606	0.056
Mof_C 	C 	0.17384	0.25688	0.81693	-0.016
Mof_C 	C 	0.13133	0.15154	0.75075	0.328
Mof_C 	C 	0.21556	0.31417	0.77147	-0.118
Mof_C 	C 	0.22028	0.2788	0.64924	0.415
Mof_C 	C 	0.25399	0.40837	0.841	0.068
Mof_H 	H 	0.2815	0.4462	0.8098	0.008
Mof_C 	C 	0.42238	0.6933	0.3057	0.112
Mof_H 	H 	0.4293	0.6113	0.3294	-0.009
Mof_C 	C 	0.45574	0.7806	0.3912	-0.204
Mof_H 	H 	0.4841	0.7571	0.4698	0.115
Mof_C 	C 	0.37294	0.8358	0.1627	0.117
Mof_H 	H 	0.3442	0.8572	0.0837	-0.009
Mof_C 	C 	0.40457	0.9287	0.2421	-0.198
Mof_H 	H 	0.397	0.0096	0.2154	0.108
Mof_C 	C 	0.44691	0.9038	0.3597	0.151
Mof_C 	C 	0.47854	0.0055	0.4429	-0.098
Mof_H 	H 	0.4673	0.0846	0.4125	0.076
Mof_Co	Co	0.82057	0.91754	0.56291	1.153
Mof_N 	N 	0.75352	0.05243	0.45031	-0.218
Mof_N 	N 	0.88079	0.78164	0.69135	-0.247
Mof_O 	O 	0.74705	0.14655	0.10366	-0.456
Mof_O 	O 	0.69539	0.32047	0.10127	-0.441
Mof_O 	O 	0.64927	0.45452	0.28848	-0.411
Mof_O 	O 	0.57958	0.32198	0.16508	-0.269
Mof_C 	C 	0.71182	0.10585	0.49183	0.051
Mof_H 	H 	0.7099	0.0782	0.5664	0.019
Mof_C 	C 	0.67178	0.19985	0.42867	-0.083
Mof_H 	H 	0.6436	0.234	0.4606	0.055
Mof_C 	C 	0.67384	0.24312	0.31693	-0.017
Mof_C 	C 	0.63133	0.34846	0.25075	0.328
Mof_C 	C 	0.71556	0.18583	0.27147	-0.118
Mof_C 	C 	0.72028	0.2212	0.14924	0.415
Mof_C 	C 	0.75399	0.09163	0.341	0.068
Mof_H 	H 	0.7815	0.0538	0.3098	0.007
Mof_C 	C 	0.92238	0.8067	0.8057	0.113
Mof_H 	H 	0.9293	0.8887	0.8294	-0.01
Mof_C 	C 	0.95574	0.7194	0.8912	-0.206
Mof_H 	H 	0.9841	0.7429	0.9698	0.115
Mof_C 	C 	0.87294	0.6642	0.6627	0.121
Mof_H 	H 	0.8442	0.6428	0.5837	-0.012
Mof_C 	C 	0.90457	0.5713	0.7421	-0.205
Mof_H 	H 	0.897	0.4904	0.7154	0.112
Mof_C 	C 	0.94691	0.5962	0.8597	0.153
Mof_C 	C 	0.97854	0.4945	0.9429	-0.098
Mof_H 	H 	0.9673	0.4154	0.9125	0.077
Mof_Co	Co	0.32057	0.41754	0.56291	1.153
Mof_N 	N 	0.25352	0.55243	0.45031	-0.218
Mof_N 	N 	0.38079	0.28164	0.69135	-0.247
Mof_O 	O 	0.24705	0.64655	0.10366	-0.454
Mof_O 	O 	0.19539	0.82047	0.10127	-0.439
Mof_O 	O 	0.14927	0.95452	0.28848	-0.41
Mof_O 	O 	0.07958	0.82198	0.16508	-0.267
Mof_C 	C 	0.21182	0.60585	0.49183	0.052
Mof_H 	H 	0.2099	0.5782	0.5664	0.019
Mof_C 	C 	0.17178	0.69985	0.42867	-0.083
Mof_H 	H 	0.1436	0.734	0.4606	0.055
Mof_C 	C 	0.17384	0.74312	0.31693	-0.017
Mof_C 	C 	0.13133	0.84846	0.25075	0.328
Mof_C 	C 	0.21556	0.68583	0.27147	-0.117
Mof_C 	C 	0.22028	0.7212	0.14924	0.415
Mof_C 	C 	0.25399	0.59163	0.341	0.068
Mof_H 	H 	0.2815	0.5538	0.3098	0.008
Mof_C 	C 	0.42238	0.3067	0.8057	0.114
Mof_H 	H 	0.4293	0.3887	0.8294	-0.01
Mof_C 	C 	0.45574	0.2194	0.8912	-0.207
Mof_H 	H 	0.4841	0.2429	0.9698	0.117
Mof_C 	C 	0.37294	0.1642	0.6627	0.12
Mof_H 	H 	0.3442	0.1428	0.5837	-0.012
Mof_C 	C 	0.40457	0.0713	0.7421	-0.202
Mof_H 	H 	0.397	0.9904	0.7154	0.11
Mof_C 	C 	0.44691	0.0962	0.8597	0.157
Mof_C 	C 	0.47854	0.9945	0.9429	-0.102
Mof_H 	H 	0.4673	0.9154	0.9125	0.076
Mof_Co	Co	0.17943	0.91754	0.93709	1.152
Mof_N 	N 	0.24648	0.05243	0.04969	-0.217
Mof_N 	N 	0.11921	0.78164	0.80865	-0.247
Mof_O 	O 	0.25295	0.14655	0.39634	-0.455
Mof_O 	O 	0.30461	0.32047	0.39873	-0.44
Mof_O 	O 	0.35073	0.45452	0.21152	-0.411
Mof_O 	O 	0.42042	0.32198	0.33492	-0.269
Mof_C 	C 	0.28818	0.10585	0.00817	0.043
Mof_H 	H 	0.2901	0.0782	0.9336	0.024
Mof_C 	C 	0.32822	0.19985	0.07133	-0.078
Mof_H 	H 	0.3564	0.234	0.0394	0.053
Mof_C 	C 	0.32616	0.24312	0.18307	-0.019
Mof_C 	C 	0.36867	0.34846	0.24925	0.329
Mof_C 	C 	0.28444	0.18583	0.22853	-0.116
Mof_C 	C 	0.27972	0.2212	0.35076	0.415
Mof_C 	C 	0.24601	0.09163	0.159	0.067
Mof_H 	H 	0.2185	0.0538	0.1902	0.007
Mof_C 	C 	0.07762	0.8067	0.6943	0.113
Mof_H 	H 	0.0707	0.8887	0.6706	-0.01
Mof_C 	C 	0.04426	0.7194	0.6088	-0.206
Mof_H 	H 	0.0159	0.7429	0.5302	0.115
Mof_C 	C 	0.12706	0.6642	0.8373	0.121
Mof_H 	H 	0.1558	0.6428	0.9163	-0.013
Mof_C 	C 	0.09543	0.5713	0.7579	-0.205
Mof_H 	H 	0.103	0.4904	0.7846	0.112
Mof_C 	C 	0.05309	0.5962	0.6403	0.153
Mof_C 	C 	0.02146	0.4945	0.5571	-0.098
Mof_H 	H 	0.0327	0.4154	0.5875	0.076
Mof_Co	Co	0.67943	0.41754	0.93709	1.154
Mof_N 	N 	0.74648	0.55243	0.04969	-0.218
Mof_N 	N 	0.61921	0.28164	0.80865	-0.246
Mof_O 	O 	0.75295	0.64655	0.39634	-0.455
Mof_O 	O 	0.80461	0.82047	0.39873	-0.44
Mof_O 	O 	0.85073	0.95452	0.21152	-0.409
Mof_O 	O 	0.92042	0.82198	0.33492	-0.268
Mof_C 	C 	0.78818	0.60585	0.00817	0.053
Mof_H 	H 	0.7901	0.5782	0.9336	0.018
Mof_C 	C 	0.82822	0.69985	0.07133	-0.083
Mof_H 	H 	0.8564	0.734	0.0394	0.056
Mof_C 	C 	0.82616	0.74312	0.18307	-0.016
Mof_C 	C 	0.86867	0.84846	0.24925	0.328
Mof_C 	C 	0.78444	0.68583	0.22853	-0.118
Mof_C 	C 	0.77972	0.7212	0.35076	0.415
Mof_C 	C 	0.74601	0.59163	0.159	0.068
Mof_H 	H 	0.7185	0.5538	0.1902	0.008
Mof_C 	C 	0.57762	0.3067	0.6943	0.112
Mof_H 	H 	0.5707	0.3887	0.6706	-0.009
Mof_C 	C 	0.54426	0.2194	0.6088	-0.204
Mof_H 	H 	0.5159	0.2429	0.5302	0.115
Mof_C 	C 	0.62706	0.1642	0.8373	0.117
Mof_H 	H 	0.6558	0.1428	0.9163	-0.009
Mof_C 	C 	0.59543	0.0713	0.7579	-0.198
Mof_H 	H 	0.603	0.9904	0.7846	0.108
Mof_C 	C 	0.55309	0.0962	0.6403	0.151
Mof_C 	C 	0.52146	0.9945	0.5571	-0.098
Mof_H 	H 	0.5327	0.9154	0.5875	0.076
_end
