data_functionalizedCrystal
_audit_creation_method	'EQeq! by Chris Wilmer'
_symmetry_space_group_name_H-M	'P1'
_symmetry_Int_Tables_number	1
_symmetry_cell_setting	triclinic
loop_
_symmetry_equiv_pos_as_xyz
  x,y,z
_cell_length_a	9.777
_cell_length_b	9.777
_cell_length_c	33.611
_cell_angle_alpha	90
_cell_angle_beta	90
_cell_angle_gamma	90.341
loop_
_atom_site_label
_atom_site_type_symbol
_atom_site_fract_x
_atom_site_fract_y
_atom_site_fract_z
_atom_site_charge
Mof_Mn	Mn	0.95265	0.02741	0.39258	0.848
Mof_Mn	Mn	0.02741	0.95265	0.60742	0.849
Mof_Mn	Mn	0.02741	0.95265	0.89258	0.85
Mof_Mn	Mn	0.95265	0.02741	0.10742	0.848
Mof_Mn	Mn	0.97269	0.97269	0.5	0.815
Mof_Mn	Mn	0.97269	0.97269	-0	0.803
Mof_H 	H 	0.2734	0.9598	0.3829	-0.118
Mof_H 	H 	0.6801	0.9253	0.3897	-0.139
Mof_H 	H 	0.4604	0.976	0.4889	-0.034
Mof_H 	H 	0.2318	0.3012	0.3092	-0.07
Mof_H 	H 	0.4875	0.3297	0.289	0.385
Mof_H 	H 	0.5283	0.4835	0.2826	0.377
Mof_H 	H 	0.4006	0.4456	0.3087	0.402
Mof_H 	H 	0.7994	0.28	0.3401	-0.002
Mof_H 	H 	0.6763	0.4737	0.3672	0.005
Mof_H 	H 	0.7936	0.2368	0.4555	0.019
Mof_H 	H 	0.656	0.4398	0.4778	0.081
Mof_H 	H 	0.6781	0.5665	0.4497	0.075
Mof_H 	H 	0.4533	0.2783	0.4492	0.072
Mof_H 	H 	0.2315	0.2759	0.4295	0.085
Mof_H 	H 	0.2492	0.6764	0.4164	0.068
Mof_H 	H 	0.4776	0.6736	0.4319	0.055
Mof_H 	H 	0.0107	0.4665	0.4348	0.12
Mof_H 	H 	0.046	0.393	0.3947	0.102
Mof_H 	H 	0.9668	0.7262	0.432	0.031
Mof_H 	H 	0.9865	0.7877	0.3174	0.017
Mof_H 	H 	0.0486	0.551	0.3292	0.009
Mof_H 	H 	0.2817	0.9197	0.3216	0.562
Mof_H 	H 	0.3633	0.8365	0.2897	0.534
Mof_H 	H 	0.3334	0.772	0.3315	0.575
Mof_H 	H 	0.5853	0.1017	0.3259	0.523
Mof_H 	H 	0.5084	0.0542	0.2873	0.492
Mof_H 	H 	0.4258	0.1142	0.3232	0.525
Mof_H 	H 	0.6034	0.7432	0.3329	0.571
Mof_H 	H 	0.5993	0.8163	0.2914	0.533
Mof_H 	H 	0.6899	0.8765	0.3258	0.571
Mof_H 	H 	0.9598	0.2734	0.6171	-0.119
Mof_H 	H 	0.9253	0.6801	0.6103	-0.139
Mof_H 	H 	0.976	0.4604	0.5111	-0.034
Mof_H 	H 	0.3012	0.2318	0.6908	-0.07
Mof_H 	H 	0.3297	0.4875	0.711	0.385
Mof_H 	H 	0.4835	0.5283	0.7174	0.377
Mof_H 	H 	0.4456	0.4006	0.6913	0.401
Mof_H 	H 	0.28	0.7994	0.6599	-0.002
Mof_H 	H 	0.4737	0.6763	0.6328	0.006
Mof_H 	H 	0.2368	0.7936	0.5445	0.019
Mof_H 	H 	0.4398	0.656	0.5222	0.081
Mof_H 	H 	0.5665	0.6781	0.5503	0.075
Mof_H 	H 	0.2783	0.4533	0.5508	0.072
Mof_H 	H 	0.2759	0.2315	0.5705	0.085
Mof_H 	H 	0.6764	0.2492	0.5836	0.068
Mof_H 	H 	0.6736	0.4776	0.5681	0.055
Mof_H 	H 	0.4665	0.0107	0.5652	0.12
Mof_H 	H 	0.393	0.046	0.6053	0.102
Mof_H 	H 	0.7262	0.9668	0.568	0.031
Mof_H 	H 	0.7877	0.9865	0.6826	0.017
Mof_H 	H 	0.551	0.0486	0.6708	0.009
Mof_H 	H 	0.9197	0.2817	0.6784	0.561
Mof_H 	H 	0.8365	0.3633	0.7103	0.533
Mof_H 	H 	0.772	0.3334	0.6685	0.574
Mof_H 	H 	0.1017	0.5853	0.6741	0.522
Mof_H 	H 	0.0542	0.5084	0.7127	0.491
Mof_H 	H 	0.1142	0.4258	0.6768	0.525
Mof_H 	H 	0.7432	0.6034	0.6671	0.57
Mof_H 	H 	0.8163	0.5993	0.7086	0.532
Mof_H 	H 	0.8765	0.6899	0.6742	0.57
Mof_H 	H 	0.9598	0.2734	0.8829	-0.119
Mof_H 	H 	0.9253	0.6801	0.8897	-0.14
Mof_H 	H 	0.976	0.4604	0.9889	-0.032
Mof_H 	H 	0.3012	0.2318	0.8092	-0.07
Mof_H 	H 	0.3297	0.4875	0.789	0.385
Mof_H 	H 	0.4835	0.5283	0.7826	0.377
Mof_H 	H 	0.4456	0.4006	0.8087	0.401
Mof_H 	H 	0.28	0.7994	0.8401	-0.002
Mof_H 	H 	0.4737	0.6763	0.8672	0.006
Mof_H 	H 	0.2368	0.7936	0.9555	0.022
Mof_H 	H 	0.4398	0.656	0.9778	0.085
Mof_H 	H 	0.5665	0.6781	0.9497	0.077
Mof_H 	H 	0.2783	0.4533	0.9492	0.074
Mof_H 	H 	0.2759	0.2315	0.9295	0.085
Mof_H 	H 	0.6764	0.2492	0.9164	0.068
Mof_H 	H 	0.6736	0.4776	0.9319	0.057
Mof_H 	H 	0.4665	0.0107	0.9348	0.122
Mof_H 	H 	0.393	0.046	0.8947	0.102
Mof_H 	H 	0.7262	0.9668	0.932	0.032
Mof_H 	H 	0.7877	0.9865	0.8174	0.017
Mof_H 	H 	0.551	0.0486	0.8292	0.009
Mof_H 	H 	0.9197	0.2817	0.8216	0.562
Mof_H 	H 	0.8365	0.3633	0.7897	0.534
Mof_H 	H 	0.772	0.3334	0.8315	0.575
Mof_H 	H 	0.1017	0.5853	0.8259	0.523
Mof_H 	H 	0.0542	0.5084	0.7873	0.492
Mof_H 	H 	0.1142	0.4258	0.8232	0.526
Mof_H 	H 	0.7432	0.6034	0.8329	0.571
Mof_H 	H 	0.8163	0.5993	0.7914	0.533
Mof_H 	H 	0.8765	0.6899	0.8258	0.571
Mof_H 	H 	0.2734	0.9598	0.1171	-0.119
Mof_H 	H 	0.6801	0.9253	0.1103	-0.138
Mof_H 	H 	0.4604	0.976	0.0111	-0.037
Mof_H 	H 	0.2318	0.3012	0.1908	-0.07
Mof_H 	H 	0.4875	0.3297	0.211	0.385
Mof_H 	H 	0.5283	0.4835	0.2174	0.377
Mof_H 	H 	0.4006	0.4456	0.1913	0.402
Mof_H 	H 	0.7994	0.28	0.1599	-0.002
Mof_H 	H 	0.6763	0.4737	0.1328	0.005
Mof_H 	H 	0.7936	0.2368	0.0445	0.017
Mof_H 	H 	0.656	0.4398	0.0222	0.077
Mof_H 	H 	0.6781	0.5665	0.0503	0.073
Mof_H 	H 	0.4533	0.2783	0.0508	0.071
Mof_H 	H 	0.2315	0.2759	0.0705	0.085
Mof_H 	H 	0.2492	0.6764	0.0836	0.069
Mof_H 	H 	0.4776	0.6736	0.0681	0.054
Mof_H 	H 	0.0107	0.4665	0.0652	0.119
Mof_H 	H 	0.046	0.393	0.1053	0.101
Mof_H 	H 	0.9668	0.7262	0.068	0.031
Mof_H 	H 	0.9865	0.7877	0.1826	0.017
Mof_H 	H 	0.0486	0.551	0.1708	0.009
Mof_H 	H 	0.2817	0.9197	0.1784	0.561
Mof_H 	H 	0.3633	0.8365	0.2103	0.534
Mof_H 	H 	0.3334	0.772	0.1685	0.574
Mof_H 	H 	0.5853	0.1017	0.1741	0.522
Mof_H 	H 	0.5084	0.0542	0.2127	0.491
Mof_H 	H 	0.4258	0.1142	0.1768	0.525
Mof_H 	H 	0.6034	0.7432	0.1671	0.57
Mof_H 	H 	0.5993	0.8163	0.2086	0.532
Mof_H 	H 	0.6899	0.8765	0.1742	0.57
Mof_H 	H 	0.9617	0.0681	0.25	-0.094
Mof_H 	H 	0.0681	0.9617	0.75	-0.093
Mof_C 	C 	0.2099	0.9809	0.45831	0.353
Mof_C 	C 	0.3459	0.9697	0.43866	-0.298
Mof_C 	C 	0.3534	0.9554	0.39776	0.34
Mof_C 	C 	0.4778	0.9346	0.37814	-0.617
Mof_C 	C 	0.5954	0.9364	0.40186	0.354
Mof_C 	C 	0.5905	0.9541	0.44265	-0.322
Mof_C 	C 	0.465	0.968	0.46137	0.215
Mof_C 	C 	0.7206	0.9584	0.46629	0.418
Mof_C 	C 	0.4876	0.915	0.33336	1.314
Mof_C 	C 	0.0351	0.1219	0.3244	0.433
Mof_C 	C 	0.0893	0.1755	0.28584	-0.294
Mof_C 	C 	0.1964	0.27	0.28522	0.24
Mof_C 	C 	0.4531	0.4207	0.2857	-1.304
Mof_C 	C 	0.7827	0.2955	0.36697	-0.006
Mof_C 	C 	0.7151	0.4027	0.38166	-0.018
Mof_C 	C 	0.7801	0.2715	0.43003	0.088
Mof_C 	C 	0.6418	0.474	0.45101	-0.135
Mof_C 	C 	0.4906	0.4754	0.44174	0.063
Mof_C 	C 	0.4131	0.3601	0.4415	-0.06
Mof_C 	C 	0.2794	0.3582	0.4307	-0.094
Mof_C 	C 	0.2157	0.4775	0.42145	0.094
Mof_C 	C 	0.2908	0.5936	0.4224	-0.092
Mof_C 	C 	0.428	0.5922	0.4321	-0.079
Mof_C 	C 	0.0643	0.4739	0.41056	-0.162
Mof_C 	C 	0.9805	0.7129	0.40487	0.014
Mof_C 	C 	0.9909	0.7459	0.34216	-0.106
Mof_C 	C 	0.0256	0.6148	0.34851	0.062
Mof_C 	C 	0.3542	0.8552	0.3176	-1.845
Mof_C 	C 	0.5033	0.0599	0.3158	-1.668
Mof_C 	C 	0.6057	0.8301	0.3196	-1.889
Mof_C 	C 	0.9809	0.2099	0.54169	0.353
Mof_C 	C 	0.9697	0.3459	0.56134	-0.298
Mof_C 	C 	0.9554	0.3534	0.60224	0.34
Mof_C 	C 	0.9346	0.4778	0.62186	-0.617
Mof_C 	C 	0.9364	0.5954	0.59814	0.354
Mof_C 	C 	0.9541	0.5905	0.55735	-0.322
Mof_C 	C 	0.968	0.465	0.53863	0.215
Mof_C 	C 	0.9584	0.7206	0.53371	0.418
Mof_C 	C 	0.915	0.4876	0.66664	1.313
Mof_C 	C 	0.1219	0.0351	0.6756	0.432
Mof_C 	C 	0.1755	0.0893	0.71416	-0.294
Mof_C 	C 	0.27	0.1964	0.71478	0.239
Mof_C 	C 	0.4207	0.4531	0.7143	-1.304
Mof_C 	C 	0.2955	0.7827	0.63303	-0.006
Mof_C 	C 	0.4027	0.7151	0.61834	-0.018
Mof_C 	C 	0.2715	0.7801	0.56997	0.088
Mof_C 	C 	0.474	0.6418	0.54899	-0.135
Mof_C 	C 	0.4754	0.4906	0.55826	0.063
Mof_C 	C 	0.3601	0.4131	0.5585	-0.06
Mof_C 	C 	0.3582	0.2794	0.5693	-0.094
Mof_C 	C 	0.4775	0.2157	0.57855	0.094
Mof_C 	C 	0.5936	0.2908	0.5776	-0.091
Mof_C 	C 	0.5922	0.428	0.5679	-0.079
Mof_C 	C 	0.4739	0.0643	0.58944	-0.162
Mof_C 	C 	0.7129	0.9805	0.59513	0.014
Mof_C 	C 	0.7459	0.9909	0.65784	-0.105
Mof_C 	C 	0.6148	0.0256	0.65149	0.061
Mof_C 	C 	0.8552	0.3542	0.6824	-1.844
Mof_C 	C 	0.0599	0.5033	0.6842	-1.667
Mof_C 	C 	0.8301	0.6057	0.6804	-1.888
Mof_C 	C 	0.9809	0.2099	0.95831	0.353
Mof_C 	C 	0.9697	0.3459	0.93866	-0.298
Mof_C 	C 	0.9554	0.3534	0.89776	0.341
Mof_C 	C 	0.9346	0.4778	0.87814	-0.618
Mof_C 	C 	0.9364	0.5954	0.90186	0.356
Mof_C 	C 	0.9541	0.5905	0.94265	-0.325
Mof_C 	C 	0.968	0.465	0.96137	0.217
Mof_C 	C 	0.9584	0.7206	0.96629	0.429
Mof_C 	C 	0.915	0.4876	0.83336	1.314
Mof_C 	C 	0.1219	0.0351	0.8244	0.432
Mof_C 	C 	0.1755	0.0893	0.78584	-0.294
Mof_C 	C 	0.27	0.1964	0.78522	0.239
Mof_C 	C 	0.4207	0.4531	0.7857	-1.303
Mof_C 	C 	0.2955	0.7827	0.86697	-0.006
Mof_C 	C 	0.4027	0.7151	0.88166	-0.018
Mof_C 	C 	0.2715	0.7801	0.93003	0.088
Mof_C 	C 	0.474	0.6418	0.95101	-0.138
Mof_C 	C 	0.4754	0.4906	0.94174	0.066
Mof_C 	C 	0.3601	0.4131	0.9415	-0.062
Mof_C 	C 	0.3582	0.2794	0.9307	-0.092
Mof_C 	C 	0.4775	0.2157	0.92145	0.093
Mof_C 	C 	0.5936	0.2908	0.9224	-0.09
Mof_C 	C 	0.5922	0.428	0.9321	-0.08
Mof_C 	C 	0.4739	0.0643	0.91056	-0.162
Mof_C 	C 	0.7129	0.9805	0.90487	0.015
Mof_C 	C 	0.7459	0.9909	0.84216	-0.105
Mof_C 	C 	0.6148	0.0256	0.84851	0.061
Mof_C 	C 	0.8552	0.3542	0.8176	-1.845
Mof_C 	C 	0.0599	0.5033	0.8158	-1.668
Mof_C 	C 	0.8301	0.6057	0.8196	-1.889
Mof_C 	C 	0.2099	0.9809	0.04169	0.354
Mof_C 	C 	0.3459	0.9697	0.06134	-0.299
Mof_C 	C 	0.3534	0.9554	0.10224	0.34
Mof_C 	C 	0.4778	0.9346	0.12186	-0.616
Mof_C 	C 	0.5954	0.9364	0.09814	0.352
Mof_C 	C 	0.5905	0.9541	0.05735	-0.319
Mof_C 	C 	0.465	0.968	0.03863	0.213
Mof_C 	C 	0.7206	0.9584	0.03371	0.405
Mof_C 	C 	0.4876	0.915	0.16664	1.313
Mof_C 	C 	0.0351	0.1219	0.1756	0.433
Mof_C 	C 	0.0893	0.1755	0.21416	-0.294
Mof_C 	C 	0.1964	0.27	0.21478	0.24
Mof_C 	C 	0.4531	0.4207	0.2143	-1.304
Mof_C 	C 	0.7827	0.2955	0.13303	-0.006
Mof_C 	C 	0.7151	0.4027	0.11834	-0.017
Mof_C 	C 	0.7801	0.2715	0.06997	0.088
Mof_C 	C 	0.6418	0.474	0.04899	-0.132
Mof_C 	C 	0.4906	0.4754	0.05826	0.059
Mof_C 	C 	0.4131	0.3601	0.0585	-0.059
Mof_C 	C 	0.2794	0.3582	0.0693	-0.096
Mof_C 	C 	0.2157	0.4775	0.07855	0.094
Mof_C 	C 	0.2908	0.5936	0.0776	-0.093
Mof_C 	C 	0.428	0.5922	0.0679	-0.078
Mof_C 	C 	0.0643	0.4739	0.08944	-0.162
Mof_C 	C 	0.9805	0.7129	0.09513	0.014
Mof_C 	C 	0.9909	0.7459	0.15784	-0.106
Mof_C 	C 	0.0256	0.6148	0.15149	0.062
Mof_C 	C 	0.3542	0.8552	0.1824	-1.844
Mof_C 	C 	0.5033	0.0599	0.1842	-1.667
Mof_C 	C 	0.6057	0.8301	0.1804	-1.888
Mof_C 	C 	0.0347	0.1295	0.25	0.287
Mof_C 	C 	0.2518	0.3192	0.25	-0.405
Mof_C 	C 	0.3652	0.4262	0.25	0.783
Mof_C 	C 	0.2996	0.5646	0.25	-0.284
Mof_C 	C 	0.1295	0.0347	0.75	0.286
Mof_C 	C 	0.3192	0.2518	0.75	-0.405
Mof_C 	C 	0.4262	0.3652	0.75	0.782
Mof_C 	C 	0.5646	0.2996	0.75	-0.284
Mof_N 	N 	0.824	0.2118	0.3975	-0.189
Mof_N 	N 	0.7144	0.387	0.42245	-0.108
Mof_N 	N 	0.9627	0.8089	0.37777	-0.186
Mof_N 	N 	0.021	0.593	0.38876	-0.08
Mof_N 	N 	0.2118	0.824	0.6025	-0.189
Mof_N 	N 	0.387	0.7144	0.57755	-0.108
Mof_N 	N 	0.8089	0.9627	0.62223	-0.186
Mof_N 	N 	0.593	0.021	0.61124	-0.08
Mof_N 	N 	0.2118	0.824	0.8975	-0.189
Mof_N 	N 	0.387	0.7144	0.92245	-0.107
Mof_N 	N 	0.8089	0.9627	0.87777	-0.186
Mof_N 	N 	0.593	0.021	0.88876	-0.08
Mof_N 	N 	0.824	0.2118	0.1025	-0.189
Mof_N 	N 	0.7144	0.387	0.07755	-0.109
Mof_N 	N 	0.9627	0.8089	0.12223	-0.186
Mof_N 	N 	0.021	0.593	0.11124	-0.08
Mof_O 	O 	0.10657	0.00903	0.43769	-0.322
Mof_O 	O 	0.1985	0.9621	0.49499	-0.348
Mof_O 	O 	0.7171	0.9649	0.5029	-0.352
Mof_O 	O 	0.83481	0.95899	0.44798	-0.459
Mof_O 	O 	0.099	0.149	0.35613	-0.361
Mof_O 	O 	0.92898	0.04962	0.32464	-0.416
Mof_O 	O 	0.00903	0.10657	0.56231	-0.322
Mof_O 	O 	0.9621	0.1985	0.50501	-0.348
Mof_O 	O 	0.9649	0.7171	0.4971	-0.352
Mof_O 	O 	0.95899	0.83481	0.55202	-0.459
Mof_O 	O 	0.149	0.099	0.64387	-0.361
Mof_O 	O 	0.04962	0.92898	0.67536	-0.416
Mof_O 	O 	0.00903	0.10657	0.93769	-0.32
Mof_O 	O 	0.9621	0.1985	0.99499	-0.342
Mof_O 	O 	0.9649	0.7171	0.0029	-0.361
Mof_O 	O 	0.95899	0.83481	0.94798	-0.459
Mof_O 	O 	0.149	0.099	0.85613	-0.361
Mof_O 	O 	0.04962	0.92898	0.82464	-0.416
Mof_O 	O 	0.10657	0.00903	0.06231	-0.322
Mof_O 	O 	0.1985	0.9621	0.00501	-0.352
Mof_O 	O 	0.7171	0.9649	0.9971	-0.34
Mof_O 	O 	0.83481	0.95899	0.05202	-0.456
Mof_O 	O 	0.099	0.149	0.14387	-0.361
Mof_O 	O 	0.92898	0.04962	0.17536	-0.416
_end
