# CIF file generated by openbabel 3.1.0, see https://openbabel.org
data_I
_chemical_name_common 'image0'
_cell_length_a 27.318
_cell_length_b 27.318
_cell_length_c 15.102
_cell_angle_alpha 90
_cell_angle_beta 90
_cell_angle_gamma 120
_space_group_name_H-M_alt 'P 1'
_space_group_name_Hall 'P 1'
loop_
    _symmetry_equiv_pos_as_xyz
    x,y,z
loop_
    _atom_site_label
    _atom_site_type_symbol
    _atom_site_fract_x
    _atom_site_fract_y
    _atom_site_fract_z
    _atom_site_occupancy
    S1       S        0.28780    0.22910    0.05200    1.000
    O1       O        0.37120    0.31850    0.19230    1.000
    O2       O        0.33810    0.27940    0.32520    1.000
    C1       C        0.33950    0.21810    0.19750    1.000
    C2       C        0.31640    0.19720    0.11380    1.000
    C3       C        0.35780    0.18760    0.24510    1.000
    C4       C        0.34430    0.26810    0.23470    1.000
    H1       H        0.37320    0.20310    0.30850    1.000
    S2       S        0.95447    0.56243    0.38533    1.000
    O3       O        0.03787    0.65183    0.52563    1.000
    O4       O        0.00477    0.61273    0.65853    1.000
    C5       C        0.00617    0.55143    0.53083    1.000
    C6       C        0.98307    0.53053    0.44713    1.000
    C7       C        0.02447    0.52093    0.57843    1.000
    C8       C        0.01097    0.60143    0.56803    1.000
    H2       H        0.03987    0.53643    0.64183    1.000
    S3       S        0.62113    0.89577    0.71867    1.000
    O5       O        0.70453    0.98517    0.85897    1.000
    O6       O        0.67143    0.94607    0.99187    1.000
    C9       C        0.67283    0.88477    0.86417    1.000
    C10      C        0.64973    0.86387    0.78047    1.000
    C11      C        0.69113    0.85427    0.91177    1.000
    C12      C        0.67763    0.93477    0.90137    1.000
    H3       H        0.70653    0.86977    0.97517    1.000
    S4       S        0.77090    0.05870    0.05200    1.000
    O7       O        0.68150    0.05270    0.19230    1.000
    O8       O        0.72060    0.05870    0.32520    1.000
    C13      C        0.78190    0.12140    0.19750    1.000
    C14      C        0.80280    0.11920    0.11380    1.000
    C15      C        0.81240    0.17020    0.24510    1.000
    C16      C        0.73190    0.07620    0.23470    1.000
    H4       H        0.79690    0.17010    0.30850    1.000
    S5       S        0.43757    0.39203    0.38533    1.000
    O9       O        0.34817    0.38603    0.52563    1.000
    O10      O        0.38727    0.39203    0.65853    1.000
    C17      C        0.44857    0.45473    0.53083    1.000
    C18      C        0.46947    0.45253    0.44713    1.000
    C19      C        0.47907    0.50353    0.57843    1.000
    C20      C        0.39857    0.40953    0.56803    1.000
    H5       H        0.46357    0.50343    0.64183    1.000
    S6       S        0.10423    0.72537    0.71867    1.000
    O11      O        0.01483    0.71937    0.85897    1.000
    O12      O        0.05393    0.72537    0.99187    1.000
    C21      C        0.11523    0.78807    0.86417    1.000
    C22      C        0.13613    0.78587    0.78047    1.000
    C23      C        0.14573    0.83687    0.91177    1.000
    C24      C        0.06523    0.74287    0.90137    1.000
    H6       H        0.13023    0.83677    0.97517    1.000
    S7       S        0.94130    0.71220    0.05200    1.000
    O13      O        0.94730    0.62880    0.19230    1.000
    O14      O        0.94130    0.66190    0.32520    1.000
    C25      C        0.87860    0.66050    0.19750    1.000
    C26      C        0.88080    0.68360    0.11380    1.000
    C27      C        0.82980    0.64220    0.24510    1.000
    C28      C        0.92380    0.65570    0.23470    1.000
    H7       H        0.82990    0.62680    0.30850    1.000
    S8       S        0.60797    0.04553    0.38533    1.000
    O15      O        0.61397    0.96213    0.52563    1.000
    O16      O        0.60797    0.99523    0.65853    1.000
    C29      C        0.54527    0.99383    0.53083    1.000
    C30      C        0.54747    0.01693    0.44713    1.000
    C31      C        0.49647    0.97553    0.57843    1.000
    C32      C        0.59047    0.98903    0.56803    1.000
    H8       H        0.49657    0.96013    0.64183    1.000
    S9       S        0.27463    0.37887    0.71867    1.000
    O17      O        0.28063    0.29547    0.85897    1.000
    O18      O        0.27463    0.32857    0.99187    1.000
    C33      C        0.21193    0.32717    0.86417    1.000
    C34      C        0.21413    0.35027    0.78047    1.000
    C35      C        0.16313    0.30887    0.91177    1.000
    C36      C        0.25713    0.32237    0.90137    1.000
    H9       H        0.16323    0.29347    0.97517    1.000
    S10      S        0.22910    0.28780    0.44800    1.000
    O19      O        0.31850    0.37120    0.30770    1.000
    O20      O        0.27940    0.33810    0.17480    1.000
    C37      C        0.21810    0.33950    0.30250    1.000
    C38      C        0.19720    0.31640    0.38620    1.000
    C39      C        0.18760    0.35780    0.25490    1.000
    C40      C        0.26810    0.34430    0.26530    1.000
    H10      H        0.20310    0.37320    0.19150    1.000
    S11      S        0.89577    0.62113    0.78133    1.000
    O21      O        0.98517    0.70453    0.64103    1.000
    O22      O        0.94607    0.67143    0.50813    1.000
    C41      C        0.88477    0.67283    0.63583    1.000
    C42      C        0.86387    0.64973    0.71953    1.000
    C43      C        0.85427    0.69113    0.58823    1.000
    C44      C        0.93477    0.67763    0.59863    1.000
    H11      H        0.86977    0.70653    0.52483    1.000
    S12      S        0.56243    0.95447    0.11467    1.000
    O23      O        0.65183    0.03787    0.97437    1.000
    O24      O        0.61273    0.00477    0.84147    1.000
    C45      C        0.55143    0.00617    0.96917    1.000
    C46      C        0.53053    0.98307    0.05287    1.000
    C47      C        0.52093    0.02447    0.92157    1.000
    C48      C        0.60143    0.01097    0.93197    1.000
    H12      H        0.53643    0.03987    0.85817    1.000
    S13      S        0.05870    0.77090    0.44800    1.000
    O25      O        0.05270    0.68150    0.30770    1.000
    O26      O        0.05870    0.72060    0.17480    1.000
    C49      C        0.12140    0.78190    0.30250    1.000
    C50      C        0.11920    0.80280    0.38620    1.000
    C51      C        0.17020    0.81240    0.25490    1.000
    C52      C        0.07620    0.73190    0.26530    1.000
    H13      H        0.17010    0.79690    0.19150    1.000
    S14      S        0.72537    0.10423    0.78133    1.000
    O27      O        0.71937    0.01483    0.64103    1.000
    O28      O        0.72537    0.05393    0.50813    1.000
    C53      C        0.78807    0.11523    0.63583    1.000
    C54      C        0.78587    0.13613    0.71953    1.000
    C55      C        0.83687    0.14573    0.58823    1.000
    C56      C        0.74287    0.06523    0.59863    1.000
    H14      H        0.83677    0.13023    0.52483    1.000
    S15      S        0.39203    0.43757    0.11467    1.000
    O29      O        0.38603    0.34817    0.97437    1.000
    O30      O        0.39203    0.38727    0.84147    1.000
    C57      C        0.45473    0.44857    0.96917    1.000
    C58      C        0.45253    0.46947    0.05287    1.000
    C59      C        0.50353    0.47907    0.92157    1.000
    C60      C        0.40953    0.39857    0.93197    1.000
    H15      H        0.50343    0.46357    0.85817    1.000
    S16      S        0.71220    0.94130    0.44800    1.000
    O31      O        0.62880    0.94730    0.30770    1.000
    O32      O        0.66190    0.94130    0.17480    1.000
    C61      C        0.66050    0.87860    0.30250    1.000
    C62      C        0.68360    0.88080    0.38620    1.000
    C63      C        0.64220    0.82980    0.25490    1.000
    C64      C        0.65570    0.92380    0.26530    1.000
    H16      H        0.62680    0.82990    0.19150    1.000
    S17      S        0.37887    0.27463    0.78133    1.000
    O33      O        0.29547    0.28063    0.64103    1.000
    O34      O        0.32857    0.27463    0.50813    1.000
    C65      C        0.32717    0.21193    0.63583    1.000
    C66      C        0.35027    0.21413    0.71953    1.000
    C67      C        0.30887    0.16313    0.58823    1.000
    C68      C        0.32237    0.25713    0.59863    1.000
    H17      H        0.29347    0.16323    0.52483    1.000
    S18      S        0.04553    0.60797    0.11467    1.000
    O35      O        0.96213    0.61397    0.97437    1.000
    O36      O        0.99523    0.60797    0.84147    1.000
    C69      C        0.99383    0.54527    0.96917    1.000
    C70      C        0.01693    0.54747    0.05287    1.000
    C71      C        0.97553    0.49647    0.92157    1.000
    C72      C        0.98903    0.59047    0.93197    1.000
    H18      H        0.96013    0.49657    0.85817    1.000
    S19      S        0.71220    0.77090    0.94800    1.000
    O37      O        0.62880    0.68150    0.80770    1.000
    O38      O        0.66190    0.72060    0.67480    1.000
    C73      C        0.66050    0.78190    0.80250    1.000
    C74      C        0.68360    0.80280    0.88620    1.000
    C75      C        0.64220    0.81240    0.75490    1.000
    C76      C        0.65570    0.73190    0.76530    1.000
    H19      H        0.62680    0.79690    0.69150    1.000
    S20      S        0.37887    0.10423    0.28133    1.000
    O39      O        0.29547    0.01483    0.14103    1.000
    O40      O        0.32857    0.05393    0.00813    1.000
    C77      C        0.32717    0.11523    0.13583    1.000
    C78      C        0.35027    0.13613    0.21953    1.000
    C79      C        0.30887    0.14573    0.08823    1.000
    C80      C        0.32237    0.06523    0.09863    1.000
    H20      H        0.29347    0.13023    0.02483    1.000
    S21      S        0.04553    0.43757    0.61467    1.000
    O41      O        0.96213    0.34817    0.47437    1.000
    O42      O        0.99523    0.38727    0.34147    1.000
    C81      C        0.99383    0.44857    0.46917    1.000
    C82      C        0.01693    0.46947    0.55287    1.000
    C83      C        0.97553    0.47907    0.42157    1.000
    C84      C        0.98903    0.39857    0.43197    1.000
    H21      H        0.96013    0.46357    0.35817    1.000
    S22      S        0.22910    0.94130    0.94800    1.000
    O43      O        0.31850    0.94730    0.80770    1.000
    O44      O        0.27940    0.94130    0.67480    1.000
    C85      C        0.21810    0.87860    0.80250    1.000
    C86      C        0.19720    0.88080    0.88620    1.000
    C87      C        0.18760    0.82980    0.75490    1.000
    C88      C        0.26810    0.92380    0.76530    1.000
    H22      H        0.20310    0.82990    0.69150    1.000
    S23      S        0.89577    0.27463    0.28133    1.000
    O45      O        0.98517    0.28063    0.14103    1.000
    O46      O        0.94607    0.27463    0.00813    1.000
    C89      C        0.88477    0.21193    0.13583    1.000
    C90      C        0.86387    0.21413    0.21953    1.000
    C91      C        0.85427    0.16313    0.08823    1.000
    C92      C        0.93477    0.25713    0.09863    1.000
    H23      H        0.86977    0.16323    0.02483    1.000
    S24      S        0.56243    0.60797    0.61467    1.000
    O47      O        0.65183    0.61397    0.47437    1.000
    O48      O        0.61273    0.60797    0.34147    1.000
    C93      C        0.55143    0.54527    0.46917    1.000
    C94      C        0.53053    0.54747    0.55287    1.000
    C95      C        0.52093    0.49647    0.42157    1.000
    C96      C        0.60143    0.59047    0.43197    1.000
    H24      H        0.53643    0.49657    0.35817    1.000
    S25      S        0.05870    0.28780    0.94800    1.000
    O49      O        0.05270    0.37120    0.80770    1.000
    O50      O        0.05870    0.33810    0.67480    1.000
    C97      C        0.12140    0.33950    0.80250    1.000
    C98      C        0.11920    0.31640    0.88620    1.000
    C99      C        0.17020    0.35780    0.75490    1.000
    C100     C        0.07620    0.34430    0.76530    1.000
    H25      H        0.17010    0.37320    0.69150    1.000
    S26      S        0.72537    0.62113    0.28133    1.000
    O51      O        0.71937    0.70453    0.14103    1.000
    O52      O        0.72537    0.67143    0.00813    1.000
    C101     C        0.78807    0.67283    0.13583    1.000
    C102     C        0.78587    0.64973    0.21953    1.000
    C103     C        0.83687    0.69113    0.08823    1.000
    C104     C        0.74287    0.67763    0.09863    1.000
    H26      H        0.83677    0.70653    0.02483    1.000
    S27      S        0.39203    0.95447    0.61467    1.000
    O53      O        0.38603    0.03787    0.47437    1.000
    O54      O        0.39203    0.00477    0.34147    1.000
    C105     C        0.45473    0.00617    0.46917    1.000
    C106     C        0.45253    0.98307    0.55287    1.000
    C107     C        0.50353    0.02447    0.42157    1.000
    C108     C        0.40953    0.01097    0.43197    1.000
    H27      H        0.50343    0.03987    0.35817    1.000
    S28      S        0.77090    0.71220    0.55200    1.000
    O55      O        0.68150    0.62880    0.69230    1.000
    O56      O        0.72060    0.66190    0.82520    1.000
    C109     C        0.78190    0.66050    0.69750    1.000
    C110     C        0.80280    0.68360    0.61380    1.000
    C111     C        0.81240    0.64220    0.74510    1.000
    C112     C        0.73190    0.65570    0.73470    1.000
    H28      H        0.79690    0.62680    0.80850    1.000
    S29      S        0.43757    0.04553    0.88533    1.000
    O57      O        0.34817    0.96213    0.02563    1.000
    O58      O        0.38727    0.99523    0.15853    1.000
    C113     C        0.44857    0.99383    0.03083    1.000
    C114     C        0.46947    0.01693    0.94713    1.000
    C115     C        0.47907    0.97553    0.07843    1.000
    C116     C        0.39857    0.98903    0.06803    1.000
    H29      H        0.46357    0.96013    0.14183    1.000
    S30      S        0.10423    0.37887    0.21867    1.000
    O59      O        0.01483    0.29547    0.35897    1.000
    O60      O        0.05393    0.32857    0.49187    1.000
    C117     C        0.11523    0.32717    0.36417    1.000
    C118     C        0.13613    0.35027    0.28047    1.000
    C119     C        0.14573    0.30887    0.41177    1.000
    C120     C        0.06523    0.32237    0.40137    1.000
    H30      H        0.13023    0.29347    0.47517    1.000
    S31      S        0.94130    0.22910    0.55200    1.000
    O61      O        0.94730    0.31850    0.69230    1.000
    O62      O        0.94130    0.27940    0.82520    1.000
    C121     C        0.87860    0.21810    0.69750    1.000
    C122     C        0.88080    0.19720    0.61380    1.000
    C123     C        0.82980    0.18760    0.74510    1.000
    C124     C        0.92380    0.26810    0.73470    1.000
    H31      H        0.82990    0.20310    0.80850    1.000
    S32      S        0.60797    0.56243    0.88533    1.000
    O63      O        0.61397    0.65183    0.02563    1.000
    O64      O        0.60797    0.61273    0.15853    1.000
    C125     C        0.54527    0.55143    0.03083    1.000
    C126     C        0.54747    0.53053    0.94713    1.000
    C127     C        0.49647    0.52093    0.07843    1.000
    C128     C        0.59047    0.60143    0.06803    1.000
    H32      H        0.49657    0.53643    0.14183    1.000
    S33      S        0.27463    0.89577    0.21867    1.000
    O65      O        0.28063    0.98517    0.35897    1.000
    O66      O        0.27463    0.94607    0.49187    1.000
    C129     C        0.21193    0.88477    0.36417    1.000
    C130     C        0.21413    0.86387    0.28047    1.000
    C131     C        0.16313    0.85427    0.41177    1.000
    C132     C        0.25713    0.93477    0.40137    1.000
    H33      H        0.16323    0.86977    0.47517    1.000
    S34      S        0.28780    0.05870    0.55200    1.000
    O67      O        0.37120    0.05270    0.69230    1.000
    O68      O        0.33810    0.05870    0.82520    1.000
    C133     C        0.33950    0.12140    0.69750    1.000
    C134     C        0.31640    0.11920    0.61380    1.000
    C135     C        0.35780    0.17020    0.74510    1.000
    C136     C        0.34430    0.07620    0.73470    1.000
    H34      H        0.37320    0.17010    0.80850    1.000
    S35      S        0.95447    0.39203    0.88533    1.000
    O69      O        0.03787    0.38603    0.02563    1.000
    O70      O        0.00477    0.39203    0.15853    1.000
    C137     C        0.00617    0.45473    0.03083    1.000
    C138     C        0.98307    0.45253    0.94713    1.000
    C139     C        0.02447    0.50353    0.07843    1.000
    C140     C        0.01097    0.40953    0.06803    1.000
    H35      H        0.03987    0.50343    0.14183    1.000
    S36      S        0.62113    0.72537    0.21867    1.000
    O71      O        0.70453    0.71937    0.35897    1.000
    O72      O        0.67143    0.72537    0.49187    1.000
    C141     C        0.67283    0.78807    0.36417    1.000
    C142     C        0.64973    0.78587    0.28047    1.000
    C143     C        0.69113    0.83687    0.41177    1.000
    C144     C        0.67763    0.74287    0.40137    1.000
    H36      H        0.70653    0.83677    0.47517    1.000
    Mn1      Mn       0.31250    0.33333    0.08333    1.000
    Mn2      Mn       0.66667    0.97917    0.08333    1.000
    Mn3      Mn       0.33333    0.31250    0.41667    1.000
    Mn4      Mn       0.02083    0.68750    0.08333    1.000
    Mn5      Mn       0.35417    0.35417    0.75000    1.000
    Mn6      Mn       0.00000    0.64583    0.75000    1.000
    Mn7      Mn       0.97917    0.66667    0.41667    1.000
    Mn8      Mn       0.64583    0.00000    0.75000    1.000
    Mn9      Mn       0.68750    0.02083    0.41667    1.000
    Mn10     Mn       0.68750    0.66667    0.91667    1.000
    Mn11     Mn       0.35417    0.00000    0.25000    1.000
    Mn12     Mn       0.02083    0.33333    0.58333    1.000
    Mn13     Mn       0.33333    0.02083    0.91667    1.000
    Mn14     Mn       0.00000    0.35417    0.25000    1.000
    Mn15     Mn       0.97917    0.31250    0.91667    1.000
    Mn16     Mn       0.64583    0.64583    0.25000    1.000
    Mn17     Mn       0.66667    0.68750    0.58333    1.000
    Mn18     Mn       0.31250    0.97917    0.58333    1.000
    Mn19     Mn       0.40270    0.40270    0.25000    1.000
    Mn20     Mn       0.06937    0.73603    0.58333    1.000
    Mn21     Mn       0.73603    0.06937    0.91667    1.000
    Mn22     Mn       0.59730    0.00000    0.25000    1.000
    Mn23     Mn       0.26397    0.33333    0.58333    1.000
    Mn24     Mn       0.93063    0.66667    0.91667    1.000
    Mn25     Mn       0.00000    0.59730    0.25000    1.000
    Mn26     Mn       0.66667    0.93063    0.58333    1.000
    Mn27     Mn       0.33333    0.26397    0.91667    1.000
    Mn28     Mn       0.59730    0.59730    0.75000    1.000
    Mn29     Mn       0.26397    0.93063    0.08333    1.000
    Mn30     Mn       0.93063    0.26397    0.41667    1.000
    Mn31     Mn       0.40270    0.00000    0.75000    1.000
    Mn32     Mn       0.06937    0.33333    0.08333    1.000
    Mn33     Mn       0.73603    0.66667    0.41667    1.000
    Mn34     Mn       0.00000    0.40270    0.75000    1.000
    Mn35     Mn       0.66667    0.73603    0.08333    1.000
    Mn36     Mn       0.33333    0.06937    0.41667    1.000
