data_functionalizedCrystal
_audit_creation_method	'EQeq! by Chris Wilmer'
_symmetry_space_group_name_H-M	'P1'
_symmetry_Int_Tables_number	1
_symmetry_cell_setting	triclinic
loop_
_symmetry_equiv_pos_as_xyz
  x,y,z
_cell_length_a	12.3927
_cell_length_b	13.2752
_cell_length_c	14.3563
_cell_angle_alpha	81.027
_cell_angle_beta	77.828
_cell_angle_gamma	89.565
loop_
_atom_site_label
_atom_site_type_symbol
_atom_site_fract_x
_atom_site_fract_y
_atom_site_fract_z
_atom_site_charge
Mof_Er	Er	0.68069	0.86313	0.66363	1.382
Mof_Er	Er	0.39816	0.40914	0.77594	1.322
Mof_Ru	Ru	0.65763	0.25983	0.48399	1.006
Mof_Ru	Ru	0.26305	0.66117	0.04208	1.016
Mof_N 	N 	0.8051	0.312	0.5142	-0.238
Mof_C 	C 	0.818	0.3643	0.5841	0.128
Mof_H 	H 	0.7542	0.3846	0.6257	-0.031
Mof_C 	C 	0.9192	0.3892	0.5976	-0.174
Mof_H 	H 	0.9266	0.4264	0.6474	0.113
Mof_C 	C 	0.01	0.3591	0.5371	0.107
Mof_H 	H 	0.0815	0.3732	0.547	0.023
Mof_O 	O 	0.705	0.9014	0.8164	-0.139
Mof_O 	O 	0.728	0.848	0.8099	-0.208
Mof_N 	N 	0.0007	0.31	0.4641	-0.119
Mof_O 	O 	0.8008	0.7313	0.7008	-0.08
Mof_O 	O 	0.7844	0.715	0.6599	-0.228
Mof_C 	C 	0.8997	0.2889	0.4541	0.1
Mof_N 	N 	0.778	0.2238	0.3671	-0.237
Mof_C 	C 	0.7603	0.1814	0.2919	0.114
Mof_H 	H 	0.6871	0.1719	0.2837	-0.033
Mof_C 	C 	0.8489	0.1522	0.2271	-0.171
Mof_H 	H 	0.8374	0.1226	0.1737	0.094
Mof_C 	C 	0.952	0.1658	0.2402	0.112
Mof_H 	H 	0.0128	0.1437	0.1964	0.019
Mof_N 	N 	0.9708	0.2097	0.3131	-0.114
Mof_C 	C 	0.8838	0.2384	0.3739	0.102
Mof_N 	N 	0.108	0.6623	0.0018	-0.238
Mof_C 	C 	0.0812	0.6141	0.9346	0.117
Mof_H 	H 	0.1349	0.576	0.8981	-0
Mof_C 	C 	0.9753	0.6197	0.9179	-0.169
Mof_H 	H 	0.9539	0.5859	0.8707	0.107
Mof_C 	C 	0.9022	0.6768	0.9735	0.11
Mof_H 	H 	0.8293	0.6825	0.9625	-0.003
Mof_N 	N 	0.9266	0.7233	0.04	-0.135
Mof_C 	C 	0.03	0.7146	0.0501	0.1
Mof_N 	N 	0.1663	0.754	0.1336	-0.235
Mof_C 	C 	0.2024	0.803	0.1983	0.104
Mof_H 	H 	0.277	0.798	0.205	-0.022
Mof_C 	C 	0.1296	0.8598	0.2539	-0.151
Mof_H 	H 	0.1516	0.8929	0.3012	0.097
Mof_C 	C 	0.0253	0.8669	0.2386	0.094
Mof_H 	H 	0.9746	0.9072	0.2754	0.028
Mof_N 	N 	0.9908	0.8201	0.1747	-0.127
Mof_C 	C 	0.065	0.7668	0.1251	0.11
Mof_C 	C 	0.6771	0.118	0.5548	-0.154
Mof_N 	N 	0.6861	0.0353	0.5916	-0.195
Mof_C 	C 	0.5564	0.2924	0.5993	-0.194
Mof_N 	N 	0.4972	0.3088	0.6676	-0.185
Mof_C 	C 	0.4714	0.7893	0.5571	-0.196
Mof_N 	N 	0.5473	0.8152	0.5832	-0.209
Mof_C 	C 	0.6347	0.3975	0.4087	-0.162
Mof_N 	N 	0.6196	0.4723	0.3618	-0.176
Mof_C 	C 	0.3188	0.788	0.9446	-0.184
Mof_N 	N 	0.3517	0.8614	0.8921	-0.08
Mof_C 	C 	0.3334	0.5751	0.947	-0.182
Mof_N 	N 	0.3687	0.5246	0.8899	-0.183
Mof_C 	C 	0.6018	0.3377	0.9077	-0.189
Mof_N 	N 	0.5246	0.3453	0.8752	-0.188
Mof_C 	C 	0.2244	0.5364	0.1472	-0.181
Mof_N 	N 	0.2152	0.4661	0.2083	-0.057
Mof_N 	N 	0.1793	0.4007	0.7415	0.064
Mof_O 	O 	0.2065	0.4482	0.8053	-0.271
Mof_O 	O 	0.2525	0.343	0.703	-0.251
Mof_O 	O 	0.0895	0.4077	0.7245	-0.127
Mof_N 	N 	0.9545	0.9647	0.5652	0.045
Mof_O 	O 	0.8686	0.9289	0.6374	-0.243
Mof_O 	O 	0.0268	0.022	0.5775	-0.082
Mof_O 	O 	0.9712	0.9331	0.4865	-0.073
Mof_Er	Er	0.31931	0.13687	0.33637	1.382
Mof_Er	Er	0.60184	0.59086	0.22406	1.322
Mof_Ru	Ru	0.34237	0.74017	0.51601	1.006
Mof_Ru	Ru	0.73695	0.33883	0.95792	1.016
Mof_N 	N 	0.1949	0.688	0.4858	-0.238
Mof_C 	C 	0.182	0.6357	0.4159	0.128
Mof_H 	H 	0.2458	0.6154	0.3743	-0.031
Mof_C 	C 	0.0808	0.6108	0.4024	-0.174
Mof_H 	H 	0.0734	0.5736	0.3526	0.113
Mof_C 	C 	0.99	0.6409	0.4629	0.107
Mof_H 	H 	0.9185	0.6268	0.453	0.023
Mof_O 	O 	0.295	0.0986	0.1836	-0.139
Mof_O 	O 	0.272	0.152	0.1901	-0.208
Mof_N 	N 	0.9993	0.69	0.5359	-0.119
Mof_O 	O 	0.1992	0.2687	0.2992	-0.08
Mof_O 	O 	0.2156	0.285	0.3401	-0.228
Mof_C 	C 	0.1003	0.7111	0.5459	0.1
Mof_N 	N 	0.222	0.7762	0.6329	-0.237
Mof_C 	C 	0.2397	0.8186	0.7081	0.114
Mof_H 	H 	0.3129	0.8281	0.7163	-0.033
Mof_C 	C 	0.1511	0.8478	0.7729	-0.171
Mof_H 	H 	0.1626	0.8774	0.8263	0.094
Mof_C 	C 	0.048	0.8342	0.7598	0.112
Mof_H 	H 	0.9872	0.8563	0.8036	0.019
Mof_N 	N 	0.0292	0.7903	0.6869	-0.114
Mof_C 	C 	0.1162	0.7616	0.6261	0.102
Mof_N 	N 	0.892	0.3377	0.9982	-0.238
Mof_C 	C 	0.9188	0.3859	0.0654	0.117
Mof_H 	H 	0.8651	0.424	0.1019	-0
Mof_C 	C 	0.0247	0.3803	0.0821	-0.169
Mof_H 	H 	0.0461	0.4141	0.1293	0.107
Mof_C 	C 	0.0978	0.3232	0.0265	0.11
Mof_H 	H 	0.1707	0.3175	0.0375	-0.003
Mof_N 	N 	0.0734	0.2767	0.96	-0.135
Mof_C 	C 	0.97	0.2854	0.9499	0.1
Mof_N 	N 	0.8337	0.246	0.8664	-0.235
Mof_C 	C 	0.7976	0.197	0.8017	0.104
Mof_H 	H 	0.723	0.202	0.795	-0.022
Mof_C 	C 	0.8704	0.1402	0.7461	-0.151
Mof_H 	H 	0.8484	0.1071	0.6988	0.097
Mof_C 	C 	0.9747	0.1331	0.7614	0.094
Mof_H 	H 	0.0254	0.0928	0.7246	0.028
Mof_N 	N 	0.0092	0.1799	0.8253	-0.127
Mof_C 	C 	0.935	0.2332	0.8749	0.11
Mof_C 	C 	0.3229	0.882	0.4452	-0.154
Mof_N 	N 	0.3139	0.9647	0.4084	-0.195
Mof_C 	C 	0.4436	0.7076	0.4007	-0.194
Mof_N 	N 	0.5028	0.6912	0.3324	-0.185
Mof_C 	C 	0.5286	0.2107	0.4429	-0.196
Mof_N 	N 	0.4527	0.1848	0.4168	-0.209
Mof_C 	C 	0.3653	0.6025	0.5913	-0.162
Mof_N 	N 	0.3804	0.5277	0.6382	-0.176
Mof_C 	C 	0.6812	0.212	0.0554	-0.184
Mof_N 	N 	0.6483	0.1386	0.1079	-0.08
Mof_C 	C 	0.6666	0.4249	0.053	-0.182
Mof_N 	N 	0.6313	0.4754	0.1101	-0.183
Mof_C 	C 	0.3982	0.6623	0.0923	-0.189
Mof_N 	N 	0.4754	0.6547	0.1248	-0.188
Mof_C 	C 	0.7756	0.4636	0.8528	-0.181
Mof_N 	N 	0.7848	0.5339	0.7917	-0.057
Mof_N 	N 	0.8207	0.5993	0.2585	0.064
Mof_O 	O 	0.7935	0.5518	0.1947	-0.271
Mof_O 	O 	0.7475	0.657	0.297	-0.251
Mof_O 	O 	0.9105	0.5923	0.2755	-0.127
Mof_N 	N 	0.0455	0.0353	0.4348	0.045
Mof_O 	O 	0.1314	0.0711	0.3626	-0.243
Mof_O 	O 	0.9732	0.978	0.4225	-0.082
Mof_O 	O 	0.0288	0.0669	0.5135	-0.073
_end
