data_functionalizedCrystal
_audit_creation_method	'EQeq! by Chris Wilmer'
_symmetry_space_group_name_H-M	'P1'
_symmetry_Int_Tables_number	1
_symmetry_cell_setting	triclinic
loop_
_symmetry_equiv_pos_as_xyz
  x,y,z
_cell_length_a	8.9646
_cell_length_b	22.8924
_cell_length_c	23.9497
_cell_angle_alpha	90
_cell_angle_beta	90
_cell_angle_gamma	90
loop_
_atom_site_label
_atom_site_type_symbol
_atom_site_fract_x
_atom_site_fract_y
_atom_site_fract_z
_atom_site_charge
Mof_Cu	Cu	0.50278	0.27939	0.57823	0.881
Mof_Cu	Cu	0.99722	0.72061	0.07823	0.88
Mof_Cu	Cu	0.49722	0.77939	0.92177	0.881
Mof_Cu	Cu	0.00278	0.22061	0.42177	0.88
Mof_Cu	Cu	0.49722	0.72061	0.42177	0.88
Mof_Cu	Cu	0.00278	0.27939	0.92177	0.879
Mof_Cu	Cu	0.50278	0.22061	0.07823	0.88
Mof_Cu	Cu	0.99722	0.77939	0.57823	0.879
Mof_H 	H 	0.7822	0.2199	0.5201	0.034
Mof_H 	H 	0.6035	0.3691	0.4774	0.043
Mof_H 	H 	0.9475	0.3592	0.3979	0.111
Mof_H 	H 	0.6453	0.2701	0.372	0.101
Mof_H 	H 	0.5695	0.2341	0.2849	0.031
Mof_H 	H 	0.8447	0.3478	0.2073	0.079
Mof_H 	H 	0.9222	0.3844	0.2937	0.107
Mof_H 	H 	0.5951	0.4134	0.3556	0.102
Mof_H 	H 	0.5161	0.5107	0.3651	0.049
Mof_H 	H 	0.8776	0.547	0.4578	0.064
Mof_H 	H 	0.9594	0.4496	0.4486	0.121
Mof_H 	H 	0.7178	0.7801	0.0201	0.034
Mof_H 	H 	0.8965	0.6309	0.9774	0.043
Mof_H 	H 	0.5525	0.6408	0.8979	0.111
Mof_H 	H 	0.8547	0.7299	0.872	0.101
Mof_H 	H 	0.9305	0.7659	0.7849	0.031
Mof_H 	H 	0.6553	0.6522	0.7073	0.079
Mof_H 	H 	0.5778	0.6156	0.7937	0.107
Mof_H 	H 	0.9049	0.5866	0.8556	0.102
Mof_H 	H 	0.9839	0.4893	0.8651	0.049
Mof_H 	H 	0.6224	0.453	0.9578	0.064
Mof_H 	H 	0.5406	0.5504	0.9486	0.12
Mof_H 	H 	0.2178	0.7199	0.9799	0.035
Mof_H 	H 	0.3965	0.8691	0.0226	0.043
Mof_H 	H 	0.0525	0.8592	0.1021	0.111
Mof_H 	H 	0.3547	0.7701	0.128	0.101
Mof_H 	H 	0.4305	0.7341	0.2151	0.031
Mof_H 	H 	0.1553	0.8478	0.2927	0.08
Mof_H 	H 	0.0778	0.8844	0.2063	0.107
Mof_H 	H 	0.4049	0.9134	0.1444	0.103
Mof_H 	H 	0.4839	0.0107	0.1349	0.047
Mof_H 	H 	0.1224	0.047	0.0422	0.064
Mof_H 	H 	0.0406	0.9496	0.0514	0.121
Mof_H 	H 	0.2822	0.2801	0.4799	0.034
Mof_H 	H 	0.1035	0.1309	0.5226	0.042
Mof_H 	H 	0.4475	0.1408	0.6021	0.111
Mof_H 	H 	0.1453	0.2299	0.628	0.101
Mof_H 	H 	0.0695	0.2659	0.7151	0.031
Mof_H 	H 	0.3447	0.1522	0.7927	0.079
Mof_H 	H 	0.4222	0.1156	0.7063	0.106
Mof_H 	H 	0.0951	0.0866	0.6444	0.101
Mof_H 	H 	0.0161	0.9893	0.6349	0.051
Mof_H 	H 	0.3776	0.953	0.5422	0.065
Mof_H 	H 	0.4594	0.0504	0.5514	0.12
Mof_H 	H 	0.2178	0.7801	0.4799	0.034
Mof_H 	H 	0.3965	0.6309	0.5226	0.043
Mof_H 	H 	0.0525	0.6408	0.6021	0.111
Mof_H 	H 	0.3547	0.7299	0.628	0.101
Mof_H 	H 	0.4305	0.7659	0.7151	0.031
Mof_H 	H 	0.1553	0.6522	0.7927	0.079
Mof_H 	H 	0.0778	0.6156	0.7063	0.107
Mof_H 	H 	0.4049	0.5866	0.6444	0.102
Mof_H 	H 	0.4839	0.4893	0.6349	0.049
Mof_H 	H 	0.1224	0.453	0.5422	0.064
Mof_H 	H 	0.0406	0.5504	0.5514	0.121
Mof_H 	H 	0.2822	0.2199	0.9799	0.034
Mof_H 	H 	0.1035	0.3691	0.0226	0.043
Mof_H 	H 	0.4475	0.3592	0.1021	0.111
Mof_H 	H 	0.1453	0.2701	0.128	0.101
Mof_H 	H 	0.0695	0.2341	0.2151	0.031
Mof_H 	H 	0.3447	0.3478	0.2927	0.079
Mof_H 	H 	0.4222	0.3844	0.2063	0.107
Mof_H 	H 	0.0951	0.4134	0.1444	0.102
Mof_H 	H 	0.0161	0.5107	0.1349	0.049
Mof_H 	H 	0.3776	0.547	0.0422	0.064
Mof_H 	H 	0.4594	0.4496	0.0514	0.12
Mof_H 	H 	0.7822	0.2801	0.0201	0.035
Mof_H 	H 	0.6035	0.1309	0.9774	0.043
Mof_H 	H 	0.9475	0.1408	0.8979	0.111
Mof_H 	H 	0.6453	0.2299	0.872	0.101
Mof_H 	H 	0.5695	0.2659	0.7849	0.031
Mof_H 	H 	0.8447	0.1522	0.7073	0.08
Mof_H 	H 	0.9222	0.1156	0.7937	0.107
Mof_H 	H 	0.5951	0.0866	0.8556	0.103
Mof_H 	H 	0.5161	0.9893	0.8651	0.047
Mof_H 	H 	0.8776	0.953	0.9578	0.064
Mof_H 	H 	0.9594	0.0504	0.9486	0.121
Mof_H 	H 	0.7178	0.7199	0.5201	0.034
Mof_H 	H 	0.8965	0.8691	0.4774	0.042
Mof_H 	H 	0.5525	0.8592	0.3979	0.111
Mof_H 	H 	0.8547	0.7701	0.372	0.101
Mof_H 	H 	0.9305	0.7341	0.2849	0.031
Mof_H 	H 	0.6553	0.8478	0.2073	0.079
Mof_H 	H 	0.5778	0.8844	0.2937	0.106
Mof_H 	H 	0.9049	0.9134	0.3556	0.101
Mof_H 	H 	0.9839	0.0107	0.3651	0.051
Mof_H 	H 	0.6224	0.047	0.4578	0.065
Mof_H 	H 	0.5406	0.9496	0.4486	0.12
Mof_C 	C 	0.7642	0.2556	0.501	0.106
Mof_C 	C 	0.6663	0.3357	0.479	0.115
Mof_C 	C 	0.836	0.3594	0.3964	-0.085
Mof_C 	C 	0.7882	0.3305	0.3411	0.089
Mof_C 	C 	0.6855	0.2861	0.3386	-0.118
Mof_C 	C 	0.641	0.2647	0.2869	0.019
Mof_C 	C 	0.7004	0.2877	0.2386	-0.06
Mof_C 	C 	0.8045	0.3322	0.2408	0.026
Mof_C 	C 	0.8502	0.354	0.2918	-0.116
Mof_C 	C 	0.7845	0.4224	0.4007	0.118
Mof_C 	C 	0.6536	0.4403	0.3763	-0.097
Mof_C 	C 	0.6065	0.4981	0.3819	0.051
Mof_C 	C 	0.6919	0.5365	0.412	-0.045
Mof_C 	C 	0.8206	0.5198	0.4368	0.045
Mof_C 	C 	0.8692	0.4618	0.4314	-0.107
Mof_C 	C 	0.6458	0.2664	0.1858	0.147
Mof_C 	C 	0.6424	0.5971	0.4156	0.161
Mof_C 	C 	0.7358	0.7444	0.001	0.107
Mof_C 	C 	0.8337	0.6643	0.979	0.114
Mof_C 	C 	0.664	0.6406	0.8964	-0.084
Mof_C 	C 	0.7118	0.6695	0.8411	0.089
Mof_C 	C 	0.8145	0.7139	0.8386	-0.118
Mof_C 	C 	0.859	0.7353	0.7869	0.019
Mof_C 	C 	0.7996	0.7123	0.7386	-0.06
Mof_C 	C 	0.6955	0.6678	0.7408	0.025
Mof_C 	C 	0.6498	0.646	0.7918	-0.116
Mof_C 	C 	0.7155	0.5776	0.9007	0.117
Mof_C 	C 	0.8464	0.5597	0.8763	-0.097
Mof_C 	C 	0.8935	0.5019	0.8819	0.05
Mof_C 	C 	0.8081	0.4635	0.912	-0.044
Mof_C 	C 	0.6794	0.4802	0.9368	0.045
Mof_C 	C 	0.6308	0.5382	0.9314	-0.107
Mof_C 	C 	0.8542	0.7336	0.6858	0.146
Mof_C 	C 	0.8576	0.4029	0.9156	0.161
Mof_C 	C 	0.2358	0.7556	0.999	0.106
Mof_C 	C 	0.3337	0.8357	0.021	0.116
Mof_C 	C 	0.164	0.8594	0.1036	-0.085
Mof_C 	C 	0.2118	0.8305	0.1589	0.089
Mof_C 	C 	0.3145	0.7861	0.1614	-0.118
Mof_C 	C 	0.359	0.7647	0.2131	0.019
Mof_C 	C 	0.2996	0.7877	0.2614	-0.06
Mof_C 	C 	0.1955	0.8322	0.2592	0.026
Mof_C 	C 	0.1498	0.854	0.2082	-0.116
Mof_C 	C 	0.2155	0.9224	0.0993	0.118
Mof_C 	C 	0.3464	0.9403	0.1237	-0.098
Mof_C 	C 	0.3935	0.9981	0.1181	0.054
Mof_C 	C 	0.3081	0.0365	0.088	-0.046
Mof_C 	C 	0.1794	0.0198	0.0632	0.043
Mof_C 	C 	0.1308	0.9618	0.0686	-0.105
Mof_C 	C 	0.3542	0.7664	0.3142	0.147
Mof_C 	C 	0.3576	0.0971	0.0844	0.161
Mof_C 	C 	0.2642	0.2444	0.499	0.106
Mof_C 	C 	0.1663	0.1643	0.521	0.115
Mof_C 	C 	0.336	0.1406	0.6036	-0.084
Mof_C 	C 	0.2882	0.1695	0.6589	0.089
Mof_C 	C 	0.1855	0.2139	0.6614	-0.118
Mof_C 	C 	0.141	0.2353	0.7131	0.019
Mof_C 	C 	0.2004	0.2123	0.7614	-0.06
Mof_C 	C 	0.3045	0.1678	0.7592	0.025
Mof_C 	C 	0.3502	0.146	0.7082	-0.116
Mof_C 	C 	0.2845	0.0776	0.5993	0.116
Mof_C 	C 	0.1536	0.0597	0.6237	-0.095
Mof_C 	C 	0.1065	0.0019	0.6181	0.046
Mof_C 	C 	0.1919	0.9635	0.588	-0.042
Mof_C 	C 	0.3206	0.9802	0.5632	0.043
Mof_C 	C 	0.3692	0.0382	0.5686	-0.106
Mof_C 	C 	0.1458	0.2336	0.8142	0.146
Mof_C 	C 	0.1424	0.9029	0.5844	0.161
Mof_C 	C 	0.2358	0.7444	0.499	0.106
Mof_C 	C 	0.3337	0.6643	0.521	0.115
Mof_C 	C 	0.164	0.6406	0.6036	-0.085
Mof_C 	C 	0.2118	0.6695	0.6589	0.089
Mof_C 	C 	0.3145	0.7139	0.6614	-0.118
Mof_C 	C 	0.359	0.7353	0.7131	0.019
Mof_C 	C 	0.2996	0.7123	0.7614	-0.06
Mof_C 	C 	0.1955	0.6678	0.7592	0.026
Mof_C 	C 	0.1498	0.646	0.7082	-0.116
Mof_C 	C 	0.2155	0.5776	0.5993	0.118
Mof_C 	C 	0.3464	0.5597	0.6237	-0.097
Mof_C 	C 	0.3935	0.5019	0.6181	0.051
Mof_C 	C 	0.3081	0.4635	0.588	-0.045
Mof_C 	C 	0.1794	0.4802	0.5632	0.045
Mof_C 	C 	0.1308	0.5382	0.5686	-0.107
Mof_C 	C 	0.3542	0.7336	0.8142	0.147
Mof_C 	C 	0.3576	0.4029	0.5844	0.161
Mof_C 	C 	0.2642	0.2556	0.999	0.107
Mof_C 	C 	0.1663	0.3357	0.021	0.114
Mof_C 	C 	0.336	0.3594	0.1036	-0.084
Mof_C 	C 	0.2882	0.3305	0.1589	0.089
Mof_C 	C 	0.1855	0.2861	0.1614	-0.118
Mof_C 	C 	0.141	0.2647	0.2131	0.019
Mof_C 	C 	0.2004	0.2877	0.2614	-0.06
Mof_C 	C 	0.3045	0.3322	0.2592	0.025
Mof_C 	C 	0.3502	0.354	0.2082	-0.116
Mof_C 	C 	0.2845	0.4224	0.0993	0.117
Mof_C 	C 	0.1536	0.4403	0.1237	-0.097
Mof_C 	C 	0.1065	0.4981	0.1181	0.05
Mof_C 	C 	0.1919	0.5365	0.088	-0.044
Mof_C 	C 	0.3206	0.5198	0.0632	0.045
Mof_C 	C 	0.3692	0.4618	0.0686	-0.107
Mof_C 	C 	0.1458	0.2664	0.3142	0.146
Mof_C 	C 	0.1424	0.5971	0.0844	0.161
Mof_C 	C 	0.7642	0.2444	0.001	0.106
Mof_C 	C 	0.6663	0.1643	0.979	0.116
Mof_C 	C 	0.836	0.1406	0.8964	-0.085
Mof_C 	C 	0.7882	0.1695	0.8411	0.089
Mof_C 	C 	0.6855	0.2139	0.8386	-0.118
Mof_C 	C 	0.641	0.2353	0.7869	0.019
Mof_C 	C 	0.7004	0.2123	0.7386	-0.06
Mof_C 	C 	0.8045	0.1678	0.7408	0.026
Mof_C 	C 	0.8502	0.146	0.7918	-0.116
Mof_C 	C 	0.7845	0.0776	0.9007	0.118
Mof_C 	C 	0.6536	0.0597	0.8763	-0.098
Mof_C 	C 	0.6065	0.0019	0.8819	0.054
Mof_C 	C 	0.6919	0.9635	0.912	-0.046
Mof_C 	C 	0.8206	0.9802	0.9368	0.043
Mof_C 	C 	0.8692	0.0382	0.9314	-0.105
Mof_C 	C 	0.6458	0.2336	0.6858	0.147
Mof_C 	C 	0.6424	0.9029	0.9156	0.161
Mof_C 	C 	0.7358	0.7556	0.501	0.106
Mof_C 	C 	0.8337	0.8357	0.479	0.115
Mof_C 	C 	0.664	0.8594	0.3964	-0.084
Mof_C 	C 	0.7118	0.8305	0.3411	0.089
Mof_C 	C 	0.8145	0.7861	0.3386	-0.118
Mof_C 	C 	0.859	0.7647	0.2869	0.019
Mof_C 	C 	0.7996	0.7877	0.2386	-0.06
Mof_C 	C 	0.6955	0.8322	0.2408	0.025
Mof_C 	C 	0.6498	0.854	0.2918	-0.116
Mof_C 	C 	0.7155	0.9224	0.4007	0.116
Mof_C 	C 	0.8464	0.9403	0.3763	-0.095
Mof_C 	C 	0.8935	0.9981	0.3819	0.046
Mof_C 	C 	0.8081	0.0365	0.412	-0.042
Mof_C 	C 	0.6794	0.0198	0.4368	0.043
Mof_C 	C 	0.6308	0.9618	0.4314	-0.106
Mof_C 	C 	0.8542	0.7664	0.1858	0.146
Mof_C 	C 	0.8576	0.0971	0.4156	0.161
Mof_N 	N 	0.8447	0.27283	0.45839	-0.184
Mof_N 	N 	0.6533	0.2928	0.51556	-0.223
Mof_N 	N 	0.7807	0.32541	0.44464	-0.076
Mof_N 	N 	0.5973	0.2492	0.1448	-0.257
Mof_N 	N 	0.5995	0.6436	0.4164	-0.252
Mof_N 	N 	0.6553	0.72717	0.95839	-0.184
Mof_N 	N 	0.8467	0.7072	0.01556	-0.222
Mof_N 	N 	0.7193	0.67459	0.94464	-0.076
Mof_N 	N 	0.9027	0.7508	0.6448	-0.257
Mof_N 	N 	0.9005	0.3564	0.9164	-0.252
Mof_N 	N 	0.1553	0.77283	0.04161	-0.184
Mof_N 	N 	0.3467	0.7928	0.98444	-0.223
Mof_N 	N 	0.2193	0.82541	0.05536	-0.076
Mof_N 	N 	0.4027	0.7492	0.3552	-0.257
Mof_N 	N 	0.4005	0.1436	0.0836	-0.252
Mof_N 	N 	0.3447	0.22717	0.54161	-0.184
Mof_N 	N 	0.1533	0.2072	0.48444	-0.223
Mof_N 	N 	0.2807	0.17459	0.55536	-0.076
Mof_N 	N 	0.0973	0.2508	0.8552	-0.257
Mof_N 	N 	0.0995	0.8564	0.5836	-0.251
Mof_N 	N 	0.1553	0.72717	0.54161	-0.184
Mof_N 	N 	0.3467	0.7072	0.48444	-0.223
Mof_N 	N 	0.2193	0.67459	0.55536	-0.076
Mof_N 	N 	0.4027	0.7508	0.8552	-0.257
Mof_N 	N 	0.4005	0.3564	0.5836	-0.252
Mof_N 	N 	0.3447	0.27283	0.04161	-0.184
Mof_N 	N 	0.1533	0.2928	0.98444	-0.222
Mof_N 	N 	0.2807	0.32541	0.05536	-0.076
Mof_N 	N 	0.0973	0.2492	0.3552	-0.257
Mof_N 	N 	0.0995	0.6436	0.0836	-0.252
Mof_N 	N 	0.8447	0.22717	0.95839	-0.184
Mof_N 	N 	0.6533	0.2072	0.01556	-0.223
Mof_N 	N 	0.7807	0.17459	0.94464	-0.076
Mof_N 	N 	0.5973	0.2508	0.6448	-0.257
Mof_N 	N 	0.5995	0.8564	0.9164	-0.252
Mof_N 	N 	0.6553	0.77283	0.45839	-0.184
Mof_N 	N 	0.8467	0.7928	0.51556	-0.223
Mof_N 	N 	0.7193	0.82541	0.44464	-0.076
Mof_N 	N 	0.9027	0.7492	0.1448	-0.257
Mof_N 	N 	0.9005	0.1436	0.4164	-0.251
Mof_B 	B 	0.7239	0.6103	0.5798	3.259
Mof_F 	F 	0.8379	0.6293	0.54385	-1.038
Mof_F 	F 	0.6288	0.6541	0.59263	-1.109
Mof_F 	F 	0.6528	0.5649	0.5547	-1.073
Mof_F 	F 	0.7975	0.5934	0.6291	-1.019
Mof_B 	B 	0.7761	0.3897	0.0798	3.259
Mof_F 	F 	0.6621	0.3707	0.04385	-1.037
Mof_F 	F 	0.8712	0.3459	0.09263	-1.108
Mof_F 	F 	0.8472	0.4351	0.0547	-1.073
Mof_F 	F 	0.7025	0.4066	0.1291	-1.018
Mof_B 	B 	0.2761	0.1103	0.9202	3.259
Mof_F 	F 	0.1621	0.1293	0.95615	-1.037
Mof_F 	F 	0.3712	0.1541	0.90737	-1.109
Mof_F 	F 	0.3472	0.0649	0.9453	-1.073
Mof_F 	F 	0.2025	0.0934	0.8709	-1.019
Mof_B 	B 	0.2239	0.8897	0.4202	3.259
Mof_F 	F 	0.3379	0.8707	0.45615	-1.037
Mof_F 	F 	0.1288	0.8459	0.40737	-1.108
Mof_F 	F 	0.1528	0.9351	0.4453	-1.073
Mof_F 	F 	0.2975	0.9066	0.3709	-1.018
Mof_B 	B 	0.2761	0.3897	0.4202	3.259
Mof_F 	F 	0.1621	0.3707	0.45615	-1.038
Mof_F 	F 	0.3712	0.3459	0.40737	-1.109
Mof_F 	F 	0.3472	0.4351	0.4453	-1.073
Mof_F 	F 	0.2025	0.4066	0.3709	-1.019
Mof_B 	B 	0.2239	0.6103	0.9202	3.259
Mof_F 	F 	0.3379	0.6293	0.95615	-1.037
Mof_F 	F 	0.1288	0.6541	0.90737	-1.108
Mof_F 	F 	0.1528	0.5649	0.9453	-1.073
Mof_F 	F 	0.2975	0.5934	0.8709	-1.018
Mof_B 	B 	0.7239	0.8897	0.0798	3.259
Mof_F 	F 	0.8379	0.8707	0.04385	-1.037
Mof_F 	F 	0.6288	0.8459	0.09263	-1.109
Mof_F 	F 	0.6528	0.9351	0.0547	-1.073
Mof_F 	F 	0.7975	0.9066	0.1291	-1.019
Mof_B 	B 	0.7761	0.1103	0.5798	3.259
Mof_F 	F 	0.6621	0.1293	0.54385	-1.037
Mof_F 	F 	0.8712	0.1541	0.59263	-1.108
Mof_F 	F 	0.8472	0.0649	0.5547	-1.073
Mof_F 	F 	0.7025	0.0934	0.6291	-1.018
_end
