data_functionalizedCrystal
_audit_creation_method	'EQeq! by Chris Wilmer'
_symmetry_space_group_name_H-M	'P1'
_symmetry_Int_Tables_number	1
_symmetry_cell_setting	triclinic
loop_
_symmetry_equiv_pos_as_xyz
  x,y,z
_cell_length_a	21.6145
_cell_length_b	21.6145
_cell_length_c	5.1678
_cell_angle_alpha	90
_cell_angle_beta	90
_cell_angle_gamma	90
loop_
_atom_site_label
_atom_site_type_symbol
_atom_site_fract_x
_atom_site_fract_y
_atom_site_fract_z
_atom_site_charge
Mof_N 	N 	0.9119	0.96346	0.7003	-0.184
Mof_C 	C 	0.87016	0.98429	0.5338	0.065
Mof_H 	H 	0.8812	0.0159	0.4209	0.033
Mof_C 	C 	0.81005	0.96025	0.522	-0.061
Mof_H 	H 	0.7816	0.9753	0.4026	0.076
Mof_C 	C 	0.79407	0.91333	0.6935	-0.065
Mof_H 	H 	0.7545	0.8965	0.6905	0.041
Mof_C 	C 	0.83762	0.89176	0.8691	0.048
Mof_C 	C 	0.89613	0.91916	0.8688	-0.016
Mof_H 	H 	0.9252	0.9062	0.9899	0.046
Mof_N 	N 	0.81999	0.84374	0.038	-0.203
Mof_H 	H 	0.781	0.8386	0.0637	0.134
Mof_C 	C 	0.85903	0.80482	0.1639	0.224
Mof_O 	O 	0.91541	0.81079	0.1708	-0.207
Mof_C 	C 	0.82785	0.75142	0.2941	-0.047
Mof_C 	C 	0.85479	0.7241	0.5092	-0.022
Mof_H 	H 	0.8906	0.7409	0.5801	0.049
Mof_N 	N 	0.0881	0.03654	0.7003	-0.18
Mof_C 	C 	0.12984	0.01571	0.5338	0.004
Mof_H 	H 	0.1188	0.9841	0.4209	0.07
Mof_C 	C 	0.18995	0.03975	0.522	-0.027
Mof_H 	H 	0.2184	0.0247	0.4026	0.058
Mof_C 	C 	0.20593	0.08667	0.6935	-0.086
Mof_H 	H 	0.2455	0.1035	0.6905	0.047
Mof_C 	C 	0.16238	0.10824	0.8691	0.057
Mof_C 	C 	0.10387	0.08084	0.8688	-0.025
Mof_H 	H 	0.0748	0.0938	0.9899	0.042
Mof_N 	N 	0.18001	0.15626	0.038	-0.205
Mof_H 	H 	0.219	0.1614	0.0637	0.134
Mof_C 	C 	0.14097	0.19518	0.1639	0.226
Mof_O 	O 	0.08459	0.18921	0.1708	-0.214
Mof_C 	C 	0.17215	0.24858	0.2941	-0.051
Mof_C 	C 	0.14521	0.2759	0.5092	-0.02
Mof_H 	H 	0.1094	0.2591	0.5801	0.044
Mof_N 	N 	0.03654	0.9119	0.7003	-0.177
Mof_C 	C 	0.01571	0.87016	0.5338	0.006
Mof_H 	H 	0.9841	0.8812	0.4209	0.07
Mof_C 	C 	0.03975	0.81005	0.522	-0.028
Mof_H 	H 	0.0247	0.7816	0.4026	0.058
Mof_C 	C 	0.08667	0.79407	0.6935	-0.086
Mof_H 	H 	0.1035	0.7545	0.6905	0.047
Mof_C 	C 	0.10824	0.83762	0.8691	0.057
Mof_C 	C 	0.08084	0.89613	0.8688	-0.025
Mof_H 	H 	0.0938	0.9252	0.9899	0.047
Mof_N 	N 	0.15626	0.81999	0.038	-0.204
Mof_H 	H 	0.1614	0.781	0.0637	0.134
Mof_C 	C 	0.19518	0.85903	0.1639	0.224
Mof_O 	O 	0.18921	0.91541	0.1708	-0.207
Mof_C 	C 	0.24858	0.82785	0.2941	-0.048
Mof_C 	C 	0.2759	0.85479	0.5092	-0.021
Mof_H 	H 	0.2591	0.8906	0.5801	0.049
Mof_N 	N 	0.96346	0.0881	0.7003	-0.187
Mof_C 	C 	0.98429	0.12984	0.5338	0.068
Mof_H 	H 	0.0159	0.1188	0.4209	0.031
Mof_C 	C 	0.96025	0.18995	0.522	-0.062
Mof_H 	H 	0.9753	0.2184	0.4026	0.078
Mof_C 	C 	0.91333	0.20593	0.6935	-0.063
Mof_H 	H 	0.8965	0.2455	0.6905	0.041
Mof_C 	C 	0.89176	0.16238	0.8691	0.047
Mof_C 	C 	0.91916	0.10387	0.8688	-0.016
Mof_H 	H 	0.9062	0.0748	0.9899	0.042
Mof_N 	N 	0.84374	0.18001	0.038	-0.203
Mof_H 	H 	0.8386	0.219	0.0637	0.134
Mof_C 	C 	0.80482	0.14097	0.1639	0.225
Mof_O 	O 	0.81079	0.08459	0.1708	-0.214
Mof_C 	C 	0.75142	0.17215	0.2941	-0.05
Mof_C 	C 	0.7241	0.14521	0.5092	-0.02
Mof_H 	H 	0.7409	0.1094	0.5801	0.044
Mof_N 	N 	0.4119	0.53654	0.7003	-0.184
Mof_C 	C 	0.37016	0.51571	0.5338	0.036
Mof_H 	H 	0.3812	0.4841	0.4209	0.049
Mof_C 	C 	0.31005	0.53975	0.522	-0.045
Mof_H 	H 	0.2816	0.5247	0.4026	0.068
Mof_C 	C 	0.29407	0.58667	0.6935	-0.074
Mof_H 	H 	0.2545	0.6035	0.6905	0.044
Mof_C 	C 	0.33762	0.60824	0.8691	0.052
Mof_C 	C 	0.39613	0.58084	0.8688	-0.02
Mof_H 	H 	0.4252	0.5938	0.9899	0.042
Mof_N 	N 	0.31999	0.65626	0.038	-0.204
Mof_H 	H 	0.281	0.6614	0.0637	0.133
Mof_C 	C 	0.35903	0.69518	0.1639	0.224
Mof_O 	O 	0.41541	0.68921	0.1708	-0.211
Mof_C 	C 	0.32785	0.74858	0.2941	-0.048
Mof_C 	C 	0.35479	0.7759	0.5092	-0.021
Mof_H 	H 	0.3906	0.7591	0.5801	0.047
Mof_N 	N 	0.5881	0.46346	0.7003	-0.184
Mof_C 	C 	0.62984	0.48429	0.5338	0.036
Mof_H 	H 	0.6188	0.5159	0.4209	0.049
Mof_C 	C 	0.68995	0.46025	0.522	-0.045
Mof_H 	H 	0.7184	0.4753	0.4026	0.068
Mof_C 	C 	0.70593	0.41333	0.6935	-0.074
Mof_H 	H 	0.7455	0.3965	0.6905	0.045
Mof_C 	C 	0.66238	0.39176	0.8691	0.052
Mof_C 	C 	0.60387	0.41916	0.8688	-0.02
Mof_H 	H 	0.5748	0.4062	0.9899	0.042
Mof_N 	N 	0.68001	0.34374	0.038	-0.204
Mof_H 	H 	0.719	0.3386	0.0637	0.134
Mof_C 	C 	0.64097	0.30482	0.1639	0.225
Mof_O 	O 	0.58459	0.31079	0.1708	-0.211
Mof_C 	C 	0.67215	0.25142	0.2941	-0.049
Mof_C 	C 	0.64521	0.2241	0.5092	-0.021
Mof_H 	H 	0.6094	0.2409	0.5801	0.046
Mof_N 	N 	0.53654	0.5881	0.7003	-0.184
Mof_C 	C 	0.51571	0.62984	0.5338	0.036
Mof_H 	H 	0.4841	0.6188	0.4209	0.05
Mof_C 	C 	0.53975	0.68995	0.522	-0.045
Mof_H 	H 	0.5247	0.7184	0.4026	0.068
Mof_C 	C 	0.58667	0.70593	0.6935	-0.075
Mof_H 	H 	0.6035	0.7455	0.6905	0.045
Mof_C 	C 	0.60824	0.66238	0.8691	0.052
Mof_C 	C 	0.58084	0.60387	0.8688	-0.02
Mof_H 	H 	0.5938	0.5748	0.9899	0.042
Mof_N 	N 	0.65626	0.68001	0.038	-0.204
Mof_H 	H 	0.6614	0.719	0.0637	0.134
Mof_C 	C 	0.69518	0.64097	0.1639	0.225
Mof_O 	O 	0.68921	0.58459	0.1708	-0.211
Mof_C 	C 	0.74858	0.67215	0.2941	-0.048
Mof_C 	C 	0.7759	0.64521	0.5092	-0.021
Mof_H 	H 	0.7591	0.6094	0.5801	0.047
Mof_N 	N 	0.46346	0.4119	0.7003	-0.184
Mof_C 	C 	0.48429	0.37016	0.5338	0.036
Mof_H 	H 	0.5159	0.3812	0.4209	0.049
Mof_C 	C 	0.46025	0.31005	0.522	-0.045
Mof_H 	H 	0.4753	0.2816	0.4026	0.068
Mof_C 	C 	0.41333	0.29407	0.6935	-0.074
Mof_H 	H 	0.3965	0.2545	0.6905	0.043
Mof_C 	C 	0.39176	0.33762	0.8691	0.052
Mof_C 	C 	0.41916	0.39613	0.8688	-0.02
Mof_H 	H 	0.4062	0.4252	0.9899	0.042
Mof_N 	N 	0.34374	0.31999	0.038	-0.204
Mof_H 	H 	0.3386	0.281	0.0637	0.134
Mof_C 	C 	0.30482	0.35903	0.1639	0.225
Mof_O 	O 	0.31079	0.41541	0.1708	-0.211
Mof_C 	C 	0.25142	0.32785	0.2941	-0.05
Mof_C 	C 	0.2241	0.35479	0.5092	-0.02
Mof_H 	H 	0.2409	0.3906	0.5801	0.046
Mof_Cu	Cu	-1.98257e-33	0	0.7043	0.893
Mof_Cl	Cl	1.80723e-34	0	0.2016	-0.49
Mof_Cu	Cu	0.5	0.5	0.7043	0.901
Mof_Cl	Cl	0.5	0.5	0.2016	-0.472
Mof_C 	C 	0.77541	0.72459	0.1866	-0.021
Mof_H 	H 	0.7579	0.7421	0.0395	0.047
Mof_C 	C 	0.8285	0.6715	0.6196	-0.057
Mof_H 	H 	0.8459	0.6541	0.7668	0.042
Mof_C 	C 	0.22459	0.27541	0.1866	-0.019
Mof_H 	H 	0.2421	0.2579	0.0395	0.046
Mof_C 	C 	0.1715	0.3285	0.6196	-0.06
Mof_H 	H 	0.1541	0.3459	0.7668	0.04
Mof_C 	C 	0.27541	0.77541	0.1866	-0.021
Mof_H 	H 	0.2579	0.7579	0.0395	0.047
Mof_C 	C 	0.3285	0.8285	0.6196	-0.057
Mof_H 	H 	0.3459	0.8459	0.7668	0.042
Mof_C 	C 	0.72459	0.22459	0.1866	-0.019
Mof_H 	H 	0.7421	0.2421	0.0395	0.047
Mof_C 	C 	0.6715	0.1715	0.6196	-0.06
Mof_H 	H 	0.6541	0.1541	0.7668	0.04
_end
