data_functionalizedCrystal
_audit_creation_method	'EQeq! by Chris Wilmer'
_symmetry_space_group_name_H-M	'P1'
_symmetry_Int_Tables_number	1
_symmetry_cell_setting	triclinic
loop_
_symmetry_equiv_pos_as_xyz
  x,y,z
_cell_length_a	14.46
_cell_length_b	13.063
_cell_length_c	22.054
_cell_angle_alpha	90
_cell_angle_beta	125.16
_cell_angle_gamma	90
loop_
_atom_site_label
_atom_site_type_symbol
_atom_site_fract_x
_atom_site_fract_y
_atom_site_fract_z
_atom_site_charge
Mof_Mn	Mn	0.22733	0.55772	0.72707	0.958
Mof_Mn	Mn	0.29507	0.72915	0.86879	0.718
Mof_O 	O 	0.2368	0.5891	0.88545	-0.382
Mof_O 	O 	0.1552	0.5021	0.7793	-0.392
Mof_O 	O 	0.8533	0.2594	0.74144	-0.395
Mof_O 	O 	0.9029	0.16	0.8376	-0.387
Mof_O 	O 	0.203	0.0569	0.14976	-0.338
Mof_O 	O 	0.3569	0.0818	0.26108	-0.305
Mof_O 	O 	0.6441	0.3435	0.2818	-0.317
Mof_O 	O 	0.6287	0.3621	0.17728	-0.422
Mof_C 	C 	0.1834	0.5141	0.8443	0.384
Mof_C 	C 	0.1513	0.429	0.8748	-0.107
Mof_C 	C 	0.2241	0.4024	0.949	-0.007
Mof_H 	H 	0.2883	0.4418	0.9803	0.041
Mof_C 	C 	0.2027	0.3175	0.9779	-0.013
Mof_C 	C 	0.1017	0.2645	0.9299	-0.008
Mof_H 	H 	0.0848	0.2082	0.9477	0.052
Mof_C 	C 	0.0256	0.2937	0.856	-0.107
Mof_C 	C 	0.9182	0.2334	0.8074	0.387
Mof_C 	C 	0.0519	0.3739	0.8279	0.046
Mof_H 	H 	0.0036	0.3911	0.778	0.032
Mof_C 	C 	0.2843	0.2838	0.0554	0.017
Mof_C 	C 	0.3962	0.3184	0.0972	-0.041
Mof_H 	H 	0.4203	0.3612	0.0752	0.047
Mof_C 	C 	0.4722	0.2901	0.1708	-0.079
Mof_C 	C 	0.5884	0.3325	0.2132	0.311
Mof_C 	C 	0.4385	0.2248	0.2042	-0.001
Mof_H 	H 	0.4884	0.2079	0.2541	0.053
Mof_C 	C 	0.3292	0.1843	0.1623	-0.057
Mof_C 	C 	0.2951	0.1038	0.1939	0.298
Mof_C 	C 	0.2538	0.2156	0.0896	-0.046
Mof_H 	H 	0.1803	0.1902	0.0626	0.066
Mof_Mn	Mn	0.77267	0.05772	0.77293	0.957
Mof_Mn	Mn	0.70493	0.22915	0.63121	0.717
Mof_O 	O 	0.7632	0.0891	0.61455	-0.383
Mof_O 	O 	0.8448	0.0021	0.7207	-0.393
Mof_O 	O 	0.1467	0.7594	0.75856	-0.396
Mof_O 	O 	0.0971	0.66	0.6624	-0.388
Mof_O 	O 	0.797	0.5569	0.35024	-0.339
Mof_O 	O 	0.6431	0.5818	0.23892	-0.305
Mof_O 	O 	0.3559	0.8435	0.2182	-0.317
Mof_O 	O 	0.3713	0.8621	0.32272	-0.422
Mof_C 	C 	0.8166	0.0141	0.6557	0.382
Mof_C 	C 	0.8487	0.929	0.6252	-0.105
Mof_C 	C 	0.7759	0.9024	0.551	-0.008
Mof_H 	H 	0.7117	0.9418	0.5197	0.042
Mof_C 	C 	0.7973	0.8175	0.5221	-0.013
Mof_C 	C 	0.8983	0.7645	0.5701	-0.008
Mof_H 	H 	0.9152	0.7082	0.5523	0.052
Mof_C 	C 	0.9744	0.7937	0.644	-0.106
Mof_C 	C 	0.0818	0.7334	0.6926	0.386
Mof_C 	C 	0.9481	0.8739	0.6721	0.045
Mof_H 	H 	0.9964	0.8911	0.722	0.033
Mof_C 	C 	0.7157	0.7838	0.4446	0.016
Mof_C 	C 	0.6038	0.8184	0.4028	-0.041
Mof_H 	H 	0.5797	0.8612	0.4248	0.046
Mof_C 	C 	0.5278	0.7901	0.3292	-0.08
Mof_C 	C 	0.4116	0.8325	0.2868	0.311
Mof_C 	C 	0.5615	0.7248	0.2958	-0
Mof_H 	H 	0.5116	0.7079	0.2459	0.053
Mof_C 	C 	0.6708	0.6843	0.3377	-0.057
Mof_C 	C 	0.7049	0.6038	0.3061	0.298
Mof_C 	C 	0.7462	0.7156	0.4104	-0.045
Mof_H 	H 	0.8197	0.6902	0.4374	0.065
Mof_Mn	Mn	0.77267	0.44228	0.27293	0.957
Mof_Mn	Mn	0.70493	0.27085	0.13121	0.717
Mof_O 	O 	0.7632	0.4109	0.11455	-0.383
Mof_O 	O 	0.8448	0.4979	0.2207	-0.393
Mof_O 	O 	0.1467	0.7406	0.25856	-0.396
Mof_O 	O 	0.0971	0.84	0.1624	-0.388
Mof_O 	O 	0.797	0.9431	0.85024	-0.338
Mof_O 	O 	0.6431	0.9182	0.73892	-0.305
Mof_O 	O 	0.3559	0.6565	0.7182	-0.317
Mof_O 	O 	0.3713	0.6379	0.82272	-0.422
Mof_C 	C 	0.8166	0.4859	0.1557	0.384
Mof_C 	C 	0.8487	0.571	0.1252	-0.107
Mof_C 	C 	0.7759	0.5976	0.051	-0.007
Mof_H 	H 	0.7117	0.5582	0.0197	0.041
Mof_C 	C 	0.7973	0.6825	0.0221	-0.013
Mof_C 	C 	0.8983	0.7355	0.0701	-0.008
Mof_H 	H 	0.9152	0.7918	0.0523	0.052
Mof_C 	C 	0.9744	0.7063	0.144	-0.107
Mof_C 	C 	0.0818	0.7666	0.1926	0.387
Mof_C 	C 	0.9481	0.6261	0.1721	0.046
Mof_H 	H 	0.9964	0.6089	0.222	0.032
Mof_C 	C 	0.7157	0.7162	0.9446	0.017
Mof_C 	C 	0.6038	0.6816	0.9028	-0.041
Mof_H 	H 	0.5797	0.6388	0.9248	0.047
Mof_C 	C 	0.5278	0.7099	0.8292	-0.079
Mof_C 	C 	0.4116	0.6675	0.7868	0.311
Mof_C 	C 	0.5615	0.7752	0.7958	-0.001
Mof_H 	H 	0.5116	0.7921	0.7459	0.053
Mof_C 	C 	0.6708	0.8157	0.8377	-0.057
Mof_C 	C 	0.7049	0.8962	0.8061	0.298
Mof_C 	C 	0.7462	0.7844	0.9104	-0.046
Mof_H 	H 	0.8197	0.8098	0.9374	0.066
Mof_Mn	Mn	0.22733	0.94228	0.22707	0.957
Mof_Mn	Mn	0.29507	0.77085	0.36879	0.717
Mof_O 	O 	0.2368	0.9109	0.38545	-0.383
Mof_O 	O 	0.1552	0.9979	0.2793	-0.393
Mof_O 	O 	0.8533	0.2406	0.24144	-0.396
Mof_O 	O 	0.9029	0.34	0.3376	-0.388
Mof_O 	O 	0.203	0.4431	0.64976	-0.339
Mof_O 	O 	0.3569	0.4182	0.76108	-0.305
Mof_O 	O 	0.6441	0.1565	0.7818	-0.317
Mof_O 	O 	0.6287	0.1379	0.67728	-0.422
Mof_C 	C 	0.1834	0.9859	0.3443	0.382
Mof_C 	C 	0.1513	0.071	0.3748	-0.105
Mof_C 	C 	0.2241	0.0976	0.449	-0.008
Mof_H 	H 	0.2883	0.0582	0.4803	0.042
Mof_C 	C 	0.2027	0.1825	0.4779	-0.013
Mof_C 	C 	0.1017	0.2355	0.4299	-0.008
Mof_H 	H 	0.0848	0.2918	0.4477	0.052
Mof_C 	C 	0.0256	0.2063	0.356	-0.106
Mof_C 	C 	0.9182	0.2666	0.3074	0.386
Mof_C 	C 	0.0519	0.1261	0.3279	0.045
Mof_H 	H 	0.0036	0.1089	0.278	0.033
Mof_C 	C 	0.2843	0.2162	0.5554	0.016
Mof_C 	C 	0.3962	0.1816	0.5972	-0.041
Mof_H 	H 	0.4203	0.1388	0.5752	0.046
Mof_C 	C 	0.4722	0.2099	0.6708	-0.08
Mof_C 	C 	0.5884	0.1675	0.7132	0.311
Mof_C 	C 	0.4385	0.2752	0.7042	-0
Mof_H 	H 	0.4884	0.2921	0.7541	0.053
Mof_C 	C 	0.3292	0.3157	0.6623	-0.057
Mof_C 	C 	0.2951	0.3962	0.6939	0.298
Mof_C 	C 	0.2538	0.2844	0.5896	-0.045
Mof_H 	H 	0.1803	0.3098	0.5626	0.065
_end
