# CIF file generated by openbabel 3.1.0, see https://openbabel.org
data_I
_chemical_name_common 'image0'
_cell_length_a 30.8851
_cell_length_b 17.4665
_cell_length_c 20.3272
_cell_angle_alpha 90
_cell_angle_beta 127.705
_cell_angle_gamma 90
_space_group_name_H-M_alt 'P 1'
_space_group_name_Hall 'P 1'
loop_
    _symmetry_equiv_pos_as_xyz
    x,y,z
loop_
    _atom_site_label
    _atom_site_type_symbol
    _atom_site_fract_x
    _atom_site_fract_y
    _atom_site_fract_z
    _atom_site_occupancy
    C1       C        0.33000    0.92610    0.58640    1.000
    C2       C        0.30410    0.00200    0.55820    1.000
    C3       C        0.26300    0.01720    0.47450    1.000
    H1       H        0.24990    0.97820    0.43550    1.000
    C4       C        0.24150    0.09060    0.44930    1.000
    H2       H        0.21410    0.10080    0.39340    1.000
    C5       C        0.26120    0.14880    0.50770    1.000
    C6       C        0.30220    0.13370    0.59140    1.000
    H3       H        0.31530    0.17260    0.63040    1.000
    C7       C        0.32370    0.06020    0.61660    1.000
    H4       H        0.35120    0.05010    0.67250    1.000
    C8       C        0.39490    0.70620    0.70220    1.000
    C9       C        0.41820    0.65370    0.77410    1.000
    C10      C        0.47200    0.62880    0.82290    1.000
    H5       H        0.49480    0.64500    0.81030    1.000
    C11      C        0.49230    0.58120    0.88880    1.000
    H6       H        0.52830    0.56440    0.91980    1.000
    C12      C        0.45950    0.55760    0.90990    1.000
    C13      C        0.40510    0.57910    0.86210    1.000
    H7       H        0.38250    0.56290    0.87520    1.000
    C14      C        0.38510    0.62620    0.79340    1.000
    H8       H        0.34830    0.63960    0.75940    1.000
    C15      C        0.55820    0.06160    0.61530    1.000
    C16      C        0.42050    0.92110    0.54980    1.000
    H9       H        0.38420    0.93630    0.51170    1.000
    C17      C        0.45920    0.96750    0.55990    1.000
    H10      H        0.44940    0.01240    0.52920    1.000
    C18      C        0.51400    0.94660    0.61740    1.000
    C19      C        0.52540    0.87610    0.65900    1.000
    H11      H        0.56120    0.85870    0.69600    1.000
    C20      C        0.48320    0.83380    0.64420    1.000
    H12      H        0.49150    0.78790    0.67300    1.000
    C21      C        0.75380    0.02270    0.80460    1.000
    C22      C        0.61480    0.09060    0.65100    1.000
    C23      C        0.62040    0.16330    0.62960    1.000
    H13      H        0.59010    0.19300    0.59080    1.000
    C24      C        0.67420    0.19030    0.66960    1.000
    H14      H        0.68030    0.23990    0.66040    1.000
    C25      C        0.71790    0.14140    0.72290    1.000
    H15      H        0.75340    0.15590    0.74480    1.000
    C26      C        0.70820    0.07140    0.74310    1.000
    C27      C        0.85530    0.84110    0.98870    1.000
    H16      H        0.89310    0.84500    0.02880    1.000
    C28      C        0.82920    0.89930    0.93080    1.000
    H17      H        0.84900    0.93950    0.93120    1.000
    C29      C        0.77270    0.89630    0.87220    1.000
    C30      C        0.74660    0.83310    0.87460    1.000
    H18      H        0.70880    0.82850    0.83590    1.000
    C31      C        0.77580    0.77770    0.93350    1.000
    H19      H        0.75710    0.73610    0.93380    1.000
    N1       N        0.43023    0.85440    0.59050    1.000
    N2       N        0.55860    0.98780    0.63710    1.000
    N3       N        0.73980    0.95100    0.81110    1.000
    N4       N        0.83130    0.78070    0.99190    1.000
    N5       N        0.65680    0.04490    0.70470    1.000
    N6       N        0.23870    0.22530    0.47990    1.000
    N7       N        0.47520    0.50630    0.97760    1.000
    O1       O        0.42607    0.72600    0.68460    1.000
    O2       O        0.34580    0.72520    0.65790    1.000
    O3       O        0.36730    0.91390    0.66130    1.000
    O4       O        0.31340    0.87820    0.53120    1.000
    O5       O        0.51820    0.10260    0.57270    1.000
    O6       O        0.80140    0.04920    0.85510    1.000
    Zn1      Zn       0.37006    0.79669    0.58608    1.000
    H20      H        0.70750    0.93550    0.77300    1.000
    H21      H        0.58320    0.95760    0.64600    1.000
    C32      C        0.83000    0.42610    0.58640    1.000
    C33      C        0.80410    0.50200    0.55820    1.000
    C34      C        0.76300    0.51720    0.47450    1.000
    H22      H        0.74990    0.47820    0.43550    1.000
    C35      C        0.74150    0.59060    0.44930    1.000
    H23      H        0.71410    0.60080    0.39340    1.000
    C36      C        0.76120    0.64880    0.50770    1.000
    C37      C        0.80220    0.63370    0.59140    1.000
    H24      H        0.81530    0.67260    0.63040    1.000
    C38      C        0.82370    0.56020    0.61660    1.000
    H25      H        0.85120    0.55010    0.67250    1.000
    C39      C        0.89490    0.20620    0.70220    1.000
    C40      C        0.91820    0.15370    0.77410    1.000
    C41      C        0.97200    0.12880    0.82290    1.000
    H26      H        0.99480    0.14500    0.81030    1.000
    C42      C        0.99230    0.08120    0.88880    1.000
    H27      H        0.02830    0.06440    0.91980    1.000
    C43      C        0.95950    0.05760    0.90990    1.000
    C44      C        0.90510    0.07910    0.86210    1.000
    H28      H        0.88250    0.06290    0.87520    1.000
    C45      C        0.88510    0.12620    0.79340    1.000
    H29      H        0.84830    0.13960    0.75940    1.000
    C46      C        0.05820    0.56160    0.61530    1.000
    C47      C        0.92050    0.42110    0.54980    1.000
    H30      H        0.88420    0.43630    0.51170    1.000
    C48      C        0.95920    0.46750    0.55990    1.000
    H31      H        0.94940    0.51240    0.52920    1.000
    C49      C        0.01400    0.44660    0.61740    1.000
    C50      C        0.02540    0.37610    0.65900    1.000
    H32      H        0.06120    0.35870    0.69600    1.000
    C51      C        0.98320    0.33380    0.64420    1.000
    H33      H        0.99150    0.28790    0.67300    1.000
    C52      C        0.25380    0.52270    0.80460    1.000
    C53      C        0.11480    0.59060    0.65100    1.000
    C54      C        0.12040    0.66330    0.62960    1.000
    H34      H        0.09010    0.69300    0.59080    1.000
    C55      C        0.17420    0.69030    0.66960    1.000
    H35      H        0.18030    0.73990    0.66040    1.000
    C56      C        0.21790    0.64140    0.72290    1.000
    H36      H        0.25340    0.65590    0.74480    1.000
    C57      C        0.20820    0.57140    0.74310    1.000
    C58      C        0.35530    0.34110    0.98870    1.000
    H37      H        0.39310    0.34500    0.02880    1.000
    C59      C        0.32920    0.39930    0.93080    1.000
    H38      H        0.34900    0.43950    0.93120    1.000
    C60      C        0.27270    0.39630    0.87220    1.000
    C61      C        0.24660    0.33310    0.87460    1.000
    H39      H        0.20880    0.32850    0.83590    1.000
    C62      C        0.27580    0.27770    0.93350    1.000
    H40      H        0.25710    0.23610    0.93380    1.000
    N8       N        0.93023    0.35440    0.59050    1.000
    N9       N        0.05860    0.48780    0.63710    1.000
    N10      N        0.23980    0.45100    0.81110    1.000
    N11      N        0.33130    0.28070    0.99190    1.000
    N12      N        0.15680    0.54490    0.70470    1.000
    N13      N        0.73870    0.72530    0.47990    1.000
    N14      N        0.97520    0.00630    0.97760    1.000
    O7       O        0.92607    0.22600    0.68460    1.000
    O8       O        0.84580    0.22520    0.65790    1.000
    O9       O        0.86730    0.41390    0.66130    1.000
    O10      O        0.81340    0.37820    0.53120    1.000
    O11      O        0.01820    0.60260    0.57270    1.000
    O12      O        0.30140    0.54920    0.85510    1.000
    Zn2      Zn       0.87006    0.29669    0.58608    1.000
    H41      H        0.20750    0.43550    0.77300    1.000
    H42      H        0.08320    0.45760    0.64600    1.000
    C63      C        0.67000    0.92610    0.91360    1.000
    C64      C        0.69590    0.00200    0.94180    1.000
    C65      C        0.73700    0.01720    0.02550    1.000
    H43      H        0.75010    0.97820    0.06450    1.000
    C66      C        0.75850    0.09060    0.05070    1.000
    H44      H        0.78590    0.10080    0.10660    1.000
    C67      C        0.73880    0.14880    0.99230    1.000
    C68      C        0.69780    0.13370    0.90860    1.000
    H45      H        0.68470    0.17260    0.86960    1.000
    C69      C        0.67630    0.06020    0.88340    1.000
    H46      H        0.64880    0.05010    0.82750    1.000
    C70      C        0.60510    0.70620    0.79780    1.000
    C71      C        0.58180    0.65370    0.72590    1.000
    C72      C        0.52800    0.62880    0.67710    1.000
    H47      H        0.50520    0.64500    0.68970    1.000
    C73      C        0.50770    0.58120    0.61120    1.000
    H48      H        0.47170    0.56440    0.58020    1.000
    C74      C        0.54050    0.55760    0.59010    1.000
    C75      C        0.59490    0.57910    0.63790    1.000
    H49      H        0.61750    0.56290    0.62480    1.000
    C76      C        0.61490    0.62620    0.70660    1.000
    H50      H        0.65170    0.63960    0.74060    1.000
    C77      C        0.44180    0.06160    0.88470    1.000
    C78      C        0.57950    0.92110    0.95020    1.000
    H51      H        0.61580    0.93630    0.98830    1.000
    C79      C        0.54080    0.96750    0.94010    1.000
    H52      H        0.55060    0.01240    0.97080    1.000
    C80      C        0.48600    0.94660    0.88260    1.000
    C81      C        0.47460    0.87610    0.84100    1.000
    H53      H        0.43880    0.85870    0.80400    1.000
    C82      C        0.51680    0.83380    0.85580    1.000
    H54      H        0.50850    0.78790    0.82700    1.000
    C83      C        0.24620    0.02270    0.69540    1.000
    C84      C        0.38520    0.09060    0.84900    1.000
    C85      C        0.37960    0.16330    0.87040    1.000
    H55      H        0.40990    0.19300    0.90920    1.000
    C86      C        0.32580    0.19030    0.83040    1.000
    H56      H        0.31970    0.23990    0.83960    1.000
    C87      C        0.28210    0.14140    0.77710    1.000
    H57      H        0.24660    0.15590    0.75520    1.000
    C88      C        0.29180    0.07140    0.75690    1.000
    C89      C        0.14470    0.84110    0.51130    1.000
    H58      H        0.10690    0.84500    0.47120    1.000
    C90      C        0.17080    0.89930    0.56920    1.000
    H59      H        0.15100    0.93950    0.56880    1.000
    C91      C        0.22730    0.89630    0.62780    1.000
    C92      C        0.25340    0.83310    0.62540    1.000
    H60      H        0.29120    0.82850    0.66410    1.000
    C93      C        0.22420    0.77770    0.56650    1.000
    H61      H        0.24290    0.73610    0.56620    1.000
    N15      N        0.56977    0.85440    0.90950    1.000
    N16      N        0.44140    0.98780    0.86290    1.000
    N17      N        0.26020    0.95100    0.68890    1.000
    N18      N        0.16870    0.78070    0.50810    1.000
    N19      N        0.34320    0.04490    0.79530    1.000
    N20      N        0.76130    0.22530    0.02010    1.000
    N21      N        0.52480    0.50630    0.52240    1.000
    O13      O        0.57393    0.72600    0.81540    1.000
    O14      O        0.65420    0.72520    0.84210    1.000
    O15      O        0.63270    0.91390    0.83870    1.000
    O16      O        0.68660    0.87820    0.96880    1.000
    O17      O        0.48180    0.10260    0.92730    1.000
    O18      O        0.19860    0.04920    0.64490    1.000
    Zn3      Zn       0.62994    0.79669    0.91392    1.000
    H62      H        0.29250    0.93550    0.72700    1.000
    H63      H        0.41680    0.95760    0.85400    1.000
    C94      C        0.17000    0.42610    0.91360    1.000
    C95      C        0.19590    0.50200    0.94180    1.000
    C96      C        0.23700    0.51720    0.02550    1.000
    H64      H        0.25010    0.47820    0.06450    1.000
    C97      C        0.25850    0.59060    0.05070    1.000
    H65      H        0.28590    0.60080    0.10660    1.000
    C98      C        0.23880    0.64880    0.99230    1.000
    C99      C        0.19780    0.63370    0.90860    1.000
    H66      H        0.18470    0.67260    0.86960    1.000
    C100     C        0.17630    0.56020    0.88340    1.000
    H67      H        0.14880    0.55010    0.82750    1.000
    C101     C        0.10510    0.20620    0.79780    1.000
    C102     C        0.08180    0.15370    0.72590    1.000
    C103     C        0.02800    0.12880    0.67710    1.000
    H68      H        0.00520    0.14500    0.68970    1.000
    C104     C        0.00770    0.08120    0.61120    1.000
    H69      H        0.97170    0.06440    0.58020    1.000
    C105     C        0.04050    0.05760    0.59010    1.000
    C106     C        0.09490    0.07910    0.63790    1.000
    H70      H        0.11750    0.06290    0.62480    1.000
    C107     C        0.11490    0.12620    0.70660    1.000
    H71      H        0.15170    0.13960    0.74060    1.000
    C108     C        0.94180    0.56160    0.88470    1.000
    C109     C        0.07950    0.42110    0.95020    1.000
    H72      H        0.11580    0.43630    0.98830    1.000
    C110     C        0.04080    0.46750    0.94010    1.000
    H73      H        0.05060    0.51240    0.97080    1.000
    C111     C        0.98600    0.44660    0.88260    1.000
    C112     C        0.97460    0.37610    0.84100    1.000
    H74      H        0.93880    0.35870    0.80400    1.000
    C113     C        0.01680    0.33380    0.85580    1.000
    H75      H        0.00850    0.28790    0.82700    1.000
    C114     C        0.74620    0.52270    0.69540    1.000
    C115     C        0.88520    0.59060    0.84900    1.000
    C116     C        0.87960    0.66330    0.87040    1.000
    H76      H        0.90990    0.69300    0.90920    1.000
    C117     C        0.82580    0.69030    0.83040    1.000
    H77      H        0.81970    0.73990    0.83960    1.000
    C118     C        0.78210    0.64140    0.77710    1.000
    H78      H        0.74660    0.65590    0.75520    1.000
    C119     C        0.79180    0.57140    0.75690    1.000
    C120     C        0.64470    0.34110    0.51130    1.000
    H79      H        0.60690    0.34500    0.47120    1.000
    C121     C        0.67080    0.39930    0.56920    1.000
    H80      H        0.65100    0.43950    0.56880    1.000
    C122     C        0.72730    0.39630    0.62780    1.000
    C123     C        0.75340    0.33310    0.62540    1.000
    H81      H        0.79120    0.32850    0.66410    1.000
    C124     C        0.72420    0.27770    0.56650    1.000
    H82      H        0.74290    0.23610    0.56620    1.000
    N22      N        0.06977    0.35440    0.90950    1.000
    N23      N        0.94140    0.48780    0.86290    1.000
    N24      N        0.76020    0.45100    0.68890    1.000
    N25      N        0.66870    0.28070    0.50810    1.000
    N26      N        0.84320    0.54490    0.79530    1.000
    N27      N        0.26130    0.72530    0.02010    1.000
    N28      N        0.02480    0.00630    0.52240    1.000
    O19      O        0.07393    0.22600    0.81540    1.000
    O20      O        0.15420    0.22520    0.84210    1.000
    O21      O        0.13270    0.41390    0.83870    1.000
    O22      O        0.18660    0.37820    0.96880    1.000
    O23      O        0.98180    0.60260    0.92730    1.000
    O24      O        0.69860    0.54920    0.64490    1.000
    Zn4      Zn       0.12994    0.29669    0.91392    1.000
    H83      H        0.79250    0.43550    0.72700    1.000
    H84      H        0.91680    0.45760    0.85400    1.000
    C125     C        0.67000    0.07390    0.41360    1.000
    C126     C        0.69590    0.99800    0.44180    1.000
    C127     C        0.73700    0.98280    0.52550    1.000
    H85      H        0.75010    0.02180    0.56450    1.000
    C128     C        0.75850    0.90940    0.55070    1.000
    H86      H        0.78590    0.89920    0.60660    1.000
    C129     C        0.73880    0.85120    0.49230    1.000
    C130     C        0.69780    0.86630    0.40860    1.000
    H87      H        0.68470    0.82740    0.36960    1.000
    C131     C        0.67630    0.93980    0.38340    1.000
    H88      H        0.64880    0.94990    0.32750    1.000
    C132     C        0.60510    0.29380    0.29780    1.000
    C133     C        0.58180    0.34630    0.22590    1.000
    C134     C        0.52800    0.37120    0.17710    1.000
    H89      H        0.50520    0.35500    0.18970    1.000
    C135     C        0.50770    0.41880    0.11120    1.000
    H90      H        0.47170    0.43560    0.08020    1.000
    C136     C        0.54050    0.44240    0.09010    1.000
    C137     C        0.59490    0.42090    0.13790    1.000
    H91      H        0.61750    0.43710    0.12480    1.000
    C138     C        0.61490    0.37380    0.20660    1.000
    H92      H        0.65170    0.36040    0.24060    1.000
    C139     C        0.44180    0.93840    0.38470    1.000
    C140     C        0.57950    0.07890    0.45020    1.000
    H93      H        0.61580    0.06370    0.48830    1.000
    C141     C        0.54080    0.03250    0.44010    1.000
    H94      H        0.55060    0.98760    0.47080    1.000
    C142     C        0.48600    0.05340    0.38260    1.000
    C143     C        0.47460    0.12390    0.34100    1.000
    H95      H        0.43880    0.14130    0.30400    1.000
    C144     C        0.51680    0.16620    0.35580    1.000
    H96      H        0.50850    0.21210    0.32700    1.000
    C145     C        0.24620    0.97730    0.19540    1.000
    C146     C        0.38520    0.90940    0.34900    1.000
    C147     C        0.37960    0.83670    0.37040    1.000
    H97      H        0.40990    0.80700    0.40920    1.000
    C148     C        0.32580    0.80970    0.33040    1.000
    H98      H        0.31970    0.76010    0.33960    1.000
    C149     C        0.28210    0.85860    0.27710    1.000
    H99      H        0.24660    0.84410    0.25520    1.000
    C150     C        0.29180    0.92860    0.25690    1.000
    C151     C        0.14470    0.15890    0.01130    1.000
    H100     H        0.10690    0.15500    0.97120    1.000
    C152     C        0.17080    0.10070    0.06920    1.000
    H101     H        0.15100    0.06050    0.06880    1.000
    C153     C        0.22730    0.10370    0.12780    1.000
    C154     C        0.25340    0.16690    0.12540    1.000
    H102     H        0.29120    0.17150    0.16410    1.000
    C155     C        0.22420    0.22230    0.06650    1.000
    H103     H        0.24290    0.26390    0.06620    1.000
    N29      N        0.56977    0.14560    0.40950    1.000
    N30      N        0.44140    0.01220    0.36290    1.000
    N31      N        0.26020    0.04900    0.18890    1.000
    N32      N        0.16870    0.21930    0.00810    1.000
    N33      N        0.34320    0.95510    0.29530    1.000
    N34      N        0.76130    0.77470    0.52010    1.000
    N35      N        0.52480    0.49370    0.02240    1.000
    O25      O        0.57393    0.27400    0.31540    1.000
    O26      O        0.65420    0.27480    0.34210    1.000
    O27      O        0.63270    0.08610    0.33870    1.000
    O28      O        0.68660    0.12180    0.46880    1.000
    O29      O        0.48180    0.89740    0.42730    1.000
    O30      O        0.19860    0.95080    0.14490    1.000
    Zn5      Zn       0.62994    0.20331    0.41392    1.000
    H104     H        0.29250    0.06450    0.22700    1.000
    H105     H        0.41680    0.04240    0.35400    1.000
    C156     C        0.17000    0.57390    0.41360    1.000
    C157     C        0.19590    0.49800    0.44180    1.000
    C158     C        0.23700    0.48280    0.52550    1.000
    H106     H        0.25010    0.52180    0.56450    1.000
    C159     C        0.25850    0.40940    0.55070    1.000
    H107     H        0.28590    0.39920    0.60660    1.000
    C160     C        0.23880    0.35120    0.49230    1.000
    C161     C        0.19780    0.36630    0.40860    1.000
    H108     H        0.18470    0.32740    0.36960    1.000
    C162     C        0.17630    0.43980    0.38340    1.000
    H109     H        0.14880    0.44990    0.32750    1.000
    C163     C        0.10510    0.79380    0.29780    1.000
    C164     C        0.08180    0.84630    0.22590    1.000
    C165     C        0.02800    0.87120    0.17710    1.000
    H110     H        0.00520    0.85500    0.18970    1.000
    C166     C        0.00770    0.91880    0.11120    1.000
    H111     H        0.97170    0.93560    0.08020    1.000
    C167     C        0.04050    0.94240    0.09010    1.000
    C168     C        0.09490    0.92090    0.13790    1.000
    H112     H        0.11750    0.93710    0.12480    1.000
    C169     C        0.11490    0.87380    0.20660    1.000
    H113     H        0.15170    0.86040    0.24060    1.000
    C170     C        0.94180    0.43840    0.38470    1.000
    C171     C        0.07950    0.57890    0.45020    1.000
    H114     H        0.11580    0.56370    0.48830    1.000
    C172     C        0.04080    0.53250    0.44010    1.000
    H115     H        0.05060    0.48760    0.47080    1.000
    C173     C        0.98600    0.55340    0.38260    1.000
    C174     C        0.97460    0.62390    0.34100    1.000
    H116     H        0.93880    0.64130    0.30400    1.000
    C175     C        0.01680    0.66620    0.35580    1.000
    H117     H        0.00850    0.71210    0.32700    1.000
    C176     C        0.74620    0.47730    0.19540    1.000
    C177     C        0.88520    0.40940    0.34900    1.000
    C178     C        0.87960    0.33670    0.37040    1.000
    H118     H        0.90990    0.30700    0.40920    1.000
    C179     C        0.82580    0.30970    0.33040    1.000
    H119     H        0.81970    0.26010    0.33960    1.000
    C180     C        0.78210    0.35860    0.27710    1.000
    H120     H        0.74660    0.34410    0.25520    1.000
    C181     C        0.79180    0.42860    0.25690    1.000
    C182     C        0.64470    0.65890    0.01130    1.000
    H121     H        0.60690    0.65500    0.97120    1.000
    C183     C        0.67080    0.60070    0.06920    1.000
    H122     H        0.65100    0.56050    0.06880    1.000
    C184     C        0.72730    0.60370    0.12780    1.000
    C185     C        0.75340    0.66690    0.12540    1.000
    H123     H        0.79120    0.67150    0.16410    1.000
    C186     C        0.72420    0.72230    0.06650    1.000
    H124     H        0.74290    0.76390    0.06620    1.000
    N36      N        0.06977    0.64560    0.40950    1.000
    N37      N        0.94140    0.51220    0.36290    1.000
    N38      N        0.76020    0.54900    0.18890    1.000
    N39      N        0.66870    0.71930    0.00810    1.000
    N40      N        0.84320    0.45510    0.29530    1.000
    N41      N        0.26130    0.27470    0.52010    1.000
    N42      N        0.02480    0.99370    0.02240    1.000
    O31      O        0.07393    0.77400    0.31540    1.000
    O32      O        0.15420    0.77480    0.34210    1.000
    O33      O        0.13270    0.58610    0.33870    1.000
    O34      O        0.18660    0.62180    0.46880    1.000
    O35      O        0.98180    0.39740    0.42730    1.000
    O36      O        0.69860    0.45080    0.14490    1.000
    Zn6      Zn       0.12994    0.70331    0.41392    1.000
    H125     H        0.79250    0.56450    0.22700    1.000
    H126     H        0.91680    0.54240    0.35400    1.000
    C187     C        0.33000    0.07390    0.08640    1.000
    C188     C        0.30410    0.99800    0.05820    1.000
    C189     C        0.26300    0.98280    0.97450    1.000
    H127     H        0.24990    0.02180    0.93550    1.000
    C190     C        0.24150    0.90940    0.94930    1.000
    H128     H        0.21410    0.89920    0.89340    1.000
    C191     C        0.26120    0.85120    0.00770    1.000
    C192     C        0.30220    0.86630    0.09140    1.000
    H129     H        0.31530    0.82740    0.13040    1.000
    C193     C        0.32370    0.93980    0.11660    1.000
    H130     H        0.35120    0.94990    0.17250    1.000
    C194     C        0.39490    0.29380    0.20220    1.000
    C195     C        0.41820    0.34630    0.27410    1.000
    C196     C        0.47200    0.37120    0.32290    1.000
    H131     H        0.49480    0.35500    0.31030    1.000
    C197     C        0.49230    0.41880    0.38880    1.000
    H132     H        0.52830    0.43560    0.41980    1.000
    C198     C        0.45950    0.44240    0.40990    1.000
    C199     C        0.40510    0.42090    0.36210    1.000
    H133     H        0.38250    0.43710    0.37520    1.000
    C200     C        0.38510    0.37380    0.29340    1.000
    H134     H        0.34830    0.36040    0.25940    1.000
    C201     C        0.55820    0.93840    0.11530    1.000
    C202     C        0.42050    0.07890    0.04980    1.000
    H135     H        0.38420    0.06370    0.01170    1.000
    C203     C        0.45920    0.03250    0.05990    1.000
    H136     H        0.44940    0.98760    0.02920    1.000
    C204     C        0.51400    0.05340    0.11740    1.000
    C205     C        0.52540    0.12390    0.15900    1.000
    H137     H        0.56120    0.14130    0.19600    1.000
    C206     C        0.48320    0.16620    0.14420    1.000
    H138     H        0.49150    0.21210    0.17300    1.000
    C207     C        0.75380    0.97730    0.30460    1.000
    C208     C        0.61480    0.90940    0.15100    1.000
    C209     C        0.62040    0.83670    0.12960    1.000
    H139     H        0.59010    0.80700    0.09080    1.000
    C210     C        0.67420    0.80970    0.16960    1.000
    H140     H        0.68030    0.76010    0.16040    1.000
    C211     C        0.71790    0.85860    0.22290    1.000
    H141     H        0.75340    0.84410    0.24480    1.000
    C212     C        0.70820    0.92860    0.24310    1.000
    C213     C        0.85530    0.15890    0.48870    1.000
    H142     H        0.89310    0.15500    0.52880    1.000
    C214     C        0.82920    0.10070    0.43080    1.000
    H143     H        0.84900    0.06050    0.43120    1.000
    C215     C        0.77270    0.10370    0.37220    1.000
    C216     C        0.74660    0.16690    0.37460    1.000
    H144     H        0.70880    0.17150    0.33590    1.000
    C217     C        0.77580    0.22230    0.43350    1.000
    H145     H        0.75710    0.26390    0.43380    1.000
    N43      N        0.43023    0.14560    0.09050    1.000
    N44      N        0.55860    0.01220    0.13710    1.000
    N45      N        0.73980    0.04900    0.31110    1.000
    N46      N        0.83130    0.21930    0.49190    1.000
    N47      N        0.65680    0.95510    0.20470    1.000
    N48      N        0.23870    0.77470    0.97990    1.000
    N49      N        0.47520    0.49370    0.47760    1.000
    O37      O        0.42607    0.27400    0.18460    1.000
    O38      O        0.34580    0.27480    0.15790    1.000
    O39      O        0.36730    0.08610    0.16130    1.000
    O40      O        0.31340    0.12180    0.03120    1.000
    O41      O        0.51820    0.89740    0.07270    1.000
    O42      O        0.80140    0.95080    0.35510    1.000
    Zn7      Zn       0.37006    0.20331    0.08608    1.000
    H146     H        0.70750    0.06450    0.27300    1.000
    H147     H        0.58320    0.04240    0.14600    1.000
    C218     C        0.83000    0.57390    0.08640    1.000
    C219     C        0.80410    0.49800    0.05820    1.000
    C220     C        0.76300    0.48280    0.97450    1.000
    H148     H        0.74990    0.52180    0.93550    1.000
    C221     C        0.74150    0.40940    0.94930    1.000
    H149     H        0.71410    0.39920    0.89340    1.000
    C222     C        0.76120    0.35120    0.00770    1.000
    C223     C        0.80220    0.36630    0.09140    1.000
    H150     H        0.81530    0.32740    0.13040    1.000
    C224     C        0.82370    0.43980    0.11660    1.000
    H151     H        0.85120    0.44990    0.17250    1.000
    C225     C        0.89490    0.79380    0.20220    1.000
    C226     C        0.91820    0.84630    0.27410    1.000
    C227     C        0.97200    0.87120    0.32290    1.000
    H152     H        0.99480    0.85500    0.31030    1.000
    C228     C        0.99230    0.91880    0.38880    1.000
    H153     H        0.02830    0.93560    0.41980    1.000
    C229     C        0.95950    0.94240    0.40990    1.000
    C230     C        0.90510    0.92090    0.36210    1.000
    H154     H        0.88250    0.93710    0.37520    1.000
    C231     C        0.88510    0.87380    0.29340    1.000
    H155     H        0.84830    0.86040    0.25940    1.000
    C232     C        0.05820    0.43840    0.11530    1.000
    C233     C        0.92050    0.57890    0.04980    1.000
    H156     H        0.88420    0.56370    0.01170    1.000
    C234     C        0.95920    0.53250    0.05990    1.000
    H157     H        0.94940    0.48760    0.02920    1.000
    C235     C        0.01400    0.55340    0.11740    1.000
    C236     C        0.02540    0.62390    0.15900    1.000
    H158     H        0.06120    0.64130    0.19600    1.000
    C237     C        0.98320    0.66620    0.14420    1.000
    H159     H        0.99150    0.71210    0.17300    1.000
    C238     C        0.25380    0.47730    0.30460    1.000
    C239     C        0.11480    0.40940    0.15100    1.000
    C240     C        0.12040    0.33670    0.12960    1.000
    H160     H        0.09010    0.30700    0.09080    1.000
    C241     C        0.17420    0.30970    0.16960    1.000
    H161     H        0.18030    0.26010    0.16040    1.000
    C242     C        0.21790    0.35860    0.22290    1.000
    H162     H        0.25340    0.34410    0.24480    1.000
    C243     C        0.20820    0.42860    0.24310    1.000
    C244     C        0.35530    0.65890    0.48870    1.000
    H163     H        0.39310    0.65500    0.52880    1.000
    C245     C        0.32920    0.60070    0.43080    1.000
    H164     H        0.34900    0.56050    0.43120    1.000
    C246     C        0.27270    0.60370    0.37220    1.000
    C247     C        0.24660    0.66690    0.37460    1.000
    H165     H        0.20880    0.67150    0.33590    1.000
    C248     C        0.27580    0.72230    0.43350    1.000
    H166     H        0.25710    0.76390    0.43380    1.000
    N50      N        0.93023    0.64560    0.09050    1.000
    N51      N        0.05860    0.51220    0.13710    1.000
    N52      N        0.23980    0.54900    0.31110    1.000
    N53      N        0.33130    0.71930    0.49190    1.000
    N54      N        0.15680    0.45510    0.20470    1.000
    N55      N        0.73870    0.27470    0.97990    1.000
    N56      N        0.97520    0.99370    0.47760    1.000
    O43      O        0.92607    0.77400    0.18460    1.000
    O44      O        0.84580    0.77480    0.15790    1.000
    O45      O        0.86730    0.58610    0.16130    1.000
    O46      O        0.81340    0.62180    0.03120    1.000
    O47      O        0.01820    0.39740    0.07270    1.000
    O48      O        0.30140    0.45080    0.35510    1.000
    Zn8      Zn       0.87006    0.70331    0.08608    1.000
    H167     H        0.20750    0.56450    0.27300    1.000
    H168     H        0.08320    0.54240    0.14600    1.000
