# CIF file generated by openbabel 3.1.0, see https://openbabel.org
data_I
_chemical_name_common 'WOZSOT_charged'
_cell_length_a 18.5846
_cell_length_b 20.815
_cell_length_c 20.815
_cell_angle_alpha 90
_cell_angle_beta 90
_cell_angle_gamma 90
_space_group_name_H-M_alt 'P 1'
_space_group_name_Hall 'P 1'
loop_
    _symmetry_equiv_pos_as_xyz
    x,y,z
loop_
    _atom_site_label
    _atom_site_type_symbol
    _atom_site_fract_x
    _atom_site_fract_y
    _atom_site_fract_z
    _atom_site_occupancy
    Cd1      Cd       0.61257    0.68545    0.63860    1.000
    Cd2      Cd       0.79406    0.49527    0.59339    1.000
    Cd3      Cd       0.44545    0.48276    0.55970    1.000
    Cd4      Cd       0.61257    0.81455    0.86140    1.000
    Cd5      Cd       0.79406    0.00473    0.90661    1.000
    Cd6      Cd       0.44545    0.01724    0.94030    1.000
    Cd7      Cd       0.11257    0.36140    0.18545    1.000
    Cd8      Cd       0.29406    0.40661    0.99527    1.000
    Cd9      Cd       0.94545    0.44030    0.98276    1.000
    Cd10     Cd       0.11257    0.13860    0.31455    1.000
    Cd11     Cd       0.29406    0.09339    0.50473    1.000
    Cd12     Cd       0.94545    0.05970    0.51724    1.000
    Cd13     Cd       0.38743    0.31455    0.36140    1.000
    Cd14     Cd       0.20594    0.50473    0.40661    1.000
    Cd15     Cd       0.55455    0.51724    0.44030    1.000
    Cd16     Cd       0.38743    0.18545    0.13860    1.000
    Cd17     Cd       0.20594    0.99527    0.09339    1.000
    Cd18     Cd       0.55455    0.98276    0.05970    1.000
    Cd19     Cd       0.88743    0.63860    0.81455    1.000
    Cd20     Cd       0.70594    0.59339    0.00473    1.000
    Cd21     Cd       0.05455    0.55970    0.01724    1.000
    Cd22     Cd       0.88743    0.86140    0.68545    1.000
    Cd23     Cd       0.70594    0.90661    0.49527    1.000
    Cd24     Cd       0.05455    0.94030    0.48276    1.000
    Cd25     Cd       0.75000    0.75000    0.75000    1.000
    Cd26     Cd       0.25000    0.25000    0.25000    1.000
    P1       P        0.79473    0.63362    0.67130    1.000
    P2       P        0.61876    0.52900    0.58459    1.000
    P3       P        0.79473    0.86638    0.82870    1.000
    P4       P        0.61876    0.97100    0.91541    1.000
    P5       P        0.29473    0.32870    0.13362    1.000
    P6       P        0.11876    0.41541    0.02900    1.000
    P7       P        0.29473    0.17130    0.36638    1.000
    P8       P        0.11876    0.08459    0.47100    1.000
    P9       P        0.20527    0.36638    0.32870    1.000
    P10      P        0.38124    0.47100    0.41541    1.000
    P11      P        0.20527    0.13362    0.17130    1.000
    P12      P        0.38124    0.02900    0.08459    1.000
    P13      P        0.70527    0.67130    0.86638    1.000
    P14      P        0.88124    0.58459    0.97100    1.000
    P15      P        0.70527    0.82870    0.63362    1.000
    P16      P        0.88124    0.91541    0.52900    1.000
    H1       H        0.80770    0.61250    0.47340    1.000
    H2       H        0.88990    0.62930    0.47180    1.000
    H3       H        0.91900    0.51950    0.46560    1.000
    H4       H        0.86730    0.53760    0.40840    1.000
    H5       H        0.82040    0.42720    0.40580    1.000
    H6       H        0.87430    0.40950    0.46120    1.000
    H7       H        0.77780    0.34220    0.46580    1.000
    H8       H        0.72500    0.40120    0.46990    1.000
    H9       H        0.71990    0.31080    0.56140    1.000
    H10      H        0.76720    0.32650    0.62200    1.000
    H11      H        0.64480    0.39470    0.58250    1.000
    H12      H        0.65070    0.35340    0.64520    1.000
    H13      H        0.72780    0.46550    0.74400    1.000
    H14      H        0.68860    0.39890    0.74080    1.000
    H15      H        0.79080    0.34670    0.71200    1.000
    H16      H        0.81630    0.39450    0.76600    1.000
    H17      H        0.93790    0.43490    0.71710    1.000
    H18      H        0.92240    0.36370    0.69590    1.000
    H19      H        0.94140    0.38550    0.59300    1.000
    H20      H        0.00350    0.42190    0.62860    1.000
    H21      H        0.92940    0.54220    0.66490    1.000
    H22      H        0.00460    0.53610    0.63070    1.000
    H23      H        0.96520    0.59200    0.54300    1.000
    H24      H        0.94350    0.63290    0.60300    1.000
    H25      H        0.84250    0.68630    0.58230    1.000
    H26      H        0.77110    0.65130    0.56290    1.000
    H27      H        0.59600    0.46250    0.67090    1.000
    H28      H        0.64910    0.51720    0.69140    1.000
    H29      H        0.80770    0.88750    0.02660    1.000
    H30      H        0.88990    0.87070    0.02820    1.000
    H31      H        0.91900    0.98050    0.03440    1.000
    H32      H        0.86730    0.96240    0.09160    1.000
    H33      H        0.82040    0.07280    0.09420    1.000
    H34      H        0.87430    0.09050    0.03880    1.000
    H35      H        0.77780    0.15780    0.03420    1.000
    H36      H        0.72500    0.09880    0.03010    1.000
    H37      H        0.71990    0.18920    0.93860    1.000
    H38      H        0.76720    0.17350    0.87800    1.000
    H39      H        0.64480    0.10530    0.91750    1.000
    H40      H        0.65070    0.14660    0.85480    1.000
    H41      H        0.72780    0.03450    0.75600    1.000
    H42      H        0.68860    0.10110    0.75920    1.000
    H43      H        0.79080    0.15330    0.78800    1.000
    H44      H        0.81630    0.10550    0.73400    1.000
    H45      H        0.93790    0.06510    0.78290    1.000
    H46      H        0.92240    0.13630    0.80410    1.000
    H47      H        0.94140    0.11450    0.90700    1.000
    H48      H        0.00350    0.07810    0.87140    1.000
    H49      H        0.92940    0.95780    0.83510    1.000
    H50      H        0.00460    0.96390    0.86930    1.000
    H51      H        0.96520    0.90800    0.95700    1.000
    H52      H        0.94350    0.86710    0.89700    1.000
    H53      H        0.84250    0.81370    0.91770    1.000
    H54      H        0.77110    0.84870    0.93710    1.000
    H55      H        0.59600    0.03750    0.82910    1.000
    H56      H        0.64910    0.98280    0.80860    1.000
    H57      H        0.30770    0.52660    0.11250    1.000
    H58      H        0.38990    0.52820    0.12930    1.000
    H59      H        0.41900    0.53440    0.01950    1.000
    H60      H        0.36730    0.59160    0.03760    1.000
    H61      H        0.32040    0.59420    0.92720    1.000
    H62      H        0.37430    0.53880    0.90950    1.000
    H63      H        0.27780    0.53420    0.84220    1.000
    H64      H        0.22500    0.53010    0.90120    1.000
    H65      H        0.21990    0.43860    0.81080    1.000
    H66      H        0.26720    0.37800    0.82650    1.000
    H67      H        0.14480    0.41750    0.89470    1.000
    H68      H        0.15070    0.35480    0.85340    1.000
    H69      H        0.22780    0.25600    0.96550    1.000
    H70      H        0.18860    0.25920    0.89890    1.000
    H71      H        0.29080    0.28800    0.84670    1.000
    H72      H        0.31630    0.23400    0.89450    1.000
    H73      H        0.43790    0.28290    0.93490    1.000
    H74      H        0.42240    0.30410    0.86370    1.000
    H75      H        0.44140    0.40700    0.88550    1.000
    H76      H        0.50350    0.37140    0.92190    1.000
    H77      H        0.42940    0.33510    0.04220    1.000
    H78      H        0.50460    0.36930    0.03610    1.000
    H79      H        0.46520    0.45700    0.09200    1.000
    H80      H        0.44350    0.39700    0.13290    1.000
    H81      H        0.34250    0.41770    0.18630    1.000
    H82      H        0.27110    0.43710    0.15130    1.000
    H83      H        0.09600    0.32910    0.96250    1.000
    H84      H        0.14910    0.30860    0.01720    1.000
    H85      H        0.30770    0.97340    0.38750    1.000
    H86      H        0.38990    0.97180    0.37070    1.000
    H87      H        0.41900    0.96560    0.48050    1.000
    H88      H        0.36730    0.90840    0.46240    1.000
    H89      H        0.32040    0.90580    0.57280    1.000
    H90      H        0.37430    0.96120    0.59050    1.000
    H91      H        0.27780    0.96580    0.65780    1.000
    H92      H        0.22500    0.96990    0.59880    1.000
    H93      H        0.21990    0.06140    0.68920    1.000
    H94      H        0.26720    0.12200    0.67350    1.000
    H95      H        0.14480    0.08250    0.60530    1.000
    H96      H        0.15070    0.14520    0.64660    1.000
    H97      H        0.22780    0.24400    0.53450    1.000
    H98      H        0.18860    0.24080    0.60110    1.000
    H99      H        0.29080    0.21200    0.65330    1.000
    H100     H        0.31630    0.26600    0.60550    1.000
    H101     H        0.43790    0.21710    0.56510    1.000
    H102     H        0.42240    0.19590    0.63630    1.000
    H103     H        0.44140    0.09300    0.61450    1.000
    H104     H        0.50350    0.12860    0.57810    1.000
    H105     H        0.42940    0.16490    0.45780    1.000
    H106     H        0.50460    0.13070    0.46390    1.000
    H107     H        0.46520    0.04300    0.40800    1.000
    H108     H        0.44350    0.10300    0.36710    1.000
    H109     H        0.34250    0.08230    0.31370    1.000
    H110     H        0.27110    0.06290    0.34870    1.000
    H111     H        0.09600    0.17090    0.53750    1.000
    H112     H        0.14910    0.19140    0.48280    1.000
    H113     H        0.19230    0.38750    0.52660    1.000
    H114     H        0.11010    0.37070    0.52820    1.000
    H115     H        0.08100    0.48050    0.53440    1.000
    H116     H        0.13270    0.46240    0.59160    1.000
    H117     H        0.17960    0.57280    0.59420    1.000
    H118     H        0.12570    0.59050    0.53880    1.000
    H119     H        0.22220    0.65780    0.53420    1.000
    H120     H        0.27500    0.59880    0.53010    1.000
    H121     H        0.28010    0.68920    0.43860    1.000
    H122     H        0.23280    0.67350    0.37800    1.000
    H123     H        0.35520    0.60530    0.41750    1.000
    H124     H        0.34930    0.64660    0.35480    1.000
    H125     H        0.27220    0.53450    0.25600    1.000
    H126     H        0.31140    0.60110    0.25920    1.000
    H127     H        0.20920    0.65330    0.28800    1.000
    H128     H        0.18370    0.60550    0.23400    1.000
    H129     H        0.06210    0.56510    0.28290    1.000
    H130     H        0.07760    0.63630    0.30410    1.000
    H131     H        0.05860    0.61450    0.40700    1.000
    H132     H        0.99650    0.57810    0.37140    1.000
    H133     H        0.07060    0.45780    0.33510    1.000
    H134     H        0.99540    0.46390    0.36930    1.000
    H135     H        0.03480    0.40800    0.45700    1.000
    H136     H        0.05650    0.36710    0.39700    1.000
    H137     H        0.15750    0.31370    0.41770    1.000
    H138     H        0.22890    0.34870    0.43710    1.000
    H139     H        0.40400    0.53750    0.32910    1.000
    H140     H        0.35090    0.48280    0.30860    1.000
    H141     H        0.19230    0.11250    0.97340    1.000
    H142     H        0.11010    0.12930    0.97180    1.000
    H143     H        0.08100    0.01950    0.96560    1.000
    H144     H        0.13270    0.03760    0.90840    1.000
    H145     H        0.17960    0.92720    0.90580    1.000
    H146     H        0.12570    0.90950    0.96120    1.000
    H147     H        0.22220    0.84220    0.96580    1.000
    H148     H        0.27500    0.90120    0.96990    1.000
    H149     H        0.28010    0.81080    0.06140    1.000
    H150     H        0.23280    0.82650    0.12200    1.000
    H151     H        0.35520    0.89470    0.08250    1.000
    H152     H        0.34930    0.85340    0.14520    1.000
    H153     H        0.27220    0.96550    0.24400    1.000
    H154     H        0.31140    0.89890    0.24080    1.000
    H155     H        0.20920    0.84670    0.21200    1.000
    H156     H        0.18370    0.89450    0.26600    1.000
    H157     H        0.06210    0.93490    0.21710    1.000
    H158     H        0.07760    0.86370    0.19590    1.000
    H159     H        0.05860    0.88550    0.09300    1.000
    H160     H        0.99650    0.92190    0.12860    1.000
    H161     H        0.07060    0.04220    0.16490    1.000
    H162     H        0.99540    0.03610    0.13070    1.000
    H163     H        0.03480    0.09200    0.04300    1.000
    H164     H        0.05650    0.13290    0.10300    1.000
    H165     H        0.15750    0.18630    0.08230    1.000
    H166     H        0.22890    0.15130    0.06290    1.000
    H167     H        0.40400    0.96250    0.17090    1.000
    H168     H        0.35090    0.01720    0.19140    1.000
    H169     H        0.69230    0.47340    0.88750    1.000
    H170     H        0.61010    0.47180    0.87070    1.000
    H171     H        0.58100    0.46560    0.98050    1.000
    H172     H        0.63270    0.40840    0.96240    1.000
    H173     H        0.67960    0.40580    0.07280    1.000
    H174     H        0.62570    0.46120    0.09050    1.000
    H175     H        0.72220    0.46580    0.15780    1.000
    H176     H        0.77500    0.46990    0.09880    1.000
    H177     H        0.78010    0.56140    0.18920    1.000
    H178     H        0.73280    0.62200    0.17350    1.000
    H179     H        0.85520    0.58250    0.10530    1.000
    H180     H        0.84930    0.64520    0.14660    1.000
    H181     H        0.77220    0.74400    0.03450    1.000
    H182     H        0.81140    0.74080    0.10110    1.000
    H183     H        0.70920    0.71200    0.15330    1.000
    H184     H        0.68370    0.76600    0.10550    1.000
    H185     H        0.56210    0.71710    0.06510    1.000
    H186     H        0.57760    0.69590    0.13630    1.000
    H187     H        0.55860    0.59300    0.11450    1.000
    H188     H        0.49650    0.62860    0.07810    1.000
    H189     H        0.57060    0.66490    0.95780    1.000
    H190     H        0.49540    0.63070    0.96390    1.000
    H191     H        0.53480    0.54300    0.90800    1.000
    H192     H        0.55650    0.60300    0.86710    1.000
    H193     H        0.65750    0.58230    0.81370    1.000
    H194     H        0.72890    0.56290    0.84870    1.000
    H195     H        0.90400    0.67090    0.03750    1.000
    H196     H        0.85090    0.69140    0.98280    1.000
    H197     H        0.69230    0.02660    0.61250    1.000
    H198     H        0.61010    0.02820    0.62930    1.000
    H199     H        0.58100    0.03440    0.51950    1.000
    H200     H        0.63270    0.09160    0.53760    1.000
    H201     H        0.67960    0.09420    0.42720    1.000
    H202     H        0.62570    0.03880    0.40950    1.000
    H203     H        0.72220    0.03420    0.34220    1.000
    H204     H        0.77500    0.03010    0.40120    1.000
    H205     H        0.78010    0.93860    0.31080    1.000
    H206     H        0.73280    0.87800    0.32650    1.000
    H207     H        0.85520    0.91750    0.39470    1.000
    H208     H        0.84930    0.85480    0.35340    1.000
    H209     H        0.77220    0.75600    0.46550    1.000
    H210     H        0.81140    0.75920    0.39890    1.000
    H211     H        0.70920    0.78800    0.34670    1.000
    H212     H        0.68370    0.73400    0.39450    1.000
    H213     H        0.56210    0.78290    0.43490    1.000
    H214     H        0.57760    0.80410    0.36370    1.000
    H215     H        0.55860    0.90700    0.38550    1.000
    H216     H        0.49650    0.87140    0.42190    1.000
    H217     H        0.57060    0.83510    0.54220    1.000
    H218     H        0.49540    0.86930    0.53610    1.000
    H219     H        0.53480    0.95700    0.59200    1.000
    H220     H        0.55650    0.89700    0.63290    1.000
    H221     H        0.65750    0.91770    0.68630    1.000
    H222     H        0.72890    0.93710    0.65130    1.000
    H223     H        0.90400    0.82910    0.46250    1.000
    H224     H        0.85090    0.80860    0.51720    1.000
    C1       C        0.85510    0.59790    0.48640    1.000
    C2       C        0.87080    0.53370    0.45480    1.000
    C3       C        0.82680    0.42640    0.45200    1.000
    C4       C        0.77280    0.38600    0.48100    1.000
    C5       C        0.73830    0.34530    0.58800    1.000
    C6       C        0.67720    0.38170    0.61660    1.000
    C7       C        0.72450    0.42560    0.72000    1.000
    C8       C        0.79630    0.39170    0.72310    1.000
    C9       C        0.91640    0.40840    0.68390    1.000
    C10      C        0.95190    0.42070    0.62200    1.000
    C11      C        0.95310    0.53750    0.62370    1.000
    C12      C        0.93390    0.59310    0.58030    1.000
    C13      C        0.81570    0.64650    0.58660    1.000
    C14      C        0.63860    0.48610    0.65790    1.000
    C15      C        0.85510    0.90210    0.01360    1.000
    C16      C        0.87080    0.96630    0.04520    1.000
    C17      C        0.82680    0.07360    0.04800    1.000
    C18      C        0.77280    0.11400    0.01900    1.000
    C19      C        0.73830    0.15470    0.91200    1.000
    C20      C        0.67720    0.11830    0.88340    1.000
    C21      C        0.72450    0.07440    0.78000    1.000
    C22      C        0.79630    0.10830    0.77690    1.000
    C23      C        0.91640    0.09160    0.81610    1.000
    C24      C        0.95190    0.07930    0.87800    1.000
    C25      C        0.95310    0.96250    0.87630    1.000
    C26      C        0.93390    0.90690    0.91970    1.000
    C27      C        0.81570    0.85350    0.91340    1.000
    C28      C        0.63860    0.01390    0.84210    1.000
    C29      C        0.35510    0.51360    0.09790    1.000
    C30      C        0.37080    0.54520    0.03370    1.000
    C31      C        0.32680    0.54800    0.92640    1.000
    C32      C        0.27280    0.51900    0.88600    1.000
    C33      C        0.23830    0.41200    0.84530    1.000
    C34      C        0.17720    0.38340    0.88170    1.000
    C35      C        0.22450    0.28000    0.92560    1.000
    C36      C        0.29630    0.27690    0.89170    1.000
    C37      C        0.41640    0.31610    0.90840    1.000
    C38      C        0.45190    0.37800    0.92070    1.000
    C39      C        0.45310    0.37630    0.03750    1.000
    C40      C        0.43390    0.41970    0.09310    1.000
    C41      C        0.31570    0.41340    0.14650    1.000
    C42      C        0.13860    0.34210    0.98610    1.000
    C43      C        0.35510    0.98640    0.40210    1.000
    C44      C        0.37080    0.95480    0.46630    1.000
    C45      C        0.32680    0.95200    0.57360    1.000
    C46      C        0.27280    0.98100    0.61400    1.000
    C47      C        0.23830    0.08800    0.65470    1.000
    C48      C        0.17720    0.11660    0.61830    1.000
    C49      C        0.22450    0.22000    0.57440    1.000
    C50      C        0.29630    0.22310    0.60830    1.000
    C51      C        0.41640    0.18390    0.59160    1.000
    C52      C        0.45190    0.12200    0.57930    1.000
    C53      C        0.45310    0.12370    0.46250    1.000
    C54      C        0.43390    0.08030    0.40690    1.000
    C55      C        0.31570    0.08660    0.35350    1.000
    C56      C        0.13860    0.15790    0.51390    1.000
    C57      C        0.14490    0.40210    0.51360    1.000
    C58      C        0.12920    0.46630    0.54520    1.000
    C59      C        0.17320    0.57360    0.54800    1.000
    C60      C        0.22720    0.61400    0.51900    1.000
    C61      C        0.26170    0.65470    0.41200    1.000
    C62      C        0.32280    0.61830    0.38340    1.000
    C63      C        0.27550    0.57440    0.28000    1.000
    C64      C        0.20370    0.60830    0.27690    1.000
    C65      C        0.08360    0.59160    0.31610    1.000
    C66      C        0.04810    0.57930    0.37800    1.000
    C67      C        0.04690    0.46250    0.37630    1.000
    C68      C        0.06610    0.40690    0.41970    1.000
    C69      C        0.18430    0.35350    0.41340    1.000
    C70      C        0.36140    0.51390    0.34210    1.000
    C71      C        0.14490    0.09790    0.98640    1.000
    C72      C        0.12920    0.03370    0.95480    1.000
    C73      C        0.17320    0.92640    0.95200    1.000
    C74      C        0.22720    0.88600    0.98100    1.000
    C75      C        0.26170    0.84530    0.08800    1.000
    C76      C        0.32280    0.88170    0.11660    1.000
    C77      C        0.27550    0.92560    0.22000    1.000
    C78      C        0.20370    0.89170    0.22310    1.000
    C79      C        0.08360    0.90840    0.18390    1.000
    C80      C        0.04810    0.92070    0.12200    1.000
    C81      C        0.04690    0.03750    0.12370    1.000
    C82      C        0.06610    0.09310    0.08030    1.000
    C83      C        0.18430    0.14650    0.08660    1.000
    C84      C        0.36140    0.98610    0.15790    1.000
    C85      C        0.64490    0.48640    0.90210    1.000
    C86      C        0.62920    0.45480    0.96630    1.000
    C87      C        0.67320    0.45200    0.07360    1.000
    C88      C        0.72720    0.48100    0.11400    1.000
    C89      C        0.76170    0.58800    0.15470    1.000
    C90      C        0.82280    0.61660    0.11830    1.000
    C91      C        0.77550    0.72000    0.07440    1.000
    C92      C        0.70370    0.72310    0.10830    1.000
    C93      C        0.58360    0.68390    0.09160    1.000
    C94      C        0.54810    0.62200    0.07930    1.000
    C95      C        0.54690    0.62370    0.96250    1.000
    C96      C        0.56610    0.58030    0.90690    1.000
    C97      C        0.68430    0.58660    0.85350    1.000
    C98      C        0.86140    0.65790    0.01390    1.000
    C99      C        0.64490    0.01360    0.59790    1.000
    C100     C        0.62920    0.04520    0.53370    1.000
    C101     C        0.67320    0.04800    0.42640    1.000
    C102     C        0.72720    0.01900    0.38600    1.000
    C103     C        0.76170    0.91200    0.34530    1.000
    C104     C        0.82280    0.88340    0.38170    1.000
    C105     C        0.77550    0.78000    0.42560    1.000
    C106     C        0.70370    0.77690    0.39170    1.000
    C107     C        0.58360    0.81610    0.40840    1.000
    C108     C        0.54810    0.87800    0.42070    1.000
    C109     C        0.54690    0.87630    0.53750    1.000
    C110     C        0.56610    0.91970    0.59310    1.000
    C111     C        0.68430    0.91340    0.64650    1.000
    C112     C        0.86140    0.84210    0.48610    1.000
    N1       N        0.85790    0.59370    0.55790    1.000
    N2       N        0.70000    0.44030    0.65340    1.000
    N3       N        0.85790    0.90630    0.94210    1.000
    N4       N        0.70000    0.05970    0.84660    1.000
    N5       N        0.35790    0.44210    0.09370    1.000
    N6       N        0.20000    0.34660    0.94030    1.000
    N7       N        0.35790    0.05790    0.40630    1.000
    N8       N        0.20000    0.15340    0.55970    1.000
    N9       N        0.14210    0.40630    0.44210    1.000
    N10      N        0.30000    0.55970    0.34660    1.000
    N11      N        0.14210    0.09370    0.05790    1.000
    N12      N        0.30000    0.94030    0.15340    1.000
    N13      N        0.64210    0.55790    0.90630    1.000
    N14      N        0.80000    0.65340    0.05970    1.000
    N15      N        0.64210    0.94210    0.59370    1.000
    N16      N        0.80000    0.84660    0.44030    1.000
    O1       O        0.82050    0.49000    0.47720    1.000
    O2       O        0.78300    0.38840    0.54900    1.000
    O3       O        0.84250    0.42300    0.67800    1.000
    O4       O        0.92950    0.48030    0.59240    1.000
    O5       O        0.79300    0.56180    0.68200    1.000
    O6       O        0.72190    0.66640    0.68410    1.000
    O7       O        0.85200    0.66740    0.71210    1.000
    O8       O        0.57920    0.58930    0.60550    1.000
    O9       O        0.69070    0.54160    0.55250    1.000
    O10      O        0.56980    0.48800    0.54240    1.000
    O11      O        0.50010    0.72870    0.61570    1.000
    O12      O        0.64290    0.70780    0.53410    1.000
    O13      O        0.56260    0.66820    0.73770    1.000
    O14      O        0.43410    0.58010    0.58410    1.000
    O15      O        0.32470    0.46800    0.57230    1.000
    O16      O        0.48360    0.38790    0.59040    1.000
    O17      O        0.82050    0.01000    0.02280    1.000
    O18      O        0.78300    0.11160    0.95100    1.000
    O19      O        0.84250    0.07700    0.82200    1.000
    O20      O        0.92950    0.01970    0.90760    1.000
    O21      O        0.79300    0.93820    0.81800    1.000
    O22      O        0.72190    0.83360    0.81590    1.000
    O23      O        0.85200    0.83260    0.78790    1.000
    O24      O        0.57920    0.91070    0.89450    1.000
    O25      O        0.69070    0.95840    0.94750    1.000
    O26      O        0.56980    0.01200    0.95760    1.000
    O27      O        0.50010    0.77130    0.88430    1.000
    O28      O        0.64290    0.79220    0.96590    1.000
    O29      O        0.56260    0.83180    0.76230    1.000
    O30      O        0.43410    0.91990    0.91590    1.000
    O31      O        0.32470    0.03200    0.92770    1.000
    O32      O        0.48360    0.11210    0.90960    1.000
    O33      O        0.32050    0.52280    0.99000    1.000
    O34      O        0.28300    0.45100    0.88840    1.000
    O35      O        0.34250    0.32200    0.92300    1.000
    O36      O        0.42950    0.40760    0.98030    1.000
    O37      O        0.29300    0.31800    0.06180    1.000
    O38      O        0.22190    0.31590    0.16640    1.000
    O39      O        0.35200    0.28790    0.16740    1.000
    O40      O        0.07920    0.39450    0.08930    1.000
    O41      O        0.19070    0.44750    0.04160    1.000
    O42      O        0.06980    0.45760    0.98800    1.000
    O43      O        0.00010    0.38430    0.22870    1.000
    O44      O        0.14290    0.46590    0.20780    1.000
    O45      O        0.06260    0.26230    0.16820    1.000
    O46      O        0.93410    0.41590    0.08010    1.000
    O47      O        0.82470    0.42770    0.96800    1.000
    O48      O        0.98360    0.40960    0.88790    1.000
    O49      O        0.32050    0.97720    0.51000    1.000
    O50      O        0.28300    0.04900    0.61160    1.000
    O51      O        0.34250    0.17800    0.57700    1.000
    O52      O        0.42950    0.09240    0.51970    1.000
    O53      O        0.29300    0.18200    0.43820    1.000
    O54      O        0.22190    0.18410    0.33360    1.000
    O55      O        0.35200    0.21210    0.33260    1.000
    O56      O        0.07920    0.10550    0.41070    1.000
    O57      O        0.19070    0.05250    0.45840    1.000
    O58      O        0.06980    0.04240    0.51200    1.000
    O59      O        0.00010    0.11570    0.27130    1.000
    O60      O        0.14290    0.03410    0.29220    1.000
    O61      O        0.06260    0.23770    0.33180    1.000
    O62      O        0.93410    0.08410    0.41990    1.000
    O63      O        0.82470    0.07230    0.53200    1.000
    O64      O        0.98360    0.09040    0.61210    1.000
    O65      O        0.17950    0.51000    0.52280    1.000
    O66      O        0.21700    0.61160    0.45100    1.000
    O67      O        0.15750    0.57700    0.32200    1.000
    O68      O        0.07050    0.51970    0.40760    1.000
    O69      O        0.20700    0.43820    0.31800    1.000
    O70      O        0.27810    0.33360    0.31590    1.000
    O71      O        0.14800    0.33260    0.28790    1.000
    O72      O        0.42080    0.41070    0.39450    1.000
    O73      O        0.30930    0.45840    0.44750    1.000
    O74      O        0.43020    0.51200    0.45760    1.000
    O75      O        0.49990    0.27130    0.38430    1.000
    O76      O        0.35710    0.29220    0.46590    1.000
    O77      O        0.43740    0.33180    0.26230    1.000
    O78      O        0.56590    0.41990    0.41590    1.000
    O79      O        0.67530    0.53200    0.42770    1.000
    O80      O        0.51640    0.61210    0.40960    1.000
    O81      O        0.17950    0.99000    0.97720    1.000
    O82      O        0.21700    0.88840    0.04900    1.000
    O83      O        0.15750    0.92300    0.17800    1.000
    O84      O        0.07050    0.98030    0.09240    1.000
    O85      O        0.20700    0.06180    0.18200    1.000
    O86      O        0.27810    0.16640    0.18410    1.000
    O87      O        0.14800    0.16740    0.21210    1.000
    O88      O        0.42080    0.08930    0.10550    1.000
    O89      O        0.30930    0.04160    0.05250    1.000
    O90      O        0.43020    0.98800    0.04240    1.000
    O91      O        0.49990    0.22870    0.11570    1.000
    O92      O        0.35710    0.20780    0.03410    1.000
    O93      O        0.43740    0.16820    0.23770    1.000
    O94      O        0.56590    0.08010    0.08410    1.000
    O95      O        0.67530    0.96800    0.07230    1.000
    O96      O        0.51640    0.88790    0.09040    1.000
    O97      O        0.67950    0.47720    0.01000    1.000
    O98      O        0.71700    0.54900    0.11160    1.000
    O99      O        0.65750    0.67800    0.07700    1.000
    O100     O        0.57050    0.59240    0.01970    1.000
    O101     O        0.70700    0.68200    0.93820    1.000
    O102     O        0.77810    0.68410    0.83360    1.000
    O103     O        0.64800    0.71210    0.83260    1.000
    O104     O        0.92080    0.60550    0.91070    1.000
    O105     O        0.80930    0.55250    0.95840    1.000
    O106     O        0.93020    0.54240    0.01200    1.000
    O107     O        0.99990    0.61570    0.77130    1.000
    O108     O        0.85710    0.53410    0.79220    1.000
    O109     O        0.93740    0.73770    0.83180    1.000
    O110     O        0.06590    0.58410    0.91990    1.000
    O111     O        0.17530    0.57230    0.03200    1.000
    O112     O        0.01640    0.59040    0.11210    1.000
    O113     O        0.67950    0.02280    0.49000    1.000
    O114     O        0.71700    0.95100    0.38840    1.000
    O115     O        0.65750    0.82200    0.42300    1.000
    O116     O        0.57050    0.90760    0.48030    1.000
    O117     O        0.70700    0.81800    0.56180    1.000
    O118     O        0.77810    0.81590    0.66640    1.000
    O119     O        0.64800    0.78790    0.66740    1.000
    O120     O        0.92080    0.89450    0.58930    1.000
    O121     O        0.80930    0.94750    0.54160    1.000
    O122     O        0.93020    0.95760    0.48800    1.000
    O123     O        0.99990    0.88430    0.72870    1.000
    O124     O        0.85710    0.96590    0.70780    1.000
    O125     O        0.93740    0.76230    0.66820    1.000
    O126     O        0.06590    0.91590    0.58010    1.000
    O127     O        0.17530    0.92770    0.46800    1.000
    O128     O        0.01640    0.90960    0.38790    1.000
    N17      N        0.57570    0.24100    0.97110    1.000
    O129     O        0.61900    0.28120    0.98650    1.000
    O130     O        0.56050    0.23610    0.91220    1.000
    O131     O        0.56500    0.19670    0.00320    1.000
    N18      N        0.57570    0.25900    0.52890    1.000
    O132     O        0.61900    0.21880    0.51350    1.000
    O133     O        0.56050    0.26390    0.58780    1.000
    O134     O        0.56500    0.30330    0.49680    1.000
    N19      N        0.07570    0.02890    0.74100    1.000
    O135     O        0.11900    0.01350    0.78120    1.000
    O136     O        0.06050    0.08780    0.73610    1.000
    O137     O        0.06500    0.99680    0.69670    1.000
    N20      N        0.07570    0.47110    0.75900    1.000
    O138     O        0.11900    0.48650    0.71880    1.000
    O139     O        0.06050    0.41220    0.76390    1.000
    O140     O        0.06500    0.50320    0.80330    1.000
    N21      N        0.42430    0.75900    0.02890    1.000
    O141     O        0.38100    0.71880    0.01350    1.000
    O142     O        0.43950    0.76390    0.08780    1.000
    O143     O        0.43500    0.80330    0.99680    1.000
    N22      N        0.42430    0.74100    0.47110    1.000
    O144     O        0.38100    0.78120    0.48650    1.000
    O145     O        0.43950    0.73610    0.41220    1.000
    O146     O        0.43500    0.69670    0.50320    1.000
    N23      N        0.92430    0.97110    0.25900    1.000
    O147     O        0.88100    0.98650    0.21880    1.000
    O148     O        0.93950    0.91220    0.26390    1.000
    O149     O        0.93500    0.00320    0.30330    1.000
    N24      N        0.92430    0.52890    0.24100    1.000
    O150     O        0.88100    0.51350    0.28120    1.000
    O151     O        0.93950    0.58780    0.23610    1.000
    O152     O        0.93500    0.49680    0.19670    1.000
