data_functionalizedCrystal
_audit_creation_method	'EQeq! by Chris Wilmer'
_symmetry_space_group_name_H-M	'P1'
_symmetry_Int_Tables_number	1
_symmetry_cell_setting	triclinic
loop_
_symmetry_equiv_pos_as_xyz
  x,y,z
_cell_length_a	10.633
_cell_length_b	10.633
_cell_length_c	11.0118
_cell_angle_alpha	78.5954
_cell_angle_beta	62.5285
_cell_angle_gamma	108.511
loop_
_atom_site_label
_atom_site_type_symbol
_atom_site_fract_x
_atom_site_fract_y
_atom_site_fract_z
_atom_site_charge
Mof_Pr	Pr	0.44984	0.6366	0.61976	2.362
Mof_Pr	Pr	0.75636	0.0696	0.88024	2.349
Mof_Pr	Pr	0.55016	0.3634	0.38024	2.361
Mof_Pr	Pr	0.24364	0.9304	0.11976	2.348
Mof_H 	H 	0.0373	0.6188	0.6883	0.265
Mof_H 	H 	0.8977	0.5146	0.8559	0.256
Mof_H 	H 	0.8071	0.7256	0.8117	0.266
Mof_H 	H 	0.8705	0.7536	0.6441	0.263
Mof_H 	H 	0.9627	0.3812	0.3117	0.265
Mof_H 	H 	0.1023	0.4854	0.1441	0.256
Mof_H 	H 	0.1929	0.2744	0.1883	0.266
Mof_H 	H 	0.1295	0.2464	0.3559	0.263
Mof_C 	C 	0.0954	0.6504	0.8324	0.614
Mof_C 	C 	0.0101	0.5539	0.7808	-0.844
Mof_C 	C 	0.0473	0.4302	0.7579	0.748
Mof_C 	C 	0.6003	0.3737	0.6248	0.459
Mof_C 	C 	0.9828	0.9278	0.6676	0.605
Mof_C 	C 	0.8347	0.7909	0.7192	-0.852
Mof_C 	C 	0.6881	0.8052	0.7421	0.745
Mof_C 	C 	0.4985	0.2251	0.8752	0.458
Mof_C 	C 	0.9046	0.3496	0.1676	0.614
Mof_C 	C 	0.9899	0.4461	0.2192	-0.844
Mof_C 	C 	0.9527	0.5698	0.2421	0.748
Mof_C 	C 	0.3997	0.6263	0.3752	0.459
Mof_C 	C 	0.0172	0.0722	0.3324	0.605
Mof_C 	C 	0.1653	0.2091	0.2808	-0.852
Mof_C 	C 	0.3119	0.1948	0.2579	0.745
Mof_C 	C 	0.5015	0.7749	0.1248	0.458
Mof_C 	C 	0.6248	0.3748	0.75	-0.288
Mof_C 	C 	0.3752	0.6252	0.25	-0.288
Mof_O 	O 	0.24439	0.69339	0.773	-0.645
Mof_O 	O 	0.0151	0.6879	0.9282	-0.425
Mof_O 	O 	0.1847	0.4441	0.7098	-0.655
Mof_O 	O 	0.9328	0.3196	0.7848	-0.722
Mof_O 	O 	0.5413	0.4495	0.5912	-0.719
Mof_O 	O 	0.63474	0.29316	0.5601	-0.543
Mof_O 	O 	0.96639	0.01739	0.727	-0.644
Mof_O 	O 	0.1161	0.9433	0.5718	-0.424
Mof_O 	O 	0.6539	0.8945	0.7902	-0.651
Mof_O 	O 	0.6044	0.7176	0.7152	-0.718
Mof_O 	O 	0.5407	0.1325	0.9088	-0.717
Mof_O 	O 	0.35326	0.19484	0.9399	-0.542
Mof_O 	O 	0.75561	0.30661	0.227	-0.645
Mof_O 	O 	0.9849	0.3121	0.0718	-0.425
Mof_O 	O 	0.8153	0.5559	0.2902	-0.655
Mof_O 	O 	0.0672	0.6804	0.2152	-0.722
Mof_O 	O 	0.4587	0.5505	0.4088	-0.719
Mof_O 	O 	0.36526	0.70684	0.4399	-0.543
Mof_O 	O 	0.03361	0.98261	0.273	-0.644
Mof_O 	O 	0.8839	0.0567	0.4282	-0.424
Mof_O 	O 	0.3461	0.1055	0.2098	-0.651
Mof_O 	O 	0.3956	0.2824	0.2848	-0.718
Mof_O 	O 	0.4593	0.8675	0.0912	-0.717
Mof_O 	O 	0.64674	0.80516	0.0601	-0.542
_end
