data_functionalizedCrystal
_audit_creation_method	'EQeq! by Chris Wilmer'
_symmetry_space_group_name_H-M	'P1'
_symmetry_Int_Tables_number	1
_symmetry_cell_setting	triclinic
loop_
_symmetry_equiv_pos_as_xyz
  x,y,z
_cell_length_a	12.048
_cell_length_b	12.28
_cell_length_c	19.092
_cell_angle_alpha	91.92
_cell_angle_beta	98.1
_cell_angle_gamma	117.88
loop_
_atom_site_label
_atom_site_type_symbol
_atom_site_fract_x
_atom_site_fract_y
_atom_site_fract_z
_atom_site_charge
Mof_Cd	Cd	0.76625	0.50709	0.27921	0.48
Mof_Cd	Cd	0.57876	0.67086	0.20026	0.474
Mof_Cd	Cd	0.42096	0.32541	0.29919	0.472
Mof_O 	O 	0.4308	0.3148	0.18133	-0.275
Mof_O 	O 	0.6158	0.5139	0.34142	-0.295
Mof_O 	O 	0.6103	0.4937	0.18108	-0.286
Mof_O 	O 	0.5228	0.2124	0.31614	-0.291
Mof_O 	O 	0.607	0.6882	0.32093	-0.274
Mof_O 	O 	0.3192	0.4374	0.27918	-0.284
Mof_O 	O 	0.3652	0.5647	0.19356	-0.281
Mof_O 	O 	0.786	0.7917	0.1973	-0.286
Mof_N 	N 	0.459	0.3303	0.92387	-0.134
Mof_O 	O 	0.67	0.2997	0.2479	-0.285
Mof_N 	N 	0.2301	0.1356	0.27249	-0.138
Mof_N 	N 	0.6098	0.6741	0.58267	-0.137
Mof_N 	N 	0.5699	0.8568	0.21874	-0.132
Mof_N 	N 	0.9377	0.4962	0.2373	-0.132
Mof_O 	O 	0.8742	0.7104	0.27574	-0.272
Mof_C 	C 	0.6132	0.6122	0.36056	0.304
Mof_C 	C 	0.6141	0.6377	0.43889	-0.015
Mof_C 	C 	0.4965	0.3673	0.072	-0.019
Mof_C 	C 	0.5124	0.3927	0.15116	0.297
Mof_C 	C 	0.2943	0.4998	0.23509	0.302
Mof_C 	C 	0.6681	0.5887	0.48934	-0.072
Mof_H 	H 	0.7046	0.5413	0.4754	0.073
Mof_C 	C 	0.1697	0.4982	0.2331	-0.02
Mof_C 	C 	0.5583	0.7209	0.5339	0.051
Mof_H 	H 	0.5196	0.7654	0.549	0.027
Mof_C 	C 	0.56	0.7063	0.46236	-0.074
Mof_H 	H 	0.5251	0.7421	0.4302	0.072
Mof_C 	C 	0.5925	0.2102	0.275	0.311
Mof_C 	C 	0.5972	0.4238	0.03596	-0.069
Mof_H 	H 	0.6791	0.4759	0.0609	0.07
Mof_C 	C 	0.3615	0.2738	0.9591	0.045
Mof_H 	H 	0.2801	0.2232	0.9332	0.03
Mof_C 	C 	0.8764	0.7946	0.2392	0.304
Mof_C 	C 	0.3783	0.2885	0.0325	-0.072
Mof_H 	H 	0.3095	0.245	0.0553	0.071
Mof_C 	C 	0.0022	0.9134	0.2498	-0.008
Mof_C 	C 	0.6667	0.6117	0.56033	0.052
Mof_H 	H 	0.7069	0.5826	0.594	0.032
Mof_C 	C 	0.1038	0.9289	0.3004	-0.09
Mof_H 	H 	0.0972	0.8655	0.3278	0.093
Mof_C 	C 	0.5753	0.4024	0.96266	0.047
Mof_H 	H 	0.6442	0.4395	0.9391	0.033
Mof_C 	C 	0.5839	0.0855	0.2546	-0.016
Mof_C 	C 	0.1315	0.118	0.223	0.062
Mof_H 	H 	0.1403	0.1825	0.1962	0.021
Mof_C 	C 	0.2163	0.0413	0.3098	0.063
Mof_H 	H 	0.285	0.0511	0.3435	0.023
Mof_C 	C 	0.508	0.9823	0.2856	-0.076
Mof_H 	H 	0.4607	0.9879	0.3187	0.072
Mof_C 	C 	0.6504	0.0718	0.2044	-0.076
Mof_H 	H 	0.6999	0.1389	0.1814	0.073
Mof_C 	C 	0.5038	0.8704	0.2665	0.054
Mof_H 	H 	0.4529	0.8013	0.2877	0.029
Mof_C 	C 	0.0173	0.0095	0.2097	-0.091
Mof_H 	H 	0.9514	0.0011	0.1742	0.077
Mof_C 	C 	0.6421	0.9574	0.1889	0.055
Mof_H 	H 	0.689	0.9498	0.1561	0.024
Mof_C 	C 	0.1456	0.5904	0.208	-0.075
Mof_H 	H 	0.207	0.6551	0.1886	0.071
Mof_C 	C 	0.0301	0.5867	0.2117	0.059
Mof_H 	H 	0.0169	0.651	0.1955	0.024
Mof_C 	C 	0.0721	0.4025	0.2608	-0.082
Mof_H 	H 	0.0836	0.3387	0.2793	0.072
Mof_C 	C 	0.9591	0.4049	0.2601	0.062
Mof_H 	H 	0.8935	0.339	0.2764	0.026
Mof_C 	C 	0.9759	0.568	0.413	0.257
Mof_C 	C 	0.034	0.5483	0.4826	-0.016
Mof_O 	O 	0.0327	0.6525	0.3846	-0.247
Mof_C 	C 	0.8007	0.3982	0.4208	0.067
Mof_C 	C 	0.8566	0.38	0.4871	0.02
Mof_N 	N 	0.8573	0.4906	0.3897	-0.183
Mof_O 	O 	0.1427	0.5094	0.6103	-0.349
Mof_Cd	Cd	0.23375	0.49291	0.72079	0.496
Mof_Cd	Cd	0.42124	0.32914	0.79975	0.473
Mof_Cd	Cd	0.57904	0.67459	0.70081	0.472
Mof_O 	O 	0.5692	0.6852	0.81867	-0.275
Mof_O 	O 	0.3842	0.4861	0.65858	-0.292
Mof_O 	O 	0.3897	0.5063	0.81892	-0.287
Mof_O 	O 	0.4772	0.7876	0.68386	-0.292
Mof_O 	O 	0.393	0.3118	0.67907	-0.274
Mof_O 	O 	0.6808	0.5626	0.72082	-0.284
Mof_O 	O 	0.6348	0.4353	0.80644	-0.282
Mof_O 	O 	0.214	0.2083	0.8027	-0.286
Mof_N 	N 	0.541	0.6697	0.07613	-0.134
Mof_O 	O 	0.33	0.7003	0.7521	-0.285
Mof_N 	N 	0.7699	0.8644	0.72751	-0.137
Mof_N 	N 	0.3902	0.3259	0.41733	-0.137
Mof_N 	N 	0.4301	0.1432	0.78126	-0.132
Mof_N 	N 	0.0623	0.5038	0.7627	-0.133
Mof_O 	O 	0.1258	0.2896	0.72426	-0.271
Mof_C 	C 	0.3868	0.3878	0.63944	0.304
Mof_C 	C 	0.3859	0.3623	0.56111	-0.014
Mof_C 	C 	0.5035	0.6327	0.928	-0.019
Mof_C 	C 	0.4876	0.6073	0.84884	0.297
Mof_C 	C 	0.7057	0.5002	0.76491	0.304
Mof_C 	C 	0.3319	0.4113	0.51066	-0.073
Mof_H 	H 	0.2954	0.4587	0.5246	0.075
Mof_C 	C 	0.8303	0.5018	0.7669	-0.024
Mof_C 	C 	0.4417	0.2791	0.4661	0.051
Mof_H 	H 	0.4804	0.2346	0.451	0.028
Mof_C 	C 	0.44	0.2937	0.53764	-0.075
Mof_H 	H 	0.4749	0.2579	0.5698	0.072
Mof_C 	C 	0.4075	0.7898	0.725	0.311
Mof_C 	C 	0.4028	0.5762	0.96404	-0.07
Mof_H 	H 	0.3209	0.5241	0.9391	0.069
Mof_C 	C 	0.6385	0.7262	0.0409	0.046
Mof_H 	H 	0.7199	0.7768	0.0668	0.031
Mof_C 	C 	0.1236	0.2054	0.7608	0.297
Mof_C 	C 	0.6217	0.7115	0.9675	-0.072
Mof_H 	H 	0.6905	0.755	0.9447	0.071
Mof_C 	C 	0.9978	0.0866	0.7502	-0.004
Mof_C 	C 	0.3333	0.3883	0.43967	0.052
Mof_H 	H 	0.2931	0.4174	0.406	0.031
Mof_C 	C 	0.8962	0.0711	0.6996	-0.089
Mof_H 	H 	0.9028	0.1345	0.6722	0.096
Mof_C 	C 	0.4247	0.5976	0.03734	0.047
Mof_H 	H 	0.3558	0.5605	0.0609	0.032
Mof_C 	C 	0.4161	0.9145	0.7454	-0.018
Mof_C 	C 	0.8685	0.882	0.777	0.055
Mof_H 	H 	0.8597	0.8175	0.8038	0.025
Mof_C 	C 	0.7837	0.9587	0.6902	0.062
Mof_H 	H 	0.715	0.9489	0.6565	0.024
Mof_C 	C 	0.492	0.0177	0.7144	-0.074
Mof_H 	H 	0.5393	0.0121	0.6813	0.072
Mof_C 	C 	0.3496	0.9282	0.7956	-0.078
Mof_H 	H 	0.3001	0.8611	0.8186	0.072
Mof_C 	C 	0.4962	0.1296	0.7335	0.054
Mof_H 	H 	0.5471	0.1987	0.7123	0.03
Mof_C 	C 	0.9827	0.9905	0.7903	-0.076
Mof_H 	H 	0.0486	0.9989	0.8258	0.066
Mof_C 	C 	0.3579	0.0426	0.8111	0.056
Mof_H 	H 	0.311	0.0502	0.8439	0.023
Mof_C 	C 	0.8544	0.4096	0.792	-0.075
Mof_H 	H 	0.793	0.3449	0.8114	0.071
Mof_C 	C 	0.9699	0.4133	0.7883	0.067
Mof_H 	H 	0.9831	0.349	0.8045	0.025
Mof_C 	C 	0.9279	0.5975	0.7392	-0.067
Mof_H 	H 	0.9164	0.6613	0.7207	0.068
Mof_C 	C 	0.0409	0.5951	0.7399	0.048
Mof_H 	H 	0.1065	0.661	0.7236	0.031
Mof_C 	C 	0.0241	0.432	0.587	0.367
Mof_C 	C 	0.966	0.4517	0.5174	-0.094
Mof_O 	O 	0.9673	0.3475	0.6154	-0.273
Mof_C 	C 	0.1993	0.6018	0.5792	0.171
Mof_C 	C 	0.1434	0.62	0.5129	-0.045
_end
