data_functionalizedCrystal
_audit_creation_method	'EQeq! by Chris Wilmer'
_symmetry_space_group_name_H-M	'P1'
_symmetry_Int_Tables_number	1
_symmetry_cell_setting	triclinic
loop_
_symmetry_equiv_pos_as_xyz
  x,y,z
_cell_length_a	11.2189
_cell_length_b	11.2189
_cell_length_c	21.255
_cell_angle_alpha	95.7389
_cell_angle_beta	95.7389
_cell_angle_gamma	107.192
loop_
_atom_site_label
_atom_site_type_symbol
_atom_site_fract_x
_atom_site_fract_y
_atom_site_fract_z
_atom_site_charge
Mof_Fe	Fe	0.98316	0.50002	0.19241	0.693
Mof_Fe	Fe	0.49998	0.01684	0.30759	0.693
Mof_Fe	Fe	0.01684	0.49998	0.80759	0.694
Mof_Fe	Fe	0.50002	0.98316	0.69241	0.694
Mof_Fe	Fe	0.75296	0.24704	0.25	0.867
Mof_Fe	Fe	0.24704	0.75296	0.75	0.867
Mof_H 	H 	0.007	0.7192	0.3979	0.042
Mof_H 	H 	0.0319	0.7431	0.5066	0.07
Mof_H 	H 	0.9549	0.3487	0.3913	0.062
Mof_H 	H 	0.9041	0.9843	0.1471	0.041
Mof_H 	H 	0.938	0.831	0.0779	0.061
Mof_H 	H 	0.011	0.238	0.029	0.054
Mof_H 	H 	0.4811	0.2659	0.0942	0.043
Mof_H 	H 	0.3425	0.2775	0.0098	0.065
Mof_H 	H 	0.713	0.6054	0.0765	0.055
Mof_H 	H 	0.2808	0.993	0.1021	0.043
Mof_H 	H 	0.2569	0.9681	0.9934	0.067
Mof_H 	H 	0.6513	0.0451	0.1087	0.062
Mof_H 	H 	0.0157	0.0959	0.3529	0.039
Mof_H 	H 	0.169	0.062	0.4221	0.062
Mof_H 	H 	0.762	0.989	0.471	0.051
Mof_H 	H 	0.7341	0.5189	0.4058	0.043
Mof_H 	H 	0.7225	0.6575	0.4902	0.065
Mof_H 	H 	0.3946	0.287	0.4235	0.055
Mof_H 	H 	0.993	0.2808	0.6021	0.042
Mof_H 	H 	0.9681	0.2569	0.4934	0.07
Mof_H 	H 	0.0451	0.6513	0.6087	0.062
Mof_H 	H 	0.0959	0.0157	0.8529	0.041
Mof_H 	H 	0.062	0.169	0.9221	0.061
Mof_H 	H 	0.989	0.762	0.971	0.054
Mof_H 	H 	0.5189	0.7341	0.9058	0.043
Mof_H 	H 	0.6575	0.7225	0.9902	0.065
Mof_H 	H 	0.287	0.3946	0.9235	0.055
Mof_H 	H 	0.7192	0.007	0.8979	0.043
Mof_H 	H 	0.7431	0.0319	0.0066	0.067
Mof_H 	H 	0.3487	0.9549	0.8913	0.062
Mof_H 	H 	0.9843	0.9041	0.6471	0.039
Mof_H 	H 	0.831	0.938	0.5779	0.062
Mof_H 	H 	0.238	0.011	0.529	0.051
Mof_H 	H 	0.2659	0.4811	0.5942	0.043
Mof_H 	H 	0.2775	0.3425	0.5098	0.065
Mof_H 	H 	0.6054	0.713	0.5765	0.055
Mof_C 	C 	0.9667	0.5175	0.3124	0.33
Mof_C 	C 	0.9772	0.5294	0.384	-0.074
Mof_C 	C 	0.0016	0.6496	0.4191	0.008
Mof_C 	C 	0.0173	0.6637	0.484	-0.092
Mof_C 	C 	0.0122	0.5604	0.5177	0.029
Mof_C 	C 	0.9707	0.4275	0.4149	-0.044
Mof_C 	C 	0.9236	0.2232	0.1396	0.356
Mof_C 	C 	0.9529	0.1269	0.0936	-0.083
Mof_C 	C 	0.9315	0.0037	0.1084	0.011
Mof_C 	C 	0.9505	0.9115	0.0669	-0.094
Mof_C 	C 	0.9938	0.1556	0.0379	-0.04
Mof_C 	C 	0.9884	0.9384	0.0081	0.021
Mof_C 	C 	0.7043	0.4251	0.1482	0.369
Mof_C 	C 	0.6124	0.4344	0.0937	-0.083
Mof_C 	C 	0.4999	0.3367	0.0732	0.015
Mof_C 	C 	0.4166	0.3434	0.0227	-0.09
Mof_C 	C 	0.4435	0.4509	0.99	0.025
Mof_C 	C 	0.6392	0.5396	0.0626	-0.038
Mof_C 	C 	0.4825	0.0333	0.1876	0.329
Mof_C 	C 	0.4706	0.0228	0.116	-0.074
Mof_C 	C 	0.3504	0.9984	0.0809	0.006
Mof_C 	C 	0.3363	0.9827	0.016	-0.085
Mof_C 	C 	0.4396	0.9878	0.9823	0.026
Mof_C 	C 	0.5725	0.0293	0.0851	-0.043
Mof_C 	C 	0.7768	0.0764	0.3604	0.357
Mof_C 	C 	0.8731	0.0471	0.4064	-0.086
Mof_C 	C 	0.9963	0.0685	0.3916	0.016
Mof_C 	C 	0.0885	0.0495	0.4331	-0.097
Mof_C 	C 	0.8444	0.0062	0.4621	-0.035
Mof_C 	C 	0.0616	0.0116	0.4919	0.02
Mof_C 	C 	0.5749	0.2957	0.3518	0.369
Mof_C 	C 	0.5656	0.3876	0.4063	-0.083
Mof_C 	C 	0.6633	0.5001	0.4268	0.015
Mof_C 	C 	0.6566	0.5834	0.4773	-0.09
Mof_C 	C 	0.5491	0.5565	0.51	0.025
Mof_C 	C 	0.4604	0.3608	0.4374	-0.038
Mof_C 	C 	0.0333	0.4825	0.6876	0.33
Mof_C 	C 	0.0228	0.4706	0.616	-0.074
Mof_C 	C 	0.9984	0.3504	0.5809	0.008
Mof_C 	C 	0.9827	0.3363	0.516	-0.092
Mof_C 	C 	0.9878	0.4396	0.4823	0.029
Mof_C 	C 	0.0293	0.5725	0.5851	-0.044
Mof_C 	C 	0.0764	0.7768	0.8604	0.356
Mof_C 	C 	0.0471	0.8731	0.9064	-0.083
Mof_C 	C 	0.0685	0.9963	0.8916	0.011
Mof_C 	C 	0.0495	0.0885	0.9331	-0.094
Mof_C 	C 	0.0062	0.8444	0.9621	-0.04
Mof_C 	C 	0.0116	0.0616	0.9919	0.021
Mof_C 	C 	0.2957	0.5749	0.8518	0.369
Mof_C 	C 	0.3876	0.5656	0.9063	-0.083
Mof_C 	C 	0.5001	0.6633	0.9268	0.015
Mof_C 	C 	0.5834	0.6566	0.9773	-0.09
Mof_C 	C 	0.5565	0.5491	0.01	0.025
Mof_C 	C 	0.3608	0.4604	0.9374	-0.038
Mof_C 	C 	0.5175	0.9667	0.8124	0.329
Mof_C 	C 	0.5294	0.9772	0.884	-0.074
Mof_C 	C 	0.6496	0.0016	0.9191	0.006
Mof_C 	C 	0.6637	0.0173	0.984	-0.085
Mof_C 	C 	0.5604	0.0122	0.0177	0.026
Mof_C 	C 	0.4275	0.9707	0.9149	-0.043
Mof_C 	C 	0.2232	0.9236	0.6396	0.357
Mof_C 	C 	0.1269	0.9529	0.5936	-0.086
Mof_C 	C 	0.0037	0.9315	0.6084	0.016
Mof_C 	C 	0.9115	0.9505	0.5669	-0.097
Mof_C 	C 	0.1556	0.9938	0.5379	-0.035
Mof_C 	C 	0.9384	0.9884	0.5081	0.02
Mof_C 	C 	0.4251	0.7043	0.6482	0.369
Mof_C 	C 	0.4344	0.6124	0.5937	-0.083
Mof_C 	C 	0.3367	0.4999	0.5732	0.015
Mof_C 	C 	0.3434	0.4166	0.5227	-0.09
Mof_C 	C 	0.4509	0.4435	0.49	0.025
Mof_C 	C 	0.5396	0.6392	0.5626	-0.038
Mof_O 	O 	0.0066	0.613	0.28654	-0.337
Mof_O 	O 	0.92286	0.40914	0.27967	-0.383
Mof_O 	O 	0.9613	0.3361	0.12924	-0.364
Mof_O 	O 	0.8632	0.1832	0.1833	-0.347
Mof_O 	O 	0.8085	0.5103	0.15875	-0.364
Mof_O 	O 	0.6703	0.3321	0.17726	-0.351
Mof_O 	O 	0.387	0.9934	0.21346	-0.337
Mof_O 	O 	0.59086	0.07714	0.22033	-0.383
Mof_O 	O 	0.6639	0.0387	0.37076	-0.364
Mof_O 	O 	0.8168	0.1368	0.3167	-0.347
Mof_O 	O 	0.4897	0.1915	0.34125	-0.364
Mof_O 	O 	0.6679	0.3297	0.32274	-0.351
Mof_O 	O 	0.9934	0.387	0.71346	-0.337
Mof_O 	O 	0.07714	0.59086	0.72033	-0.383
Mof_O 	O 	0.0387	0.6639	0.87076	-0.364
Mof_O 	O 	0.1368	0.8168	0.8167	-0.347
Mof_O 	O 	0.1915	0.4897	0.84125	-0.364
Mof_O 	O 	0.3297	0.6679	0.82274	-0.351
Mof_O 	O 	0.613	0.0066	0.78654	-0.337
Mof_O 	O 	0.40914	0.92286	0.77967	-0.383
Mof_O 	O 	0.3361	0.9613	0.62924	-0.364
Mof_O 	O 	0.1832	0.8632	0.6833	-0.347
Mof_O 	O 	0.5103	0.8085	0.65875	-0.364
Mof_O 	O 	0.3321	0.6703	0.67726	-0.351
_end
