# CIF file generated by openbabel 3.1.0, see https://openbabel.org
data_I
_chemical_name_common 'image0'
_cell_length_a 5.2515
_cell_length_b 15.1973
_cell_length_c 17.5701
_cell_angle_alpha 90
_cell_angle_beta 91.459
_cell_angle_gamma 90
_space_group_name_H-M_alt 'P 1'
_space_group_name_Hall 'P 1'
loop_
    _symmetry_equiv_pos_as_xyz
    x,y,z
loop_
    _atom_site_label
    _atom_site_type_symbol
    _atom_site_fract_x
    _atom_site_fract_y
    _atom_site_fract_z
    _atom_site_occupancy
    Zn1      Zn       0.19770    0.40350    0.45900    1.000
    Zn2      Zn       0.10650    0.25580    0.18640    1.000
    Zn3      Zn       0.29350    0.10070    0.48820    1.000
    Zn4      Zn       0.79010    0.23180    0.44880    1.000
    P1       P        0.27820    0.24070    0.35850    1.000
    P2       P        0.28200    0.61380    0.44180    1.000
    P3       P        0.27740    0.40900    0.08430    1.000
    O1       O        0.23400    0.33830    0.36490    1.000
    O2       O        0.17790    0.52300    0.42460    1.000
    O3       O        0.56590    0.61830    0.45770    1.000
    O4       O        0.13980    0.64930    0.51220    1.000
    O5       O        0.16890    0.20410    0.28390    1.000
    O6       O        0.21460    0.37440    0.16330    1.000
    O7       O        0.21150    0.67210    0.37370    1.000
    O8       O        0.18020    0.50240    0.07810    1.000
    O9       O        0.13460    0.35340    0.02210    1.000
    O10      O        0.56420    0.40040    0.07260    1.000
    O11      O        0.13550    0.19470    0.42540    1.000
    O12      O        0.55750    0.21370    0.36620    1.000
    Zn5      Zn       0.30230    0.90350    0.04100    1.000
    Zn6      Zn       0.39350    0.75580    0.31360    1.000
    Zn7      Zn       0.20650    0.60070    0.01180    1.000
    Zn8      Zn       0.70990    0.73180    0.05120    1.000
    P4       P        0.22180    0.74070    0.14150    1.000
    P5       P        0.21800    0.11380    0.05820    1.000
    P6       P        0.22260    0.90900    0.41570    1.000
    O13      O        0.26600    0.83830    0.13510    1.000
    O14      O        0.32210    0.02300    0.07540    1.000
    O15      O        0.93410    0.11830    0.04230    1.000
    O16      O        0.36020    0.14930    0.98780    1.000
    O17      O        0.33110    0.70410    0.21610    1.000
    O18      O        0.28540    0.87440    0.33670    1.000
    O19      O        0.28850    0.17210    0.12630    1.000
    O20      O        0.31980    0.00240    0.42190    1.000
    O21      O        0.36540    0.85340    0.47790    1.000
    O22      O        0.93580    0.90040    0.42740    1.000
    O23      O        0.36450    0.69470    0.07460    1.000
    O24      O        0.94250    0.71370    0.13380    1.000
    Zn9      Zn       0.80230    0.59650    0.54100    1.000
    Zn10     Zn       0.89350    0.74420    0.81360    1.000
    Zn11     Zn       0.70650    0.89930    0.51180    1.000
    Zn12     Zn       0.20990    0.76820    0.55120    1.000
    P7       P        0.72180    0.75930    0.64150    1.000
    P8       P        0.71800    0.38620    0.55820    1.000
    P9       P        0.72260    0.59100    0.91570    1.000
    O25      O        0.76600    0.66170    0.63510    1.000
    O26      O        0.82210    0.47700    0.57540    1.000
    O27      O        0.43410    0.38170    0.54230    1.000
    O28      O        0.86020    0.35070    0.48780    1.000
    O29      O        0.83110    0.79590    0.71610    1.000
    O30      O        0.78540    0.62560    0.83670    1.000
    O31      O        0.78850    0.32790    0.62630    1.000
    O32      O        0.81980    0.49760    0.92190    1.000
    O33      O        0.86540    0.64660    0.97790    1.000
    O34      O        0.43580    0.59960    0.92740    1.000
    O35      O        0.86450    0.80530    0.57460    1.000
    O36      O        0.44250    0.78630    0.63380    1.000
    Zn13     Zn       0.69770    0.09650    0.95900    1.000
    Zn14     Zn       0.60650    0.24420    0.68640    1.000
    Zn15     Zn       0.79350    0.39930    0.98820    1.000
    Zn16     Zn       0.29010    0.26820    0.94880    1.000
    P10      P        0.77820    0.25930    0.85850    1.000
    P11      P        0.78200    0.88620    0.94180    1.000
    P12      P        0.77740    0.09100    0.58430    1.000
    O37      O        0.73400    0.16170    0.86490    1.000
    O38      O        0.67790    0.97700    0.92460    1.000
    O39      O        0.06590    0.88170    0.95770    1.000
    O40      O        0.63980    0.85070    0.01220    1.000
    O41      O        0.66890    0.29590    0.78390    1.000
    O42      O        0.71460    0.12560    0.66330    1.000
    O43      O        0.71150    0.82790    0.87370    1.000
    O44      O        0.68020    0.99760    0.57810    1.000
    O45      O        0.63460    0.14660    0.52210    1.000
    O46      O        0.06420    0.09960    0.57260    1.000
    O47      O        0.63550    0.30530    0.92540    1.000
    O48      O        0.05750    0.28630    0.86620    1.000
