# CIF file generated by openbabel 3.1.0, see https://openbabel.org
data_I
_chemical_name_common 'image0'
_cell_length_a 31.3256
_cell_length_b 5.8888
_cell_length_c 20.4485
_cell_angle_alpha 90
_cell_angle_beta 102.229
_cell_angle_gamma 90
_space_group_name_H-M_alt 'P 1'
_space_group_name_Hall 'P 1'
loop_
    _symmetry_equiv_pos_as_xyz
    x,y,z
loop_
    _atom_site_label
    _atom_site_type_symbol
    _atom_site_fract_x
    _atom_site_fract_y
    _atom_site_fract_z
    _atom_site_occupancy
    O1       O        0.49744    0.11160    0.32359    1.000
    O2       O        0.47390    0.42230    0.36596    1.000
    N1       N        0.44800    0.51960    0.20930    1.000
    C1       C        0.42071    0.45990    0.15177    1.000
    H1       H        0.42550    0.32030    0.13120    1.000
    C2       C        0.38616    0.59380    0.12175    1.000
    H2       H        0.36750    0.54550    0.08130    1.000
    C3       C        0.37839    0.80030    0.15048    1.000
    C4       C        0.40651    0.85870    0.21029    1.000
    H3       H        0.40220    0.99640    0.23230    1.000
    C5       C        0.44055    0.71670    0.23758    1.000
    H4       H        0.45960    0.76050    0.27820    1.000
    C6       C        0.34293    0.95740    0.12182    1.000
    H5       H        0.33730    0.07970    0.14910    1.000
    C7       C        0.31851    0.94220    0.06177    1.000
    H6       H        0.32370    0.81670    0.03530    1.000
    C8       C        0.28337    0.10220    0.03085    1.000
    C9       C        0.27493    0.30180    0.06262    1.000
    H7       H        0.29200    0.33830    0.10550    1.000
    C10      C        0.25837    0.05180    0.96814    1.000
    H8       H        0.26390    0.91670    0.94590    1.000
    C11      C        0.48710    0.22450    0.37163    1.000
    C12      C        0.49331    0.10500    0.43787    1.000
    C13      C        0.51230    0.89160    0.44658    1.000
    H9       H        0.52060    0.81690    0.41000    1.000
    C14      C        0.48088    0.21260    0.49148    1.000
    H10      H        0.46760    0.35840    0.48550    1.000
    O3       O        0.99744    0.61160    0.32359    1.000
    O4       O        0.97390    0.92230    0.36596    1.000
    N2       N        0.94800    0.01960    0.20930    1.000
    C15      C        0.92071    0.95990    0.15177    1.000
    H11      H        0.92550    0.82030    0.13120    1.000
    C16      C        0.88616    0.09380    0.12175    1.000
    H12      H        0.86750    0.04550    0.08130    1.000
    C17      C        0.87839    0.30030    0.15048    1.000
    C18      C        0.90651    0.35870    0.21029    1.000
    H13      H        0.90220    0.49640    0.23230    1.000
    C19      C        0.94055    0.21670    0.23758    1.000
    H14      H        0.95960    0.26050    0.27820    1.000
    C20      C        0.84293    0.45740    0.12182    1.000
    H15      H        0.83730    0.57970    0.14910    1.000
    C21      C        0.81851    0.44220    0.06177    1.000
    H16      H        0.82370    0.31670    0.03530    1.000
    C22      C        0.78337    0.60220    0.03085    1.000
    C23      C        0.77493    0.80180    0.06262    1.000
    H17      H        0.79200    0.83830    0.10550    1.000
    C24      C        0.75837    0.55180    0.96814    1.000
    H18      H        0.76390    0.41670    0.94590    1.000
    C25      C        0.98710    0.72450    0.37163    1.000
    C26      C        0.99331    0.60500    0.43787    1.000
    C27      C        0.01230    0.39160    0.44658    1.000
    H19      H        0.02060    0.31690    0.41000    1.000
    C28      C        0.98088    0.71260    0.49148    1.000
    H20      H        0.96760    0.85840    0.48550    1.000
    O5       O        0.50256    0.11160    0.17641    1.000
    O6       O        0.52610    0.42230    0.13404    1.000
    N3       N        0.55200    0.51960    0.29070    1.000
    C29      C        0.57929    0.45990    0.34823    1.000
    H21      H        0.57450    0.32030    0.36880    1.000
    C30      C        0.61384    0.59380    0.37825    1.000
    H22      H        0.63250    0.54550    0.41870    1.000
    C31      C        0.62161    0.80030    0.34952    1.000
    C32      C        0.59349    0.85870    0.28971    1.000
    H23      H        0.59780    0.99640    0.26770    1.000
    C33      C        0.55945    0.71670    0.26242    1.000
    H24      H        0.54040    0.76050    0.22180    1.000
    C34      C        0.65707    0.95740    0.37818    1.000
    H25      H        0.66270    0.07970    0.35090    1.000
    C35      C        0.68149    0.94220    0.43823    1.000
    H26      H        0.67630    0.81670    0.46470    1.000
    C36      C        0.71663    0.10220    0.46915    1.000
    C37      C        0.72507    0.30180    0.43738    1.000
    H27      H        0.70800    0.33830    0.39450    1.000
    C38      C        0.74163    0.05180    0.53186    1.000
    H28      H        0.73610    0.91670    0.55410    1.000
    C39      C        0.51290    0.22450    0.12837    1.000
    C40      C        0.50669    0.10500    0.06213    1.000
    C41      C        0.48770    0.89160    0.05342    1.000
    H29      H        0.47940    0.81690    0.09000    1.000
    C42      C        0.51912    0.21260    0.00852    1.000
    H30      H        0.53240    0.35840    0.01450    1.000
    O7       O        0.00256    0.61160    0.17641    1.000
    O8       O        0.02610    0.92230    0.13404    1.000
    N4       N        0.05200    0.01960    0.29070    1.000
    C43      C        0.07929    0.95990    0.34823    1.000
    H31      H        0.07450    0.82030    0.36880    1.000
    C44      C        0.11384    0.09380    0.37825    1.000
    H32      H        0.13250    0.04550    0.41870    1.000
    C45      C        0.12161    0.30030    0.34952    1.000
    C46      C        0.09349    0.35870    0.28971    1.000
    H33      H        0.09780    0.49640    0.26770    1.000
    C47      C        0.05945    0.21670    0.26242    1.000
    H34      H        0.04040    0.26050    0.22180    1.000
    C48      C        0.15707    0.45740    0.37818    1.000
    H35      H        0.16270    0.57970    0.35090    1.000
    C49      C        0.18149    0.44220    0.43823    1.000
    H36      H        0.17630    0.31670    0.46470    1.000
    C50      C        0.21663    0.60220    0.46915    1.000
    C51      C        0.22507    0.80180    0.43738    1.000
    H37      H        0.20800    0.83830    0.39450    1.000
    C52      C        0.24163    0.55180    0.53186    1.000
    H38      H        0.23610    0.41670    0.55410    1.000
    C53      C        0.01290    0.72450    0.12837    1.000
    C54      C        0.00669    0.60500    0.06213    1.000
    C55      C        0.98770    0.39160    0.05342    1.000
    H39      H        0.97940    0.31690    0.09000    1.000
    C56      C        0.01912    0.71260    0.00852    1.000
    H40      H        0.03240    0.85840    0.01450    1.000
    O9       O        0.50256    0.88840    0.67641    1.000
    O10      O        0.52610    0.57770    0.63404    1.000
    N5       N        0.55200    0.48040    0.79070    1.000
    C57      C        0.57929    0.54010    0.84823    1.000
    H41      H        0.57450    0.67970    0.86880    1.000
    C58      C        0.61384    0.40620    0.87825    1.000
    H42      H        0.63250    0.45450    0.91870    1.000
    C59      C        0.62161    0.19970    0.84952    1.000
    C60      C        0.59349    0.14130    0.78971    1.000
    H43      H        0.59780    0.00360    0.76770    1.000
    C61      C        0.55945    0.28330    0.76242    1.000
    H44      H        0.54040    0.23950    0.72180    1.000
    C62      C        0.65707    0.04260    0.87818    1.000
    H45      H        0.66270    0.92030    0.85090    1.000
    C63      C        0.68149    0.05780    0.93823    1.000
    H46      H        0.67630    0.18330    0.96470    1.000
    C64      C        0.71663    0.89780    0.96915    1.000
    C65      C        0.72507    0.69820    0.93738    1.000
    H47      H        0.70800    0.66170    0.89450    1.000
    C66      C        0.74163    0.94820    0.03186    1.000
    H48      H        0.73610    0.08330    0.05410    1.000
    C67      C        0.51290    0.77550    0.62837    1.000
    C68      C        0.50669    0.89500    0.56213    1.000
    C69      C        0.48770    0.10840    0.55342    1.000
    H49      H        0.47940    0.18310    0.59000    1.000
    C70      C        0.51912    0.78740    0.50852    1.000
    H50      H        0.53240    0.64160    0.51450    1.000
    O11      O        0.00256    0.38840    0.67641    1.000
    O12      O        0.02610    0.07770    0.63404    1.000
    N6       N        0.05200    0.98040    0.79070    1.000
    C71      C        0.07929    0.04010    0.84823    1.000
    H51      H        0.07450    0.17970    0.86880    1.000
    C72      C        0.11384    0.90620    0.87825    1.000
    H52      H        0.13250    0.95450    0.91870    1.000
    C73      C        0.12161    0.69970    0.84952    1.000
    C74      C        0.09349    0.64130    0.78971    1.000
    H53      H        0.09780    0.50360    0.76770    1.000
    C75      C        0.05945    0.78330    0.76242    1.000
    H54      H        0.04040    0.73950    0.72180    1.000
    C76      C        0.15707    0.54260    0.87818    1.000
    H55      H        0.16270    0.42030    0.85090    1.000
    C77      C        0.18149    0.55780    0.93823    1.000
    H56      H        0.17630    0.68330    0.96470    1.000
    C78      C        0.21663    0.39780    0.96915    1.000
    C79      C        0.22507    0.19820    0.93738    1.000
    H57      H        0.20800    0.16170    0.89450    1.000
    C80      C        0.24163    0.44820    0.03186    1.000
    H58      H        0.23610    0.58330    0.05410    1.000
    C81      C        0.01290    0.27550    0.62837    1.000
    C82      C        0.00669    0.39500    0.56213    1.000
    C83      C        0.98770    0.60840    0.55342    1.000
    H59      H        0.97940    0.68310    0.59000    1.000
    C84      C        0.01912    0.28740    0.50852    1.000
    H60      H        0.03240    0.14160    0.51450    1.000
    O13      O        0.49744    0.88840    0.82359    1.000
    O14      O        0.47390    0.57770    0.86596    1.000
    N7       N        0.44800    0.48040    0.70930    1.000
    C85      C        0.42071    0.54010    0.65177    1.000
    H61      H        0.42550    0.67970    0.63120    1.000
    C86      C        0.38616    0.40620    0.62175    1.000
    H62      H        0.36750    0.45450    0.58130    1.000
    C87      C        0.37839    0.19970    0.65048    1.000
    C88      C        0.40651    0.14130    0.71029    1.000
    H63      H        0.40220    0.00360    0.73230    1.000
    C89      C        0.44055    0.28330    0.73758    1.000
    H64      H        0.45960    0.23950    0.77820    1.000
    C90      C        0.34293    0.04260    0.62182    1.000
    H65      H        0.33730    0.92030    0.64910    1.000
    C91      C        0.31851    0.05780    0.56177    1.000
    H66      H        0.32370    0.18330    0.53530    1.000
    C92      C        0.28337    0.89780    0.53085    1.000
    C93      C        0.27493    0.69820    0.56262    1.000
    H67      H        0.29200    0.66170    0.60550    1.000
    C94      C        0.25837    0.94820    0.46814    1.000
    H68      H        0.26390    0.08330    0.44590    1.000
    C95      C        0.48710    0.77550    0.87163    1.000
    C96      C        0.49331    0.89500    0.93787    1.000
    C97      C        0.51230    0.10840    0.94658    1.000
    H69      H        0.52060    0.18310    0.91000    1.000
    C98      C        0.48088    0.78740    0.99148    1.000
    H70      H        0.46760    0.64160    0.98550    1.000
    O15      O        0.99744    0.38840    0.82359    1.000
    O16      O        0.97390    0.07770    0.86596    1.000
    N8       N        0.94800    0.98040    0.70930    1.000
    C99      C        0.92071    0.04010    0.65177    1.000
    H71      H        0.92550    0.17970    0.63120    1.000
    C100     C        0.88616    0.90620    0.62175    1.000
    H72      H        0.86750    0.95450    0.58130    1.000
    C101     C        0.87839    0.69970    0.65048    1.000
    C102     C        0.90651    0.64130    0.71029    1.000
    H73      H        0.90220    0.50360    0.73230    1.000
    C103     C        0.94055    0.78330    0.73758    1.000
    H74      H        0.95960    0.73950    0.77820    1.000
    C104     C        0.84293    0.54260    0.62182    1.000
    H75      H        0.83730    0.42030    0.64910    1.000
    C105     C        0.81851    0.55780    0.56177    1.000
    H76      H        0.82370    0.68330    0.53530    1.000
    C106     C        0.78337    0.39780    0.53085    1.000
    C107     C        0.77493    0.19820    0.56262    1.000
    H77      H        0.79200    0.16170    0.60550    1.000
    C108     C        0.75837    0.44820    0.46814    1.000
    H78      H        0.76390    0.58330    0.44590    1.000
    C109     C        0.98710    0.27550    0.87163    1.000
    C110     C        0.99331    0.39500    0.93787    1.000
    C111     C        0.01230    0.60840    0.94658    1.000
    H79      H        0.02060    0.68310    0.91000    1.000
    C112     C        0.98088    0.28740    0.99148    1.000
    H80      H        0.96760    0.14160    0.98550    1.000
    Zn1      Zn       0.50000    0.32114    0.25000    1.000
    Zn2      Zn       0.00000    0.82114    0.25000    1.000
    Zn3      Zn       0.50000    0.67886    0.75000    1.000
    Zn4      Zn       0.00000    0.17886    0.75000    1.000
