# CIF file generated by openbabel 3.1.0, see https://openbabel.org
data_I
_chemical_name_common 'image0'
_cell_length_a 13.901
_cell_length_b 12.713
_cell_length_c 7.07
_cell_angle_alpha 90
_cell_angle_beta 91.139
_cell_angle_gamma 90
_space_group_name_H-M_alt 'P 1'
_space_group_name_Hall 'P 1'
loop_
    _symmetry_equiv_pos_as_xyz
    x,y,z
loop_
    _atom_site_label
    _atom_site_type_symbol
    _atom_site_fract_x
    _atom_site_fract_y
    _atom_site_fract_z
    _atom_site_occupancy
    C1       C        0.80490    0.96520    0.42950    1.000
    H1       H        0.81420    0.98020    0.29670    1.000
    H2       H        0.77480    0.02640    0.48510    1.000
    C2       C        0.73650    0.87250    0.44480    1.000
    C3       C        0.94820    0.85350    0.46530    1.000
    H3       H        0.94630    0.84690    0.32860    1.000
    H4       H        0.91530    0.79320    0.51770    1.000
    C4       C        0.70940    0.83780    0.61530    1.000
    H5       H        0.73160    0.87100    0.72500    1.000
    C5       C        0.69610    0.82750    0.29120    1.000
    H6       H        0.70820    0.85430    0.17160    1.000
    C6       C        0.63550    0.74000    0.31030    1.000
    H7       H        0.61430    0.70550    0.20110    1.000
    C7       C        0.64610    0.74920    0.62630    1.000
    H8       H        0.63160    0.72220    0.74470    1.000
    N1       N        0.89780    0.95010    0.51960    1.000
    H9       H        0.88600    0.94300    0.64510    1.000
    N2       N        0.60740    0.70430    0.47350    1.000
    O1       O        0.97870    0.07980    0.20150    1.000
    C8       C        0.30490    0.46520    0.42950    1.000
    H10      H        0.31420    0.48020    0.29670    1.000
    H11      H        0.27480    0.52640    0.48510    1.000
    C9       C        0.23650    0.37250    0.44480    1.000
    C10      C        0.44820    0.35350    0.46530    1.000
    H12      H        0.44630    0.34690    0.32860    1.000
    H13      H        0.41530    0.29320    0.51770    1.000
    C11      C        0.20940    0.33780    0.61530    1.000
    H14      H        0.23160    0.37100    0.72500    1.000
    C12      C        0.19610    0.32750    0.29120    1.000
    H15      H        0.20820    0.35430    0.17160    1.000
    C13      C        0.13550    0.24000    0.31030    1.000
    H16      H        0.11430    0.20550    0.20110    1.000
    C14      C        0.14610    0.24920    0.62630    1.000
    H17      H        0.13160    0.22220    0.74470    1.000
    N3       N        0.39780    0.45010    0.51960    1.000
    H18      H        0.38600    0.44300    0.64510    1.000
    N4       N        0.10740    0.20430    0.47350    1.000
    O2       O        0.47870    0.57980    0.20150    1.000
    C15      C        0.19510    0.96520    0.57050    1.000
    H19      H        0.18580    0.98020    0.70330    1.000
    H20      H        0.22520    0.02640    0.51490    1.000
    C16      C        0.26350    0.87250    0.55520    1.000
    C17      C        0.05180    0.85350    0.53470    1.000
    H21      H        0.05370    0.84690    0.67140    1.000
    H22      H        0.08470    0.79320    0.48230    1.000
    C18      C        0.29060    0.83780    0.38470    1.000
    H23      H        0.26840    0.87100    0.27500    1.000
    C19      C        0.30390    0.82750    0.70880    1.000
    H24      H        0.29180    0.85430    0.82840    1.000
    C20      C        0.36450    0.74000    0.68970    1.000
    H25      H        0.38570    0.70550    0.79890    1.000
    C21      C        0.35390    0.74920    0.37370    1.000
    H26      H        0.36840    0.72220    0.25530    1.000
    N5       N        0.10220    0.95010    0.48040    1.000
    H27      H        0.11400    0.94300    0.35490    1.000
    N6       N        0.39260    0.70430    0.52650    1.000
    O3       O        0.02130    0.07980    0.79850    1.000
    C22      C        0.69510    0.46520    0.57050    1.000
    H28      H        0.68580    0.48020    0.70330    1.000
    H29      H        0.72520    0.52640    0.51490    1.000
    C23      C        0.76350    0.37250    0.55520    1.000
    C24      C        0.55180    0.35350    0.53470    1.000
    H30      H        0.55370    0.34690    0.67140    1.000
    H31      H        0.58470    0.29320    0.48230    1.000
    C25      C        0.79060    0.33780    0.38470    1.000
    H32      H        0.76840    0.37100    0.27500    1.000
    C26      C        0.80390    0.32750    0.70880    1.000
    H33      H        0.79180    0.35430    0.82840    1.000
    C27      C        0.86450    0.24000    0.68970    1.000
    H34      H        0.88570    0.20550    0.79890    1.000
    C28      C        0.85390    0.24920    0.37370    1.000
    H35      H        0.86840    0.22220    0.25530    1.000
    N7       N        0.60220    0.45010    0.48040    1.000
    H36      H        0.61400    0.44300    0.35490    1.000
    N8       N        0.89260    0.20430    0.52650    1.000
    O4       O        0.52130    0.57980    0.79850    1.000
    Zn1      Zn       0.00000    0.08125    0.50000    1.000
    Zn2      Zn       0.50000    0.58125    0.50000    1.000
    Mo1      Mo       0.00000    0.00072    0.00000    1.000
    Mo2      Mo       0.50000    0.50072    0.00000    1.000
