data_functionalizedCrystal
_audit_creation_method	'EQeq! by Chris Wilmer'
_symmetry_space_group_name_H-M	'P1'
_symmetry_Int_Tables_number	1
_symmetry_cell_setting	triclinic
loop_
_symmetry_equiv_pos_as_xyz
  x,y,z
_cell_length_a	28.9105
_cell_length_b	28.9105
_cell_length_c	14.3863
_cell_angle_alpha	90
_cell_angle_beta	90
_cell_angle_gamma	120
loop_
_atom_site_label
_atom_site_type_symbol
_atom_site_fract_x
_atom_site_fract_y
_atom_site_fract_z
_atom_site_charge
Mof_Ag	Ag	0.80207	0.0658	0.39295	0.549
Mof_N 	N 	0.73293	0.99703	0.2981	-0.178
Mof_C 	C 	0.7684	0.9266	0.6006	-0.006
Mof_H 	H 	0.765	0.9227	0.6662	0.003
Mof_C 	C 	0.738	0.95522	0.2714	0.104
Mof_C 	C 	0.77775	0.94139	0.4157	0.111
Mof_C 	C 	0.78267	0.949	0.3121	-0.253
Mof_H 	H 	0.7824	0.9178	0.2831	0.087
Mof_H 	H 	0.8173	0.9811	0.2973	0.075
Mof_C 	C 	0.7582	0.89128	0.4555	-0.051
Mof_H 	H 	0.7472	0.8612	0.416	0.033
Mof_N 	N 	0.7925	0.98433	0.4685	-0.171
Mof_C 	C 	0.6587	0.9659	0.1972	-0.01
Mof_H 	H 	0.6311	0.9708	0.1723	0.023
Mof_N 	N 	0.75429	0.88383	0.5472	-0.158
Mof_C 	C 	0.7023	0.9186	0.2071	-0.053
Mof_H 	H 	0.7061	0.8889	0.1899	0.029
Mof_C 	C 	0.7879	0.9765	0.561	0.006
Mof_H 	H 	0.7984	0.0064	0.6006	0.014
Mof_N 	N 	0.6627	0.92398	0.1688	-0.148
Mof_C 	C 	0.6935	0.0023	0.2616	0.009
Mof_H 	H 	0.6891	0.0314	0.28	0.005
Mof_Ag	Ag	0.46874	0.39913	0.72628	0.549
Mof_N 	N 	0.3996	0.33036	0.63143	-0.178
Mof_C 	C 	0.43507	0.25993	0.93393	-0.006
Mof_H 	H 	0.43167	0.25603	0.99953	0.003
Mof_C 	C 	0.40467	0.28855	0.60473	0.104
Mof_C 	C 	0.44442	0.27472	0.74903	0.111
Mof_C 	C 	0.44934	0.28233	0.64543	-0.253
Mof_H 	H 	0.44907	0.25113	0.61643	0.087
Mof_H 	H 	0.48397	0.31443	0.63063	0.075
Mof_C 	C 	0.42487	0.22461	0.78883	-0.051
Mof_H 	H 	0.41387	0.19453	0.74933	0.033
Mof_N 	N 	0.45917	0.31766	0.80183	-0.171
Mof_C 	C 	0.32537	0.29923	0.53053	-0.011
Mof_H 	H 	0.29777	0.30413	0.50563	0.022
Mof_N 	N 	0.42096	0.21716	0.88053	-0.159
Mof_C 	C 	0.36897	0.25193	0.54043	-0.054
Mof_H 	H 	0.37277	0.22223	0.52323	0.028
Mof_C 	C 	0.45457	0.30983	0.89433	0.005
Mof_H 	H 	0.46507	0.33973	0.93393	0.013
Mof_N 	N 	0.32937	0.25731	0.50213	-0.149
Mof_C 	C 	0.36017	0.33563	0.59493	0.008
Mof_H 	H 	0.35577	0.36473	0.61333	0.004
Mof_Ag	Ag	0.1354	0.73247	0.05962	0.548
Mof_N 	N 	0.06626	0.6637	0.96477	-0.179
Mof_C 	C 	0.10173	0.59327	0.26727	-0.007
Mof_H 	H 	0.09833	0.58937	0.33287	0.002
Mof_C 	C 	0.07133	0.62189	0.93807	0.103
Mof_C 	C 	0.11108	0.60806	0.08237	0.11
Mof_C 	C 	0.116	0.61567	0.97877	-0.254
Mof_H 	H 	0.11573	0.58447	0.94977	0.086
Mof_H 	H 	0.15063	0.64777	0.96397	0.074
Mof_C 	C 	0.09153	0.55795	0.12217	-0.052
Mof_H 	H 	0.08053	0.52787	0.08267	0.032
Mof_N 	N 	0.12583	0.651	0.13517	-0.171
Mof_C 	C 	0.99203	0.63257	0.86387	-0.011
Mof_H 	H 	0.96443	0.63747	0.83897	0.022
Mof_N 	N 	0.08762	0.5505	0.21387	-0.159
Mof_C 	C 	0.03563	0.58527	0.87377	-0.054
Mof_H 	H 	0.03943	0.55557	0.85657	0.028
Mof_C 	C 	0.12123	0.64317	0.22767	0.005
Mof_H 	H 	0.13173	0.67307	0.26727	0.013
Mof_N 	N 	0.99603	0.59065	0.83547	-0.149
Mof_C 	C 	0.02683	0.66897	0.92827	0.008
Mof_H 	H 	0.02243	0.69807	0.94667	0.004
Mof_Ag	Ag	0.9342	0.73627	0.39295	0.548
Mof_N 	N 	0.00297	0.7359	0.2981	-0.179
Mof_C 	C 	0.0734	0.8418	0.6006	-0.007
Mof_H 	H 	0.0773	0.8423	0.6662	0.002
Mof_C 	C 	0.04478	0.78278	0.2714	0.103
Mof_C 	C 	0.05861	0.83636	0.4157	0.11
Mof_C 	C 	0.051	0.83367	0.3121	-0.254
Mof_H 	H 	0.0822	0.8646	0.2831	0.086
Mof_H 	H 	0.0189	0.8362	0.2973	0.074
Mof_C 	C 	0.10872	0.86692	0.4555	-0.052
Mof_H 	H 	0.1388	0.886	0.416	0.032
Mof_N 	N 	0.01567	0.80817	0.4685	-0.172
Mof_C 	C 	0.0341	0.6928	0.1972	-0.011
Mof_H 	H 	0.0292	0.6603	0.1723	0.022
Mof_N 	N 	0.11617	0.87046	0.5472	-0.159
Mof_C 	C 	0.0814	0.7837	0.2071	-0.054
Mof_H 	H 	0.1111	0.8172	0.1899	0.028
Mof_C 	C 	0.0235	0.8114	0.561	0.005
Mof_H 	H 	0.9936	0.792	0.6006	0.013
Mof_N 	N 	0.07602	0.73872	0.1688	-0.149
Mof_C 	C 	0.9977	0.6912	0.2616	0.008
Mof_H 	H 	0.9686	0.6577	0.28	0.004
Mof_Ag	Ag	0.60087	0.0696	0.72628	0.548
Mof_N 	N 	0.66964	0.06923	0.63143	-0.179
Mof_C 	C 	0.74007	0.17513	0.93393	-0.007
Mof_H 	H 	0.74397	0.17563	0.99953	0.002
Mof_C 	C 	0.71145	0.11611	0.60473	0.103
Mof_C 	C 	0.72528	0.16969	0.74903	0.11
Mof_C 	C 	0.71767	0.167	0.64543	-0.254
Mof_H 	H 	0.74887	0.19793	0.61643	0.086
Mof_H 	H 	0.68557	0.16953	0.63063	0.074
Mof_C 	C 	0.77539	0.20025	0.78883	-0.052
Mof_H 	H 	0.80547	0.21933	0.74933	0.032
Mof_N 	N 	0.68234	0.1415	0.80183	-0.172
Mof_C 	C 	0.70077	0.02613	0.53053	-0.011
Mof_H 	H 	0.69587	0.99363	0.50563	0.022
Mof_N 	N 	0.78284	0.20379	0.88053	-0.159
Mof_C 	C 	0.74807	0.11703	0.54043	-0.054
Mof_H 	H 	0.77777	0.15053	0.52323	0.028
Mof_C 	C 	0.69017	0.14473	0.89433	0.005
Mof_H 	H 	0.66027	0.12533	0.93393	0.013
Mof_N 	N 	0.74269	0.07205	0.50213	-0.149
Mof_C 	C 	0.66437	0.02453	0.59493	0.008
Mof_H 	H 	0.63527	0.99103	0.61333	0.004
Mof_Ag	Ag	0.26753	0.40294	0.05962	0.548
Mof_N 	N 	0.3363	0.40257	0.96477	-0.179
Mof_C 	C 	0.40673	0.50847	0.26727	-0.007
Mof_H 	H 	0.41063	0.50897	0.33287	0.002
Mof_C 	C 	0.37811	0.44945	0.93807	0.103
Mof_C 	C 	0.39194	0.50303	0.08237	0.11
Mof_C 	C 	0.38433	0.50034	0.97877	-0.254
Mof_H 	H 	0.41553	0.53127	0.94977	0.086
Mof_H 	H 	0.35223	0.50287	0.96397	0.074
Mof_C 	C 	0.44205	0.53359	0.12217	-0.052
Mof_H 	H 	0.47213	0.55267	0.08267	0.032
Mof_N 	N 	0.349	0.47484	0.13517	-0.172
Mof_C 	C 	0.36743	0.35947	0.86387	-0.011
Mof_H 	H 	0.36253	0.32697	0.83897	0.022
Mof_N 	N 	0.4495	0.53713	0.21387	-0.159
Mof_C 	C 	0.41473	0.45037	0.87377	-0.054
Mof_H 	H 	0.44443	0.48387	0.85657	0.028
Mof_C 	C 	0.35683	0.47807	0.22767	0.005
Mof_H 	H 	0.32693	0.45867	0.26727	0.013
Mof_N 	N 	0.40935	0.40539	0.83547	-0.149
Mof_C 	C 	0.33103	0.35787	0.92827	0.008
Mof_H 	H 	0.30193	0.32437	0.94667	0.004
Mof_Ag	Ag	0.26373	0.19793	0.39295	0.548
Mof_N 	N 	0.2641	0.26707	0.2981	-0.179
Mof_C 	C 	0.1582	0.2316	0.6006	-0.007
Mof_H 	H 	0.1577	0.235	0.6662	0.002
Mof_C 	C 	0.21722	0.262	0.2714	0.103
Mof_C 	C 	0.16364	0.22225	0.4157	0.11
Mof_C 	C 	0.16633	0.21733	0.3121	-0.254
Mof_H 	H 	0.1354	0.2176	0.2831	0.086
Mof_H 	H 	0.1638	0.1827	0.2973	0.074
Mof_C 	C 	0.13308	0.2418	0.4555	-0.052
Mof_H 	H 	0.114	0.2528	0.416	0.032
Mof_N 	N 	0.19183	0.2075	0.4685	-0.172
Mof_C 	C 	0.3072	0.3413	0.1972	-0.011
Mof_H 	H 	0.3397	0.3689	0.1723	0.022
Mof_N 	N 	0.12954	0.24571	0.5472	-0.159
Mof_C 	C 	0.2163	0.2977	0.2071	-0.054
Mof_H 	H 	0.1828	0.2939	0.1899	0.028
Mof_C 	C 	0.1886	0.2121	0.561	0.005
Mof_H 	H 	0.208	0.2016	0.6006	0.013
Mof_N 	N 	0.26128	0.3373	0.1688	-0.149
Mof_C 	C 	0.3088	0.3065	0.2616	0.008
Mof_H 	H 	0.3423	0.3109	0.28	0.004
Mof_Ag	Ag	0.9304	0.53126	0.72628	0.548
Mof_N 	N 	0.93077	0.6004	0.63143	-0.179
Mof_C 	C 	0.82487	0.56493	0.93393	-0.007
Mof_H 	H 	0.82437	0.56833	0.99953	0.002
Mof_C 	C 	0.88389	0.59533	0.60473	0.103
Mof_C 	C 	0.83031	0.55558	0.74903	0.11
Mof_C 	C 	0.833	0.55066	0.64543	-0.254
Mof_H 	H 	0.80207	0.55093	0.61643	0.086
Mof_H 	H 	0.83047	0.51603	0.63063	0.074
Mof_C 	C 	0.79975	0.57513	0.78883	-0.052
Mof_H 	H 	0.78067	0.58613	0.74933	0.032
Mof_N 	N 	0.8585	0.54083	0.80183	-0.172
Mof_C 	C 	0.97387	0.67463	0.53053	-0.011
Mof_H 	H 	0.00637	0.70223	0.50563	0.022
Mof_N 	N 	0.79621	0.57904	0.88053	-0.159
Mof_C 	C 	0.88297	0.63103	0.54043	-0.054
Mof_H 	H 	0.84947	0.62723	0.52323	0.028
Mof_C 	C 	0.85527	0.54543	0.89433	0.005
Mof_H 	H 	0.87467	0.53493	0.93393	0.013
Mof_N 	N 	0.92795	0.67063	0.50213	-0.149
Mof_C 	C 	0.97547	0.63983	0.59493	0.008
Mof_H 	H 	0.00897	0.64423	0.61333	0.004
Mof_Ag	Ag	0.59706	0.8646	0.05962	0.548
Mof_N 	N 	0.59743	0.93374	0.96477	-0.179
Mof_C 	C 	0.49153	0.89827	0.26727	-0.007
Mof_H 	H 	0.49103	0.90167	0.33287	0.002
Mof_C 	C 	0.55055	0.92867	0.93807	0.103
Mof_C 	C 	0.49697	0.88892	0.08237	0.11
Mof_C 	C 	0.49966	0.884	0.97877	-0.254
Mof_H 	H 	0.46873	0.88427	0.94977	0.086
Mof_H 	H 	0.49713	0.84937	0.96397	0.074
Mof_C 	C 	0.46641	0.90847	0.12217	-0.052
Mof_H 	H 	0.44733	0.91947	0.08267	0.032
Mof_N 	N 	0.52516	0.87417	0.13517	-0.172
Mof_C 	C 	0.64053	0.00797	0.86387	-0.012
Mof_H 	H 	0.67303	0.03557	0.83897	0.022
Mof_N 	N 	0.46287	0.91238	0.21387	-0.159
Mof_C 	C 	0.54963	0.96437	0.87377	-0.053
Mof_H 	H 	0.51613	0.96057	0.85657	0.028
Mof_C 	C 	0.52193	0.87877	0.22767	0.005
Mof_H 	H 	0.54133	0.86827	0.26727	0.013
Mof_N 	N 	0.59461	0.00397	0.83547	-0.149
Mof_C 	C 	0.64213	0.97317	0.92827	0.008
Mof_H 	H 	0.67563	0.97757	0.94667	0.004
Mof_Ag	Ag	0.19793	0.9342	0.60705	0.548
Mof_N 	N 	0.26707	0.00297	0.7019	-0.179
Mof_C 	C 	0.2316	0.0734	0.3994	-0.007
Mof_H 	H 	0.235	0.0773	0.3338	0.002
Mof_C 	C 	0.262	0.04478	0.7286	0.103
Mof_C 	C 	0.22225	0.05861	0.5843	0.11
Mof_C 	C 	0.21733	0.051	0.6879	-0.254
Mof_H 	H 	0.2176	0.0822	0.7169	0.086
Mof_H 	H 	0.1827	0.0189	0.7027	0.074
Mof_C 	C 	0.2418	0.10872	0.5445	-0.052
Mof_H 	H 	0.2528	0.1388	0.584	0.032
Mof_N 	N 	0.2075	0.01567	0.5315	-0.172
Mof_C 	C 	0.3413	0.0341	0.8028	-0.011
Mof_H 	H 	0.3689	0.0292	0.8277	0.022
Mof_N 	N 	0.24571	0.11617	0.4528	-0.159
Mof_C 	C 	0.2977	0.0814	0.7929	-0.054
Mof_H 	H 	0.2939	0.1111	0.8101	0.028
Mof_C 	C 	0.2121	0.0235	0.439	0.005
Mof_H 	H 	0.2016	0.9936	0.3994	0.013
Mof_N 	N 	0.3373	0.07602	0.8312	-0.149
Mof_C 	C 	0.3065	0.9977	0.7384	0.008
Mof_H 	H 	0.3109	0.9686	0.72	0.004
Mof_Ag	Ag	0.8646	0.26753	0.94038	0.548
Mof_N 	N 	0.93374	0.3363	0.03523	-0.179
Mof_C 	C 	0.89827	0.40673	0.73273	-0.007
Mof_H 	H 	0.90167	0.41063	0.66713	0.002
Mof_C 	C 	0.92867	0.37811	0.06193	0.103
Mof_C 	C 	0.88892	0.39194	0.91763	0.11
Mof_C 	C 	0.884	0.38433	0.02123	-0.254
Mof_H 	H 	0.88427	0.41553	0.05023	0.086
Mof_H 	H 	0.84937	0.35223	0.03603	0.074
Mof_C 	C 	0.90847	0.44205	0.87783	-0.052
Mof_H 	H 	0.91947	0.47213	0.91733	0.032
Mof_N 	N 	0.87417	0.349	0.86483	-0.171
Mof_C 	C 	0.00797	0.36743	0.13613	-0.011
Mof_H 	H 	0.03557	0.36253	0.16103	0.022
Mof_N 	N 	0.91238	0.4495	0.78613	-0.159
Mof_C 	C 	0.96437	0.41473	0.12623	-0.054
Mof_H 	H 	0.96057	0.44443	0.14343	0.028
Mof_C 	C 	0.87877	0.35683	0.77233	0.005
Mof_H 	H 	0.86827	0.32693	0.73273	0.013
Mof_N 	N 	0.00397	0.40935	0.16453	-0.149
Mof_C 	C 	0.97317	0.33103	0.07173	0.008
Mof_H 	H 	0.97757	0.30193	0.05333	0.004
Mof_Ag	Ag	0.53126	0.60087	0.27372	0.548
Mof_N 	N 	0.6004	0.66964	0.36857	-0.179
Mof_C 	C 	0.56493	0.74007	0.06607	-0.007
Mof_H 	H 	0.56833	0.74397	0.00047	0.002
Mof_C 	C 	0.59533	0.71145	0.39527	0.103
Mof_C 	C 	0.55558	0.72528	0.25097	0.11
Mof_C 	C 	0.55066	0.71767	0.35457	-0.254
Mof_H 	H 	0.55093	0.74887	0.38357	0.086
Mof_H 	H 	0.51603	0.68557	0.36937	0.074
Mof_C 	C 	0.57513	0.77539	0.21117	-0.052
Mof_H 	H 	0.58613	0.80547	0.25067	0.032
Mof_N 	N 	0.54083	0.68234	0.19817	-0.172
Mof_C 	C 	0.67463	0.70077	0.46947	-0.011
Mof_H 	H 	0.70223	0.69587	0.49437	0.022
Mof_N 	N 	0.57904	0.78284	0.11947	-0.159
Mof_C 	C 	0.63103	0.74807	0.45957	-0.054
Mof_H 	H 	0.62723	0.77777	0.47677	0.028
Mof_C 	C 	0.54543	0.69017	0.10567	0.005
Mof_H 	H 	0.53493	0.66027	0.06607	0.013
Mof_N 	N 	0.67063	0.74269	0.49787	-0.149
Mof_C 	C 	0.63983	0.66437	0.40507	0.008
Mof_H 	H 	0.64423	0.63527	0.38667	0.004
Mof_Ag	Ag	0.0658	0.26373	0.60705	0.548
Mof_N 	N 	0.99703	0.2641	0.7019	-0.179
Mof_C 	C 	0.9266	0.1582	0.3994	-0.007
Mof_H 	H 	0.9227	0.1577	0.3338	0.002
Mof_C 	C 	0.95522	0.21722	0.7286	0.103
Mof_C 	C 	0.94139	0.16364	0.5843	0.11
Mof_C 	C 	0.949	0.16633	0.6879	-0.254
Mof_H 	H 	0.9178	0.1354	0.7169	0.086
Mof_H 	H 	0.9811	0.1638	0.7027	0.074
Mof_C 	C 	0.89128	0.13308	0.5445	-0.052
Mof_H 	H 	0.8612	0.114	0.584	0.032
Mof_N 	N 	0.98433	0.19183	0.5315	-0.172
Mof_C 	C 	0.9659	0.3072	0.8028	-0.011
Mof_H 	H 	0.9708	0.3397	0.8277	0.022
Mof_N 	N 	0.88383	0.12954	0.4528	-0.159
Mof_C 	C 	0.9186	0.2163	0.7929	-0.054
Mof_H 	H 	0.8889	0.1828	0.8101	0.028
Mof_C 	C 	0.9765	0.1886	0.439	0.005
Mof_H 	H 	0.0064	0.208	0.3994	0.013
Mof_N 	N 	0.92398	0.26128	0.8312	-0.149
Mof_C 	C 	0.0023	0.3088	0.7384	0.008
Mof_H 	H 	0.0314	0.3423	0.72	0.004
Mof_Ag	Ag	0.73247	0.59706	0.94038	0.548
Mof_N 	N 	0.6637	0.59743	0.03523	-0.179
Mof_C 	C 	0.59327	0.49153	0.73273	-0.007
Mof_H 	H 	0.58937	0.49103	0.66713	0.002
Mof_C 	C 	0.62189	0.55055	0.06193	0.103
Mof_C 	C 	0.60806	0.49697	0.91763	0.11
Mof_C 	C 	0.61567	0.49966	0.02123	-0.254
Mof_H 	H 	0.58447	0.46873	0.05023	0.086
Mof_H 	H 	0.64777	0.49713	0.03603	0.074
Mof_C 	C 	0.55795	0.46641	0.87783	-0.052
Mof_H 	H 	0.52787	0.44733	0.91733	0.032
Mof_N 	N 	0.651	0.52516	0.86483	-0.172
Mof_C 	C 	0.63257	0.64053	0.13613	-0.011
Mof_H 	H 	0.63747	0.67303	0.16103	0.022
Mof_N 	N 	0.5505	0.46287	0.78613	-0.159
Mof_C 	C 	0.58527	0.54963	0.12623	-0.054
Mof_H 	H 	0.55557	0.51613	0.14343	0.028
Mof_C 	C 	0.64317	0.52193	0.77233	0.005
Mof_H 	H 	0.67307	0.54133	0.73273	0.013
Mof_N 	N 	0.59065	0.59461	0.16453	-0.149
Mof_C 	C 	0.66897	0.64213	0.07173	0.008
Mof_H 	H 	0.69807	0.67563	0.05333	0.004
Mof_Ag	Ag	0.39913	0.9304	0.27372	0.548
Mof_N 	N 	0.33036	0.93077	0.36857	-0.179
Mof_C 	C 	0.25993	0.82487	0.06607	-0.007
Mof_H 	H 	0.25603	0.82437	0.00047	0.002
Mof_C 	C 	0.28855	0.88389	0.39527	0.103
Mof_C 	C 	0.27472	0.83031	0.25097	0.11
Mof_C 	C 	0.28233	0.833	0.35457	-0.254
Mof_H 	H 	0.25113	0.80207	0.38357	0.086
Mof_H 	H 	0.31443	0.83047	0.36937	0.074
Mof_C 	C 	0.22461	0.79975	0.21117	-0.052
Mof_H 	H 	0.19453	0.78067	0.25067	0.032
Mof_N 	N 	0.31766	0.8585	0.19817	-0.172
Mof_C 	C 	0.29923	0.97387	0.46947	-0.011
Mof_H 	H 	0.30413	0.00637	0.49437	0.022
Mof_N 	N 	0.21716	0.79621	0.11947	-0.159
Mof_C 	C 	0.25193	0.88297	0.45957	-0.054
Mof_H 	H 	0.22223	0.84947	0.47677	0.028
Mof_C 	C 	0.30983	0.85527	0.10567	0.005
Mof_H 	H 	0.33973	0.87467	0.06607	0.013
Mof_N 	N 	0.25731	0.92795	0.49787	-0.149
Mof_C 	C 	0.33563	0.97547	0.40507	0.008
Mof_H 	H 	0.36473	0.00897	0.38667	0.004
Mof_Ag	Ag	0.73627	0.80207	0.60705	0.548
Mof_N 	N 	0.7359	0.73293	0.7019	-0.179
Mof_C 	C 	0.8418	0.7684	0.3994	-0.007
Mof_H 	H 	0.8423	0.765	0.3338	0.002
Mof_C 	C 	0.78278	0.738	0.7286	0.103
Mof_C 	C 	0.83636	0.77775	0.5843	0.11
Mof_C 	C 	0.83367	0.78267	0.6879	-0.254
Mof_H 	H 	0.8646	0.7824	0.7169	0.086
Mof_H 	H 	0.8362	0.8173	0.7027	0.074
Mof_C 	C 	0.86692	0.7582	0.5445	-0.052
Mof_H 	H 	0.886	0.7472	0.584	0.032
Mof_N 	N 	0.80817	0.7925	0.5315	-0.172
Mof_C 	C 	0.6928	0.6587	0.8028	-0.011
Mof_H 	H 	0.6603	0.6311	0.8277	0.022
Mof_N 	N 	0.87046	0.75429	0.4528	-0.159
Mof_C 	C 	0.7837	0.7023	0.7929	-0.054
Mof_H 	H 	0.8172	0.7061	0.8101	0.028
Mof_C 	C 	0.8114	0.7879	0.439	0.005
Mof_H 	H 	0.792	0.7984	0.3994	0.013
Mof_N 	N 	0.73872	0.6627	0.8312	-0.149
Mof_C 	C 	0.6912	0.6935	0.7384	0.008
Mof_H 	H 	0.6577	0.6891	0.72	0.004
Mof_Ag	Ag	0.40294	0.1354	0.94038	0.548
Mof_N 	N 	0.40257	0.06626	0.03523	-0.179
Mof_C 	C 	0.50847	0.10173	0.73273	-0.007
Mof_H 	H 	0.50897	0.09833	0.66713	0.002
Mof_C 	C 	0.44945	0.07133	0.06193	0.103
Mof_C 	C 	0.50303	0.11108	0.91763	0.11
Mof_C 	C 	0.50034	0.116	0.02123	-0.254
Mof_H 	H 	0.53127	0.11573	0.05023	0.086
Mof_H 	H 	0.50287	0.15063	0.03603	0.074
Mof_C 	C 	0.53359	0.09153	0.87783	-0.052
Mof_H 	H 	0.55267	0.08053	0.91733	0.032
Mof_N 	N 	0.47484	0.12583	0.86483	-0.172
Mof_C 	C 	0.35947	0.99203	0.13613	-0.012
Mof_H 	H 	0.32697	0.96443	0.16103	0.022
Mof_N 	N 	0.53713	0.08762	0.78613	-0.159
Mof_C 	C 	0.45037	0.03563	0.12623	-0.053
Mof_H 	H 	0.48387	0.03943	0.14343	0.028
Mof_C 	C 	0.47807	0.12123	0.77233	0.005
Mof_H 	H 	0.45867	0.13173	0.73273	0.013
Mof_N 	N 	0.40539	0.99603	0.16453	-0.149
Mof_C 	C 	0.35787	0.02683	0.07173	0.008
Mof_H 	H 	0.32437	0.02243	0.05333	0.004
Mof_Ag	Ag	0.0696	0.46874	0.27372	0.548
Mof_N 	N 	0.06923	0.3996	0.36857	-0.179
Mof_C 	C 	0.17513	0.43507	0.06607	-0.007
Mof_H 	H 	0.17563	0.43167	0.00047	0.002
Mof_C 	C 	0.11611	0.40467	0.39527	0.103
Mof_C 	C 	0.16969	0.44442	0.25097	0.11
Mof_C 	C 	0.167	0.44934	0.35457	-0.254
Mof_H 	H 	0.19793	0.44907	0.38357	0.086
Mof_H 	H 	0.16953	0.48397	0.36937	0.074
Mof_C 	C 	0.20025	0.42487	0.21117	-0.052
Mof_H 	H 	0.21933	0.41387	0.25067	0.032
Mof_N 	N 	0.1415	0.45917	0.19817	-0.172
Mof_C 	C 	0.02613	0.32537	0.46947	-0.011
Mof_H 	H 	0.99363	0.29777	0.49437	0.022
Mof_N 	N 	0.20379	0.42096	0.11947	-0.159
Mof_C 	C 	0.11703	0.36897	0.45957	-0.054
Mof_H 	H 	0.15053	0.37277	0.47677	0.028
Mof_C 	C 	0.14473	0.45457	0.10567	0.005
Mof_H 	H 	0.12533	0.46507	0.06607	0.013
Mof_N 	N 	0.07205	0.32937	0.49787	-0.149
Mof_C 	C 	0.02453	0.36017	0.40507	0.008
Mof_H 	H 	0.99103	0.35577	0.38667	0.004
_end
