# CIF file generated by openbabel 3.1.0, see https://openbabel.org
data_I
_chemical_name_common 'cg500192d_si_003_clean'
_cell_length_a 14.05
_cell_length_b 20.156
_cell_length_c 20.378
_cell_angle_alpha 90
_cell_angle_beta 101.717
_cell_angle_gamma 90
_space_group_name_H-M_alt 'P 1'
_space_group_name_Hall 'P 1'
loop_
    _symmetry_equiv_pos_as_xyz
    x,y,z
loop_
    _atom_site_label
    _atom_site_type_symbol
    _atom_site_fract_x
    _atom_site_fract_y
    _atom_site_fract_z
    _atom_site_occupancy
    Cd1      Cd       0.10294    0.04019    0.03415    1.000
    Cd2      Cd       0.10294    0.45981    0.53415    1.000
    Cd3      Cd       0.89706    0.54019    0.46585    1.000
    Cd4      Cd       0.89706    0.95981    0.96585    1.000
    H1       H        0.05060    0.20850    0.87870    1.000
    H2       H        0.75530    0.43180    0.57860    1.000
    H3       H        0.54320    0.99580    0.95190    1.000
    H4       H        0.80310    0.39070    0.31020    1.000
    H5       H        0.00060    0.29110    0.79930    1.000
    H6       H        0.45060    0.79750    0.85590    1.000
    H7       H        0.45680    0.49580    0.54810    1.000
    H8       H        0.99940    0.70890    0.20070    1.000
    H9       H        0.45680    0.00420    0.04810    1.000
    H10      H        0.75530    0.06820    0.07860    1.000
    H11      H        0.45060    0.70250    0.35590    1.000
    H12      H        0.05060    0.29150    0.37870    1.000
    H13      H        0.38560    0.17640    0.11440    1.000
    H14      H        0.54940    0.20250    0.14410    1.000
    H15      H        0.24730    0.69050    0.76530    1.000
    H16      H        0.02990    0.82460    0.81270    1.000
    H17      H        0.94940    0.70850    0.62130    1.000
    H18      H        0.80310    0.10930    0.81020    1.000
    H19      H        0.54320    0.50420    0.45190    1.000
    H20      H        0.38480    0.52920    0.41810    1.000
    H21      H        0.61440    0.82360    0.88560    1.000
    H22      H        0.69560    0.20220    0.20840    1.000
    H23      H        0.97010    0.32460    0.68730    1.000
    H24      H        0.61440    0.67640    0.38560    1.000
    H25      H        0.54940    0.29750    0.64410    1.000
    H26      H        0.24470    0.56820    0.42140    1.000
    H27      H        0.97010    0.17540    0.18730    1.000
    H28      H        0.61520    0.47080    0.58190    1.000
    H29      H        0.19690    0.60930    0.68980    1.000
    H30      H        0.94940    0.79150    0.12130    1.000
    H31      H        0.24470    0.93180    0.92140    1.000
    H32      H        0.00060    0.20890    0.29930    1.000
    H33      H        0.75270    0.19050    0.73470    1.000
    H34      H        0.75270    0.30950    0.23470    1.000
    H35      H        0.19690    0.89070    0.18980    1.000
    H36      H        0.61520    0.02920    0.08190    1.000
    H37      H        0.69560    0.29780    0.70840    1.000
    H38      H        0.30440    0.70220    0.29160    1.000
    H39      H        0.02990    0.67540    0.31270    1.000
    H40      H        0.38560    0.32360    0.61440    1.000
    H41      H        0.24730    0.80950    0.26530    1.000
    H42      H        0.38480    0.97080    0.91810    1.000
    H43      H        0.99940    0.79110    0.70070    1.000
    H44      H        0.30440    0.79780    0.79160    1.000
    C1       C        0.43230    0.14500    0.10970    1.000
    C2       C        0.46880    0.66030    0.37220    1.000
    C3       C        0.83750    0.19880    0.20610    1.000
    C4       C        0.70180    0.93490    0.93590    1.000
    C5       C        0.03930    0.75470    0.69850    1.000
    C6       C        0.56990    0.44040    0.59120    1.000
    C7       C        0.81330    0.30580    0.26310    1.000
    C8       C        0.22460    0.89860    0.88990    1.000
    C9       C        0.87090    0.24990    0.75730    1.000
    C10      C        0.52690    0.95640    0.92850    1.000
    C11      C        0.00910    0.79510    0.15080    1.000
    C12      C        0.09570    0.66540    0.32480    1.000
    C13      C        0.53120    0.33970    0.62780    1.000
    C14      C        0.59610    0.91930    0.91610    1.000
    C15      C        0.25980    0.68110    0.31250    1.000
    C16      C        0.60330    0.38520    0.62230    1.000
    C17      C        0.09570    0.83460    0.82480    1.000
    C18      C        0.93320    0.15120    0.85240    1.000
    C19      C        0.99090    0.20490    0.84920    1.000
    C20      C        0.59610    0.58070    0.41610    1.000
    C21      C        0.06680    0.65120    0.64760    1.000
    C22      C        0.29820    0.06510    0.06410    1.000
    C23      C        0.94310    0.41620    0.59040    1.000
    C24      C        0.39670    0.61480    0.37770    1.000
    C25      C        0.12910    0.74990    0.74270    1.000
    C26      C        0.18670    0.80580    0.23690    1.000
    C27      C        0.90430    0.16540    0.17520    1.000
    C28      C        0.47310    0.04360    0.07150    1.000
    C29      C        0.56990    0.05960    0.09120    1.000
    C30      C        0.18670    0.69420    0.73690    1.000
    C31      C        0.12730    0.61760    0.37340    1.000
    C32      C        0.29360    0.63330    0.36090    1.000
    C33      C        0.70640    0.36670    0.63910    1.000
    C34      C        0.60330    0.11480    0.12230    1.000
    C35      C        0.56770    0.85500    0.89030    1.000
    C36      C        0.40390    0.41930    0.58390    1.000
    C37      C        0.29820    0.43490    0.56410    1.000
    C38      C        0.53120    0.16030    0.12780    1.000
    C39      C        0.96330    0.40360    0.40500    1.000
    C40      C        0.96330    0.09640    0.90500    1.000
    C41      C        0.39670    0.88520    0.87770    1.000
    C42      C        0.05690    0.58380    0.40960    1.000
    C43      C        0.43010    0.94040    0.90880    1.000
    C44      C        0.03670    0.90360    0.09500    1.000
    C45      C        0.99090    0.29510    0.34920    1.000
    C46      C        0.16250    0.69880    0.29390    1.000
    C47      C        0.06680    0.84880    0.14760    1.000
    C48      C        0.47310    0.45640    0.57150    1.000
    C49      C        0.87090    0.25010    0.25730    1.000
    C50      C        0.56770    0.64500    0.39030    1.000
    C51      C        0.84260    0.35400    0.30820    1.000
    C52      C        0.52690    0.54360    0.42850    1.000
    C53      C        0.87270    0.38240    0.62660    1.000
    C54      C        0.25980    0.81890    0.81250    1.000
    C55      C        0.15740    0.85400    0.19180    1.000
    C56      C        0.40390    0.08070    0.08390    1.000
    C57      C        0.81330    0.19420    0.76310    1.000
    C58      C        0.15740    0.64600    0.69180    1.000
    C59      C        0.87270    0.11760    0.12660    1.000
    C60      C        0.05690    0.91620    0.90960    1.000
    C61      C        0.43230    0.35500    0.60970    1.000
    C62      C        0.22460    0.60140    0.38990    1.000
    C63      C        0.43010    0.55960    0.40880    1.000
    C64      C        0.74020    0.31890    0.68750    1.000
    C65      C        0.70180    0.56510    0.43590    1.000
    C66      C        0.03670    0.59640    0.59500    1.000
    C67      C        0.46880    0.83970    0.87220    1.000
    C68      C        0.03930    0.74530    0.19850    1.000
    C69      C        0.12910    0.75010    0.24270    1.000
    C70      C        0.96070    0.25470    0.80150    1.000
    C71      C        0.77540    0.39860    0.61010    1.000
    C72      C        0.83750    0.30120    0.70610    1.000
    C73      C        0.00910    0.70490    0.65080    1.000
    C74      C        0.12730    0.88240    0.87340    1.000
    C75      C        0.94310    0.08380    0.09040    1.000
    C76      C        0.74020    0.18110    0.18750    1.000
    C77      C        0.77540    0.10140    0.11010    1.000
    C78      C        0.29360    0.86670    0.86090    1.000
    C79      C        0.16250    0.80120    0.79390    1.000
    C80      C        0.90430    0.33460    0.67520    1.000
    C81      C        0.96070    0.24530    0.30150    1.000
    C82      C        0.84260    0.14600    0.80820    1.000
    C83      C        0.93320    0.34880    0.35240    1.000
    C84      C        0.70640    0.13330    0.13910    1.000
    O1       O        0.72800    0.51950    0.46920    1.000
    O2       O        0.09340    0.54970    0.59750    1.000
    O3       O        0.72800    0.98050    0.96920    1.000
    O4       O        0.04270    0.39450    0.44600    1.000
    O5       O        0.97000    0.89710    0.89740    1.000
    O6       O        0.23840    0.10290    0.07970    1.000
    O7       O        0.91100    0.03960    0.04900    1.000
    O8       O        0.76160    0.60290    0.42030    1.000
    O9       O        0.03000    0.39710    0.60260    1.000
    O10      O        0.23840    0.39710    0.57970    1.000
    O11      O        0.90660    0.45030    0.40250    1.000
    O12      O        0.27200    0.01950    0.03080    1.000
    O13      O        0.03000    0.10290    0.10260    1.000
    O14      O        0.08900    0.53960    0.45100    1.000
    O15      O        0.09340    0.95030    0.09750    1.000
    O16      O        0.27200    0.48050    0.53080    1.000
    O17      O        0.08900    0.96040    0.95100    1.000
    O18      O        0.76160    0.89710    0.92030    1.000
    O19      O        0.90660    0.04970    0.90250    1.000
    O20      O        0.97000    0.60290    0.39740    1.000
    O21      O        0.04270    0.10550    0.94600    1.000
    O22      O        0.95730    0.60550    0.55400    1.000
    O23      O        0.95730    0.89450    0.05400    1.000
    O24      O        0.91100    0.46040    0.54900    1.000
