data_functionalizedCrystal
_audit_creation_method	'EQeq! by Chris Wilmer'
_symmetry_space_group_name_H-M	'P1'
_symmetry_Int_Tables_number	1
_symmetry_cell_setting	triclinic
loop_
_symmetry_equiv_pos_as_xyz
  x,y,z
_cell_length_a	14.517
_cell_length_b	25.63
_cell_length_c	26.6
_cell_angle_alpha	90
_cell_angle_beta	90
_cell_angle_gamma	90
loop_
_atom_site_label
_atom_site_type_symbol
_atom_site_fract_x
_atom_site_fract_y
_atom_site_fract_z
_atom_site_charge
Mof_Tb	Tb	0.85151	0.60275	0.18427	2.057
Mof_Tb	Tb	0.85151	0.89725	0.81573	2.056
Mof_Tb	Tb	0.64849	0.89725	0.68427	2.057
Mof_Tb	Tb	0.64849	0.60275	0.31573	2.057
Mof_Tb	Tb	0.14849	0.39725	0.81573	2.057
Mof_Tb	Tb	0.14849	0.10275	0.18427	2.056
Mof_Tb	Tb	0.35151	0.10275	0.31573	2.057
Mof_Tb	Tb	0.35151	0.39725	0.68427	2.057
Mof_C 	C 	0.0965	0.38	0.3845	0.137
Mof_C 	C 	0.1517	0.3913	0.4299	-0.03
Mof_C 	C 	0.1112	0.4124	0.4727	0.144
Mof_C 	C 	0.1651	0.4247	0.5142	0.183
Mof_C 	C 	0.2596	0.416	0.5129	-0.105
Mof_C 	C 	0.3001	0.3949	0.4702	0.173
Mof_C 	C 	0.2462	0.3826	0.4287	0.133
Mof_C 	C 	0.0325	0.4203	0.3626	-0.009
Mof_C 	C 	0.0595	0.4722	0.3544	0.123
Mof_C 	C 	0.9995	0.5081	0.3332	0.219
Mof_C 	C 	0.9084	0.4954	0.3208	-0.215
Mof_C 	C 	0.879	0.4451	0.3309	0.224
Mof_C 	C 	0.9409	0.4083	0.3512	0.114
Mof_C 	C 	0.1021	0.329	0.3587	-0.029
Mof_C 	C 	0.1004	0.2845	0.387	0.132
Mof_C 	C 	0.1116	0.3253	0.307	0.134
Mof_C 	C 	0.1119	0.2339	0.364	0.197
Mof_C 	C 	0.1247	0.2758	0.2838	0.195
Mof_C 	C 	0.8453	0.5344	0.2971	0.627
Mof_C 	C 	0.1561	0.1783	0.2867	0.543
Mof_C 	C 	0.3228	0.4332	0.5597	0.425
Mof_C 	C 	0.1313	0.23	0.3115	-0.167
Mof_C 	C 	0.0965	0.12	0.6155	0.138
Mof_C 	C 	0.1517	0.1087	0.5701	-0.03
Mof_C 	C 	0.1112	0.0876	0.5273	0.143
Mof_C 	C 	0.1651	0.0753	0.4858	0.183
Mof_C 	C 	0.2596	0.084	0.4871	-0.105
Mof_C 	C 	0.3001	0.1051	0.5298	0.173
Mof_C 	C 	0.2462	0.1174	0.5713	0.133
Mof_C 	C 	0.0325	0.0797	0.6374	-0.011
Mof_C 	C 	0.0595	0.0278	0.6456	0.125
Mof_C 	C 	0.9995	0.9919	0.6668	0.214
Mof_C 	C 	0.9084	0.0046	0.6792	-0.21
Mof_C 	C 	0.879	0.0549	0.6691	0.222
Mof_C 	C 	0.9409	0.0917	0.6488	0.117
Mof_C 	C 	0.1021	0.171	0.6413	-0.03
Mof_C 	C 	0.1004	0.2155	0.613	0.132
Mof_C 	C 	0.1116	0.1747	0.693	0.134
Mof_C 	C 	0.1119	0.2661	0.636	0.197
Mof_C 	C 	0.1247	0.2242	0.7162	0.195
Mof_C 	C 	0.8453	0.9656	0.7029	0.624
Mof_C 	C 	0.1561	0.3217	0.7133	0.543
Mof_C 	C 	0.3228	0.0668	0.4403	0.425
Mof_C 	C 	0.1313	0.27	0.6885	-0.167
Mof_C 	C 	0.4035	0.12	0.8845	0.138
Mof_C 	C 	0.3483	0.1087	0.9299	-0.03
Mof_C 	C 	0.3888	0.0876	0.9727	0.145
Mof_C 	C 	0.3349	0.0753	0.0142	0.182
Mof_C 	C 	0.2404	0.084	0.0129	-0.106
Mof_C 	C 	0.1999	0.1051	0.9702	0.174
Mof_C 	C 	0.2538	0.1174	0.9287	0.133
Mof_C 	C 	0.4675	0.0797	0.8626	-0.009
Mof_C 	C 	0.4405	0.0278	0.8544	0.124
Mof_C 	C 	0.5005	0.9919	0.8332	0.217
Mof_C 	C 	0.5916	0.0046	0.8208	-0.213
Mof_C 	C 	0.621	0.0549	0.8309	0.224
Mof_C 	C 	0.5591	0.0917	0.8512	0.114
Mof_C 	C 	0.3979	0.171	0.8587	-0.029
Mof_C 	C 	0.3996	0.2155	0.887	0.132
Mof_C 	C 	0.3884	0.1747	0.807	0.134
Mof_C 	C 	0.3881	0.2661	0.864	0.197
Mof_C 	C 	0.3753	0.2242	0.7838	0.195
Mof_C 	C 	0.6547	0.9656	0.7971	0.625
Mof_C 	C 	0.3439	0.3217	0.7867	0.543
Mof_C 	C 	0.1772	0.0668	0.0597	0.425
Mof_C 	C 	0.3687	0.27	0.8115	-0.167
Mof_C 	C 	0.4035	0.38	0.1155	0.137
Mof_C 	C 	0.3483	0.3913	0.0701	-0.03
Mof_C 	C 	0.3888	0.4124	0.0273	0.144
Mof_C 	C 	0.3349	0.4247	0.9858	0.183
Mof_C 	C 	0.2404	0.416	0.9871	-0.105
Mof_C 	C 	0.1999	0.3949	0.0298	0.173
Mof_C 	C 	0.2538	0.3826	0.0713	0.133
Mof_C 	C 	0.4675	0.4203	0.1374	-0.008
Mof_C 	C 	0.4405	0.4722	0.1456	0.123
Mof_C 	C 	0.5005	0.5081	0.1668	0.219
Mof_C 	C 	0.5916	0.4954	0.1792	-0.215
Mof_C 	C 	0.621	0.4451	0.1691	0.224
Mof_C 	C 	0.5591	0.4083	0.1488	0.114
Mof_C 	C 	0.3979	0.329	0.1413	-0.029
Mof_C 	C 	0.3996	0.2845	0.113	0.132
Mof_C 	C 	0.3884	0.3253	0.193	0.134
Mof_C 	C 	0.3881	0.2339	0.136	0.197
Mof_C 	C 	0.3753	0.2758	0.2162	0.195
Mof_C 	C 	0.6547	0.5344	0.2029	0.627
Mof_C 	C 	0.3439	0.1783	0.2133	0.543
Mof_C 	C 	0.1772	0.4332	0.9403	0.425
Mof_C 	C 	0.3687	0.23	0.1885	-0.167
Mof_C 	C 	0.9035	0.62	0.6155	0.137
Mof_C 	C 	0.8483	0.6087	0.5701	-0.03
Mof_C 	C 	0.8888	0.5876	0.5273	0.144
Mof_C 	C 	0.8349	0.5753	0.4858	0.183
Mof_C 	C 	0.7404	0.584	0.4871	-0.105
Mof_C 	C 	0.6999	0.6051	0.5298	0.173
Mof_C 	C 	0.7538	0.6174	0.5713	0.133
Mof_C 	C 	0.9675	0.5797	0.6374	-0.009
Mof_C 	C 	0.9405	0.5278	0.6456	0.123
Mof_C 	C 	0.0005	0.4919	0.6668	0.219
Mof_C 	C 	0.0916	0.5046	0.6792	-0.215
Mof_C 	C 	0.121	0.5549	0.6691	0.224
Mof_C 	C 	0.0591	0.5917	0.6488	0.114
Mof_C 	C 	0.8979	0.671	0.6413	-0.029
Mof_C 	C 	0.8996	0.7155	0.613	0.132
Mof_C 	C 	0.8884	0.6747	0.693	0.134
Mof_C 	C 	0.8881	0.7661	0.636	0.197
Mof_C 	C 	0.8753	0.7242	0.7162	0.195
Mof_C 	C 	0.1547	0.4656	0.7029	0.627
Mof_C 	C 	0.8439	0.8217	0.7133	0.543
Mof_C 	C 	0.6772	0.5668	0.4403	0.425
Mof_C 	C 	0.8687	0.77	0.6885	-0.167
Mof_C 	C 	0.9035	0.88	0.3845	0.138
Mof_C 	C 	0.8483	0.8913	0.4299	-0.03
Mof_C 	C 	0.8888	0.9124	0.4727	0.143
Mof_C 	C 	0.8349	0.9247	0.5142	0.183
Mof_C 	C 	0.7404	0.916	0.5129	-0.105
Mof_C 	C 	0.6999	0.8949	0.4702	0.173
Mof_C 	C 	0.7538	0.8826	0.4287	0.133
Mof_C 	C 	0.9675	0.9203	0.3626	-0.011
Mof_C 	C 	0.9405	0.9722	0.3544	0.125
Mof_C 	C 	0.0005	0.0081	0.3332	0.214
Mof_C 	C 	0.0916	0.9954	0.3208	-0.21
Mof_C 	C 	0.121	0.9451	0.3309	0.222
Mof_C 	C 	0.0591	0.9083	0.3512	0.117
Mof_C 	C 	0.8979	0.829	0.3587	-0.03
Mof_C 	C 	0.8996	0.7845	0.387	0.132
Mof_C 	C 	0.8884	0.8253	0.307	0.134
Mof_C 	C 	0.8881	0.7339	0.364	0.197
Mof_C 	C 	0.8753	0.7758	0.2838	0.195
Mof_C 	C 	0.1547	0.0344	0.2971	0.624
Mof_C 	C 	0.8439	0.6783	0.2867	0.543
Mof_C 	C 	0.6772	0.9332	0.5597	0.425
Mof_C 	C 	0.8687	0.73	0.3115	-0.167
Mof_C 	C 	0.5965	0.88	0.1155	0.138
Mof_C 	C 	0.6517	0.8913	0.0701	-0.03
Mof_C 	C 	0.6112	0.9124	0.0273	0.145
Mof_C 	C 	0.6651	0.9247	0.9858	0.182
Mof_C 	C 	0.7596	0.916	0.9871	-0.106
Mof_C 	C 	0.8001	0.8949	0.0298	0.174
Mof_C 	C 	0.7462	0.8826	0.0713	0.133
Mof_C 	C 	0.5325	0.9203	0.1374	-0.009
Mof_C 	C 	0.5595	0.9722	0.1456	0.124
Mof_C 	C 	0.4995	0.0081	0.1668	0.217
Mof_C 	C 	0.4084	0.9954	0.1792	-0.213
Mof_C 	C 	0.379	0.9451	0.1691	0.224
Mof_C 	C 	0.4409	0.9083	0.1488	0.114
Mof_C 	C 	0.6021	0.829	0.1413	-0.029
Mof_C 	C 	0.6004	0.7845	0.113	0.132
Mof_C 	C 	0.6116	0.8253	0.193	0.134
Mof_C 	C 	0.6119	0.7339	0.136	0.197
Mof_C 	C 	0.6247	0.7758	0.2162	0.195
Mof_C 	C 	0.3453	0.0344	0.2029	0.625
Mof_C 	C 	0.6561	0.6783	0.2133	0.543
Mof_C 	C 	0.8228	0.9332	0.9403	0.425
Mof_C 	C 	0.6313	0.73	0.1885	-0.167
Mof_C 	C 	0.5965	0.62	0.8845	0.137
Mof_C 	C 	0.6517	0.6087	0.9299	-0.03
Mof_C 	C 	0.6112	0.5876	0.9727	0.144
Mof_C 	C 	0.6651	0.5753	0.0142	0.183
Mof_C 	C 	0.7596	0.584	0.0129	-0.105
Mof_C 	C 	0.8001	0.6051	0.9702	0.173
Mof_C 	C 	0.7462	0.6174	0.9287	0.133
Mof_C 	C 	0.5325	0.5797	0.8626	-0.008
Mof_C 	C 	0.5595	0.5278	0.8544	0.123
Mof_C 	C 	0.4995	0.4919	0.8332	0.219
Mof_C 	C 	0.4084	0.5046	0.8208	-0.215
Mof_C 	C 	0.379	0.5549	0.8309	0.224
Mof_C 	C 	0.4409	0.5917	0.8512	0.114
Mof_C 	C 	0.6021	0.671	0.8587	-0.029
Mof_C 	C 	0.6004	0.7155	0.887	0.132
Mof_C 	C 	0.6116	0.6747	0.807	0.134
Mof_C 	C 	0.6119	0.7661	0.864	0.197
Mof_C 	C 	0.6247	0.7242	0.7838	0.195
Mof_C 	C 	0.3453	0.4656	0.7971	0.627
Mof_C 	C 	0.6561	0.8217	0.7867	0.543
Mof_C 	C 	0.8228	0.5668	0.0597	0.425
Mof_C 	C 	0.6313	0.77	0.8115	-0.167
Mof_Cl	Cl	0.996	0.42222	0.477	-0.179
Mof_Cl	Cl	0.1706	0.49045	0.3662	-0.203
Mof_Cl	Cl	0.1179	0.45481	0.56627	-0.209
Mof_Cl	Cl	0.0342	0.57129	0.32416	-0.238
Mof_Cl	Cl	0.4178	0.3844	0.47106	-0.22
Mof_Cl	Cl	0.8979	0.34656	0.36534	-0.187
Mof_Cl	Cl	0.3013	0.36044	0.37556	-0.193
Mof_Cl	Cl	0.7686	0.4277	0.31684	-0.234
Mof_Cl	Cl	0.124	0.37995	0.2688	-0.189
Mof_Cl	Cl	0.0757	0.28465	0.44946	-0.182
Mof_Cl	Cl	0.1059	0.17809	0.39832	-0.217
Mof_Cl	Cl	0.1445	0.27314	0.21868	-0.244
Mof_Cl	Cl	0.996	0.07778	0.523	-0.178
Mof_Cl	Cl	0.1706	0.00955	0.6338	-0.204
Mof_Cl	Cl	0.1179	0.04519	0.43373	-0.21
Mof_Cl	Cl	0.0342	0.92871	0.67584	-0.235
Mof_Cl	Cl	0.4178	0.1156	0.52894	-0.22
Mof_Cl	Cl	0.8979	0.15344	0.63466	-0.187
Mof_Cl	Cl	0.3013	0.13956	0.62444	-0.193
Mof_Cl	Cl	0.7686	0.0723	0.68316	-0.233
Mof_Cl	Cl	0.124	0.12005	0.7312	-0.19
Mof_Cl	Cl	0.0757	0.21535	0.55054	-0.182
Mof_Cl	Cl	0.1059	0.32191	0.60168	-0.216
Mof_Cl	Cl	0.1445	0.22686	0.78132	-0.244
Mof_Cl	Cl	0.504	0.07778	0.977	-0.179
Mof_Cl	Cl	0.3294	0.00955	0.8662	-0.203
Mof_Cl	Cl	0.3821	0.04519	0.06627	-0.209
Mof_Cl	Cl	0.4658	0.92871	0.82416	-0.238
Mof_Cl	Cl	0.0822	0.1156	0.97106	-0.221
Mof_Cl	Cl	0.6021	0.15344	0.86534	-0.187
Mof_Cl	Cl	0.1987	0.13956	0.87556	-0.193
Mof_Cl	Cl	0.7314	0.0723	0.81684	-0.233
Mof_Cl	Cl	0.376	0.12005	0.7688	-0.189
Mof_Cl	Cl	0.4243	0.21535	0.94946	-0.182
Mof_Cl	Cl	0.3941	0.32191	0.89832	-0.216
Mof_Cl	Cl	0.3555	0.22686	0.71868	-0.244
Mof_Cl	Cl	0.504	0.42222	0.023	-0.18
Mof_Cl	Cl	0.3294	0.49045	0.1338	-0.203
Mof_Cl	Cl	0.3821	0.45481	0.93373	-0.209
Mof_Cl	Cl	0.4658	0.57129	0.17584	-0.238
Mof_Cl	Cl	0.0822	0.3844	0.02894	-0.221
Mof_Cl	Cl	0.6021	0.34656	0.13466	-0.187
Mof_Cl	Cl	0.1987	0.36044	0.12444	-0.193
Mof_Cl	Cl	0.7314	0.4277	0.18316	-0.234
Mof_Cl	Cl	0.376	0.37995	0.2312	-0.189
Mof_Cl	Cl	0.4243	0.28465	0.05054	-0.182
Mof_Cl	Cl	0.3941	0.17809	0.10168	-0.216
Mof_Cl	Cl	0.3555	0.27314	0.28132	-0.244
Mof_Cl	Cl	0.004	0.57778	0.523	-0.179
Mof_Cl	Cl	0.8294	0.50955	0.6338	-0.203
Mof_Cl	Cl	0.8821	0.54519	0.43373	-0.209
Mof_Cl	Cl	0.9658	0.42871	0.67584	-0.238
Mof_Cl	Cl	0.5822	0.6156	0.52894	-0.22
Mof_Cl	Cl	0.1021	0.65344	0.63466	-0.187
Mof_Cl	Cl	0.6987	0.63956	0.62444	-0.193
Mof_Cl	Cl	0.2314	0.5723	0.68316	-0.234
Mof_Cl	Cl	0.876	0.62005	0.7312	-0.189
Mof_Cl	Cl	0.9243	0.71535	0.55054	-0.182
Mof_Cl	Cl	0.8941	0.82191	0.60168	-0.217
Mof_Cl	Cl	0.8555	0.72686	0.78132	-0.244
Mof_Cl	Cl	0.004	0.92222	0.477	-0.178
Mof_Cl	Cl	0.8294	0.99045	0.3662	-0.204
Mof_Cl	Cl	0.8821	0.95481	0.56627	-0.21
Mof_Cl	Cl	0.9658	0.07129	0.32416	-0.235
Mof_Cl	Cl	0.5822	0.8844	0.47106	-0.22
Mof_Cl	Cl	0.1021	0.84656	0.36534	-0.187
Mof_Cl	Cl	0.6987	0.86044	0.37556	-0.193
Mof_Cl	Cl	0.2314	0.9277	0.31684	-0.233
Mof_Cl	Cl	0.876	0.87995	0.2688	-0.19
Mof_Cl	Cl	0.9243	0.78465	0.44946	-0.182
Mof_Cl	Cl	0.8941	0.67809	0.39832	-0.216
Mof_Cl	Cl	0.8555	0.77314	0.21868	-0.244
Mof_Cl	Cl	0.496	0.92222	0.023	-0.179
Mof_Cl	Cl	0.6706	0.99045	0.1338	-0.203
Mof_Cl	Cl	0.6179	0.95481	0.93373	-0.209
Mof_Cl	Cl	0.5342	0.07129	0.17584	-0.238
Mof_Cl	Cl	0.9178	0.8844	0.02894	-0.221
Mof_Cl	Cl	0.3979	0.84656	0.13466	-0.187
Mof_Cl	Cl	0.8013	0.86044	0.12444	-0.193
Mof_Cl	Cl	0.2686	0.9277	0.18316	-0.233
Mof_Cl	Cl	0.624	0.87995	0.2312	-0.189
Mof_Cl	Cl	0.5757	0.78465	0.05054	-0.182
Mof_Cl	Cl	0.6059	0.67809	0.10168	-0.216
Mof_Cl	Cl	0.6445	0.77314	0.28132	-0.244
Mof_Cl	Cl	0.496	0.57778	0.977	-0.18
Mof_Cl	Cl	0.6706	0.50955	0.8662	-0.203
Mof_Cl	Cl	0.6179	0.54519	0.06627	-0.209
Mof_Cl	Cl	0.5342	0.42871	0.82416	-0.238
Mof_Cl	Cl	0.9178	0.6156	0.97106	-0.221
Mof_Cl	Cl	0.3979	0.65344	0.86534	-0.187
Mof_Cl	Cl	0.8013	0.63956	0.87556	-0.193
Mof_Cl	Cl	0.2686	0.5723	0.81684	-0.234
Mof_Cl	Cl	0.624	0.62005	0.7688	-0.189
Mof_Cl	Cl	0.5757	0.71535	0.94946	-0.182
Mof_Cl	Cl	0.6059	0.82191	0.89832	-0.216
Mof_Cl	Cl	0.6445	0.72686	0.71868	-0.244
Mof_O 	O 	0.8648	0.5492	0.2542	-0.559
Mof_O 	O 	0.7791	0.5498	0.3224	-0.509
Mof_O 	O 	0.3197	0.3994	0.596	-0.431
Mof_O 	O 	0.1055	0.162	0.2525	-0.471
Mof_O 	O 	0.2291	0.1589	0.3057	-0.514
Mof_O 	O 	0.3614	0.4746	0.5575	-0.226
Mof_O 	O 	0.8648	0.9508	0.7458	-0.559
Mof_O 	O 	0.7791	0.9502	0.6776	-0.508
Mof_O 	O 	0.3197	0.1006	0.404	-0.431
Mof_O 	O 	0.1055	0.338	0.7475	-0.471
Mof_O 	O 	0.2291	0.3411	0.6943	-0.514
Mof_O 	O 	0.3614	0.0254	0.4425	-0.226
Mof_O 	O 	0.6352	0.9508	0.7542	-0.559
Mof_O 	O 	0.7209	0.9502	0.8224	-0.509
Mof_O 	O 	0.1803	0.1006	0.096	-0.431
Mof_O 	O 	0.3945	0.338	0.7525	-0.471
Mof_O 	O 	0.2709	0.3411	0.8057	-0.514
Mof_O 	O 	0.1386	0.0254	0.0575	-0.227
Mof_O 	O 	0.6352	0.5492	0.2458	-0.559
Mof_O 	O 	0.7209	0.5498	0.1776	-0.509
Mof_O 	O 	0.1803	0.3994	0.904	-0.431
Mof_O 	O 	0.3945	0.162	0.2475	-0.471
Mof_O 	O 	0.2709	0.1589	0.1943	-0.514
Mof_O 	O 	0.1386	0.4746	0.9425	-0.226
Mof_O 	O 	0.1352	0.4508	0.7458	-0.559
Mof_O 	O 	0.2209	0.4502	0.6776	-0.509
Mof_O 	O 	0.6803	0.6006	0.404	-0.431
Mof_O 	O 	0.8945	0.838	0.7475	-0.471
Mof_O 	O 	0.7709	0.8411	0.6943	-0.514
Mof_O 	O 	0.6386	0.5254	0.4425	-0.226
Mof_O 	O 	0.1352	0.0492	0.2542	-0.559
Mof_O 	O 	0.2209	0.0498	0.3224	-0.508
Mof_O 	O 	0.6803	0.8994	0.596	-0.431
Mof_O 	O 	0.8945	0.662	0.2525	-0.471
Mof_O 	O 	0.7709	0.6589	0.3057	-0.514
Mof_O 	O 	0.6386	0.9746	0.5575	-0.226
Mof_O 	O 	0.3648	0.0492	0.2458	-0.559
Mof_O 	O 	0.2791	0.0498	0.1776	-0.509
Mof_O 	O 	0.8197	0.8994	0.904	-0.431
Mof_O 	O 	0.6055	0.662	0.2475	-0.471
Mof_O 	O 	0.7291	0.6589	0.1943	-0.514
Mof_O 	O 	0.8614	0.9746	0.9425	-0.227
Mof_O 	O 	0.3648	0.4508	0.7542	-0.559
Mof_O 	O 	0.2791	0.4502	0.8224	-0.509
Mof_O 	O 	0.8197	0.6006	0.096	-0.431
Mof_O 	O 	0.6055	0.838	0.7525	-0.471
Mof_O 	O 	0.7291	0.8411	0.8057	-0.514
Mof_O 	O 	0.8614	0.5254	0.0575	-0.226
_end
