# CIF file generated by openbabel 3.1.0, see https://openbabel.org
data_I
_chemical_name_common 'image0'
_cell_length_a 11.43
_cell_length_b 7.22
_cell_length_c 6.655
_cell_angle_alpha 90
_cell_angle_beta 109.912
_cell_angle_gamma 90
_space_group_name_H-M_alt 'P 1'
_space_group_name_Hall 'P 1'
loop_
    _symmetry_equiv_pos_as_xyz
    x,y,z
loop_
    _atom_site_label
    _atom_site_type_symbol
    _atom_site_fract_x
    _atom_site_fract_y
    _atom_site_fract_z
    _atom_site_occupancy
    O1       O        0.99160    0.27170    0.66270    1.000
    O2       O        0.82740    0.21550    0.88400    1.000
    O3       O        0.65390    0.08000    0.88260    1.000
    C1       C        0.76250    0.12300    0.96200    1.000
    H1       H        0.80250    0.07980    0.10010    1.000
    O4       O        0.49160    0.77170    0.66270    1.000
    O5       O        0.32740    0.71550    0.88400    1.000
    O6       O        0.15390    0.58000    0.88260    1.000
    C2       C        0.26250    0.62300    0.96200    1.000
    H2       H        0.30250    0.57980    0.10010    1.000
    O7       O        0.00840    0.27170    0.33730    1.000
    O8       O        0.17260    0.21550    0.11600    1.000
    O9       O        0.34610    0.08000    0.11740    1.000
    C3       C        0.23750    0.12300    0.03800    1.000
    H3       H        0.19750    0.07980    0.89990    1.000
    O10      O        0.50840    0.77170    0.33730    1.000
    O11      O        0.67260    0.71550    0.11600    1.000
    O12      O        0.84610    0.58000    0.11740    1.000
    C4       C        0.73750    0.62300    0.03800    1.000
    H4       H        0.69750    0.57980    0.89990    1.000
    Sm1      Sm       0.00000    0.41855    0.00000    1.000
    Sm2      Sm       0.50000    0.91855    0.00000    1.000
    C5       C        0.00000    0.34600    0.50000    1.000
    H5       H        0.00000    0.47460    0.50000    1.000
    C6       C        0.50000    0.84600    0.50000    1.000
    H6       H        0.50000    0.97460    0.50000    1.000
