data_functionalizedCrystal
_audit_creation_method	'EQeq! by Chris Wilmer'
_symmetry_space_group_name_H-M	'P1'
_symmetry_Int_Tables_number	1
_symmetry_cell_setting	triclinic
loop_
_symmetry_equiv_pos_as_xyz
  x,y,z
_cell_length_a	8.116
_cell_length_b	17.1946
_cell_length_c	17.1946
_cell_angle_alpha	62.4277
_cell_angle_beta	80.9476
_cell_angle_gamma	99.0524
loop_
_atom_site_label
_atom_site_type_symbol
_atom_site_fract_x
_atom_site_fract_y
_atom_site_fract_z
_atom_site_charge
Mof_In	In	0.07595	0.29999	0.26869	2.806
Mof_In	In	0.34464	0.26869	0.43132	2.81
Mof_In	In	0.77596	0.43132	0.29999	2.812
Mof_In	In	0.92405	0.70001	0.73131	2.806
Mof_In	In	0.65536	0.73131	0.56868	2.811
Mof_In	In	0.22404	0.56868	0.70001	2.813
Mof_H 	H 	0.9438	0.7285	0.8629	0.116
Mof_H 	H 	0.0991	0.8013	0.798	0.153
Mof_H 	H 	0.7515	0.2618	0.3667	0.401
Mof_H 	H 	0.3775	0.5505	0.0329	-0.01
Mof_H 	H 	0.3665	0.7439	0.7865	-0.01
Mof_H 	H 	0.9342	0.617	0.9917	0.022
Mof_H 	H 	0.8067	0.8629	0.4086	0.119
Mof_H 	H 	0.8971	0.798	0.4007	0.153
Mof_H 	H 	0.1182	0.3667	0.3715	0.401
Mof_H 	H 	0.4104	0.0329	0.4166	-0.007
Mof_H 	H 	0.153	0.7865	0.4696	-0.008
Mof_H 	H 	0.9259	0.9917	0.3913	0.028
Mof_H 	H 	0.2153	0.4086	0.7285	0.119
Mof_H 	H 	0.2978	0.4007	0.8013	0.153
Mof_H 	H 	0.4897	0.3715	0.2618	0.401
Mof_H 	H 	0.827	0.4166	0.5505	-0.005
Mof_H 	H 	0.6226	0.4696	0.7439	-0.007
Mof_H 	H 	0.3172	0.3913	0.617	0.031
Mof_H 	H 	0.0562	0.2715	0.1371	0.116
Mof_H 	H 	0.9009	0.1987	0.202	0.153
Mof_H 	H 	0.2485	0.7382	0.6333	0.401
Mof_H 	H 	0.6225	0.4495	0.9671	-0.01
Mof_H 	H 	0.6335	0.2561	0.2135	-0.01
Mof_H 	H 	0.0658	0.383	0.0083	0.022
Mof_H 	H 	0.1933	0.1371	0.5914	0.119
Mof_H 	H 	0.1029	0.202	0.5993	0.153
Mof_H 	H 	0.8818	0.6333	0.6285	0.401
Mof_H 	H 	0.5896	0.9671	0.5834	-0.007
Mof_H 	H 	0.847	0.2135	0.5304	-0.008
Mof_H 	H 	0.0741	0.0083	0.6087	0.028
Mof_H 	H 	0.7847	0.5914	0.2715	0.119
Mof_H 	H 	0.7022	0.5993	0.1987	0.153
Mof_H 	H 	0.5103	0.6285	0.7382	0.401
Mof_H 	H 	0.173	0.5834	0.4495	-0.005
Mof_H 	H 	0.3774	0.5304	0.2561	-0.007
Mof_H 	H 	0.6828	0.6087	0.383	0.031
Mof_C 	C 	0.05022	0.49814	0.12208	0.571
Mof_C 	C 	0.14194	0.57068	0.02626	-0.212
Mof_C 	C 	0.31685	0.58505	0.9944	0.125
Mof_C 	C 	0.40283	0.65023	0.90574	-0.188
Mof_C 	C 	0.5957	0.6686	0.8738	0.455
Mof_C 	C 	0.31093	0.70193	0.84704	0.01
Mof_C 	C 	0.1368	0.68931	0.88071	-0.001
Mof_C 	C 	0.05116	0.62456	0.96968	0.023
Mof_C 	C 	0.1723	0.12208	0.37978	0.572
Mof_C 	C 	0.1682	0.02626	0.40306	-0.206
Mof_C 	C 	0.31125	0.9944	0.42055	0.118
Mof_C 	C 	0.30857	0.90574	0.44403	-0.184
Mof_C 	C 	0.4695	0.8738	0.4576	0.454
Mof_C 	C 	0.15797	0.84704	0.45103	0.006
Mof_C 	C 	0.01751	0.88071	0.42998	0.004
Mof_C 	C 	0.02084	0.96968	0.40576	0.013
Mof_C 	C 	0.55208	0.37978	0.49814	0.57
Mof_C 	C 	0.57126	0.40306	0.57068	-0.199
Mof_C 	C 	0.7318	0.42055	0.58505	0.112
Mof_C 	C 	0.7526	0.44403	0.65023	-0.181
Mof_C 	C 	0.9271	0.4576	0.6686	0.452
Mof_C 	C 	0.609	0.45103	0.70193	0.003
Mof_C 	C 	0.44749	0.42998	0.68931	0.007
Mof_C 	C 	0.4266	0.40576	0.62456	0.004
Mof_C 	C 	0.94978	0.50186	0.87792	0.571
Mof_C 	C 	0.85806	0.42932	0.97374	-0.212
Mof_C 	C 	0.68315	0.41495	0.0056	0.125
Mof_C 	C 	0.59717	0.34977	0.09426	-0.188
Mof_C 	C 	0.4043	0.3314	0.1262	0.455
Mof_C 	C 	0.68907	0.29807	0.15296	0.01
Mof_C 	C 	0.8632	0.31069	0.11929	-0.001
Mof_C 	C 	0.94884	0.37544	0.03032	0.023
Mof_C 	C 	0.8277	0.87792	0.62022	0.572
Mof_C 	C 	0.8318	0.97374	0.59694	-0.206
Mof_C 	C 	0.68875	0.0056	0.57945	0.118
Mof_C 	C 	0.69143	0.09426	0.55597	-0.184
Mof_C 	C 	0.5305	0.1262	0.5424	0.454
Mof_C 	C 	0.84203	0.15296	0.54897	0.006
Mof_C 	C 	0.98249	0.11929	0.57002	0.004
Mof_C 	C 	0.97916	0.03032	0.59424	0.013
Mof_C 	C 	0.44792	0.62022	0.50186	0.57
Mof_C 	C 	0.42874	0.59694	0.42932	-0.199
Mof_C 	C 	0.2682	0.57945	0.41495	0.112
Mof_C 	C 	0.2474	0.55597	0.34977	-0.181
Mof_C 	C 	0.0729	0.5424	0.3314	0.452
Mof_C 	C 	0.391	0.54897	0.29807	0.003
Mof_C 	C 	0.55251	0.57002	0.31069	0.007
Mof_C 	C 	0.5734	0.59424	0.37544	0.004
Mof_N 	N 	0.04154	0.74468	0.82166	-0.48
Mof_N 	N 	0.8632	0.82166	0.43366	-0.484
Mof_N 	N 	0.29686	0.43366	0.74468	-0.485
Mof_N 	N 	0.95846	0.25532	0.17834	-0.48
Mof_N 	N 	0.1368	0.17834	0.56634	-0.484
Mof_N 	N 	0.70314	0.56634	0.25532	-0.485
Mof_O 	O 	0.1305	0.44138	0.16408	-0.738
Mof_O 	O 	0.89887	0.49875	0.15584	-0.725
Mof_O 	O 	0.65554	0.6832	0.79378	-0.709
Mof_O 	O 	0.68466	0.66806	0.92558	-0.371
Mof_O 	O 	0.83245	0.30868	0.32103	-1.241
Mof_O 	O 	0.29458	0.16408	0.39454	-0.739
Mof_O 	O 	0.05471	0.15584	0.34541	-0.727
Mof_O 	O 	0.44932	0.79378	0.52302	-0.709
Mof_O 	O 	0.61024	0.92558	0.40636	-0.371
Mof_O 	O 	0.15348	0.32103	0.37029	-1.242
Mof_O 	O 	0.68912	0.39454	0.44138	-0.738
Mof_O 	O 	0.40012	0.34541	0.49875	-0.727
Mof_O 	O 	0.97234	0.52302	0.6832	-0.709
Mof_O 	O 	0.0166	0.40636	0.66806	-0.369
Mof_O 	O 	0.52377	0.37029	0.30868	-1.243
Mof_O 	O 	0.8695	0.55862	0.83592	-0.738
Mof_O 	O 	0.10113	0.50125	0.84416	-0.725
Mof_O 	O 	0.34446	0.3168	0.20622	-0.709
Mof_O 	O 	0.31534	0.33194	0.07442	-0.371
Mof_O 	O 	0.16755	0.69132	0.67897	-1.241
Mof_O 	O 	0.70542	0.83592	0.60546	-0.739
Mof_O 	O 	0.94529	0.84416	0.65459	-0.727
Mof_O 	O 	0.55068	0.20622	0.47698	-0.709
Mof_O 	O 	0.38976	0.07442	0.59364	-0.371
Mof_O 	O 	0.84652	0.67897	0.62971	-1.242
Mof_O 	O 	0.31088	0.60546	0.55862	-0.738
Mof_O 	O 	0.59988	0.65459	0.50125	-0.727
Mof_O 	O 	0.02766	0.47698	0.3168	-0.709
Mof_O 	O 	0.9834	0.59364	0.33194	-0.369
Mof_O 	O 	0.47623	0.62971	0.69132	-1.243
_end
