data_functionalizedCrystal
_audit_creation_method	'EQeq! by Chris Wilmer'
_symmetry_space_group_name_H-M	'P1'
_symmetry_Int_Tables_number	1
_symmetry_cell_setting	triclinic
loop_
_symmetry_equiv_pos_as_xyz
  x,y,z
_cell_length_a	12.965
_cell_length_b	12.9796
_cell_length_c	20.1038
_cell_angle_alpha	90
_cell_angle_beta	95.1696
_cell_angle_gamma	90
loop_
_atom_site_label
_atom_site_type_symbol
_atom_site_fract_x
_atom_site_fract_y
_atom_site_fract_z
_atom_site_charge
Mof_Np	Np	0.39955	0.87538	0.36814	0.038
Mof_Np	Np	0.2794	0.5877	0.30416	0.041
Mof_Np	Np	0.1984	0.2856	0.33833	0.038
Mof_Np	Np	0.01119	0.69678	0.3721	0.039
Mof_Np	Np	0.09828	0.97871	0.30194	0.038
Mof_Np	Np	0.69516	0.78133	0.33544	0.039
Mof_Np	Np	0.80141	0.09073	0.34236	0.042
Mof_Np	Np	0.50905	0.17623	0.33237	0.04
Mof_Np	Np	0.89281	0.3944	0.33497	0.042
Mof_Np	Np	0.58494	0.4752	0.3387	0.04
Mof_O 	O 	0.0631	0.3234	0.348	-0.018
Mof_O 	O 	0.9456	0.5196	0.3632	-0.013
Mof_O 	O 	0.4622	0.0528	0.3608	-0.015
Mof_O 	O 	0.4528	0.5203	0.3125	-0.016
Mof_O 	O 	0.7199	0.4334	0.3621	-0.015
Mof_O 	O 	0.4971	0.2187	0.4595	-0.143
Mof_O 	O 	0.7329	0.9184	0.3391	-0.017
Mof_O 	O 	0.4757	0.3465	0.7559	-0.148
Mof_O 	O 	0.7457	0.0674	0.213	-0.148
Mof_O 	O 	0.5845	0.0055	0.9195	-0.146
Mof_O 	O 	0.3347	0.2452	0.3355	-0.023
Mof_O 	O 	0.3324	0.5441	0.4224	-0.128
Mof_O 	O 	0.3137	0.5132	0.7336	-0.141
Mof_O 	O 	0.5637	0.1658	0.9552	-0.165
Mof_O 	O 	0.6374	0.3624	0.7213	-0.134
Mof_O 	O 	0.1491	0.1132	0.3024	-0.02
Mof_O 	O 	0.1461	0.6492	0.3704	-0.015
Mof_O 	O 	0.6044	0.0697	0.2642	-0.141
Mof_O 	O 	0.3513	0.9994	0.9491	-0.137
Mof_O 	O 	0.2668	0.9274	0.3566	-0.017
Mof_O 	O 	0.5314	0.825	0.3806	-0.018
Mof_O 	O 	0.5001	0.3726	0.4126	-0.153
Mof_O 	O 	0.4654	0.5808	0.7272	-0.136
Mof_O 	O 	0.9218	0.0396	0.3128	-0.012
Mof_O 	O 	0.2263	0.4564	0.2952	-0.02
Mof_O 	O 	0.6539	0.6451	0.325	-0.017
Mof_O 	O 	0.5801	0.8341	0.2426	-0.147
Mof_O 	O 	0.4214	0.8434	0.9402	-0.135
Mof_O 	O 	0.6451	0.2317	0.1143	-0.129
Mof_O 	O 	0.2613	0.3875	0.4312	-0.15
Mof_C 	C 	0.3902	0.5246	0.7024	0.282
Mof_O 	O 	0.6797	0.3089	0.559	-0.134
Mof_O 	O 	0.6871	0.1438	0.3811	-0.012
Mof_O 	O 	0.76	0.1417	0.0581	-0.149
Mof_C 	C 	0.5176	0.9377	0.153	0.005
Mof_O 	O 	0.4029	0.7504	0.1399	-0.154
Mof_O 	O 	0.5596	0.2947	0.2956	-0.017
Mof_O 	O 	0.1892	0.5506	0.536	-0.152
Mof_O 	O 	0.2844	0.6403	0.6138	-0.15
Mof_O 	O 	0.5998	0.1875	0.6155	-0.15
Mof_C 	C 	0.5696	0.0758	0.9628	0.299
Mof_O 	O 	0.8448	0.2631	0.3091	-0.01
Mof_C 	C 	0.5052	0.8899	0.2221	0.288
Mof_C 	C 	0.6087	0.0614	0.0883	-0.004
Mof_C 	C 	0.5146	0.3436	0.5872	-0.01
Mof_C 	C 	0.4638	0.9057	0.0962	-0.01
Mof_C 	C 	0.6808	0.1498	0.0852	0.281
Mof_C 	C 	0.4719	0.9499	0.036	0.002
Mof_O 	O 	0.8752	0.7366	0.3718	-0.013
Mof_C 	C 	0.49	0.316	0.4605	0.287
Mof_O 	O 	0.4245	0.907	0.2498	-0.142
Mof_O 	O 	0.3082	0.8235	0.0563	-0.148
Mof_C 	C 	0.2677	0.5669	0.5744	0.292
Mof_C 	C 	0.5372	0.3641	0.7137	0.273
Mof_C 	C 	0.6037	0.2716	0.5884	0.286
Mof_C 	C 	0.6515	0.0563	0.2117	0.283
Mof_C 	C 	0.3859	0.818	0.0975	0.295
Mof_C 	C 	0.461	0.3666	0.5234	-0.003
Mof_C 	C 	0.4858	0.3934	0.6433	0.007
Mof_O 	O 	0.0492	0.8446	0.3041	-0.022
Mof_C 	C 	0.4087	0.4656	0.6389	-0.005
Mof_C 	C 	0.4102	0.9259	0.9714	0.274
Mof_C 	C 	0.3202	0.4562	0.4528	0.279
Mof_C 	C 	0.5563	0.0277	0.0314	-0.004
Mof_O 	O 	0.3353	0.7198	0.3132	-0.013
Mof_C 	C 	0.3756	0.4401	0.5192	-0.006
Mof_C 	C 	0.5921	0.018	0.1489	-0.01
Mof_C 	C 	0.3535	0.4886	0.5773	-0.005
Mof_Np	Np	0.89955	0.12462	0.86814	0.042
Mof_Np	Np	0.7794	0.4123	0.80416	0.043
Mof_Np	Np	0.6984	0.7144	0.83833	0.039
Mof_Np	Np	0.51119	0.30322	0.8721	0.044
Mof_Np	Np	0.59828	0.02129	0.80194	0.039
Mof_Np	Np	0.19516	0.21867	0.83544	0.038
Mof_Np	Np	0.30141	0.90927	0.84236	0.042
Mof_Np	Np	0.00905	0.82377	0.83237	0.036
Mof_Np	Np	0.39281	0.6056	0.83497	0.041
Mof_Np	Np	0.08494	0.5248	0.8387	0.037
Mof_O 	O 	0.5631	0.6766	0.848	-0.013
Mof_O 	O 	0.4456	0.4804	0.8632	-0.017
Mof_O 	O 	0.9622	0.9472	0.8608	-0.01
Mof_O 	O 	0.9528	0.4797	0.8125	-0.011
Mof_O 	O 	0.2199	0.5666	0.8621	-0.016
Mof_O 	O 	0.9971	0.7813	0.9595	-0.14
Mof_O 	O 	0.2329	0.0816	0.8391	-0.019
Mof_O 	O 	0.9757	0.6535	0.2559	-0.135
Mof_O 	O 	0.2457	0.9326	0.713	-0.149
Mof_O 	O 	0.0845	0.9945	0.4195	-0.148
Mof_O 	O 	0.8347	0.7548	0.8355	-0.02
Mof_O 	O 	0.8324	0.4559	0.9224	-0.127
Mof_O 	O 	0.8137	0.4868	0.2336	-0.141
Mof_O 	O 	0.0637	0.8342	0.4552	-0.167
Mof_O 	O 	0.1374	0.6376	0.2213	-0.13
Mof_O 	O 	0.6491	0.8868	0.8024	-0.017
Mof_O 	O 	0.6461	0.3508	0.8704	-0.014
Mof_O 	O 	0.1044	0.9303	0.7642	-0.141
Mof_O 	O 	0.8513	0.0006	0.4491	-0.135
Mof_O 	O 	0.7668	0.0726	0.8566	-0.017
Mof_O 	O 	0.0314	0.175	0.8806	-0.024
Mof_O 	O 	0.0001	0.6274	0.9126	-0.161
Mof_O 	O 	0.9654	0.4192	0.2272	-0.133
Mof_O 	O 	0.4218	0.9604	0.8128	-0.015
Mof_O 	O 	0.7263	0.5436	0.7952	-0.018
Mof_O 	O 	0.1539	0.3549	0.825	-0.019
Mof_O 	O 	0.0801	0.1659	0.7426	-0.148
Mof_O 	O 	0.9214	0.1566	0.4402	-0.132
Mof_O 	O 	0.1451	0.7683	0.6143	-0.13
Mof_O 	O 	0.7613	0.6125	0.9312	-0.149
Mof_C 	C 	0.8902	0.4754	0.2024	0.286
Mof_O 	O 	0.1797	0.6911	0.059	-0.137
Mof_O 	O 	0.1871	0.8562	0.8811	-0.013
Mof_O 	O 	0.26	0.8583	0.5581	-0.151
Mof_C 	C 	0.0176	0.0623	0.653	-0.005
Mof_O 	O 	0.9029	0.2496	0.6399	-0.15
Mof_O 	O 	0.0596	0.7053	0.7956	-0.018
Mof_O 	O 	0.6892	0.4494	0.036	-0.149
Mof_O 	O 	0.7844	0.3597	0.1138	-0.148
Mof_O 	O 	0.0998	0.8125	0.1155	-0.153
Mof_C 	C 	0.0696	0.9242	0.4628	0.302
Mof_O 	O 	0.3448	0.7369	0.8091	-0.012
Mof_C 	C 	0.0052	0.1101	0.7221	0.28
Mof_C 	C 	0.1087	0.9386	0.5883	-0.004
Mof_C 	C 	0.0146	0.6564	0.0872	-0.036
Mof_C 	C 	0.9638	0.0943	0.5962	-0
Mof_C 	C 	0.1808	0.8502	0.5852	0.281
Mof_C 	C 	0.9719	0.0501	0.536	0.004
Mof_O 	O 	0.3752	0.2634	0.8718	-0.018
Mof_C 	C 	0.99	0.684	0.9605	0.291
Mof_O 	O 	0.9245	0.093	0.7498	-0.134
Mof_O 	O 	0.8082	0.1765	0.5563	-0.148
Mof_C 	C 	0.7677	0.4331	0.0744	0.29
Mof_C 	C 	0.0372	0.6359	0.2137	0.25
Mof_C 	C 	0.1037	0.7284	0.0884	0.294
Mof_C 	C 	0.1515	0.9437	0.7117	0.282
Mof_C 	C 	0.8859	0.182	0.5975	0.292
Mof_C 	C 	0.961	0.6334	0.0234	0.012
Mof_C 	C 	0.9858	0.6066	0.1433	0.033
Mof_O 	O 	0.5492	0.1554	0.8041	-0.02
Mof_C 	C 	0.9087	0.5344	0.1389	-0.015
Mof_C 	C 	0.9102	0.0741	0.4714	0.276
Mof_C 	C 	0.8202	0.5438	0.9528	0.279
Mof_C 	C 	0.0563	0.9723	0.5314	-0.011
Mof_O 	O 	0.8353	0.2802	0.8132	-0.011
Mof_C 	C 	0.8756	0.5599	0.0192	-0.009
Mof_C 	C 	0.0921	0.982	0.6489	-0.007
Mof_C 	C 	0.8535	0.5114	0.0773	0.002
_end
