data_functionalizedCrystal
_audit_creation_method	'EQeq! by Chris Wilmer'
_symmetry_space_group_name_H-M	'P1'
_symmetry_Int_Tables_number	1
_symmetry_cell_setting	triclinic
loop_
_symmetry_equiv_pos_as_xyz
  x,y,z
_cell_length_a	12.4882
_cell_length_b	13.1951
_cell_length_c	19.756
_cell_angle_alpha	78.959
_cell_angle_beta	84.553
_cell_angle_gamma	63.869
loop_
_atom_site_label
_atom_site_type_symbol
_atom_site_fract_x
_atom_site_fract_y
_atom_site_fract_z
_atom_site_charge
Mof_Cu	Cu	0.58012	0.5602	0.20913	0.865
Mof_Cu	Cu	0.25565	0.77357	0.24882	0.872
Mof_Cu	Cu	0.93567	0.99148	0.29175	0.864
Mof_N 	N 	0.4392	0.5518	0.1754	-0.203
Mof_N 	N 	0.3213	0.6275	0.1811	-0.166
Mof_N 	N 	0.3329	0.4939	0.1256	-0.128
Mof_N 	N 	0.6739	0.5018	0.1246	-0.195
Mof_N 	N 	0.7758	0.3994	0.1299	-0.113
Mof_N 	N 	0.2373	0.5063	0.9758	-0.129
Mof_N 	N 	0.3734	0.8287	0.1988	-0.197
Mof_N 	N 	0.4832	0.7606	0.1711	-0.162
Mof_N 	N 	0.4565	0.9403	0.1507	-0.13
Mof_N 	N 	0.7951	0.9956	0.25	-0.207
Mof_N 	N 	0.8094	0.8969	0.2274	-0.106
Mof_N 	N 	0.6235	0.0253	0.2153	-0.133
Mof_N 	N 	0.4988	0.5967	0.3034	-0.195
Mof_N 	N 	0.3814	0.6678	0.3171	-0.2
Mof_N 	N 	0.4722	0.5922	0.4148	-0.131
Mof_N 	N 	0.1322	0.8913	0.1836	-0.199
Mof_N 	N 	0.0203	0.9719	0.1974	-0.188
Mof_N 	N 	0.0514	0.994	0.0859	-0.126
Mof_N 	N 	0.1345	0.7217	0.3016	-0.194
Mof_N 	N 	0.0198	0.7967	0.3179	-0.164
Mof_N 	N 	0.0384	0.621	0.3489	-0.127
Mof_N 	N 	0.7288	0.5591	0.2393	-0.198
Mof_N 	N 	0.7675	0.6402	0.2058	-0.106
Mof_N 	N 	0.9014	0.5171	0.2822	-0.129
Mof_N 	N 	0.1898	0.9257	0.319	-0.159
Mof_N 	N 	0.0727	0.9936	0.3339	-0.2
Mof_N 	N 	0.1843	0.0455	0.3832	-0.13
Mof_N 	N 	0.8367	0.0282	0.379	-0.191
Mof_N 	N 	0.733	0.1285	0.3788	-0.113
Mof_N 	N 	0.265	0.9961	0.5291	-0.122
Mof_C 	C 	0.2993	0.4156	0.0983	-0.047
Mof_C 	C 	0.1997	0.4724	0.0464	-0.051
Mof_C 	C 	0.2598	0.5916	0.1506	0.089
Mof_C 	C 	0.4437	0.472	0.1426	0.085
Mof_C 	C 	0.8278	0.3985	0.0697	0.089
Mof_C 	C 	0.6678	0.5565	0.0609	0.095
Mof_C 	C 	0.4748	0.0446	0.1319	-0.051
Mof_C 	C 	0.4963	0.0823	0.195	-0.048
Mof_C 	C 	0.3599	0.935	0.1851	0.091
Mof_C 	C 	0.5291	0.8311	0.1424	0.091
Mof_C 	C 	0.7047	0.9167	0.2082	0.087
Mof_C 	C 	0.6843	0.0683	0.2423	0.111
Mof_C 	C 	0.4957	0.5599	0.4885	-0.05
Mof_C 	C 	0.368	0.6633	0.3835	0.09
Mof_C 	C 	0.5513	0.554	0.3631	0.087
Mof_C 	C 	0.0322	0.0307	0.0126	-0.057
Mof_C 	C 	0.9725	0.0317	0.1381	0.087
Mof_C 	C 	0.1485	0.9062	0.1168	0.09
Mof_C 	C 	0.0102	0.5247	0.3792	-0.049
Mof_C 	C 	0.0084	0.458	0.3246	-0.045
Mof_C 	C 	0.9653	0.7337	0.346	0.085
Mof_C 	C 	0.1426	0.618	0.321	0.093
Mof_C 	C 	0.8707	0.612	0.2322	0.09
Mof_C 	C 	0.8116	0.4856	0.2832	0.092
Mof_C 	C 	0.2198	0.1192	0.4136	-0.043
Mof_C 	C 	0.3111	0.0518	0.4704	-0.056
Mof_C 	C 	0.0715	0.0638	0.372	0.085
Mof_C 	C 	0.255	0.9594	0.3486	0.093
Mof_C 	C 	0.6732	0.1102	0.4347	0.086
Mof_C 	C 	0.8354	0.9549	0.4339	0.084
Mof_H 	H 	0.2752	0.3706	0.1375	0.039
Mof_H 	H 	0.3707	0.3612	0.0764	0.047
Mof_H 	H 	0.1641	0.4191	0.0448	0.044
Mof_H 	H 	0.1369	0.5414	0.0625	0.051
Mof_H 	H 	0.4037	0.1066	0.1075	0.042
Mof_H 	H 	0.5442	0.0303	0.1	0.051
Mof_H 	H 	0.4697	0.1663	0.1855	0.039
Mof_H 	H 	0.4476	0.0651	0.2339	0.049
Mof_H 	H 	0.4304	0.6145	0.514	0.048
Mof_H 	H 	0.5713	0.5615	0.4981	0.048
Mof_H 	H 	0.1097	0.0125	0.9882	0.049
Mof_H 	H 	0.9834	0.1145	0.0027	0.054
Mof_H 	H 	0.9313	0.5542	0.4025	0.048
Mof_H 	H 	0.0704	0.4726	0.4143	0.04
Mof_H 	H 	0.0795	0.4443	0.2943	0.046
Mof_H 	H 	0.0134	0.3825	0.3477	0.038
Mof_H 	H 	0.2539	0.1595	0.377	0.037
Mof_H 	H 	0.1483	0.1778	0.4329	0.043
Mof_H 	H 	0.3365	0.1043	0.4866	0.043
Mof_H 	H 	0.3822	0.9928	0.4511	0.051
Mof_H 	H 	0.1754	0.6284	0.1464	-0.002
Mof_H 	H 	0.5146	0.4085	0.1324	-0.007
Mof_H 	H 	0.9017	0.3391	0.0589	0.003
Mof_H 	H 	0.606	0.6289	0.0435	-0.008
Mof_H 	H 	0.2919	0.999	0.1975	-0.006
Mof_H 	H 	0.6037	0.8085	0.1187	0.001
Mof_H 	H 	0.6867	0.8631	0.1915	0.016
Mof_H 	H 	0.651	0.1425	0.2545	-0.016
Mof_H 	H 	0.2955	0.7042	0.4065	-0.005
Mof_H 	H 	0.6334	0.5032	0.3695	-0.011
Mof_H 	H 	0.8944	0.0923	0.1324	-0.007
Mof_H 	H 	0.2187	0.8616	0.0933	-0.005
Mof_H 	H 	0.885	0.7632	0.3621	0.001
Mof_H 	H 	0.2123	0.5499	0.316	-0.008
Mof_H 	H 	0.9183	0.6522	0.2184	0.013
Mof_H 	H 	0.8089	0.4199	0.3115	-0.016
Mof_H 	H 	0.0016	0.12	0.3896	-0.008
Mof_H 	H 	0.3396	0.928	0.3463	-0.002
Mof_H 	H 	0.5972	0.1641	0.4478	0.003
Mof_H 	H 	0.8957	0.8791	0.4458	-0.006
Mof_Cu	Cu	0.41988	0.4398	0.79087	0.865
Mof_Cu	Cu	0.74435	0.22643	0.75118	0.872
Mof_Cu	Cu	0.06433	0.00852	0.70825	0.864
Mof_N 	N 	0.5608	0.4482	0.8246	-0.203
Mof_N 	N 	0.6787	0.3725	0.8189	-0.166
Mof_N 	N 	0.6671	0.5061	0.8744	-0.128
Mof_N 	N 	0.3261	0.4982	0.8754	-0.195
Mof_N 	N 	0.2242	0.6006	0.8701	-0.113
Mof_N 	N 	0.7627	0.4937	0.0242	-0.129
Mof_N 	N 	0.6266	0.1713	0.8012	-0.197
Mof_N 	N 	0.5168	0.2394	0.8289	-0.162
Mof_N 	N 	0.5435	0.0597	0.8493	-0.13
Mof_N 	N 	0.2049	0.0044	0.75	-0.207
Mof_N 	N 	0.1906	0.1031	0.7726	-0.106
Mof_N 	N 	0.3765	0.9747	0.7847	-0.133
Mof_N 	N 	0.5012	0.4033	0.6966	-0.195
Mof_N 	N 	0.6186	0.3322	0.6829	-0.2
Mof_N 	N 	0.5278	0.4078	0.5852	-0.131
Mof_N 	N 	0.8678	0.1087	0.8164	-0.199
Mof_N 	N 	0.9797	0.0281	0.8026	-0.188
Mof_N 	N 	0.9486	0.006	0.9141	-0.126
Mof_N 	N 	0.8655	0.2783	0.6984	-0.194
Mof_N 	N 	0.9802	0.2033	0.6821	-0.164
Mof_N 	N 	0.9616	0.379	0.6511	-0.127
Mof_N 	N 	0.2712	0.4409	0.7607	-0.198
Mof_N 	N 	0.2325	0.3598	0.7942	-0.106
Mof_N 	N 	0.0986	0.4829	0.7178	-0.129
Mof_N 	N 	0.8102	0.0743	0.681	-0.159
Mof_N 	N 	0.9273	0.0064	0.6661	-0.2
Mof_N 	N 	0.8157	0.9545	0.6168	-0.13
Mof_N 	N 	0.1633	0.9718	0.621	-0.191
Mof_N 	N 	0.267	0.8715	0.6212	-0.113
Mof_N 	N 	0.735	0.0039	0.4709	-0.122
Mof_C 	C 	0.7007	0.5844	0.9017	-0.047
Mof_C 	C 	0.8003	0.5276	0.9536	-0.051
Mof_C 	C 	0.7402	0.4084	0.8494	0.089
Mof_C 	C 	0.5563	0.528	0.8574	0.085
Mof_C 	C 	0.1722	0.6015	0.9303	0.089
Mof_C 	C 	0.3322	0.4435	0.9391	0.095
Mof_C 	C 	0.5252	0.9554	0.8681	-0.051
Mof_C 	C 	0.5037	0.9177	0.805	-0.048
Mof_C 	C 	0.6401	0.065	0.8149	0.091
Mof_C 	C 	0.4709	0.1689	0.8576	0.091
Mof_C 	C 	0.2953	0.0833	0.7918	0.087
Mof_C 	C 	0.3157	0.9317	0.7577	0.111
Mof_C 	C 	0.5043	0.4401	0.5115	-0.05
Mof_C 	C 	0.632	0.3367	0.6165	0.09
Mof_C 	C 	0.4487	0.446	0.6369	0.087
Mof_C 	C 	0.9678	0.9693	0.9874	-0.057
Mof_C 	C 	0.0275	0.9683	0.8619	0.087
Mof_C 	C 	0.8515	0.0938	0.8832	0.09
Mof_C 	C 	0.9898	0.4753	0.6208	-0.049
Mof_C 	C 	0.9916	0.542	0.6754	-0.045
Mof_C 	C 	0.0347	0.2663	0.654	0.085
Mof_C 	C 	0.8574	0.382	0.679	0.093
Mof_C 	C 	0.1293	0.388	0.7678	0.09
Mof_C 	C 	0.1884	0.5144	0.7168	0.092
Mof_C 	C 	0.7802	0.8808	0.5864	-0.043
Mof_C 	C 	0.6889	0.9482	0.5296	-0.056
Mof_C 	C 	0.9285	0.9362	0.628	0.085
Mof_C 	C 	0.745	0.0406	0.6514	0.093
Mof_C 	C 	0.3268	0.8898	0.5653	0.086
Mof_C 	C 	0.1646	0.0451	0.5661	0.084
Mof_H 	H 	0.7248	0.6294	0.8625	0.039
Mof_H 	H 	0.6293	0.6388	0.9236	0.047
Mof_H 	H 	0.8359	0.5809	0.9552	0.044
Mof_H 	H 	0.8631	0.4586	0.9375	0.051
Mof_H 	H 	0.5963	0.8934	0.8925	0.042
Mof_H 	H 	0.4558	0.9697	0.9	0.051
Mof_H 	H 	0.5303	0.8337	0.8145	0.039
Mof_H 	H 	0.5524	0.9349	0.7661	0.049
Mof_H 	H 	0.5696	0.3855	0.486	0.048
Mof_H 	H 	0.4287	0.4385	0.5019	0.048
Mof_H 	H 	0.8903	0.9875	0.0118	0.049
Mof_H 	H 	0.0166	0.8855	0.9973	0.054
Mof_H 	H 	0.0687	0.4458	0.5975	0.048
Mof_H 	H 	0.9296	0.5274	0.5857	0.04
Mof_H 	H 	0.9205	0.5557	0.7057	0.046
Mof_H 	H 	0.9866	0.6175	0.6523	0.038
Mof_H 	H 	0.7461	0.8405	0.623	0.037
Mof_H 	H 	0.8517	0.8222	0.5671	0.043
Mof_H 	H 	0.6635	0.8957	0.5134	0.043
Mof_H 	H 	0.6178	0.0072	0.5489	0.051
Mof_H 	H 	0.8246	0.3716	0.8536	-0.002
Mof_H 	H 	0.4854	0.5915	0.8676	-0.007
Mof_H 	H 	0.0983	0.6609	0.9411	0.003
Mof_H 	H 	0.394	0.3711	0.9565	-0.008
Mof_H 	H 	0.7081	0.001	0.8025	-0.006
Mof_H 	H 	0.3963	0.1915	0.8813	0.001
Mof_H 	H 	0.3133	0.1369	0.8085	0.016
Mof_H 	H 	0.349	0.8575	0.7455	-0.016
Mof_H 	H 	0.7045	0.2958	0.5935	-0.005
Mof_H 	H 	0.3666	0.4968	0.6305	-0.011
Mof_H 	H 	0.1056	0.9077	0.8676	-0.007
Mof_H 	H 	0.7813	0.1384	0.9067	-0.005
Mof_H 	H 	0.115	0.2368	0.6379	0.001
Mof_H 	H 	0.7877	0.4501	0.684	-0.008
Mof_H 	H 	0.0817	0.3478	0.7816	0.013
Mof_H 	H 	0.1911	0.5801	0.6885	-0.016
Mof_H 	H 	0.9984	0.88	0.6104	-0.008
Mof_H 	H 	0.6604	0.072	0.6537	-0.002
Mof_H 	H 	0.4028	0.8359	0.5522	0.003
Mof_H 	H 	0.1043	0.1209	0.5542	-0.006
_end
