data_functionalizedCrystal
_audit_creation_method	'EQeq! by Chris Wilmer'
_symmetry_space_group_name_H-M	'P1'
_symmetry_Int_Tables_number	1
_symmetry_cell_setting	triclinic
loop_
_symmetry_equiv_pos_as_xyz
  x,y,z
_cell_length_a	14.8967
_cell_length_b	14.8967
_cell_length_c	10.0502
_cell_angle_alpha	90
_cell_angle_beta	90
_cell_angle_gamma	90
loop_
_atom_site_label
_atom_site_type_symbol
_atom_site_fract_x
_atom_site_fract_y
_atom_site_fract_z
_atom_site_charge
Mof_O 	O 	0.4141	0.1001	0.1446	-0.75
Mof_C 	C 	0.4214	0.1447	0.2521	0.392
Mof_O 	O 	0.4369	0.2258	0.2518	-0.382
Mof_C 	C 	0.4082	0.0961	0.3788	-0.086
Mof_C 	C 	0.3813	0.0064	0.3815	-0.223
Mof_H 	H 	0.373	0.9757	0.2996	0.093
Mof_C 	C 	0.2824	0.8348	0.3981	-0.029
Mof_C 	C 	0.2487	0.7498	0.401	-0.019
Mof_C 	C 	0.3123	0.7227	0.3958	0.033
Mof_H 	H 	0.7156	0.2674	0.0918	0.337
Mof_H 	H 	0.7004	0.313	0.9494	0.358
Mof_H 	H 	0.7342	0.2112	0.9589	0.331
Mof_C 	C 	0.3483	0.8084	0.391	-0.016
Mof_O 	O 	0.5859	0.8999	0.1446	-0.741
Mof_C 	C 	0.5786	0.8553	0.2521	0.511
Mof_O 	O 	0.5631	0.7742	0.2518	-0.413
Mof_C 	C 	0.5918	0.9039	0.3788	-0.386
Mof_C 	C 	0.6187	0.9936	0.3815	0.412
Mof_H 	H 	0.627	0.0243	0.2996	-0.179
Mof_C 	C 	0.7176	0.1652	0.3981	-0.09
Mof_C 	C 	0.7513	0.2502	0.401	0.01
Mof_C 	C 	0.6877	0.2773	0.3958	0.034
Mof_H 	H 	0.2844	0.7326	0.0918	0.312
Mof_H 	H 	0.2996	0.687	0.9494	0.33
Mof_H 	H 	0.2658	0.7888	0.9589	0.301
Mof_C 	C 	0.6517	0.1916	0.391	-0.046
Mof_O 	O 	0.8999	0.4141	0.6446	-0.747
Mof_C 	C 	0.8553	0.4214	0.7521	0.514
Mof_O 	O 	0.7742	0.4369	0.7518	-0.415
Mof_C 	C 	0.9039	0.4082	0.8788	-0.397
Mof_C 	C 	0.9936	0.3813	0.8815	0.409
Mof_H 	H 	0.0243	0.373	0.7996	-0.181
Mof_C 	C 	0.1652	0.2824	0.8981	-0.104
Mof_C 	C 	0.2502	0.2487	0.901	-0.002
Mof_C 	C 	0.2773	0.3123	0.8958	0.034
Mof_H 	H 	0.7326	0.7156	0.5918	0.351
Mof_H 	H 	0.687	0.7004	0.4494	0.376
Mof_H 	H 	0.7888	0.7342	0.4589	0.352
Mof_C 	C 	0.1916	0.3483	0.891	-0.048
Mof_O 	O 	0.1001	0.5859	0.6446	-0.749
Mof_C 	C 	0.1447	0.5786	0.7521	0.393
Mof_O 	O 	0.2258	0.5631	0.7518	-0.384
Mof_C 	C 	0.0961	0.5918	0.8788	-0.093
Mof_C 	C 	0.0064	0.6187	0.8815	-0.234
Mof_H 	H 	0.9757	0.627	0.7996	0.098
Mof_C 	C 	0.8348	0.7176	0.8981	-0.027
Mof_C 	C 	0.7498	0.7513	0.901	-0.014
Mof_C 	C 	0.7227	0.6877	0.8958	0.023
Mof_H 	H 	0.2674	0.2844	0.5918	0.338
Mof_H 	H 	0.313	0.2996	0.4494	0.362
Mof_H 	H 	0.2112	0.2658	0.4589	0.333
Mof_C 	C 	0.8084	0.6517	0.891	-0.022
Mof_O 	O 	0.5859	0.8999	0.8554	-0.751
Mof_C 	C 	0.5786	0.8553	0.7479	0.512
Mof_O 	O 	0.5631	0.7742	0.7482	-0.417
Mof_C 	C 	0.5918	0.9039	0.6212	-0.385
Mof_C 	C 	0.6187	0.9936	0.6185	0.403
Mof_H 	H 	0.627	0.0243	0.7004	-0.174
Mof_C 	C 	0.7176	0.1652	0.6019	-0.089
Mof_C 	C 	0.7513	0.2502	0.599	0.01
Mof_C 	C 	0.6877	0.2773	0.6042	0.033
Mof_H 	H 	0.2844	0.7326	0.9082	0.319
Mof_H 	H 	0.2996	0.687	0.0506	0.348
Mof_H 	H 	0.2658	0.7888	0.0411	0.327
Mof_C 	C 	0.6517	0.1916	0.609	-0.046
Mof_O 	O 	0.4141	0.1001	0.8554	-0.752
Mof_C 	C 	0.4214	0.1447	0.7479	0.393
Mof_O 	O 	0.4369	0.2258	0.7482	-0.385
Mof_C 	C 	0.4082	0.0961	0.6212	-0.09
Mof_C 	C 	0.3813	0.0064	0.6185	-0.213
Mof_H 	H 	0.373	0.9757	0.7004	0.085
Mof_C 	C 	0.2824	0.8348	0.6019	-0.031
Mof_C 	C 	0.2487	0.7498	0.599	-0.02
Mof_C 	C 	0.3123	0.7227	0.6042	0.032
Mof_H 	H 	0.7156	0.2674	0.9082	0.339
Mof_H 	H 	0.7004	0.313	0.0506	0.366
Mof_H 	H 	0.7342	0.2112	0.0411	0.339
Mof_C 	C 	0.3483	0.8084	0.609	-0.016
Mof_O 	O 	0.1001	0.5859	0.3554	-0.748
Mof_C 	C 	0.1447	0.5786	0.2479	0.393
Mof_O 	O 	0.2258	0.5631	0.2482	-0.381
Mof_C 	C 	0.0961	0.5918	0.1212	-0.087
Mof_C 	C 	0.0064	0.6187	0.1185	-0.22
Mof_H 	H 	0.9757	0.627	0.2004	0.093
Mof_C 	C 	0.8348	0.7176	0.1019	-0.02
Mof_C 	C 	0.7498	0.7513	0.099	-0.007
Mof_C 	C 	0.7227	0.6877	0.1042	0.028
Mof_H 	H 	0.2674	0.2844	0.4082	0.338
Mof_H 	H 	0.313	0.2996	0.5506	0.362
Mof_H 	H 	0.2112	0.2658	0.5411	0.333
Mof_C 	C 	0.8084	0.6517	0.109	-0.019
Mof_O 	O 	0.8999	0.4141	0.3554	-0.746
Mof_C 	C 	0.8553	0.4214	0.2479	0.513
Mof_O 	O 	0.7742	0.4369	0.2482	-0.413
Mof_C 	C 	0.9039	0.4082	0.1212	-0.391
Mof_C 	C 	0.9936	0.3813	0.1185	0.411
Mof_H 	H 	0.0243	0.373	0.2004	-0.18
Mof_C 	C 	0.1652	0.2824	0.1019	-0.1
Mof_C 	C 	0.2502	0.2487	0.099	-0.001
Mof_C 	C 	0.2773	0.3123	0.1042	0.039
Mof_H 	H 	0.7326	0.7156	0.4082	0.351
Mof_H 	H 	0.687	0.7004	0.5506	0.376
Mof_H 	H 	0.7888	0.7342	0.5411	0.352
Mof_C 	C 	0.1916	0.3483	0.109	-0.045
Mof_Co	Co	0.43244	0.19685	-0	1.133
Mof_O 	O 	0.5831	0.1439	-0	-0.879
Mof_O 	O 	0.5373	0.2846	-0	-0.592
Mof_N 	N 	0.3082	0.2622	-0	-0.232
Mof_C 	C 	0.5998	0.2251	-0	1.004
Mof_C 	C 	0.6959	0.257	-0	-2.027
Mof_Co	Co	0.56756	0.80315	-0	1.138
Mof_O 	O 	0.4169	0.8561	-0	-0.853
Mof_O 	O 	0.4627	0.7154	-0	-0.579
Mof_N 	N 	0.6918	0.7378	-0	-0.217
Mof_C 	C 	0.4002	0.7749	-0	0.963
Mof_C 	C 	0.3041	0.743	-0	-1.903
Mof_Co	Co	0.80315	0.43244	0.5	1.134
Mof_O 	O 	0.8561	0.5831	0.5	-0.874
Mof_O 	O 	0.7154	0.5373	0.5	-0.598
Mof_N 	N 	0.7378	0.3082	0.5	-0.235
Mof_C 	C 	0.7749	0.5998	0.5	1.021
Mof_C 	C 	0.743	0.6959	0.5	-2.103
Mof_Co	Co	0.19685	0.56756	0.5	1.133
Mof_O 	O 	0.1439	0.4169	0.5	-0.883
Mof_O 	O 	0.2846	0.4627	0.5	-0.595
Mof_N 	N 	0.2622	0.6918	0.5	-0.224
Mof_C 	C 	0.2251	0.4002	0.5	1.006
Mof_C 	C 	0.257	0.3041	0.5	-2.038
Mof_Na	Na	0.5	0	-0	2.701
Mof_Na	Na	6.92412e-33	0.5	0.5	2.701
Mof_C 	C 	0.4223	0.1393	0.5	-0.024
Mof_H 	H 	0.4422	0.1999	0.5	0.03
Mof_C 	C 	0.3663	0.9602	0.5	0.17
Mof_C 	C 	0.333	0.8662	0.5	-0.041
Mof_C 	C 	0.5777	0.8607	0.5	0.252
Mof_H 	H 	0.5578	0.8001	0.5	-0.057
Mof_C 	C 	0.6337	0.0398	0.5	-0.4
Mof_C 	C 	0.667	0.1338	0.5	0.179
Mof_C 	C 	0.8607	0.4223	-0	0.263
Mof_H 	H 	0.8001	0.4422	-0	-0.058
Mof_C 	C 	0.0398	0.3663	-0	-0.404
Mof_C 	C 	0.1338	0.333	-0	0.19
Mof_C 	C 	0.1393	0.5777	-0	-0.011
Mof_H 	H 	0.1999	0.5578	-0	0.031
Mof_C 	C 	0.9602	0.6337	-0	0.185
Mof_C 	C 	0.8662	0.667	-0	-0.035
_end
