data_functionalizedCrystal
_audit_creation_method	'EQeq! by Chris Wilmer'
_symmetry_space_group_name_H-M	'P1'
_symmetry_Int_Tables_number	1
_symmetry_cell_setting	triclinic
loop_
_symmetry_equiv_pos_as_xyz
  x,y,z
_cell_length_a	6.3805
_cell_length_b	10.056
_cell_length_c	11.2429
_cell_angle_alpha	116.565
_cell_angle_beta	96.3543
_cell_angle_gamma	90
loop_
_atom_site_label
_atom_site_type_symbol
_atom_site_fract_x
_atom_site_fract_y
_atom_site_fract_z
_atom_site_charge
Mof_Ni	Ni	-9.85683e-33	0.65028	-0	0.875
Mof_Ni	Ni	-0	0.34972	-0	0.879
Mof_Ni	Ni	0.5	0.5	-0	0.999
Mof_H 	H 	0.5759	0.624	0.654	-0.023
Mof_H 	H 	0.4139	0.6206	0.619	0.066
Mof_H 	H 	0.2509	0.565	0.6604	0.055
Mof_H 	H 	0.8603	0.4925	0.5634	0.236
Mof_H 	H 	0.6874	0.597	0.5706	0.163
Mof_H 	H 	0.4241	0.97	0.346	0.008
Mof_H 	H 	0.5861	0.0016	0.381	0.05
Mof_H 	H 	0.7491	0.9046	0.3396	0.051
Mof_H 	H 	0.1397	0.9291	0.4366	0.052
Mof_H 	H 	0.3126	0.0264	0.4294	0.084
Mof_H 	H 	0.4241	0.376	0.346	0.116
Mof_H 	H 	0.5861	0.3794	0.381	0.001
Mof_H 	H 	0.7491	0.435	0.3396	0.002
Mof_H 	H 	0.1397	0.5075	0.4366	-0.061
Mof_H 	H 	0.3126	0.403	0.4294	-0.006
Mof_H 	H 	0.5759	0.03	0.654	0.085
Mof_H 	H 	0.4139	0.9984	0.619	0.016
Mof_H 	H 	0.2509	0.0954	0.6604	0.006
Mof_H 	H 	0.8603	0.0709	0.5634	0.124
Mof_H 	H 	0.6874	0.9736	0.5706	0.073
Mof_H 	H 	0.8427	0.5765	0.153	0.251
Mof_H 	H 	0.1573	0.4235	0.847	0.133
Mof_C 	C 	0.5703	0.5258	0.6348	0.073
Mof_C 	C 	0.35	0.5114	0.5922	-0.197
Mof_C 	C 	0.7252	0.4961	0.5428	-0.406
Mof_C 	C 	0.6499	0.5599	0.7772	0.277
Mof_C 	C 	0.4297	0.891	0.3652	-0.105
Mof_C 	C 	0.65	0.9192	0.4078	-0.045
Mof_C 	C 	0.2748	0.9533	0.4572	-0.191
Mof_C 	C 	0.3501	0.7827	0.2228	0.36
Mof_C 	C 	0.4297	0.4742	0.3652	-0.332
Mof_C 	C 	0.65	0.4886	0.4078	0.162
Mof_C 	C 	0.2748	0.5039	0.4572	0.11
Mof_C 	C 	0.3501	0.4401	0.2228	0.43
Mof_C 	C 	0.5703	0.109	0.6348	-0.153
Mof_C 	C 	0.35	0.0808	0.5922	0.011
Mof_C 	C 	0.7252	0.0467	0.5428	-0.108
Mof_C 	C 	0.6499	0.2173	0.7772	0.347
Mof_O 	O 	0.8447	0.5695	0.8102	-0.266
Mof_O 	O 	0.5116	0.5735	0.8544	-0.29
Mof_O 	O 	0.1553	0.7593	0.1898	-0.554
Mof_O 	O 	0.4884	0.7191	0.1456	-0.5
Mof_O 	O 	0.1553	0.4305	0.1898	-0.569
Mof_O 	O 	0.4884	0.4265	0.1456	-0.516
Mof_O 	O 	0.8447	0.2407	0.8102	-0.281
Mof_O 	O 	0.5116	0.2809	0.8544	-0.305
Mof_O 	O 	0.817	0.5288	0.0576	-0.73
Mof_O 	O 	0.183	0.4712	0.9424	-0.457
_end
