# CIF file generated by openbabel 3.1.0, see https://openbabel.org
data_I
_chemical_name_common 'EJONOH_clean'
_cell_length_a 8.2152
_cell_length_b 8.9387
_cell_length_c 12.3961
_cell_angle_alpha 109.846
_cell_angle_beta 92.651
_cell_angle_gamma 106.725
_space_group_name_H-M_alt 'P 1'
_space_group_name_Hall 'P 1'
loop_
    _symmetry_equiv_pos_as_xyz
    x,y,z
loop_
    _atom_site_label
    _atom_site_type_symbol
    _atom_site_fract_x
    _atom_site_fract_y
    _atom_site_fract_z
    _atom_site_occupancy
    Co1      Co       0.03208    0.05585    0.17923    1.000
    Co2      Co       0.96792    0.94415    0.82077    1.000
    Co3      Co       0.50000    0.50000    0.50000    1.000
    H1       H        0.97100    0.22400    0.44900    1.000
    H2       H        0.80400    0.37610    0.54440    1.000
    H3       H        0.57730    0.33550    0.24770    1.000
    H4       H        0.37810    0.86720    0.30620    1.000
    H5       H        0.02900    0.77600    0.55100    1.000
    H6       H        0.19600    0.62390    0.45560    1.000
    H7       H        0.42270    0.66450    0.75230    1.000
    H8       H        0.62190    0.13280    0.69380    1.000
    C1       C        0.75840    0.16990    0.10680    1.000
    C2       C        0.76230    0.22680    0.23250    1.000
    C3       C        0.89180    0.24680    0.40620    1.000
    C4       C        0.78990    0.33740    0.46380    1.000
    C5       C        0.65850    0.31480    0.29040    1.000
    C6       C        0.53310    0.85470    0.43120    1.000
    C7       C        0.60800    0.93510    0.54860    1.000
    C8       C        0.42700    0.92060    0.38420    1.000
    C9       C        0.55170    0.69170    0.35280    1.000
    C10      C        0.72500    0.87210    0.60620    1.000
    C11      C        0.24160    0.83010    0.89320    1.000
    C12      C        0.23770    0.77320    0.76750    1.000
    C13      C        0.10820    0.75320    0.59380    1.000
    C14      C        0.21010    0.66260    0.53620    1.000
    C15      C        0.34150    0.68520    0.70960    1.000
    C16      C        0.46690    0.14530    0.56880    1.000
    C17      C        0.39200    0.06490    0.45140    1.000
    C18      C        0.57300    0.07940    0.61580    1.000
    C19      C        0.44830    0.30830    0.64720    1.000
    C20      C        0.27500    0.12790    0.39380    1.000
    N1       N        0.86600    0.09120    0.05806    1.000
    N2       N        0.83340    0.06350    0.94512    1.000
    N3       N        0.70960    0.12220    0.92680    1.000
    N4       N        0.66000    0.19060    0.02850    1.000
    N5       N        0.87910    0.19160    0.29104    1.000
    N6       N        0.67200    0.37040    0.40614    1.000
    N7       N        0.13400    0.90880    0.94194    1.000
    N8       N        0.16660    0.93650    0.05488    1.000
    N9       N        0.29040    0.87780    0.07320    1.000
    N10      N        0.34000    0.80940    0.97150    1.000
    N11      N        0.12090    0.80840    0.70896    1.000
    N12      N        0.32800    0.62960    0.59386    1.000
    O1       O        0.65600    0.69350    0.28520    1.000
    O2       O        0.45180    0.55850    0.35965    1.000
    O3       O        0.70650    0.71790    0.57058    1.000
    O4       O        0.83830    0.98070    0.68900    1.000
    O5       O        0.34400    0.30650    0.71480    1.000
    O6       O        0.54820    0.44150    0.64035    1.000
    O7       O        0.29350    0.28210    0.42942    1.000
    O8       O        0.16170    0.01930    0.31100    1.000
