# CIF file generated by openbabel 3.1.0, see https://openbabel.org
data_I
_chemical_name_common 'image0'
_cell_length_a 15.8574
_cell_length_b 19.3325
_cell_length_c 25.2962
_cell_angle_alpha 90
_cell_angle_beta 102.694
_cell_angle_gamma 90
_space_group_name_H-M_alt 'P 1'
_space_group_name_Hall 'P 1'
loop_
    _symmetry_equiv_pos_as_xyz
    x,y,z
loop_
    _atom_site_label
    _atom_site_type_symbol
    _atom_site_fract_x
    _atom_site_fract_y
    _atom_site_fract_z
    _atom_site_occupancy
    C1       C        0.42200    0.11720    0.07453    1.000
    H1       H        0.47870    0.12230    0.07090    1.000
    C2       C        0.36140    0.16620    0.05040    1.000
    H2       H        0.37680    0.20190    0.02980    1.000
    C3       C        0.27700    0.16080    0.05781    1.000
    C4       C        0.25820    0.10600    0.08910    1.000
    H3       H        0.20310    0.10170    0.09590    1.000
    C5       C        0.32140    0.05790    0.11020    1.000
    H4       H        0.30710    0.02090    0.13010    1.000
    C6       C        0.21600    0.27800    0.02550    1.000
    C7       C        0.29100    0.32180    0.05010    1.000
    C8       C        0.31980    0.37300    0.01970    1.000
    H5       H        0.29330    0.37930    0.98340    1.000
    C9       C        0.38780    0.41390    0.04400    1.000
    H6       H        0.40710    0.44710    0.02280    1.000
    C10      C        0.40250    0.35930    0.12520    1.000
    H7       H        0.43110    0.35390    0.16120    1.000
    C11      C        0.33440    0.31440    0.10440    1.000
    H8       H        0.31830    0.28020    0.12610    1.000
    C12      C        0.05870    0.24910    0.97650    1.000
    C13      C        0.97370    0.25310    0.95430    1.000
    C14      C        0.81550    0.29540    0.92410    1.000
    C15      C        0.74290    0.34410    0.91330    1.000
    C16      C        0.74690    0.40550    0.88630    1.000
    H9       H        0.79640    0.41720    0.87430    1.000
    C17      C        0.67740    0.44900    0.87750    1.000
    H10      H        0.68160    0.49000    0.85900    1.000
    C18      C        0.59970    0.37810    0.92070    1.000
    H11      H        0.54940    0.36780    0.93240    1.000
    C19      C        0.66790    0.33130    0.93250    1.000
    H12      H        0.66370    0.29190    0.95300    1.000
    C20      C        0.81070    0.22610    0.92800    1.000
    C21      C        0.73040    0.18340    0.91700    1.000
    C22      C        0.67510    0.18420    0.86570    1.000
    H13      H        0.68620    0.21330    0.83880    1.000
    C23      C        0.60400    0.14140    0.85560    1.000
    H14      H        0.56780    0.14220    0.82120    1.000
    C24      C        0.63550    0.10030    0.94310    1.000
    H15      H        0.62070    0.07330    0.97010    1.000
    C25      C        0.70940    0.14120    0.95620    1.000
    H16      H        0.74430    0.14000    0.99090    1.000
    C26      C        0.47270    0.03190    0.23990    1.000
    H17      H        0.43000    0.06000    0.21960    1.000
    C27      C        0.48450    0.03290    0.29490    1.000
    H18      H        0.44880    0.06000    0.31110    1.000
    C28      C        0.54930    0.99360    0.32688    1.000
    C29      C        0.59960    0.95240    0.30003    1.000
    H19      H        0.64350    0.92450    0.31950    1.000
    C30      C        0.58260    0.95430    0.24438    1.000
    H20      H        0.61710    0.92730    0.22710    1.000
    C31      C        0.56230    0.99270    0.38630    1.000
    C32      C        0.52110    0.99530    0.47994    1.000
    C33      C        0.63760    0.99340    0.42318    1.000
    C34      C        0.72510    0.99620    0.41175    1.000
    C35      C        0.74840    0.04780    0.37940    1.000
    H21      H        0.70900    0.08180    0.36440    1.000
    C36      C        0.83000    0.04780    0.36980    1.000
    H22      H        0.84430    0.08220    0.34750    1.000
    C37      C        0.86820    0.95110    0.42227    1.000
    H23      H        0.90890    0.91750    0.43650    1.000
    C38      C        0.78830    0.94730    0.43443    1.000
    H24      H        0.77610    0.91290    0.45730    1.000
    C39      C        0.92570    0.95350    0.25530    1.000
    H25      H        0.89630    0.92200    0.27240    1.000
    C40      C        0.90760    0.95380    0.19960    1.000
    H26      H        0.86690    0.92350    0.18010    1.000
    C41      C        0.95110    0.00060    0.17280    1.000
    C42      C        0.01080    0.04370    0.20460    1.000
    H27      H        0.04200    0.07490    0.18840    1.000
    C43      C        0.02460    0.04040    0.26040    1.000
    H28      H        0.06440    0.07060    0.28090    1.000
    C44      C        0.93600    0.00310    0.11330    1.000
    C45      C        0.86090    0.00240    0.07660    1.000
    C46      C        0.77240    0.00130    0.08710    1.000
    C47      C        0.75010    0.04070    0.12730    1.000
    H29      H        0.79070    0.06970    0.14860    1.000
    C48      C        0.66670    0.03680    0.13590    1.000
    H30      H        0.65270    0.06440    0.16280    1.000
    C49      C        0.62750    0.95790    0.06891    1.000
    H31      H        0.58600    0.92880    0.04870    1.000
    C50      C        0.70820    0.95940    0.05690    1.000
    H32      H        0.71960    0.93250    0.02890    1.000
    C51      C        0.97840    0.00400    0.01990    1.000
    C52      C        0.20920    0.20880    0.03110    1.000
    Cu1      Cu       0.49222    0.98638    0.13011    1.000
    Cu2      Cu       0.00385    0.99568    0.36878    1.000
    N1       N        0.40290    0.06280    0.10285    1.000
    N2       N        0.42890    0.40920    0.09678    1.000
    N3       N        0.60250    0.43660    0.89370    1.000
    N4       N        0.58450    0.09830    0.89313    1.000
    N5       N        0.52010    0.99210    0.21316    1.000
    N6       N        0.89120    0.00060    0.39087    1.000
    N7       N        0.60570    0.99570    0.10763    1.000
    N8       N        0.98290    0.99540    0.28656    1.000
    S1       S        0.12705    0.32220    0.98546    1.000
    S2       S        0.11178    0.17056    0.99659    1.000
    S3       S        0.90775    0.17902    0.94378    1.000
    S4       S        0.92085    0.33063    0.93230    1.000
    S5       S        0.46762    0.98713    0.41170    1.000
    S6       S        0.63429    0.98871    0.49204    1.000
    S7       S        0.86506    0.00771    0.00760    1.000
    S8       S        0.03073    0.01073    0.08830    1.000
    C53      C        0.07800    0.61720    0.42547    1.000
    H33      H        0.02130    0.62230    0.42910    1.000
    C54      C        0.13860    0.66620    0.44960    1.000
    H34      H        0.12320    0.70190    0.47020    1.000
    C55      C        0.22300    0.66080    0.44219    1.000
    C56      C        0.24180    0.60600    0.41090    1.000
    H35      H        0.29690    0.60170    0.40410    1.000
    C57      C        0.17860    0.55790    0.38980    1.000
    H36      H        0.19290    0.52090    0.36990    1.000
    C58      C        0.28400    0.77800    0.47450    1.000
    C59      C        0.20900    0.82180    0.44990    1.000
    C60      C        0.18020    0.87300    0.48030    1.000
    H37      H        0.20670    0.87930    0.51660    1.000
    C61      C        0.11220    0.91390    0.45600    1.000
    H38      H        0.09290    0.94710    0.47720    1.000
    C62      C        0.09750    0.85930    0.37480    1.000
    H39      H        0.06890    0.85390    0.33880    1.000
    C63      C        0.16560    0.81440    0.39560    1.000
    H40      H        0.18170    0.78020    0.37390    1.000
    C64      C        0.44130    0.74910    0.52350    1.000
    C65      C        0.52630    0.75310    0.54570    1.000
    C66      C        0.68450    0.79540    0.57590    1.000
    C67      C        0.75710    0.84410    0.58670    1.000
    C68      C        0.75310    0.90550    0.61370    1.000
    H41      H        0.70360    0.91720    0.62570    1.000
    C69      C        0.82260    0.94900    0.62250    1.000
    H42      H        0.81840    0.99000    0.64100    1.000
    C70      C        0.90030    0.87810    0.57930    1.000
    H43      H        0.95060    0.86780    0.56760    1.000
    C71      C        0.83210    0.83130    0.56750    1.000
    H44      H        0.83630    0.79190    0.54700    1.000
    C72      C        0.68930    0.72610    0.57200    1.000
    C73      C        0.76960    0.68340    0.58300    1.000
    C74      C        0.82490    0.68420    0.63430    1.000
    H45      H        0.81380    0.71330    0.66120    1.000
    C75      C        0.89600    0.64140    0.64440    1.000
    H46      H        0.93220    0.64220    0.67880    1.000
    C76      C        0.86450    0.60030    0.55690    1.000
    H47      H        0.87930    0.57330    0.52990    1.000
    C77      C        0.79060    0.64120    0.54380    1.000
    H48      H        0.75570    0.64000    0.50910    1.000
    C78      C        0.02730    0.53190    0.26010    1.000
    H49      H        0.07000    0.56000    0.28040    1.000
    C79      C        0.01550    0.53290    0.20510    1.000
    H50      H        0.05120    0.56000    0.18890    1.000
    C80      C        0.95070    0.49360    0.17312    1.000
    C81      C        0.90040    0.45240    0.19997    1.000
    H51      H        0.85650    0.42450    0.18050    1.000
    C82      C        0.91740    0.45430    0.25562    1.000
    H52      H        0.88290    0.42730    0.27290    1.000
    C83      C        0.93770    0.49270    0.11370    1.000
    C84      C        0.97890    0.49530    0.02006    1.000
    C85      C        0.86240    0.49340    0.07682    1.000
    C86      C        0.77490    0.49620    0.08825    1.000
    C87      C        0.75160    0.54780    0.12060    1.000
    H53      H        0.79100    0.58180    0.13560    1.000
    C88      C        0.67000    0.54780    0.13020    1.000
    H54      H        0.65570    0.58220    0.15250    1.000
    C89      C        0.63180    0.45110    0.07773    1.000
    H55      H        0.59110    0.41750    0.06350    1.000
    C90      C        0.71170    0.44730    0.06557    1.000
    H56      H        0.72390    0.41290    0.04270    1.000
    C91      C        0.57430    0.45350    0.24470    1.000
    H57      H        0.60370    0.42200    0.22760    1.000
    C92      C        0.59240    0.45380    0.30040    1.000
    H58      H        0.63310    0.42350    0.31990    1.000
    C93      C        0.54890    0.50060    0.32720    1.000
    C94      C        0.48920    0.54370    0.29540    1.000
    H59      H        0.45800    0.57490    0.31160    1.000
    C95      C        0.47540    0.54040    0.23960    1.000
    H60      H        0.43560    0.57060    0.21910    1.000
    C96      C        0.56400    0.50310    0.38670    1.000
    C97      C        0.63910    0.50240    0.42340    1.000
    C98      C        0.72760    0.50130    0.41290    1.000
    C99      C        0.74990    0.54070    0.37270    1.000
    H61      H        0.70930    0.56970    0.35140    1.000
    C100     C        0.83330    0.53680    0.36410    1.000
    H62      H        0.84730    0.56440    0.33720    1.000
    C101     C        0.87250    0.45790    0.43109    1.000
    H63      H        0.91400    0.42880    0.45130    1.000
    C102     C        0.79180    0.45940    0.44310    1.000
    H64      H        0.78040    0.43250    0.47110    1.000
    C103     C        0.52160    0.50400    0.48010    1.000
    C104     C        0.29080    0.70880    0.46890    1.000
    Cu3      Cu       0.00778    0.48638    0.36989    1.000
    Cu4      Cu       0.49615    0.49568    0.13122    1.000
    N9       N        0.09710    0.56280    0.39715    1.000
    N10      N        0.07110    0.90920    0.40322    1.000
    N11      N        0.89750    0.93660    0.60630    1.000
    N12      N        0.91550    0.59830    0.60687    1.000
    N13      N        0.97990    0.49210    0.28684    1.000
    N14      N        0.60880    0.50060    0.10913    1.000
    N15      N        0.89430    0.49570    0.39237    1.000
    N16      N        0.51710    0.49540    0.21344    1.000
    S9       S        0.37295    0.82220    0.51454    1.000
    S10      S        0.38822    0.67056    0.50341    1.000
    S11      S        0.59225    0.67902    0.55622    1.000
    S12      S        0.57915    0.83063    0.56770    1.000
    S13      S        0.03238    0.48713    0.08830    1.000
    S14      S        0.86571    0.48871    0.00796    1.000
    S15      S        0.63494    0.50771    0.49240    1.000
    S16      S        0.46927    0.51073    0.41170    1.000
    C105     C        0.57800    0.88280    0.92547    1.000
    H65      H        0.52130    0.87770    0.92910    1.000
    C106     C        0.63860    0.83380    0.94960    1.000
    H66      H        0.62320    0.79810    0.97020    1.000
    C107     C        0.72300    0.83920    0.94219    1.000
    C108     C        0.74180    0.89400    0.91090    1.000
    H67      H        0.79690    0.89830    0.90410    1.000
    C109     C        0.67860    0.94210    0.88980    1.000
    H68      H        0.69290    0.97910    0.86990    1.000
    C110     C        0.78400    0.72200    0.97450    1.000
    C111     C        0.70900    0.67820    0.94990    1.000
    C112     C        0.68020    0.62700    0.98030    1.000
    H69      H        0.70670    0.62070    0.01660    1.000
    C113     C        0.61220    0.58610    0.95600    1.000
    H70      H        0.59290    0.55290    0.97720    1.000
    C114     C        0.59750    0.64070    0.87480    1.000
    H71      H        0.56890    0.64610    0.83880    1.000
    C115     C        0.66560    0.68560    0.89560    1.000
    H72      H        0.68170    0.71980    0.87390    1.000
    C116     C        0.94130    0.75090    0.02350    1.000
    C117     C        0.02630    0.74690    0.04570    1.000
    C118     C        0.18450    0.70460    0.07590    1.000
    C119     C        0.25710    0.65590    0.08670    1.000
    C120     C        0.25310    0.59450    0.11370    1.000
    H73      H        0.20360    0.58280    0.12570    1.000
    C121     C        0.32260    0.55100    0.12250    1.000
    H74      H        0.31840    0.51000    0.14100    1.000
    C122     C        0.40030    0.62190    0.07930    1.000
    H75      H        0.45060    0.63220    0.06760    1.000
    C123     C        0.33210    0.66870    0.06750    1.000
    H76      H        0.33630    0.70810    0.04700    1.000
    C124     C        0.18930    0.77390    0.07200    1.000
    C125     C        0.26960    0.81660    0.08300    1.000
    C126     C        0.32490    0.81580    0.13430    1.000
    H77      H        0.31380    0.78670    0.16120    1.000
    C127     C        0.39600    0.85860    0.14440    1.000
    H78      H        0.43220    0.85780    0.17880    1.000
    C128     C        0.36450    0.89970    0.05690    1.000
    H79      H        0.37930    0.92670    0.02990    1.000
    C129     C        0.29060    0.85880    0.04380    1.000
    H80      H        0.25570    0.86000    0.00910    1.000
    C130     C        0.52730    0.96810    0.76010    1.000
    H81      H        0.57000    0.94000    0.78040    1.000
    C131     C        0.51550    0.96710    0.70510    1.000
    H82      H        0.55120    0.94000    0.68890    1.000
    C132     C        0.45070    0.00640    0.67312    1.000
    C133     C        0.40040    0.04760    0.69997    1.000
    H83      H        0.35650    0.07550    0.68050    1.000
    C134     C        0.41740    0.04570    0.75562    1.000
    H84      H        0.38290    0.07270    0.77290    1.000
    C135     C        0.43770    0.00730    0.61370    1.000
    C136     C        0.47890    0.00470    0.52006    1.000
    C137     C        0.36240    0.00660    0.57682    1.000
    C138     C        0.27490    0.00380    0.58825    1.000
    C139     C        0.25160    0.95220    0.62060    1.000
    H85      H        0.29100    0.91820    0.63560    1.000
    C140     C        0.17000    0.95220    0.63020    1.000
    H86      H        0.15570    0.91780    0.65250    1.000
    C141     C        0.13180    0.04890    0.57773    1.000
    H87      H        0.09110    0.08250    0.56350    1.000
    C142     C        0.21170    0.05270    0.56557    1.000
    H88      H        0.22390    0.08710    0.54270    1.000
    C143     C        0.07430    0.04650    0.74470    1.000
    H89      H        0.10370    0.07800    0.72760    1.000
    C144     C        0.09240    0.04620    0.80040    1.000
    H90      H        0.13310    0.07650    0.81990    1.000
    C145     C        0.04890    0.99940    0.82720    1.000
    C146     C        0.98920    0.95630    0.79540    1.000
    H91      H        0.95800    0.92510    0.81160    1.000
    C147     C        0.97540    0.95960    0.73960    1.000
    H92      H        0.93560    0.92940    0.71910    1.000
    C148     C        0.06400    0.99690    0.88670    1.000
    C149     C        0.13910    0.99760    0.92340    1.000
    C150     C        0.22760    0.99870    0.91290    1.000
    C151     C        0.24990    0.95930    0.87270    1.000
    H93      H        0.20930    0.93030    0.85140    1.000
    C152     C        0.33330    0.96320    0.86410    1.000
    H94      H        0.34730    0.93560    0.83720    1.000
    C153     C        0.37250    0.04210    0.93109    1.000
    H95      H        0.41400    0.07120    0.95130    1.000
    C154     C        0.29180    0.04060    0.94310    1.000
    H96      H        0.28040    0.06750    0.97110    1.000
    C155     C        0.02160    0.99600    0.98010    1.000
    C156     C        0.79080    0.79120    0.96890    1.000
    Cu5      Cu       0.50778    0.01362    0.86989    1.000
    Cu6      Cu       0.99615    0.00432    0.63122    1.000
    N17      N        0.59710    0.93720    0.89715    1.000
    N18      N        0.57110    0.59080    0.90322    1.000
    N19      N        0.39750    0.56340    0.10630    1.000
    N20      N        0.41550    0.90170    0.10687    1.000
    N21      N        0.47990    0.00790    0.78684    1.000
    N22      N        0.10880    0.99940    0.60913    1.000
    N23      N        0.39430    0.00430    0.89237    1.000
    N24      N        0.01710    0.00460    0.71344    1.000
    S17      S        0.87295    0.67780    0.01454    1.000
    S18      S        0.88822    0.82944    0.00341    1.000
    S19      S        0.09225    0.82098    0.05622    1.000
    S20      S        0.07915    0.66937    0.06770    1.000
    S21      S        0.53238    0.01287    0.58830    1.000
    S22      S        0.36571    0.01129    0.50796    1.000
    S23      S        0.13494    0.99229    0.99240    1.000
    S24      S        0.96927    0.98927    0.91170    1.000
    C157     C        0.92200    0.38280    0.57453    1.000
    H97      H        0.97870    0.37770    0.57090    1.000
    C158     C        0.86140    0.33380    0.55040    1.000
    H98      H        0.87680    0.29810    0.52980    1.000
    C159     C        0.77700    0.33920    0.55781    1.000
    C160     C        0.75820    0.39400    0.58910    1.000
    H99      H        0.70310    0.39830    0.59590    1.000
    C161     C        0.82140    0.44210    0.61020    1.000
    H100     H        0.80710    0.47910    0.63010    1.000
    C162     C        0.71600    0.22200    0.52550    1.000
    C163     C        0.79100    0.17820    0.55010    1.000
    C164     C        0.81980    0.12700    0.51970    1.000
    H101     H        0.79330    0.12070    0.48340    1.000
    C165     C        0.88780    0.08610    0.54400    1.000
    H102     H        0.90710    0.05290    0.52280    1.000
    C166     C        0.90250    0.14070    0.62520    1.000
    H103     H        0.93110    0.14610    0.66120    1.000
    C167     C        0.83440    0.18560    0.60440    1.000
    H104     H        0.81830    0.21980    0.62610    1.000
    C168     C        0.55870    0.25090    0.47650    1.000
    C169     C        0.47370    0.24690    0.45430    1.000
    C170     C        0.31550    0.20460    0.42410    1.000
    C171     C        0.24290    0.15590    0.41330    1.000
    C172     C        0.24690    0.09450    0.38630    1.000
    H105     H        0.29640    0.08280    0.37430    1.000
    C173     C        0.17740    0.05100    0.37750    1.000
    H106     H        0.18160    0.01000    0.35900    1.000
    C174     C        0.09970    0.12190    0.42070    1.000
    H107     H        0.04940    0.13220    0.43240    1.000
    C175     C        0.16790    0.16870    0.43250    1.000
    H108     H        0.16370    0.20810    0.45300    1.000
    C176     C        0.31070    0.27390    0.42800    1.000
    C177     C        0.23040    0.31660    0.41700    1.000
    C178     C        0.17510    0.31580    0.36570    1.000
    H109     H        0.18620    0.28670    0.33880    1.000
    C179     C        0.10400    0.35860    0.35560    1.000
    H110     H        0.06780    0.35780    0.32120    1.000
    C180     C        0.13550    0.39970    0.44310    1.000
    H111     H        0.12070    0.42670    0.47010    1.000
    C181     C        0.20940    0.35880    0.45620    1.000
    H112     H        0.24430    0.36000    0.49090    1.000
    C182     C        0.97270    0.46810    0.73990    1.000
    H113     H        0.93000    0.44000    0.71960    1.000
    C183     C        0.98450    0.46710    0.79490    1.000
    H114     H        0.94880    0.44000    0.81110    1.000
    C184     C        0.04930    0.50640    0.82688    1.000
    C185     C        0.09960    0.54760    0.80003    1.000
    H115     H        0.14350    0.57550    0.81950    1.000
    C186     C        0.08260    0.54570    0.74438    1.000
    H116     H        0.11710    0.57270    0.72710    1.000
    C187     C        0.06230    0.50730    0.88630    1.000
    C188     C        0.02110    0.50470    0.97994    1.000
    C189     C        0.13760    0.50660    0.92318    1.000
    C190     C        0.22510    0.50380    0.91175    1.000
    C191     C        0.24840    0.45220    0.87940    1.000
    H117     H        0.20900    0.41820    0.86440    1.000
    C192     C        0.33000    0.45220    0.86980    1.000
    H118     H        0.34430    0.41780    0.84750    1.000
    C193     C        0.36820    0.54890    0.92227    1.000
    H119     H        0.40890    0.58250    0.93650    1.000
    C194     C        0.28830    0.55270    0.93443    1.000
    H120     H        0.27610    0.58710    0.95730    1.000
    C195     C        0.42570    0.54650    0.75530    1.000
    H121     H        0.39630    0.57800    0.77240    1.000
    C196     C        0.40760    0.54620    0.69960    1.000
    H122     H        0.36690    0.57650    0.68010    1.000
    C197     C        0.45110    0.49940    0.67280    1.000
    C198     C        0.51080    0.45630    0.70460    1.000
    H123     H        0.54200    0.42510    0.68840    1.000
    C199     C        0.52460    0.45960    0.76040    1.000
    H124     H        0.56440    0.42940    0.78090    1.000
    C200     C        0.43600    0.49690    0.61330    1.000
    C201     C        0.36090    0.49760    0.57660    1.000
    C202     C        0.27240    0.49870    0.58710    1.000
    C203     C        0.25010    0.45930    0.62730    1.000
    H125     H        0.29070    0.43030    0.64860    1.000
    C204     C        0.16670    0.46320    0.63590    1.000
    H126     H        0.15270    0.43560    0.66280    1.000
    C205     C        0.12750    0.54210    0.56891    1.000
    H127     H        0.08600    0.57120    0.54870    1.000
    C206     C        0.20820    0.54060    0.55690    1.000
    H128     H        0.21960    0.56750    0.52890    1.000
    C207     C        0.47840    0.49600    0.51990    1.000
    C208     C        0.70920    0.29120    0.53110    1.000
    Cu7      Cu       0.99222    0.51362    0.63011    1.000
    Cu8      Cu       0.50385    0.50432    0.86878    1.000
    N25      N        0.90290    0.43720    0.60285    1.000
    N26      N        0.92890    0.09080    0.59678    1.000
    N27      N        0.10250    0.06340    0.39370    1.000
    N28      N        0.08450    0.40170    0.39313    1.000
    N29      N        0.02010    0.50790    0.71316    1.000
    N30      N        0.39120    0.49940    0.89087    1.000
    N31      N        0.10570    0.50430    0.60763    1.000
    N32      N        0.48290    0.50460    0.78656    1.000
    S25      S        0.62705    0.17780    0.48546    1.000
    S26      S        0.61178    0.32944    0.49659    1.000
    S27      S        0.40775    0.32098    0.44378    1.000
    S28      S        0.42085    0.16937    0.43230    1.000
    S29      S        0.96762    0.51287    0.91170    1.000
    S30      S        0.13429    0.51129    0.99204    1.000
    S31      S        0.36506    0.49229    0.50760    1.000
    S32      S        0.53073    0.48927    0.58830    1.000
