data_functionalizedCrystal
_audit_creation_method	'EQeq! by Chris Wilmer'
_symmetry_space_group_name_H-M	'P1'
_symmetry_Int_Tables_number	1
_symmetry_cell_setting	triclinic
loop_
_symmetry_equiv_pos_as_xyz
  x,y,z
_cell_length_a	13.717
_cell_length_b	8.9401
_cell_length_c	16.635
_cell_angle_alpha	90
_cell_angle_beta	93.6
_cell_angle_gamma	90
loop_
_atom_site_label
_atom_site_type_symbol
_atom_site_fract_x
_atom_site_fract_y
_atom_site_fract_z
_atom_site_charge
Mof_Ag	Ag	0.63912	0.32627	0.5664	0.513
Mof_Ag	Ag	0.90361	0.61652	0.30017	0.467
Mof_N 	N 	0.6852	0.3797	0.4434	-0.314
Mof_H 	H 	0.7453	0.3417	0.4386	0.089
Mof_H 	H 	0.6444	0.3326	0.4072	0.087
Mof_N 	N 	0.4941	0.8413	0.4428	-0.304
Mof_H 	H 	0.4791	0.9209	0.4114	0.086
Mof_H 	H 	0.502	0.8743	0.494	0.085
Mof_N 	N 	0.8017	0.8045	0.3606	-0.298
Mof_H 	H 	0.8327	0.8929	0.3576	0.087
Mof_H 	H 	0.7461	0.8118	0.3292	0.1
Mof_N 	N 	0.82	0.9421	0.6859	-0.318
Mof_H 	H 	0.8527	0.9062	0.6448	0.086
Mof_H 	H 	0.7622	0.8944	0.6849	0.088
Mof_N 	N 	0.968	0.4191	0.6154	-0.316
Mof_H 	H 	0.9574	0.5182	0.6109	0.08
Mof_H 	H 	0.9825	0.3853	0.5666	0.087
Mof_N 	N 	0.6597	0.3856	0.6972	-0.31
Mof_H 	H 	0.6537	0.4856	0.701	0.084
Mof_H 	H 	0.6096	0.3452	0.722	0.089
Mof_C 	C 	0.6872	0.541	0.4221	0.173
Mof_H 	H 	0.6953	0.5505	0.3642	-0.053
Mof_C 	C 	0.5921	0.6132	0.4412	-0.298
Mof_H 	H 	0.583	0.6021	0.4982	0.071
Mof_H 	H 	0.5386	0.562	0.4117	0.067
Mof_C 	C 	0.5888	0.7792	0.4194	0.166
Mof_H 	H 	0.592	0.7891	0.3609	-0.048
Mof_C 	C 	0.6768	0.8606	0.4611	-0.321
Mof_H 	H 	0.6778	0.9631	0.442	0.095
Mof_H 	H 	0.6692	0.8631	0.5187	0.096
Mof_C 	C 	0.7737	0.7862	0.4456	0.18
Mof_H 	H 	0.8245	0.8339	0.4809	-0.058
Mof_C 	C 	0.7711	0.6198	0.4677	-0.315
Mof_H 	H 	0.8322	0.5731	0.4553	0.081
Mof_H 	H 	0.7642	0.6096	0.5252	0.091
Mof_C 	C 	0.8011	0.1028	0.6712	0.199
Mof_H 	H 	0.7519	0.1134	0.6262	-0.075
Mof_C 	C 	0.8935	0.181	0.65	-0.339
Mof_H 	H 	0.9168	0.1372	0.6014	0.096
Mof_H 	H 	0.9435	0.1668	0.6932	0.081
Mof_C 	C 	0.8759	0.3471	0.6369	0.192
Mof_H 	H 	0.8267	0.3602	0.5922	-0.072
Mof_C 	C 	0.8391	0.4197	0.7115	-0.33
Mof_H 	H 	0.8225	0.523	0.6991	0.087
Mof_H 	H 	0.8915	0.4201	0.7534	0.084
Mof_C 	C 	0.7502	0.3431	0.744	0.187
Mof_H 	H 	0.7446	0.3776	0.7994	-0.06
Mof_C 	C 	0.7618	0.172	0.7464	-0.333
Mof_H 	H 	0.8055	0.1459	0.7924	0.087
Mof_H 	H 	0.6987	0.1277	0.7548	0.099
Mof_Ag	Ag	0.36088	0.82627	0.9336	0.515
Mof_Ag	Ag	0.09639	0.11652	0.19983	0.467
Mof_N 	N 	0.3148	0.8797	0.0566	-0.314
Mof_H 	H 	0.2547	0.8417	0.0614	0.089
Mof_H 	H 	0.3556	0.8326	0.0928	0.087
Mof_N 	N 	0.5059	0.3413	0.0572	-0.304
Mof_H 	H 	0.5209	0.4209	0.0886	0.086
Mof_H 	H 	0.498	0.3743	0.006	0.085
Mof_N 	N 	0.1983	0.3045	0.1394	-0.298
Mof_H 	H 	0.1673	0.3929	0.1424	0.088
Mof_H 	H 	0.2539	0.3118	0.1708	0.1
Mof_N 	N 	0.18	0.4421	0.8141	-0.317
Mof_H 	H 	0.1473	0.4062	0.8552	0.086
Mof_H 	H 	0.2378	0.3944	0.8151	0.088
Mof_N 	N 	0.032	0.9191	0.8846	-0.313
Mof_H 	H 	0.0426	0.0182	0.8891	0.077
Mof_H 	H 	0.0175	0.8853	0.9334	0.087
Mof_N 	N 	0.3403	0.8856	0.8028	-0.309
Mof_H 	H 	0.3463	0.9856	0.799	0.084
Mof_H 	H 	0.3904	0.8452	0.778	0.089
Mof_C 	C 	0.3128	0.041	0.0779	0.171
Mof_H 	H 	0.3047	0.0505	0.1358	-0.052
Mof_C 	C 	0.4079	0.1132	0.0588	-0.297
Mof_H 	H 	0.417	0.1021	0.0018	0.071
Mof_H 	H 	0.4614	0.062	0.0883	0.067
Mof_C 	C 	0.4112	0.2792	0.0806	0.165
Mof_H 	H 	0.408	0.2891	0.1391	-0.048
Mof_C 	C 	0.3232	0.3606	0.0389	-0.319
Mof_H 	H 	0.3222	0.4631	0.058	0.095
Mof_H 	H 	0.3308	0.3631	0.9813	0.095
Mof_C 	C 	0.2263	0.2862	0.0544	0.178
Mof_H 	H 	0.1755	0.3339	0.0191	-0.057
Mof_C 	C 	0.2289	0.1198	0.0323	-0.311
Mof_H 	H 	0.1678	0.0731	0.0447	0.08
Mof_H 	H 	0.2358	0.1096	0.9748	0.088
Mof_C 	C 	0.1989	0.6028	0.8288	0.196
Mof_H 	H 	0.2481	0.6134	0.8738	-0.074
Mof_C 	C 	0.1065	0.681	0.85	-0.336
Mof_H 	H 	0.0832	0.6372	0.8986	0.095
Mof_H 	H 	0.0565	0.6668	0.8068	0.079
Mof_C 	C 	0.1241	0.8471	0.8631	0.189
Mof_H 	H 	0.1733	0.8602	0.9078	-0.07
Mof_C 	C 	0.1609	0.9197	0.7885	-0.322
Mof_H 	H 	0.1775	0.023	0.8009	0.083
Mof_H 	H 	0.1085	0.9201	0.7466	0.082
Mof_C 	C 	0.2498	0.8431	0.756	0.184
Mof_H 	H 	0.2554	0.8776	0.7006	-0.058
Mof_C 	C 	0.2382	0.672	0.7536	-0.33
Mof_H 	H 	0.1945	0.6459	0.7076	0.086
Mof_H 	H 	0.3013	0.6277	0.7452	0.098
Mof_Ag	Ag	0.36088	0.67373	0.4336	0.514
Mof_Ag	Ag	0.09639	0.38348	0.69983	0.468
Mof_N 	N 	0.3148	0.6203	0.5566	-0.314
Mof_H 	H 	0.2547	0.6583	0.5614	0.089
Mof_H 	H 	0.3556	0.6674	0.5928	0.087
Mof_N 	N 	0.5059	0.1587	0.5572	-0.304
Mof_H 	H 	0.5209	0.0791	0.5886	0.086
Mof_H 	H 	0.498	0.1257	0.506	0.085
Mof_N 	N 	0.1983	0.1955	0.6394	-0.298
Mof_H 	H 	0.1673	0.1071	0.6424	0.087
Mof_H 	H 	0.2539	0.1882	0.6708	0.1
Mof_N 	N 	0.18	0.0579	0.3141	-0.318
Mof_H 	H 	0.1473	0.0938	0.3552	0.086
Mof_H 	H 	0.2378	0.1056	0.3151	0.088
Mof_N 	N 	0.032	0.5809	0.3846	-0.316
Mof_H 	H 	0.0426	0.4818	0.3891	0.08
Mof_H 	H 	0.0175	0.6147	0.4334	0.087
Mof_N 	N 	0.3403	0.6144	0.3028	-0.31
Mof_H 	H 	0.3463	0.5144	0.299	0.084
Mof_H 	H 	0.3904	0.6548	0.278	0.089
Mof_C 	C 	0.3128	0.459	0.5779	0.173
Mof_H 	H 	0.3047	0.4495	0.6358	-0.053
Mof_C 	C 	0.4079	0.3868	0.5588	-0.298
Mof_H 	H 	0.417	0.3979	0.5018	0.071
Mof_H 	H 	0.4614	0.438	0.5883	0.067
Mof_C 	C 	0.4112	0.2208	0.5806	0.166
Mof_H 	H 	0.408	0.2109	0.6391	-0.048
Mof_C 	C 	0.3232	0.1394	0.5389	-0.321
Mof_H 	H 	0.3222	0.0369	0.558	0.095
Mof_H 	H 	0.3308	0.1369	0.4813	0.096
Mof_C 	C 	0.2263	0.2138	0.5544	0.18
Mof_H 	H 	0.1755	0.1661	0.5191	-0.058
Mof_C 	C 	0.2289	0.3802	0.5323	-0.315
Mof_H 	H 	0.1678	0.4269	0.5447	0.081
Mof_H 	H 	0.2358	0.3904	0.4748	0.091
Mof_C 	C 	0.1989	0.8972	0.3288	0.199
Mof_H 	H 	0.2481	0.8866	0.3738	-0.075
Mof_C 	C 	0.1065	0.819	0.35	-0.339
Mof_H 	H 	0.0832	0.8628	0.3986	0.096
Mof_H 	H 	0.0565	0.8332	0.3068	0.081
Mof_C 	C 	0.1241	0.6529	0.3631	0.192
Mof_H 	H 	0.1733	0.6398	0.4078	-0.072
Mof_C 	C 	0.1609	0.5803	0.2885	-0.33
Mof_H 	H 	0.1775	0.477	0.3009	0.087
Mof_H 	H 	0.1085	0.5799	0.2466	0.084
Mof_C 	C 	0.2498	0.6569	0.256	0.187
Mof_H 	H 	0.2554	0.6224	0.2006	-0.06
Mof_C 	C 	0.2382	0.828	0.2536	-0.333
Mof_H 	H 	0.1945	0.8541	0.2076	0.087
Mof_H 	H 	0.3013	0.8723	0.2452	0.099
Mof_Ag	Ag	0.63912	0.17373	0.0664	0.515
Mof_Ag	Ag	0.90361	0.88348	0.80017	0.467
Mof_N 	N 	0.6852	0.1203	0.9434	-0.314
Mof_H 	H 	0.7453	0.1583	0.9386	0.089
Mof_H 	H 	0.6444	0.1674	0.9072	0.087
Mof_N 	N 	0.4941	0.6587	0.9428	-0.304
Mof_H 	H 	0.4791	0.5791	0.9114	0.086
Mof_H 	H 	0.502	0.6257	0.994	0.085
Mof_N 	N 	0.8017	0.6955	0.8606	-0.298
Mof_H 	H 	0.8327	0.6071	0.8576	0.088
Mof_H 	H 	0.7461	0.6882	0.8292	0.1
Mof_N 	N 	0.82	0.5579	0.1859	-0.317
Mof_H 	H 	0.8527	0.5938	0.1448	0.086
Mof_H 	H 	0.7622	0.6056	0.1849	0.088
Mof_N 	N 	0.968	0.0809	0.1154	-0.313
Mof_H 	H 	0.9574	0.9818	0.1109	0.077
Mof_H 	H 	0.9825	0.1147	0.0666	0.087
Mof_N 	N 	0.6597	0.1144	0.1972	-0.309
Mof_H 	H 	0.6537	0.0144	0.201	0.084
Mof_H 	H 	0.6096	0.1548	0.222	0.089
Mof_C 	C 	0.6872	0.959	0.9221	0.171
Mof_H 	H 	0.6953	0.9495	0.8642	-0.052
Mof_C 	C 	0.5921	0.8868	0.9412	-0.297
Mof_H 	H 	0.583	0.8979	0.9982	0.071
Mof_H 	H 	0.5386	0.938	0.9117	0.067
Mof_C 	C 	0.5888	0.7208	0.9194	0.165
Mof_H 	H 	0.592	0.7109	0.8609	-0.048
Mof_C 	C 	0.6768	0.6394	0.9611	-0.319
Mof_H 	H 	0.6778	0.5369	0.942	0.095
Mof_H 	H 	0.6692	0.6369	0.0187	0.095
Mof_C 	C 	0.7737	0.7138	0.9456	0.178
Mof_H 	H 	0.8245	0.6661	0.9809	-0.057
Mof_C 	C 	0.7711	0.8802	0.9677	-0.311
Mof_H 	H 	0.8322	0.9269	0.9553	0.08
Mof_H 	H 	0.7642	0.8904	0.0252	0.088
Mof_C 	C 	0.8011	0.3972	0.1712	0.196
Mof_H 	H 	0.7519	0.3866	0.1262	-0.074
Mof_C 	C 	0.8935	0.319	0.15	-0.336
Mof_H 	H 	0.9168	0.3628	0.1014	0.095
Mof_H 	H 	0.9435	0.3332	0.1932	0.079
Mof_C 	C 	0.8759	0.1529	0.1369	0.189
Mof_H 	H 	0.8267	0.1398	0.0922	-0.07
Mof_C 	C 	0.8391	0.0803	0.2115	-0.322
Mof_H 	H 	0.8225	0.977	0.1991	0.083
Mof_H 	H 	0.8915	0.0799	0.2534	0.082
Mof_C 	C 	0.7502	0.1569	0.244	0.184
Mof_H 	H 	0.7446	0.1224	0.2994	-0.058
Mof_C 	C 	0.7618	0.328	0.2464	-0.33
Mof_H 	H 	0.8055	0.3541	0.2924	0.086
Mof_H 	H 	0.6987	0.3723	0.2548	0.098
_end
