data_functionalizedCrystal
_audit_creation_method	'EQeq! by Chris Wilmer'
_symmetry_space_group_name_H-M	'P1'
_symmetry_Int_Tables_number	1
_symmetry_cell_setting	triclinic
loop_
_symmetry_equiv_pos_as_xyz
  x,y,z
_cell_length_a	26.982
_cell_length_b	8.033
_cell_length_c	23.293
_cell_angle_alpha	90
_cell_angle_beta	98.992
_cell_angle_gamma	90
loop_
_atom_site_label
_atom_site_type_symbol
_atom_site_fract_x
_atom_site_fract_y
_atom_site_fract_z
_atom_site_charge
Mof_Zn	Zn	0.03981	0.12477	0.00164	1.217
Mof_O 	O 	0.98605	0.2334	0.04153	-0.494
Mof_O 	O 	0.92559	0.0469	0.04215	-0.487
Mof_O 	O 	0.85255	0.6099	0.1966	-0.375
Mof_O 	O 	0.93886	0.995	0.42339	-0.506
Mof_O 	O 	0.99864	0.8083	0.42418	-0.49
Mof_N 	N 	0.09385	0.3019	0.01482	-0.244
Mof_N 	N 	0.23422	0.6798	0.9991	-0.147
Mof_C 	C 	0.94578	0.1841	0.0556	0.474
Mof_C 	C 	0.92008	0.2987	0.0912	-0.3
Mof_C 	C 	0.878	0.2491	0.1141	0.274
Mof_H 	H 	0.8646	0.1436	0.1059	-0.05
Mof_C 	C 	0.856	0.3568	0.1492	-0.422
Mof_H 	H 	0.8272	0.3243	0.1637	0.185
Mof_C 	C 	0.8754	0.5042	0.162	0.415
Mof_C 	C 	0.9161	0.5631	0.1374	-0.4
Mof_H 	H 	0.928	0.6711	0.1444	0.185
Mof_C 	C 	0.93798	0.4576	0.1029	0.273
Mof_H 	H 	0.9656	0.4938	0.0869	-0.041
Mof_C 	C 	0.8809	0.6749	0.2458	0.427
Mof_C 	C 	0.8638	0.8146	0.2677	-0.425
Mof_H 	H 	0.8351	0.8663	0.2485	0.188
Mof_C 	C 	0.8891	0.8811	0.3187	0.287
Mof_H 	H 	0.8768	0.9765	0.3342	-0.062
Mof_C 	C 	0.93218	0.8086	0.3469	-0.331
Mof_C 	C 	0.9486	0.6643	0.3229	0.3
Mof_H 	H 	0.9774	0.6118	0.3414	-0.06
Mof_C 	C 	0.9234	0.5978	0.2731	-0.432
Mof_H 	H 	0.935	0.501	0.2577	0.186
Mof_C 	C 	0.95858	0.8751	0.402	0.494
Mof_C 	C 	0.13486	0.2921	0.9904	0.044
Mof_H 	H 	0.1399	0.1973	0.9692	0.011
Mof_C 	C 	0.17047	0.4166	0.9952	-0.059
Mof_H 	H 	0.1991	0.4038	0.9779	0.054
Mof_C 	C 	0.16389	0.557	0.0249	-0.048
Mof_C 	C 	0.1218	0.5675	0.051	-0.069
Mof_H 	H 	0.1157	0.6617	0.072	0.053
Mof_C 	C 	0.0882	0.4326	0.0454	0.059
Mof_H 	H 	0.0604	0.4379	0.0645	0.012
Mof_C 	C 	0.19881	0.699	0.028	0.279
Mof_C 	C 	0.1896	0.8478	0.062	-0.817
Mof_H 	H 	0.1992	0.8251	0.1027	0.274
Mof_H 	H 	0.1545	0.8755	0.0544	0.281
Mof_H 	H 	0.2089	0.9394	0.051	0.287
Mof_Zn	Zn	0.53981	0.62477	0.00164	1.219
Mof_O 	O 	0.48605	0.7334	0.04153	-0.494
Mof_O 	O 	0.42559	0.5469	0.04215	-0.487
Mof_O 	O 	0.35255	0.1099	0.1966	-0.375
Mof_O 	O 	0.43886	0.495	0.42339	-0.506
Mof_O 	O 	0.49864	0.3083	0.42418	-0.49
Mof_N 	N 	0.59385	0.8019	0.01482	-0.243
Mof_N 	N 	0.73422	0.1798	0.9991	-0.148
Mof_C 	C 	0.44578	0.6841	0.0556	0.474
Mof_C 	C 	0.42008	0.7987	0.0912	-0.3
Mof_C 	C 	0.378	0.7491	0.1141	0.274
Mof_H 	H 	0.3646	0.6436	0.1059	-0.05
Mof_C 	C 	0.356	0.8568	0.1492	-0.421
Mof_H 	H 	0.3272	0.8243	0.1637	0.185
Mof_C 	C 	0.3754	0.0042	0.162	0.414
Mof_C 	C 	0.4161	0.0631	0.1374	-0.401
Mof_H 	H 	0.428	0.1711	0.1444	0.186
Mof_C 	C 	0.43798	0.9576	0.1029	0.275
Mof_H 	H 	0.4656	0.9938	0.0869	-0.042
Mof_C 	C 	0.3809	0.1749	0.2458	0.427
Mof_C 	C 	0.3638	0.3146	0.2677	-0.425
Mof_H 	H 	0.3351	0.3663	0.2485	0.188
Mof_C 	C 	0.3891	0.3811	0.3187	0.287
Mof_H 	H 	0.3768	0.4765	0.3342	-0.062
Mof_C 	C 	0.43218	0.3086	0.3469	-0.331
Mof_C 	C 	0.4486	0.1643	0.3229	0.3
Mof_H 	H 	0.4774	0.1118	0.3414	-0.06
Mof_C 	C 	0.4234	0.0978	0.2731	-0.432
Mof_H 	H 	0.435	0.001	0.2577	0.186
Mof_C 	C 	0.45858	0.3751	0.402	0.494
Mof_C 	C 	0.63486	0.7921	0.9904	0.043
Mof_H 	H 	0.6399	0.6973	0.9692	0.011
Mof_C 	C 	0.67047	0.9166	0.9952	-0.061
Mof_H 	H 	0.6991	0.9038	0.9779	0.054
Mof_C 	C 	0.66389	0.057	0.0249	-0.045
Mof_C 	C 	0.6218	0.0675	0.051	-0.071
Mof_H 	H 	0.6157	0.1617	0.072	0.054
Mof_C 	C 	0.5882	0.9326	0.0454	0.061
Mof_H 	H 	0.5604	0.9379	0.0645	0.012
Mof_C 	C 	0.69881	0.199	0.028	0.279
Mof_C 	C 	0.6896	0.3478	0.062	-0.817
Mof_H 	H 	0.6992	0.3251	0.1027	0.273
Mof_H 	H 	0.6545	0.3755	0.0544	0.281
Mof_H 	H 	0.7089	0.4394	0.051	0.287
Mof_Zn	Zn	0.96019	0.12477	0.49836	1.219
Mof_O 	O 	0.01395	0.2334	0.45847	-0.494
Mof_O 	O 	0.07441	0.0469	0.45785	-0.488
Mof_O 	O 	0.14745	0.6099	0.3034	-0.375
Mof_O 	O 	0.06114	0.995	0.07661	-0.506
Mof_O 	O 	0.00136	0.8083	0.07582	-0.49
Mof_N 	N 	0.90615	0.3019	0.48518	-0.243
Mof_N 	N 	0.76578	0.6798	0.5009	-0.148
Mof_C 	C 	0.05422	0.1841	0.4444	0.474
Mof_C 	C 	0.07992	0.2987	0.4088	-0.3
Mof_C 	C 	0.122	0.2491	0.3859	0.274
Mof_H 	H 	0.1354	0.1436	0.3941	-0.05
Mof_C 	C 	0.144	0.3568	0.3508	-0.422
Mof_H 	H 	0.1728	0.3243	0.3363	0.185
Mof_C 	C 	0.1246	0.5042	0.338	0.415
Mof_C 	C 	0.0839	0.5631	0.3626	-0.4
Mof_H 	H 	0.072	0.6711	0.3556	0.185
Mof_C 	C 	0.06202	0.4576	0.3971	0.274
Mof_H 	H 	0.0344	0.4938	0.4131	-0.042
Mof_C 	C 	0.1191	0.6749	0.2542	0.427
Mof_C 	C 	0.1362	0.8146	0.2323	-0.425
Mof_H 	H 	0.1649	0.8663	0.2515	0.188
Mof_C 	C 	0.1109	0.8811	0.1813	0.287
Mof_H 	H 	0.1232	0.9765	0.1658	-0.062
Mof_C 	C 	0.06782	0.8086	0.1531	-0.331
Mof_C 	C 	0.0514	0.6643	0.1771	0.3
Mof_H 	H 	0.0226	0.6118	0.1586	-0.06
Mof_C 	C 	0.0766	0.5978	0.2269	-0.432
Mof_H 	H 	0.065	0.501	0.2423	0.186
Mof_C 	C 	0.04142	0.8751	0.098	0.494
Mof_C 	C 	0.86514	0.2921	0.5096	0.043
Mof_H 	H 	0.8601	0.1973	0.5308	0.011
Mof_C 	C 	0.82953	0.4166	0.5048	-0.06
Mof_H 	H 	0.8009	0.4038	0.5221	0.054
Mof_C 	C 	0.83611	0.557	0.4751	-0.047
Mof_C 	C 	0.8782	0.5675	0.449	-0.069
Mof_H 	H 	0.8843	0.6617	0.428	0.053
Mof_C 	C 	0.9118	0.4326	0.4546	0.059
Mof_H 	H 	0.9396	0.4379	0.4355	0.012
Mof_C 	C 	0.80119	0.699	0.472	0.279
Mof_C 	C 	0.8104	0.8478	0.438	-0.818
Mof_H 	H 	0.8008	0.8251	0.3973	0.274
Mof_H 	H 	0.8455	0.8755	0.4456	0.281
Mof_H 	H 	0.7911	0.9394	0.449	0.287
Mof_Zn	Zn	0.46019	0.62477	0.49836	1.219
Mof_O 	O 	0.51395	0.7334	0.45847	-0.494
Mof_O 	O 	0.57441	0.5469	0.45785	-0.487
Mof_O 	O 	0.64745	0.1099	0.3034	-0.375
Mof_O 	O 	0.56114	0.495	0.07661	-0.506
Mof_O 	O 	0.50136	0.3083	0.07582	-0.49
Mof_N 	N 	0.40615	0.8019	0.48518	-0.243
Mof_N 	N 	0.26578	0.1798	0.5009	-0.148
Mof_C 	C 	0.55422	0.6841	0.4444	0.474
Mof_C 	C 	0.57992	0.7987	0.4088	-0.3
Mof_C 	C 	0.622	0.7491	0.3859	0.274
Mof_H 	H 	0.6354	0.6436	0.3941	-0.05
Mof_C 	C 	0.644	0.8568	0.3508	-0.421
Mof_H 	H 	0.6728	0.8243	0.3363	0.185
Mof_C 	C 	0.6246	0.0042	0.338	0.415
Mof_C 	C 	0.5839	0.0631	0.3626	-0.401
Mof_H 	H 	0.572	0.1711	0.3556	0.185
Mof_C 	C 	0.56202	0.9576	0.3971	0.274
Mof_H 	H 	0.5344	0.9938	0.4131	-0.042
Mof_C 	C 	0.6191	0.1749	0.2542	0.427
Mof_C 	C 	0.6362	0.3146	0.2323	-0.425
Mof_H 	H 	0.6649	0.3663	0.2515	0.188
Mof_C 	C 	0.6109	0.3811	0.1813	0.287
Mof_H 	H 	0.6232	0.4765	0.1658	-0.062
Mof_C 	C 	0.56782	0.3086	0.1531	-0.331
Mof_C 	C 	0.5514	0.1643	0.1771	0.3
Mof_H 	H 	0.5226	0.1118	0.1586	-0.06
Mof_C 	C 	0.5766	0.0978	0.2269	-0.432
Mof_H 	H 	0.565	0.001	0.2423	0.186
Mof_C 	C 	0.54142	0.3751	0.098	0.494
Mof_C 	C 	0.36514	0.7921	0.5096	0.043
Mof_H 	H 	0.3601	0.6973	0.5308	0.011
Mof_C 	C 	0.32953	0.9166	0.5048	-0.061
Mof_H 	H 	0.3009	0.9038	0.5221	0.054
Mof_C 	C 	0.33611	0.057	0.4751	-0.046
Mof_C 	C 	0.3782	0.0675	0.449	-0.07
Mof_H 	H 	0.3843	0.1617	0.428	0.053
Mof_C 	C 	0.4118	0.9326	0.4546	0.059
Mof_H 	H 	0.4396	0.9379	0.4355	0.012
Mof_C 	C 	0.30119	0.199	0.472	0.279
Mof_C 	C 	0.3104	0.3478	0.438	-0.817
Mof_H 	H 	0.3008	0.3251	0.3973	0.273
Mof_H 	H 	0.3455	0.3755	0.4456	0.28
Mof_H 	H 	0.2911	0.4394	0.449	0.286
Mof_Zn	Zn	0.96019	0.87523	0.99836	1.218
Mof_O 	O 	0.01395	0.7666	0.95847	-0.493
Mof_O 	O 	0.07441	0.9531	0.95785	-0.487
Mof_O 	O 	0.14745	0.3901	0.8034	-0.375
Mof_O 	O 	0.06114	0.005	0.57661	-0.506
Mof_O 	O 	0.00136	0.1917	0.57582	-0.49
Mof_N 	N 	0.90615	0.6981	0.98518	-0.244
Mof_N 	N 	0.76578	0.3202	0.0009	-0.147
Mof_C 	C 	0.05422	0.8159	0.9444	0.474
Mof_C 	C 	0.07992	0.7013	0.9088	-0.3
Mof_C 	C 	0.122	0.7509	0.8859	0.274
Mof_H 	H 	0.1354	0.8564	0.8941	-0.05
Mof_C 	C 	0.144	0.6432	0.8508	-0.422
Mof_H 	H 	0.1728	0.6757	0.8363	0.185
Mof_C 	C 	0.1246	0.4958	0.838	0.415
Mof_C 	C 	0.0839	0.4369	0.8626	-0.4
Mof_H 	H 	0.072	0.3289	0.8556	0.185
Mof_C 	C 	0.06202	0.5424	0.8971	0.273
Mof_H 	H 	0.0344	0.5062	0.9131	-0.041
Mof_C 	C 	0.1191	0.3251	0.7542	0.427
Mof_C 	C 	0.1362	0.1854	0.7323	-0.425
Mof_H 	H 	0.1649	0.1337	0.7515	0.188
Mof_C 	C 	0.1109	0.1189	0.6813	0.287
Mof_H 	H 	0.1232	0.0235	0.6658	-0.062
Mof_C 	C 	0.06782	0.1914	0.6531	-0.331
Mof_C 	C 	0.0514	0.3357	0.6771	0.3
Mof_H 	H 	0.0226	0.3882	0.6586	-0.06
Mof_C 	C 	0.0766	0.4022	0.7269	-0.432
Mof_H 	H 	0.065	0.499	0.7423	0.186
Mof_C 	C 	0.04142	0.1249	0.598	0.494
Mof_C 	C 	0.86514	0.7079	0.0096	0.044
Mof_H 	H 	0.8601	0.8027	0.0308	0.011
Mof_C 	C 	0.82953	0.5834	0.0048	-0.059
Mof_H 	H 	0.8009	0.5962	0.0221	0.054
Mof_C 	C 	0.83611	0.443	0.9751	-0.048
Mof_C 	C 	0.8782	0.4325	0.949	-0.069
Mof_H 	H 	0.8843	0.3383	0.928	0.053
Mof_C 	C 	0.9118	0.5674	0.9546	0.059
Mof_H 	H 	0.9396	0.5621	0.9355	0.012
Mof_C 	C 	0.80119	0.301	0.972	0.279
Mof_C 	C 	0.8104	0.1522	0.938	-0.817
Mof_H 	H 	0.8008	0.1749	0.8973	0.274
Mof_H 	H 	0.8455	0.1245	0.9456	0.281
Mof_H 	H 	0.7911	0.0606	0.949	0.287
Mof_Zn	Zn	0.46019	0.37523	0.99836	1.219
Mof_O 	O 	0.51395	0.2666	0.95847	-0.494
Mof_O 	O 	0.57441	0.4531	0.95785	-0.487
Mof_O 	O 	0.64745	0.8901	0.8034	-0.375
Mof_O 	O 	0.56114	0.505	0.57661	-0.506
Mof_O 	O 	0.50136	0.6917	0.57582	-0.49
Mof_N 	N 	0.40615	0.1981	0.98518	-0.243
Mof_N 	N 	0.26578	0.8202	0.0009	-0.148
Mof_C 	C 	0.55422	0.3159	0.9444	0.474
Mof_C 	C 	0.57992	0.2013	0.9088	-0.3
Mof_C 	C 	0.622	0.2509	0.8859	0.274
Mof_H 	H 	0.6354	0.3564	0.8941	-0.05
Mof_C 	C 	0.644	0.1432	0.8508	-0.421
Mof_H 	H 	0.6728	0.1757	0.8363	0.185
Mof_C 	C 	0.6246	0.9958	0.838	0.414
Mof_C 	C 	0.5839	0.9369	0.8626	-0.401
Mof_H 	H 	0.572	0.8289	0.8556	0.186
Mof_C 	C 	0.56202	0.0424	0.8971	0.275
Mof_H 	H 	0.5344	0.0062	0.9131	-0.042
Mof_C 	C 	0.6191	0.8251	0.7542	0.427
Mof_C 	C 	0.6362	0.6854	0.7323	-0.425
Mof_H 	H 	0.6649	0.6337	0.7515	0.188
Mof_C 	C 	0.6109	0.6189	0.6813	0.287
Mof_H 	H 	0.6232	0.5235	0.6658	-0.062
Mof_C 	C 	0.56782	0.6914	0.6531	-0.331
Mof_C 	C 	0.5514	0.8357	0.6771	0.3
Mof_H 	H 	0.5226	0.8882	0.6586	-0.06
Mof_C 	C 	0.5766	0.9022	0.7269	-0.432
Mof_H 	H 	0.565	0.999	0.7423	0.186
Mof_C 	C 	0.54142	0.6249	0.598	0.494
Mof_C 	C 	0.36514	0.2079	0.0096	0.043
Mof_H 	H 	0.3601	0.3027	0.0308	0.011
Mof_C 	C 	0.32953	0.0834	0.0048	-0.061
Mof_H 	H 	0.3009	0.0962	0.0221	0.054
Mof_C 	C 	0.33611	0.943	0.9751	-0.045
Mof_C 	C 	0.3782	0.9325	0.949	-0.071
Mof_H 	H 	0.3843	0.8383	0.928	0.054
Mof_C 	C 	0.4118	0.0674	0.9546	0.061
Mof_H 	H 	0.4396	0.0621	0.9355	0.012
Mof_C 	C 	0.30119	0.801	0.972	0.279
Mof_C 	C 	0.3104	0.6522	0.938	-0.817
Mof_H 	H 	0.3008	0.6749	0.8973	0.273
Mof_H 	H 	0.3455	0.6245	0.9456	0.281
Mof_H 	H 	0.2911	0.5606	0.949	0.287
Mof_Zn	Zn	0.03981	0.87523	0.50164	1.219
Mof_O 	O 	0.98605	0.7666	0.54153	-0.494
Mof_O 	O 	0.92559	0.9531	0.54215	-0.488
Mof_O 	O 	0.85255	0.3901	0.6966	-0.375
Mof_O 	O 	0.93886	0.005	0.92339	-0.506
Mof_O 	O 	0.99864	0.1917	0.92418	-0.49
Mof_N 	N 	0.09385	0.6981	0.51482	-0.243
Mof_N 	N 	0.23422	0.3202	0.4991	-0.148
Mof_C 	C 	0.94578	0.8159	0.5556	0.474
Mof_C 	C 	0.92008	0.7013	0.5912	-0.3
Mof_C 	C 	0.878	0.7509	0.6141	0.274
Mof_H 	H 	0.8646	0.8564	0.6059	-0.05
Mof_C 	C 	0.856	0.6432	0.6492	-0.422
Mof_H 	H 	0.8272	0.6757	0.6637	0.185
Mof_C 	C 	0.8754	0.4958	0.662	0.415
Mof_C 	C 	0.9161	0.4369	0.6374	-0.4
Mof_H 	H 	0.928	0.3289	0.6444	0.185
Mof_C 	C 	0.93798	0.5424	0.6029	0.274
Mof_H 	H 	0.9656	0.5062	0.5869	-0.042
Mof_C 	C 	0.8809	0.3251	0.7458	0.427
Mof_C 	C 	0.8638	0.1854	0.7677	-0.425
Mof_H 	H 	0.8351	0.1337	0.7485	0.188
Mof_C 	C 	0.8891	0.1189	0.8187	0.287
Mof_H 	H 	0.8768	0.0235	0.8342	-0.062
Mof_C 	C 	0.93218	0.1914	0.8469	-0.331
Mof_C 	C 	0.9486	0.3357	0.8229	0.3
Mof_H 	H 	0.9774	0.3882	0.8414	-0.06
Mof_C 	C 	0.9234	0.4022	0.7731	-0.432
Mof_H 	H 	0.935	0.499	0.7577	0.186
Mof_C 	C 	0.95858	0.1249	0.902	0.494
Mof_C 	C 	0.13486	0.7079	0.4904	0.043
Mof_H 	H 	0.1399	0.8027	0.4692	0.011
Mof_C 	C 	0.17047	0.5834	0.4952	-0.06
Mof_H 	H 	0.1991	0.5962	0.4779	0.054
Mof_C 	C 	0.16389	0.443	0.5249	-0.047
Mof_C 	C 	0.1218	0.4325	0.551	-0.069
Mof_H 	H 	0.1157	0.3383	0.572	0.053
Mof_C 	C 	0.0882	0.5674	0.5454	0.059
Mof_H 	H 	0.0604	0.5621	0.5645	0.012
Mof_C 	C 	0.19881	0.301	0.528	0.279
Mof_C 	C 	0.1896	0.1522	0.562	-0.818
Mof_H 	H 	0.1992	0.1749	0.6027	0.274
Mof_H 	H 	0.1545	0.1245	0.5544	0.281
Mof_H 	H 	0.2089	0.0606	0.551	0.287
Mof_Zn	Zn	0.53981	0.37523	0.50164	1.219
Mof_O 	O 	0.48605	0.2666	0.54153	-0.494
Mof_O 	O 	0.42559	0.4531	0.54215	-0.487
Mof_O 	O 	0.35255	0.8901	0.6966	-0.375
Mof_O 	O 	0.43886	0.505	0.92339	-0.506
Mof_O 	O 	0.49864	0.6917	0.92418	-0.49
Mof_N 	N 	0.59385	0.1981	0.51482	-0.243
Mof_N 	N 	0.73422	0.8202	0.4991	-0.148
Mof_C 	C 	0.44578	0.3159	0.5556	0.474
Mof_C 	C 	0.42008	0.2013	0.5912	-0.3
Mof_C 	C 	0.378	0.2509	0.6141	0.274
Mof_H 	H 	0.3646	0.3564	0.6059	-0.05
Mof_C 	C 	0.356	0.1432	0.6492	-0.421
Mof_H 	H 	0.3272	0.1757	0.6637	0.185
Mof_C 	C 	0.3754	0.9958	0.662	0.415
Mof_C 	C 	0.4161	0.9369	0.6374	-0.401
Mof_H 	H 	0.428	0.8289	0.6444	0.185
Mof_C 	C 	0.43798	0.0424	0.6029	0.274
Mof_H 	H 	0.4656	0.0062	0.5869	-0.042
Mof_C 	C 	0.3809	0.8251	0.7458	0.427
Mof_C 	C 	0.3638	0.6854	0.7677	-0.425
Mof_H 	H 	0.3351	0.6337	0.7485	0.188
Mof_C 	C 	0.3891	0.6189	0.8187	0.287
Mof_H 	H 	0.3768	0.5235	0.8342	-0.062
Mof_C 	C 	0.43218	0.6914	0.8469	-0.331
Mof_C 	C 	0.4486	0.8357	0.8229	0.3
Mof_H 	H 	0.4774	0.8882	0.8414	-0.06
Mof_C 	C 	0.4234	0.9022	0.7731	-0.432
Mof_H 	H 	0.435	0.999	0.7577	0.186
Mof_C 	C 	0.45858	0.6249	0.902	0.494
Mof_C 	C 	0.63486	0.2079	0.4904	0.043
Mof_H 	H 	0.6399	0.3027	0.4692	0.011
Mof_C 	C 	0.67047	0.0834	0.4952	-0.061
Mof_H 	H 	0.6991	0.0962	0.4779	0.054
Mof_C 	C 	0.66389	0.943	0.5249	-0.046
Mof_C 	C 	0.6218	0.9325	0.551	-0.07
Mof_H 	H 	0.6157	0.8383	0.572	0.053
Mof_C 	C 	0.5882	0.0674	0.5454	0.059
Mof_H 	H 	0.5604	0.0621	0.5645	0.012
Mof_C 	C 	0.69881	0.801	0.528	0.279
Mof_C 	C 	0.6896	0.6522	0.562	-0.817
Mof_H 	H 	0.6992	0.6749	0.6027	0.273
Mof_H 	H 	0.6545	0.6245	0.5544	0.28
Mof_H 	H 	0.7089	0.5606	0.551	0.286
_end
