data_functionalizedCrystal
_audit_creation_method	'EQeq! by Chris Wilmer'
_symmetry_space_group_name_H-M	'P1'
_symmetry_Int_Tables_number	1
_symmetry_cell_setting	triclinic
loop_
_symmetry_equiv_pos_as_xyz
  x,y,z
_cell_length_a	8.7794
_cell_length_b	12.4011
_cell_length_c	24.8971
_cell_angle_alpha	90
_cell_angle_beta	90
_cell_angle_gamma	92.262
loop_
_atom_site_label
_atom_site_type_symbol
_atom_site_fract_x
_atom_site_fract_y
_atom_site_fract_z
_atom_site_charge
Mof_La	La	0.24525	0.99796	0.99154	1.962
Mof_La	La	0.25475	0.00204	0.49154	1.975
Mof_La	La	0.75475	0.00204	0.00846	1.963
Mof_La	La	0.74525	0.99796	0.50846	1.976
Mof_H 	H 	0.4105	0.8456	0.8234	0.13
Mof_H 	H 	0.3311	0.9455	0.7979	0.128
Mof_H 	H 	0.0972	0.7145	0.8533	0.051
Mof_H 	H 	0.9029	0.5668	0.694	0.088
Mof_H 	H 	0.5481	0.2752	0.7056	0.04
Mof_H 	H 	0.6272	0.3699	0.7837	0.071
Mof_H 	H 	0.8975	0.5979	0.8556	0.081
Mof_H 	H 	0.5181	0.3275	0.8682	0.046
Mof_H 	H 	0.375	0.2779	0.9614	0.126
Mof_H 	H 	0.4452	0.3353	0.0132	0.129
Mof_H 	H 	0.3974	0.2731	0.5684	0.139
Mof_H 	H 	0.383	0.2008	0.6208	0.109
Mof_H 	H 	0.0895	0.1544	0.3234	0.13
Mof_H 	H 	0.1689	0.0545	0.2979	0.127
Mof_H 	H 	0.4028	0.2855	0.3533	0.052
Mof_H 	H 	0.5971	0.4332	0.194	0.088
Mof_H 	H 	0.9519	0.7248	0.2056	0.038
Mof_H 	H 	0.8728	0.6301	0.2837	0.07
Mof_H 	H 	0.6025	0.4021	0.3556	0.081
Mof_H 	H 	0.9819	0.6725	0.3682	0.044
Mof_H 	H 	0.125	0.7221	0.4614	0.126
Mof_H 	H 	0.0548	0.6647	0.5132	0.13
Mof_H 	H 	0.1026	0.7269	0.0684	0.136
Mof_H 	H 	0.117	0.7992	0.1208	0.107
Mof_H 	H 	0.5895	0.1544	0.1766	0.13
Mof_H 	H 	0.6689	0.0545	0.2021	0.128
Mof_H 	H 	0.9028	0.2855	0.1467	0.051
Mof_H 	H 	0.0971	0.4332	0.306	0.088
Mof_H 	H 	0.4519	0.7248	0.2944	0.04
Mof_H 	H 	0.3728	0.6301	0.2163	0.071
Mof_H 	H 	0.1025	0.4021	0.1444	0.081
Mof_H 	H 	0.4819	0.6725	0.1318	0.046
Mof_H 	H 	0.625	0.7221	0.0386	0.126
Mof_H 	H 	0.5548	0.6647	0.9868	0.129
Mof_H 	H 	0.6026	0.7269	0.4316	0.139
Mof_H 	H 	0.617	0.7992	0.3792	0.109
Mof_H 	H 	0.9105	0.8456	0.6766	0.13
Mof_H 	H 	0.8311	0.9455	0.7021	0.127
Mof_H 	H 	0.5972	0.7145	0.6467	0.052
Mof_H 	H 	0.4029	0.5668	0.806	0.088
Mof_H 	H 	0.0481	0.2752	0.7944	0.038
Mof_H 	H 	0.1272	0.3699	0.7163	0.07
Mof_H 	H 	0.3975	0.5979	0.6444	0.081
Mof_H 	H 	0.0181	0.3275	0.6318	0.044
Mof_H 	H 	0.875	0.2779	0.5386	0.126
Mof_H 	H 	0.9452	0.3353	0.4868	0.13
Mof_H 	H 	0.8974	0.2731	0.9316	0.136
Mof_H 	H 	0.883	0.2008	0.8792	0.107
Mof_C 	C 	0.2728	0.9209	0.87642	0.392
Mof_C 	C 	0.3139	0.8823	0.821	-0.275
Mof_C 	C 	0.0351	0.6829	0.7736	0.042
Mof_C 	C 	0.109	0.7317	0.8167	-0.014
Mof_C 	C 	0.9187	0.5946	0.7748	0.065
Mof_C 	C 	0.8646	0.5445	0.7276	-0.111
Mof_C 	C 	0.7521	0.4605	0.7312	0.059
Mof_C 	C 	0.6836	0.4106	0.6826	0.037
Mof_C 	C 	0.5837	0.3216	0.678	-0.014
Mof_C 	C 	0.6994	0.4277	0.7814	-0.118
Mof_C 	C 	0.751	0.4786	0.8285	0.062
Mof_C 	C 	0.8616	0.5627	0.8244	-0.111
Mof_C 	C 	0.6896	0.446	0.8805	0.036
Mof_C 	C 	0.575	0.3708	0.8925	-0.018
Mof_C 	C 	0.5596	0.1991	0.99185	0.447
Mof_C 	C 	0.4705	0.299	0.9796	-0.296
Mof_C 	C 	0.5523	0.1529	0.57	0.443
Mof_C 	C 	0.4557	0.2366	0.5961	-0.295
Mof_C 	C 	0.2272	0.0791	0.37642	0.392
Mof_C 	C 	0.1861	0.1177	0.321	-0.274
Mof_C 	C 	0.4649	0.3171	0.2736	0.044
Mof_C 	C 	0.391	0.2683	0.3167	-0.014
Mof_C 	C 	0.5813	0.4054	0.2748	0.065
Mof_C 	C 	0.6354	0.4555	0.2276	-0.111
Mof_C 	C 	0.7479	0.5395	0.2312	0.058
Mof_C 	C 	0.8164	0.5894	0.1826	0.036
Mof_C 	C 	0.9163	0.6784	0.178	-0.014
Mof_C 	C 	0.8006	0.5723	0.2814	-0.118
Mof_C 	C 	0.749	0.5214	0.3285	0.062
Mof_C 	C 	0.6384	0.4373	0.3244	-0.11
Mof_C 	C 	0.8104	0.554	0.3805	0.036
Mof_C 	C 	0.925	0.6292	0.3925	-0.019
Mof_C 	C 	0.9404	0.8009	0.49185	0.44
Mof_C 	C 	0.0295	0.701	0.4796	-0.294
Mof_C 	C 	0.9477	0.8471	0.07	0.426
Mof_C 	C 	0.0443	0.7634	0.0961	-0.28
Mof_C 	C 	0.7272	0.0791	0.12358	0.392
Mof_C 	C 	0.6861	0.1177	0.179	-0.275
Mof_C 	C 	0.9649	0.3171	0.2264	0.042
Mof_C 	C 	0.891	0.2683	0.1833	-0.014
Mof_C 	C 	0.0813	0.4054	0.2252	0.065
Mof_C 	C 	0.1354	0.4555	0.2724	-0.111
Mof_C 	C 	0.2479	0.5395	0.2688	0.059
Mof_C 	C 	0.3164	0.5894	0.3174	0.037
Mof_C 	C 	0.4163	0.6784	0.322	-0.014
Mof_C 	C 	0.3006	0.5723	0.2186	-0.118
Mof_C 	C 	0.249	0.5214	0.1715	0.062
Mof_C 	C 	0.1384	0.4373	0.1756	-0.111
Mof_C 	C 	0.3104	0.554	0.1195	0.036
Mof_C 	C 	0.425	0.6292	0.1075	-0.018
Mof_C 	C 	0.4404	0.8009	0.00815	0.447
Mof_C 	C 	0.5295	0.701	0.0204	-0.296
Mof_C 	C 	0.4477	0.8471	0.43	0.443
Mof_C 	C 	0.5443	0.7634	0.4039	-0.295
Mof_C 	C 	0.7728	0.9209	0.62358	0.392
Mof_C 	C 	0.8139	0.8823	0.679	-0.274
Mof_C 	C 	0.5351	0.6829	0.7264	0.044
Mof_C 	C 	0.609	0.7317	0.6833	-0.014
Mof_C 	C 	0.4187	0.5946	0.7252	0.065
Mof_C 	C 	0.3646	0.5445	0.7724	-0.111
Mof_C 	C 	0.2521	0.4605	0.7688	0.058
Mof_C 	C 	0.1836	0.4106	0.8174	0.036
Mof_C 	C 	0.0837	0.3216	0.822	-0.014
Mof_C 	C 	0.1994	0.4277	0.7186	-0.118
Mof_C 	C 	0.251	0.4786	0.6715	0.062
Mof_C 	C 	0.3616	0.5627	0.6756	-0.11
Mof_C 	C 	0.1896	0.446	0.6195	0.036
Mof_C 	C 	0.075	0.3708	0.6075	-0.019
Mof_C 	C 	0.0596	0.1991	0.50815	0.44
Mof_C 	C 	0.9705	0.299	0.5204	-0.294
Mof_C 	C 	0.0523	0.1529	0.93	0.426
Mof_C 	C 	0.9557	0.2366	0.9039	-0.28
Mof_N 	N 	0.2019	0.8094	0.795	-0.037
Mof_N 	N 	0.1903	0.8088	0.74145	-0.056
Mof_N 	N 	0.0889	0.7323	0.72837	-0.083
Mof_N 	N 	0.7049	0.453	0.63293	-0.075
Mof_N 	N 	0.6227	0.3948	0.59802	-0.045
Mof_N 	N 	0.5494	0.3166	0.62563	-0.035
Mof_N 	N 	0.5614	0.3724	0.94556	-0.033
Mof_N 	N 	0.6619	0.4444	0.96805	-0.042
Mof_N 	N 	0.7391	0.4899	0.92794	-0.078
Mof_N 	N 	0.2981	0.1906	0.295	-0.037
Mof_N 	N 	0.3097	0.1912	0.24145	-0.057
Mof_N 	N 	0.4111	0.2677	0.22837	-0.083
Mof_N 	N 	0.7951	0.547	0.13293	-0.076
Mof_N 	N 	0.8773	0.6052	0.09802	-0.046
Mof_N 	N 	0.9506	0.6834	0.12563	-0.039
Mof_N 	N 	0.9386	0.6276	0.44556	-0.034
Mof_N 	N 	0.8381	0.5556	0.46805	-0.042
Mof_N 	N 	0.7609	0.5101	0.42794	-0.078
Mof_N 	N 	0.7981	0.1906	0.205	-0.037
Mof_N 	N 	0.8097	0.1912	0.25855	-0.056
Mof_N 	N 	0.9111	0.2677	0.27163	-0.083
Mof_N 	N 	0.2951	0.547	0.36707	-0.075
Mof_N 	N 	0.3773	0.6052	0.40198	-0.045
Mof_N 	N 	0.4506	0.6834	0.37437	-0.035
Mof_N 	N 	0.4386	0.6276	0.05444	-0.033
Mof_N 	N 	0.3381	0.5556	0.03195	-0.042
Mof_N 	N 	0.2609	0.5101	0.07206	-0.078
Mof_N 	N 	0.7019	0.8094	0.705	-0.037
Mof_N 	N 	0.6903	0.8088	0.75855	-0.057
Mof_N 	N 	0.5889	0.7323	0.77163	-0.083
Mof_N 	N 	0.2049	0.453	0.86707	-0.076
Mof_N 	N 	0.1227	0.3948	0.90198	-0.046
Mof_N 	N 	0.0494	0.3166	0.87437	-0.039
Mof_N 	N 	0.0614	0.3724	0.55444	-0.034
Mof_N 	N 	0.1619	0.4444	0.53195	-0.042
Mof_N 	N 	0.2391	0.4899	0.57206	-0.078
Mof_O 	O 	0.381	0.9689	0.90138	-0.442
Mof_O 	O 	0.1427	0.9082	0.8965	-0.403
Mof_O 	O 	0.7011	0.2062	0.99758	-0.444
Mof_O 	O 	0.4863	0.1091	0.99636	-0.598
Mof_O 	O 	0.6917	0.1516	0.57794	-0.434
Mof_O 	O 	0.4836	0.0838	0.53884	-0.627
Mof_O 	O 	0.119	0.0311	0.40138	-0.443
Mof_O 	O 	0.3573	0.0918	0.3965	-0.403
Mof_O 	O 	0.7989	0.7938	0.49758	-0.447
Mof_O 	O 	0.0137	0.8909	0.49636	-0.599
Mof_O 	O 	0.8083	0.8484	0.07794	-0.43
Mof_O 	O 	0.0164	0.9162	0.03884	-0.615
Mof_O 	O 	0.619	0.0311	0.09862	-0.442
Mof_O 	O 	0.8573	0.0918	0.1035	-0.403
Mof_O 	O 	0.2989	0.7938	0.00242	-0.444
Mof_O 	O 	0.5137	0.8909	0.00364	-0.598
Mof_O 	O 	0.3083	0.8484	0.42206	-0.434
Mof_O 	O 	0.5164	0.9162	0.46116	-0.627
Mof_O 	O 	0.881	0.9689	0.59862	-0.443
Mof_O 	O 	0.6427	0.9082	0.6035	-0.403
Mof_O 	O 	0.2011	0.2062	0.50242	-0.447
Mof_O 	O 	0.9863	0.1091	0.50364	-0.599
Mof_O 	O 	0.1917	0.1516	0.92206	-0.43
Mof_O 	O 	0.9836	0.0838	0.96116	-0.615
_end
