data_functionalizedCrystal
_audit_creation_method	'EQeq! by Chris Wilmer'
_symmetry_space_group_name_H-M	'P1'
_symmetry_Int_Tables_number	1
_symmetry_cell_setting	triclinic
loop_
_symmetry_equiv_pos_as_xyz
  x,y,z
_cell_length_a	13.333
_cell_length_b	22.7104
_cell_length_c	18.4681
_cell_angle_alpha	90
_cell_angle_beta	109.127
_cell_angle_gamma	90
loop_
_atom_site_label
_atom_site_type_symbol
_atom_site_fract_x
_atom_site_fract_y
_atom_site_fract_z
_atom_site_charge
Mof_Cu	Cu	0.44228	0.2626	0.50671	0.905
Mof_N 	N 	0.4918	0.26259	0.4149	-0.207
Mof_C 	C 	0.5244	0.30689	0.3822	0.042
Mof_H 	H 	0.5203	0.3454	0.3998	0.017
Mof_C 	C 	0.565	0.2981	0.3221	-0.068
Mof_H 	H 	0.587	0.3305	0.2995	0.053
Mof_C 	C 	0.5725	0.2431	0.2964	-0.047
Mof_H 	H 	0.6012	0.2373	0.2567	0.059
Mof_C 	C 	0.5378	0.1947	0.3287	0.027
Mof_C 	C 	0.4969	0.20698	0.38822	0.014
Mof_C 	C 	0.4576	0.16077	0.423	0.024
Mof_C 	C 	0.4601	0.10245	0.3987	0.006
Mof_C 	C 	0.4187	0.05952	0.4353	-0.04
Mof_H 	H 	0.4168	0.0199	0.4203	0.041
Mof_C 	C 	0.3811	0.07526	0.493	-0.078
Mof_H 	H 	0.3536	0.0465	0.5181	0.053
Mof_C 	C 	0.3837	0.13441	0.5147	0.046
Mof_H 	H 	0.359	0.1447	0.5552	0.016
Mof_N 	N 	0.4197	0.17629	0.48016	-0.209
Mof_C 	C 	0.5386	0.1346	0.3046	-0.069
Mof_H 	H 	0.5658	0.1257	0.2649	0.067
Mof_C 	C 	0.5011	0.091	0.3379	-0.047
Mof_H 	H 	0.5021	0.0522	0.3206	0.043
Mof_Cu	Cu	0.25066	0.36917	0.50728	0.917
Mof_N 	N 	0.2296	0.43322	0.42918	-0.204
Mof_C 	C 	0.212	0.42938	0.3545	0.047
Mof_H 	H 	0.2052	0.3919	0.3318	0.019
Mof_C 	C 	0.2033	0.47875	0.3085	-0.077
Mof_H 	H 	0.191	0.4741	0.2557	0.054
Mof_C 	C 	0.2124	0.53347	0.339	-0.042
Mof_H 	H 	0.207	0.5667	0.3076	0.047
Mof_C 	C 	0.23	0.54018	0.418	0.015
Mof_C 	C 	0.2395	0.48805	0.46074	0.023
Mof_C 	C 	0.2604	0.49089	0.54184	0.023
Mof_C 	C 	0.27	0.54504	0.5788	0.016
Mof_C 	C 	0.2869	0.54396	0.6581	-0.043
Mof_H 	H 	0.2922	0.5793	0.6857	0.048
Mof_C 	C 	0.2953	0.49129	0.6942	-0.075
Mof_H 	H 	0.307	0.4902	0.7472	0.052
Mof_C 	C 	0.2867	0.43903	0.65356	0.044
Mof_H 	H 	0.2927	0.4031	0.6799	0.021
Mof_N 	N 	0.2702	0.4382	0.57859	-0.203
Mof_C 	C 	0.2413	0.59516	0.4578	-0.054
Mof_H 	H 	0.2358	0.6304	0.4301	0.054
Mof_C 	C 	0.2594	0.59758	0.5337	-0.054
Mof_H 	H 	0.2653	0.6345	0.5578	0.054
Mof_Cu	Cu	0.06278	0.23727	0.01493	0.902
Mof_N 	N 	0.0759	0.32281	0.04651	-0.209
Mof_C 	C 	0.1056	0.36827	0.0137	0.036
Mof_H 	H 	0.1339	0.3616	0.974	0.024
Mof_C 	C 	0.0961	0.42588	0.0365	-0.077
Mof_H 	H 	0.1183	0.4574	0.0125	0.052
Mof_C 	C 	0.0549	0.43662	0.0932	-0.037
Mof_H 	H 	0.0483	0.4756	0.1083	0.038
Mof_C 	C 	0.0219	0.38962	0.1294	-0.005
Mof_C 	C 	0.0349	0.33301	0.1033	0.027
Mof_C 	C 	0.0012	0.28269	0.1355	0.006
Mof_C 	C 	0.9573	0.2891	0.1943	0.034
Mof_C 	C 	0.9281	0.2377	0.2238	-0.05
Mof_H 	H 	0.8979	0.24	0.2631	0.056
Mof_C 	C 	0.9435	0.1848	0.1958	-0.071
Mof_H 	H 	0.9255	0.15	0.2163	0.052
Mof_C 	C 	0.9863	0.18192	0.1363	0.048
Mof_H 	H 	0.9961	0.1448	0.1171	0.015
Mof_N 	N 	0.0135	0.22916	0.10587	-0.211
Mof_C 	C 	0.9781	0.3948	0.1903	-0.034
Mof_H 	H 	0.9712	0.4323	0.2095	0.041
Mof_C 	C 	0.9468	0.3475	0.2206	-0.079
Mof_H 	H 	0.9172	0.3528	0.26	0.074
Mof_O 	O 	0.389	0.2481	0.5911	-0.443
Mof_O 	O 	0.26457	0.31467	0.59035	-0.463
Mof_C 	C 	0.3222	0.2706	0.61711	0.432
Mof_C 	C 	0.3088	0.24201	0.68512	-0.262
Mof_H 	H 	0.3374	0.2042	0.6986	0.129
Mof_C 	C 	0.2583	0.26729	0.72823	0.036
Mof_H 	H 	0.2286	0.3048	0.714	0.029
Mof_O 	O 	0.4501	0.3478	0.51846	-0.441
Mof_O 	O 	0.5806	0.35064	0.63178	-0.302
Mof_C 	C 	0.5168	0.37493	0.5753	0.366
Mof_C 	C 	0.5185	0.4398	0.5695	-0.227
Mof_H 	H 	0.538	0.4619	0.6151	0.116
Mof_C 	C 	0.4938	0.46867	0.5033	0.025
Mof_H 	H 	0.4665	0.4468	0.4578	0.032
Mof_O 	O 	0.23975	0.19043	0.93012	-0.462
Mof_O 	O 	0.117	0.25745	0.93308	-0.438
Mof_C 	C 	0.1836	0.23539	0.90587	0.43
Mof_C 	C 	0.1952	0.26484	0.83822	-0.262
Mof_H 	H 	0.1651	0.3024	0.8248	0.131
Mof_C 	C 	0.2466	0.2404	0.79538	0.038
Mof_H 	H 	0.2773	0.2031	0.8099	0.028
Mof_O 	O 	0.05509	0.153	0.99465	-0.441
Mof_O 	O 	0.9151	0.15651	0.88727	-0.308
Mof_C 	C 	0.9831	0.12932	0.9382	0.375
Mof_C 	C 	0.9807	0.06447	0.9365	-0.246
Mof_H 	H 	0.9599	0.0455	0.8886	0.121
Mof_C 	C 	0.0067	0.03139	0.9996	0.045
Mof_H 	H 	0.0358	0.0505	0.047	0.019
Mof_Cu	Cu	0.55772	0.7626	0.99329	0.903
Mof_N 	N 	0.5082	0.76259	0.0851	-0.208
Mof_C 	C 	0.4756	0.80689	0.1178	0.042
Mof_H 	H 	0.4797	0.8454	0.1002	0.016
Mof_C 	C 	0.435	0.7981	0.1779	-0.069
Mof_H 	H 	0.413	0.8305	0.2005	0.052
Mof_C 	C 	0.4275	0.7431	0.2036	-0.047
Mof_H 	H 	0.3988	0.7373	0.2433	0.058
Mof_C 	C 	0.4622	0.6947	0.1713	0.025
Mof_C 	C 	0.5031	0.70698	0.11178	0.014
Mof_C 	C 	0.5424	0.66077	0.077	0.021
Mof_C 	C 	0.5399	0.60245	0.1013	0.009
Mof_C 	C 	0.5813	0.55952	0.0647	-0.048
Mof_H 	H 	0.5832	0.5199	0.0797	0.044
Mof_C 	C 	0.6189	0.57526	0.007	-0.065
Mof_H 	H 	0.6464	0.5465	0.9819	0.047
Mof_C 	C 	0.6163	0.63441	0.9853	0.036
Mof_H 	H 	0.641	0.6447	0.9448	0.019
Mof_N 	N 	0.5803	0.67629	0.01984	-0.205
Mof_C 	C 	0.4614	0.6346	0.1954	-0.067
Mof_H 	H 	0.4342	0.6257	0.2351	0.067
Mof_C 	C 	0.4989	0.591	0.1621	-0.05
Mof_H 	H 	0.4979	0.5522	0.1794	0.044
Mof_Cu	Cu	0.74934	0.86917	0.99272	0.915
Mof_N 	N 	0.7704	0.93322	0.07082	-0.204
Mof_C 	C 	0.788	0.92938	0.1455	0.047
Mof_H 	H 	0.7948	0.8919	0.1682	0.02
Mof_C 	C 	0.7967	0.97875	0.1915	-0.073
Mof_H 	H 	0.809	0.9741	0.2443	0.053
Mof_C 	C 	0.7876	0.03347	0.161	-0.043
Mof_H 	H 	0.793	0.0667	0.1924	0.047
Mof_C 	C 	0.77	0.04018	0.082	0.007
Mof_C 	C 	0.7605	0.98805	0.03926	0.036
Mof_C 	C 	0.7396	0.99089	0.95816	0.01
Mof_C 	C 	0.73	0.04504	0.9212	0.023
Mof_C 	C 	0.7131	0.04396	0.8419	-0.043
Mof_H 	H 	0.7078	0.0793	0.8143	0.048
Mof_C 	C 	0.7047	0.99129	0.8058	-0.077
Mof_H 	H 	0.693	0.9902	0.7528	0.052
Mof_C 	C 	0.7133	0.93903	0.84644	0.044
Mof_H 	H 	0.7073	0.9031	0.8201	0.02
Mof_N 	N 	0.7298	0.9382	0.92141	-0.202
Mof_C 	C 	0.7587	0.09516	0.0422	-0.049
Mof_H 	H 	0.7642	0.1304	0.0699	0.052
Mof_C 	C 	0.7406	0.09758	0.9663	-0.059
Mof_H 	H 	0.7347	0.1345	0.9422	0.056
Mof_Cu	Cu	0.93722	0.73727	0.48507	0.904
Mof_N 	N 	0.9241	0.82281	0.45349	-0.209
Mof_C 	C 	0.8944	0.86827	0.4863	0.045
Mof_H 	H 	0.8661	0.8616	0.526	0.017
Mof_C 	C 	0.9039	0.92588	0.4635	-0.079
Mof_H 	H 	0.8817	0.9574	0.4875	0.053
Mof_C 	C 	0.9451	0.93662	0.4068	-0.04
Mof_H 	H 	0.9517	0.9756	0.3917	0.04
Mof_C 	C 	0.9781	0.88962	0.3706	0.006
Mof_C 	C 	0.9651	0.83301	0.3967	0.022
Mof_C 	C 	0.9988	0.78269	0.3645	0.016
Mof_C 	C 	0.0427	0.7891	0.3057	0.022
Mof_C 	C 	0.0719	0.7377	0.2762	-0.046
Mof_H 	H 	0.1021	0.74	0.2369	0.054
Mof_C 	C 	0.0565	0.6848	0.3042	-0.073
Mof_H 	H 	0.0745	0.65	0.2837	0.052
Mof_C 	C 	0.0137	0.68192	0.3637	0.044
Mof_H 	H 	0.0039	0.6448	0.3829	0.015
Mof_N 	N 	0.9865	0.72916	0.39413	-0.209
Mof_C 	C 	0.0219	0.8948	0.3097	-0.049
Mof_H 	H 	0.0288	0.9323	0.2905	0.044
Mof_C 	C 	0.0532	0.8475	0.2794	-0.069
Mof_H 	H 	0.0828	0.8528	0.24	0.07
Mof_O 	O 	0.611	0.7481	0.9089	-0.444
Mof_O 	O 	0.73543	0.81467	0.90965	-0.465
Mof_C 	C 	0.6778	0.7706	0.88289	0.432
Mof_C 	C 	0.6912	0.74201	0.81488	-0.262
Mof_H 	H 	0.6626	0.7042	0.8014	0.129
Mof_C 	C 	0.7417	0.76729	0.77177	0.036
Mof_H 	H 	0.7714	0.8048	0.786	0.028
Mof_O 	O 	0.5499	0.8478	0.98154	-0.443
Mof_O 	O 	0.4194	0.85064	0.86822	-0.302
Mof_C 	C 	0.4832	0.87493	0.9247	0.365
Mof_C 	C 	0.4815	0.9398	0.9305	-0.225
Mof_H 	H 	0.462	0.9619	0.8849	0.115
Mof_C 	C 	0.5062	0.96867	0.9967	0.019
Mof_H 	H 	0.5335	0.9468	0.0422	0.037
Mof_O 	O 	0.76025	0.69043	0.56988	-0.465
Mof_O 	O 	0.883	0.75745	0.56692	-0.442
Mof_C 	C 	0.8164	0.73539	0.59413	0.431
Mof_C 	C 	0.8048	0.76484	0.66178	-0.263
Mof_H 	H 	0.8349	0.8024	0.6752	0.13
Mof_C 	C 	0.7534	0.7404	0.70462	0.038
Mof_H 	H 	0.7227	0.7031	0.6901	0.027
Mof_O 	O 	0.94491	0.653	0.50535	-0.449
Mof_O 	O 	0.0849	0.65651	0.61273	-0.308
Mof_C 	C 	0.0169	0.62932	0.5618	0.378
Mof_C 	C 	0.0193	0.56447	0.5635	-0.233
Mof_H 	H 	0.0401	0.5455	0.6114	0.118
Mof_C 	C 	0.9933	0.53139	0.5004	0.026
Mof_H 	H 	0.9642	0.5505	0.453	0.031
Mof_Cu	Cu	0.55772	0.7374	0.49329	0.904
Mof_N 	N 	0.5082	0.73741	0.5851	-0.208
Mof_C 	C 	0.4756	0.69311	0.6178	0.041
Mof_H 	H 	0.4797	0.6546	0.6002	0.016
Mof_C 	C 	0.435	0.7019	0.6779	-0.069
Mof_H 	H 	0.413	0.6695	0.7005	0.052
Mof_C 	C 	0.4275	0.7569	0.7036	-0.048
Mof_H 	H 	0.3988	0.7627	0.7433	0.058
Mof_C 	C 	0.4622	0.8053	0.6713	0.026
Mof_C 	C 	0.5031	0.79302	0.61178	0.013
Mof_C 	C 	0.5424	0.83923	0.577	0.023
Mof_C 	C 	0.5399	0.89755	0.6013	0.005
Mof_C 	C 	0.5813	0.94048	0.5647	-0.04
Mof_H 	H 	0.5832	0.9801	0.5797	0.041
Mof_C 	C 	0.6189	0.92474	0.507	-0.078
Mof_H 	H 	0.6464	0.9535	0.4819	0.053
Mof_C 	C 	0.6163	0.86559	0.4853	0.046
Mof_H 	H 	0.641	0.8553	0.4448	0.016
Mof_N 	N 	0.5803	0.82371	0.51984	-0.209
Mof_C 	C 	0.4614	0.8654	0.6954	-0.069
Mof_H 	H 	0.4342	0.8743	0.7351	0.067
Mof_C 	C 	0.4989	0.909	0.6621	-0.047
Mof_H 	H 	0.4979	0.9478	0.6794	0.043
Mof_Cu	Cu	0.74934	0.63083	0.49272	0.917
Mof_N 	N 	0.7704	0.56678	0.57082	-0.204
Mof_C 	C 	0.788	0.57062	0.6455	0.047
Mof_H 	H 	0.7948	0.6081	0.6682	0.019
Mof_C 	C 	0.7967	0.52125	0.6915	-0.077
Mof_H 	H 	0.809	0.5259	0.7443	0.054
Mof_C 	C 	0.7876	0.46653	0.661	-0.042
Mof_H 	H 	0.793	0.4333	0.6924	0.047
Mof_C 	C 	0.77	0.45982	0.582	0.015
Mof_C 	C 	0.7605	0.51195	0.53926	0.023
Mof_C 	C 	0.7396	0.50911	0.45816	0.023
Mof_C 	C 	0.73	0.45496	0.4212	0.016
Mof_C 	C 	0.7131	0.45604	0.3419	-0.043
Mof_H 	H 	0.7078	0.4207	0.3143	0.048
Mof_C 	C 	0.7047	0.50871	0.3058	-0.075
Mof_H 	H 	0.693	0.5098	0.2528	0.052
Mof_C 	C 	0.7133	0.56097	0.34644	0.044
Mof_H 	H 	0.7073	0.5969	0.3201	0.021
Mof_N 	N 	0.7298	0.5618	0.42141	-0.203
Mof_C 	C 	0.7587	0.40484	0.5422	-0.054
Mof_H 	H 	0.7642	0.3696	0.5699	0.054
Mof_C 	C 	0.7406	0.40242	0.4663	-0.054
Mof_H 	H 	0.7347	0.3655	0.4422	0.054
Mof_Cu	Cu	0.93722	0.76273	0.98507	0.902
Mof_N 	N 	0.9241	0.67719	0.95349	-0.209
Mof_C 	C 	0.8944	0.63173	0.9863	0.036
Mof_H 	H 	0.8661	0.6384	0.026	0.024
Mof_C 	C 	0.9039	0.57412	0.9635	-0.077
Mof_H 	H 	0.8817	0.5426	0.9875	0.052
Mof_C 	C 	0.9451	0.56338	0.9068	-0.037
Mof_H 	H 	0.9517	0.5244	0.8917	0.038
Mof_C 	C 	0.9781	0.61038	0.8706	-0.005
Mof_C 	C 	0.9651	0.66699	0.8967	0.027
Mof_C 	C 	0.9988	0.71731	0.8645	0.006
Mof_C 	C 	0.0427	0.7109	0.8057	0.034
Mof_C 	C 	0.0719	0.7623	0.7762	-0.05
Mof_H 	H 	0.1021	0.76	0.7369	0.056
Mof_C 	C 	0.0565	0.8152	0.8042	-0.071
Mof_H 	H 	0.0745	0.85	0.7837	0.052
Mof_C 	C 	0.0137	0.81808	0.8637	0.048
Mof_H 	H 	0.0039	0.8552	0.8829	0.015
Mof_N 	N 	0.9865	0.77084	0.89413	-0.211
Mof_C 	C 	0.0219	0.6052	0.8097	-0.034
Mof_H 	H 	0.0288	0.5677	0.7905	0.041
Mof_C 	C 	0.0532	0.6525	0.7794	-0.079
Mof_H 	H 	0.0828	0.6472	0.74	0.074
Mof_O 	O 	0.611	0.7519	0.4089	-0.443
Mof_O 	O 	0.73543	0.68533	0.40965	-0.463
Mof_C 	C 	0.6778	0.7294	0.38289	0.432
Mof_C 	C 	0.6912	0.75799	0.31488	-0.262
Mof_H 	H 	0.6626	0.7958	0.3014	0.129
Mof_C 	C 	0.7417	0.73271	0.27177	0.036
Mof_H 	H 	0.7714	0.6952	0.286	0.029
Mof_O 	O 	0.5499	0.6522	0.48154	-0.441
Mof_O 	O 	0.4194	0.64936	0.36822	-0.302
Mof_C 	C 	0.4832	0.62507	0.4247	0.366
Mof_C 	C 	0.4815	0.5602	0.4305	-0.227
Mof_H 	H 	0.462	0.5381	0.3849	0.116
Mof_C 	C 	0.5062	0.53133	0.4967	0.025
Mof_H 	H 	0.5335	0.5532	0.5422	0.032
Mof_O 	O 	0.76025	0.80957	0.06988	-0.462
Mof_O 	O 	0.883	0.74255	0.06692	-0.438
Mof_C 	C 	0.8164	0.76461	0.09413	0.43
Mof_C 	C 	0.8048	0.73516	0.16178	-0.262
Mof_H 	H 	0.8349	0.6976	0.1752	0.131
Mof_C 	C 	0.7534	0.7596	0.20462	0.038
Mof_H 	H 	0.7227	0.7969	0.1901	0.028
Mof_O 	O 	0.94491	0.847	0.00535	-0.441
Mof_O 	O 	0.0849	0.84349	0.11273	-0.308
Mof_C 	C 	0.0169	0.87068	0.0618	0.375
Mof_C 	C 	0.0193	0.93553	0.0635	-0.246
Mof_H 	H 	0.0401	0.9545	0.1114	0.121
Mof_C 	C 	0.9933	0.96861	0.0004	0.045
Mof_H 	H 	0.9642	0.9495	0.953	0.019
Mof_Cu	Cu	0.44228	0.2374	0.00671	0.903
Mof_N 	N 	0.4918	0.23741	0.9149	-0.208
Mof_C 	C 	0.5244	0.19311	0.8822	0.042
Mof_H 	H 	0.5203	0.1546	0.8998	0.016
Mof_C 	C 	0.565	0.2019	0.8221	-0.069
Mof_H 	H 	0.587	0.1695	0.7995	0.052
Mof_C 	C 	0.5725	0.2569	0.7964	-0.047
Mof_H 	H 	0.6012	0.2627	0.7567	0.058
Mof_C 	C 	0.5378	0.3053	0.8287	0.025
Mof_C 	C 	0.4969	0.29302	0.88822	0.014
Mof_C 	C 	0.4576	0.33923	0.923	0.021
Mof_C 	C 	0.4601	0.39755	0.8987	0.009
Mof_C 	C 	0.4187	0.44048	0.9353	-0.048
Mof_H 	H 	0.4168	0.4801	0.9203	0.044
Mof_C 	C 	0.3811	0.42474	0.993	-0.065
Mof_H 	H 	0.3536	0.4535	0.0181	0.047
Mof_C 	C 	0.3837	0.36559	0.0147	0.036
Mof_H 	H 	0.359	0.3553	0.0552	0.019
Mof_N 	N 	0.4197	0.32371	0.98016	-0.205
Mof_C 	C 	0.5386	0.3654	0.8046	-0.067
Mof_H 	H 	0.5658	0.3743	0.7649	0.067
Mof_C 	C 	0.5011	0.409	0.8379	-0.05
Mof_H 	H 	0.5021	0.4478	0.8206	0.044
Mof_Cu	Cu	0.25066	0.13083	0.00728	0.915
Mof_N 	N 	0.2296	0.06678	0.92918	-0.204
Mof_C 	C 	0.212	0.07062	0.8545	0.047
Mof_H 	H 	0.2052	0.1081	0.8318	0.02
Mof_C 	C 	0.2033	0.02125	0.8085	-0.073
Mof_H 	H 	0.191	0.0259	0.7557	0.053
Mof_C 	C 	0.2124	0.96653	0.839	-0.043
Mof_H 	H 	0.207	0.9333	0.8076	0.047
Mof_C 	C 	0.23	0.95982	0.918	0.007
Mof_C 	C 	0.2395	0.01195	0.96074	0.036
Mof_C 	C 	0.2604	0.00911	0.04184	0.01
Mof_C 	C 	0.27	0.95496	0.0788	0.023
Mof_C 	C 	0.2869	0.95604	0.1581	-0.043
Mof_H 	H 	0.2922	0.9207	0.1857	0.048
Mof_C 	C 	0.2953	0.00871	0.1942	-0.077
Mof_H 	H 	0.307	0.0098	0.2472	0.052
Mof_C 	C 	0.2867	0.06097	0.15356	0.044
Mof_H 	H 	0.2927	0.0969	0.1799	0.02
Mof_N 	N 	0.2702	0.0618	0.07859	-0.202
Mof_C 	C 	0.2413	0.90484	0.9578	-0.049
Mof_H 	H 	0.2358	0.8696	0.9301	0.052
Mof_C 	C 	0.2594	0.90242	0.0337	-0.059
Mof_H 	H 	0.2653	0.8655	0.0578	0.056
Mof_Cu	Cu	0.06278	0.26273	0.51493	0.904
Mof_N 	N 	0.0759	0.17719	0.54651	-0.209
Mof_C 	C 	0.1056	0.13173	0.5137	0.045
Mof_H 	H 	0.1339	0.1384	0.474	0.017
Mof_C 	C 	0.0961	0.07412	0.5365	-0.079
Mof_H 	H 	0.1183	0.0426	0.5125	0.053
Mof_C 	C 	0.0549	0.06338	0.5932	-0.04
Mof_H 	H 	0.0483	0.0244	0.6083	0.04
Mof_C 	C 	0.0219	0.11038	0.6294	0.006
Mof_C 	C 	0.0349	0.16699	0.6033	0.022
Mof_C 	C 	0.0012	0.21731	0.6355	0.016
Mof_C 	C 	0.9573	0.2109	0.6943	0.022
Mof_C 	C 	0.9281	0.2623	0.7238	-0.046
Mof_H 	H 	0.8979	0.26	0.7631	0.054
Mof_C 	C 	0.9435	0.3152	0.6958	-0.073
Mof_H 	H 	0.9255	0.35	0.7163	0.052
Mof_C 	C 	0.9863	0.31808	0.6363	0.044
Mof_H 	H 	0.9961	0.3552	0.6171	0.015
Mof_N 	N 	0.0135	0.27084	0.60587	-0.209
Mof_C 	C 	0.9781	0.1052	0.6903	-0.049
Mof_H 	H 	0.9712	0.0677	0.7095	0.044
Mof_C 	C 	0.9468	0.1525	0.7206	-0.069
Mof_H 	H 	0.9172	0.1472	0.76	0.07
Mof_O 	O 	0.389	0.2519	0.0911	-0.444
Mof_O 	O 	0.26457	0.18533	0.09035	-0.465
Mof_C 	C 	0.3222	0.2294	0.11711	0.432
Mof_C 	C 	0.3088	0.25799	0.18512	-0.262
Mof_H 	H 	0.3374	0.2958	0.1986	0.129
Mof_C 	C 	0.2583	0.23271	0.22823	0.036
Mof_H 	H 	0.2286	0.1952	0.214	0.028
Mof_O 	O 	0.4501	0.1522	0.01846	-0.443
Mof_O 	O 	0.5806	0.14936	0.13178	-0.302
Mof_C 	C 	0.5168	0.12507	0.0753	0.365
Mof_C 	C 	0.5185	0.0602	0.0695	-0.225
Mof_H 	H 	0.538	0.0381	0.1151	0.115
Mof_C 	C 	0.4938	0.03133	0.0033	0.019
Mof_H 	H 	0.4665	0.0532	0.9578	0.037
Mof_O 	O 	0.23975	0.30957	0.43012	-0.465
Mof_O 	O 	0.117	0.24255	0.43308	-0.442
Mof_C 	C 	0.1836	0.26461	0.40587	0.431
Mof_C 	C 	0.1952	0.23516	0.33822	-0.263
Mof_H 	H 	0.1651	0.1976	0.3248	0.13
Mof_C 	C 	0.2466	0.2596	0.29538	0.038
Mof_H 	H 	0.2773	0.2969	0.3099	0.027
Mof_O 	O 	0.05509	0.347	0.49465	-0.449
Mof_O 	O 	0.9151	0.34349	0.38727	-0.308
Mof_C 	C 	0.9831	0.37068	0.4382	0.378
Mof_C 	C 	0.9807	0.43553	0.4365	-0.233
Mof_H 	H 	0.9599	0.4545	0.3886	0.118
Mof_C 	C 	0.0067	0.46861	0.4996	0.026
Mof_H 	H 	0.0358	0.4495	0.547	0.031
_end
