data_functionalizedCrystal
_audit_creation_method	'EQeq! by Chris Wilmer'
_symmetry_space_group_name_H-M	'P1'
_symmetry_Int_Tables_number	1
_symmetry_cell_setting	triclinic
loop_
_symmetry_equiv_pos_as_xyz
  x,y,z
_cell_length_a	14.3741
_cell_length_b	13.9069
_cell_length_c	21.7187
_cell_angle_alpha	90
_cell_angle_beta	106.945
_cell_angle_gamma	90
loop_
_atom_site_label
_atom_site_type_symbol
_atom_site_fract_x
_atom_site_fract_y
_atom_site_fract_z
_atom_site_charge
Mof_Ba	Ba	0.97241	0.42862	0.18086	1.81
Mof_Mo	Mo	0.67145	0.28872	0.99207	1.251
Mof_Mo	Mo	0.65815	0.40452	0.89647	1.137
Mof_Mo	Mo	0.3469	0.34293	0.08343	1.117
Mof_Mo	Mo	0.33061	0.27336	0.9703	1.233
Mof_Mo	Mo	0.6864	0.56992	0.16104	1.184
Mof_Mo	Mo	0.69305	0.38497	0.14557	1.134
Mof_P 	P 	0.81129	0.55198	0.85407	0.562
Mof_P 	P 	0.18767	0.22452	0.82495	0.602
Mof_P 	P 	0.85113	0.21786	0.12144	0.584
Mof_P 	P 	0.78159	0.50785	0.03974	0.55
Mof_O 	O 	0.763	0.3232	0.94615	-0.539
Mof_O 	O 	0.5787	0.3909	0.95495	-0.759
Mof_O 	O 	0.6164	0.2913	0.07201	-0.699
Mof_H 	H 	0.5598	0.3156	0.0584	0.214
Mof_O 	O 	0.7826	0.2119	0.0521	-0.463
Mof_O 	O 	0.7426	0.4111	0.05829	-0.506
Mof_O 	O 	0.7581	0.4564	0.85312	-0.419
Mof_O 	O 	0.5825	0.5351	0.86736	-0.676
Mof_H 	H 	0.5306	0.5299	0.8783	0.219
Mof_O 	O 	0.7348	0.5213	0.96585	-0.403
Mof_O 	O 	0.7467	0.6363	0.86082	-0.419
Mof_O 	O 	0.4246	0.3629	0.0245	-0.777
Mof_O 	O 	0.2407	0.2787	0.02136	-0.565
Mof_O 	O 	0.3916	0.3164	0.89596	-0.673
Mof_H 	H 	0.4472	0.3384	0.9164	0.217
Mof_O 	O 	0.2135	0.219	0.8983	-0.419
Mof_O 	O 	0.74	0.5887	0.07348	-0.473
Mof_O 	O 	0.2069	0.3288	0.80496	-0.45
Mof_O 	O 	0.7926	0.4786	0.1864	-0.712
Mof_O 	O 	0.5957	0.4805	0.10486	-0.764
Mof_O 	O 	0.8099	0.2899	0.16093	-0.521
Mof_O 	O 	0.8305	0.5588	0.78751	-0.446
Mof_O 	O 	0.9093	0.5544	0.90414	-0.324
Mof_O 	O 	0.0829	0.2016	0.793	-0.397
Mof_H 	H 	0.2217	0.122	0.7722	0.295
Mof_O 	O 	0.2548	0.1551	0.8039	-0.519
Mof_O 	O 	0.9515	0.2538	0.1217	-0.419
Mof_O 	O 	0.8576	0.1199	0.1527	-0.482
Mof_H 	H 	0.9164	0.1011	0.1635	0.193
Mof_O 	O 	0.8892	0.5076	0.05967	-0.382
Mof_Ba	Ba	0.02759	0.92862	0.31914	1.855
Mof_Mo	Mo	0.32855	0.78872	0.50793	1.17
Mof_Mo	Mo	0.34185	0.90452	0.60353	1.199
Mof_Mo	Mo	0.6531	0.84293	0.41657	1.144
Mof_Mo	Mo	0.66939	0.77336	0.5297	1.158
Mof_Mo	Mo	0.3136	0.06992	0.33896	1.098
Mof_Mo	Mo	0.30695	0.88497	0.35443	1.155
Mof_P 	P 	0.18871	0.05198	0.64593	0.536
Mof_P 	P 	0.81233	0.72452	0.67505	0.604
Mof_P 	P 	0.14887	0.71786	0.37856	0.583
Mof_P 	P 	0.21841	0.00785	0.46026	0.552
Mof_O 	O 	0.237	0.8232	0.55385	-0.541
Mof_O 	O 	0.4213	0.8909	0.54505	-0.755
Mof_O 	O 	0.3836	0.7913	0.42799	-0.677
Mof_H 	H 	0.4402	0.8156	0.4416	0.219
Mof_O 	O 	0.2174	0.7119	0.4479	-0.427
Mof_O 	O 	0.2574	0.9111	0.44171	-0.47
Mof_O 	O 	0.2419	0.9564	0.64688	-0.393
Mof_O 	O 	0.4175	0.0351	0.63264	-0.698
Mof_H 	H 	0.4694	0.0299	0.6217	0.214
Mof_O 	O 	0.2652	0.0213	0.53415	-0.444
Mof_O 	O 	0.2533	0.1363	0.63918	-0.42
Mof_O 	O 	0.5754	0.8629	0.4755	-0.741
Mof_O 	O 	0.7593	0.7787	0.47864	-0.531
Mof_O 	O 	0.6084	0.8164	0.60404	-0.674
Mof_H 	H 	0.5528	0.8384	0.5836	0.219
Mof_O 	O 	0.7865	0.719	0.6017	-0.413
Mof_O 	O 	0.26	0.0887	0.42652	-0.473
Mof_O 	O 	0.7931	0.8288	0.69504	-0.45
Mof_O 	O 	0.2074	0.9786	0.3136	-0.686
Mof_O 	O 	0.4043	0.9805	0.39514	-0.726
Mof_O 	O 	0.1901	0.7899	0.33907	-0.521
Mof_O 	O 	0.1695	0.0588	0.71249	-0.45
Mof_O 	O 	0.0907	0.0544	0.59586	-0.34
Mof_O 	O 	0.9171	0.7016	0.707	-0.395
Mof_H 	H 	0.7783	0.622	0.7278	0.297
Mof_O 	O 	0.7452	0.6551	0.6961	-0.515
Mof_O 	O 	0.0485	0.7538	0.3783	-0.411
Mof_O 	O 	0.1424	0.6199	0.3473	-0.469
Mof_H 	H 	0.0836	0.6011	0.3365	0.203
Mof_O 	O 	0.1108	0.0076	0.44033	-0.394
Mof_Ba	Ba	0.02759	0.57138	0.81914	1.82
Mof_Mo	Mo	0.32855	0.71128	0.00793	1.1
Mof_Mo	Mo	0.34185	0.59548	0.10353	1.158
Mof_Mo	Mo	0.6531	0.65707	0.91657	1.166
Mof_Mo	Mo	0.66939	0.72664	0.0297	1.075
Mof_Mo	Mo	0.3136	0.43008	0.83896	1.186
Mof_Mo	Mo	0.30695	0.61503	0.85443	1.14
Mof_P 	P 	0.18871	0.44802	0.14593	0.561
Mof_P 	P 	0.81233	0.77548	0.17505	0.6
Mof_P 	P 	0.14887	0.78214	0.87856	0.581
Mof_P 	P 	0.21841	0.49215	0.96026	0.608
Mof_O 	O 	0.237	0.6768	0.05385	-0.544
Mof_O 	O 	0.4213	0.6091	0.04505	-0.765
Mof_O 	O 	0.3836	0.7087	0.92799	-0.65
Mof_H 	H 	0.4402	0.6844	0.9416	0.222
Mof_O 	O 	0.2174	0.7881	0.9479	-0.393
Mof_O 	O 	0.2574	0.5889	0.94171	-0.476
Mof_O 	O 	0.2419	0.5436	0.14688	-0.424
Mof_O 	O 	0.4175	0.4649	0.13264	-0.672
Mof_H 	H 	0.4694	0.4701	0.1217	0.217
Mof_O 	O 	0.2652	0.4787	0.03415	-0.45
Mof_O 	O 	0.2533	0.3637	0.13918	-0.421
Mof_O 	O 	0.5754	0.6371	0.9755	-0.713
Mof_O 	O 	0.7593	0.7213	0.97864	-0.493
Mof_O 	O 	0.6084	0.6836	0.10404	-0.652
Mof_H 	H 	0.5528	0.6616	0.0836	0.207
Mof_O 	O 	0.7865	0.781	0.1017	-0.406
Mof_O 	O 	0.26	0.4113	0.92652	-0.474
Mof_O 	O 	0.7931	0.6712	0.19504	-0.449
Mof_O 	O 	0.2074	0.5214	0.8136	-0.715
Mof_O 	O 	0.4043	0.5195	0.89514	-0.755
Mof_O 	O 	0.1901	0.7101	0.83907	-0.514
Mof_O 	O 	0.1695	0.4412	0.21249	-0.447
Mof_O 	O 	0.0907	0.4456	0.09586	-0.342
Mof_O 	O 	0.9171	0.7984	0.207	-0.398
Mof_H 	H 	0.7783	0.878	0.2278	0.298
Mof_O 	O 	0.7452	0.8449	0.1961	-0.509
Mof_O 	O 	0.0485	0.7462	0.8783	-0.399
Mof_O 	O 	0.1424	0.8801	0.8473	-0.455
Mof_H 	H 	0.0836	0.8989	0.8365	0.212
Mof_O 	O 	0.1108	0.4924	0.94033	-0.367
Mof_Ba	Ba	0.97241	0.07138	0.68086	1.756
Mof_Mo	Mo	0.67145	0.21128	0.49207	1.182
Mof_Mo	Mo	0.65815	0.09548	0.39647	1.092
Mof_Mo	Mo	0.3469	0.15707	0.58343	1.136
Mof_Mo	Mo	0.33061	0.22664	0.4703	1.155
Mof_Mo	Mo	0.6864	0.93008	0.66104	1.284
Mof_Mo	Mo	0.69305	0.11503	0.64557	1.116
Mof_P 	P 	0.81129	0.94802	0.35407	0.59
Mof_P 	P 	0.18767	0.27548	0.32495	0.599
Mof_P 	P 	0.85113	0.28214	0.62144	0.582
Mof_P 	P 	0.78159	0.99215	0.53974	0.612
Mof_O 	O 	0.763	0.1768	0.44615	-0.543
Mof_O 	O 	0.5787	0.1091	0.45495	-0.768
Mof_O 	O 	0.6164	0.2087	0.57201	-0.672
Mof_H 	H 	0.5598	0.1844	0.5584	0.217
Mof_O 	O 	0.7826	0.2881	0.5521	-0.43
Mof_O 	O 	0.7426	0.0889	0.55829	-0.516
Mof_O 	O 	0.7581	0.0436	0.35312	-0.454
Mof_O 	O 	0.5825	0.9649	0.36736	-0.65
Mof_H 	H 	0.5306	0.9701	0.3783	0.221
Mof_O 	O 	0.7348	0.9787	0.46585	-0.408
Mof_O 	O 	0.7467	0.8637	0.36082	-0.421
Mof_O 	O 	0.4246	0.1371	0.5245	-0.749
Mof_O 	O 	0.2407	0.2213	0.52136	-0.53
Mof_O 	O 	0.3916	0.1836	0.39596	-0.653
Mof_H 	H 	0.4472	0.1616	0.4164	0.206
Mof_O 	O 	0.2135	0.281	0.3983	-0.413
Mof_O 	O 	0.74	0.9113	0.57348	-0.473
Mof_O 	O 	0.2069	0.1712	0.30496	-0.448
Mof_O 	O 	0.7926	0.0214	0.6864	-0.746
Mof_O 	O 	0.5957	0.0195	0.60486	-0.795
Mof_O 	O 	0.8099	0.2101	0.66093	-0.513
Mof_O 	O 	0.8305	0.9412	0.28751	-0.44
Mof_O 	O 	0.9093	0.9456	0.40414	-0.324
Mof_O 	O 	0.0829	0.2984	0.293	-0.402
Mof_H 	H 	0.2217	0.378	0.2722	0.296
Mof_O 	O 	0.2548	0.3449	0.3039	-0.514
Mof_O 	O 	0.9515	0.2462	0.6217	-0.407
Mof_O 	O 	0.8576	0.3801	0.6527	-0.468
Mof_H 	H 	0.9164	0.3989	0.6635	0.203
Mof_O 	O 	0.8892	0.9924	0.55967	-0.349
Mof_Ca	Ca	0.5	0.5	-0	1.644
Mof_Ca	Ca	0.5	-1.21566e-32	0.5	1.639
_end
