data_functionalizedCrystal
_audit_creation_method	'EQeq! by Chris Wilmer'
_symmetry_space_group_name_H-M	'P1'
_symmetry_Int_Tables_number	1
_symmetry_cell_setting	triclinic
loop_
_symmetry_equiv_pos_as_xyz
  x,y,z
_cell_length_a	10.922
_cell_length_b	11.402
_cell_length_c	14.654
_cell_angle_alpha	90
_cell_angle_beta	109.3
_cell_angle_gamma	90
loop_
_atom_site_label
_atom_site_type_symbol
_atom_site_fract_x
_atom_site_fract_y
_atom_site_fract_z
_atom_site_charge
Mof_Cu	Cu	0.40685	0.41843	0.97658	0.919
Mof_Cu	Cu	0.59315	0.91843	0.52342	0.919
Mof_Cu	Cu	0.59315	0.58157	0.02342	0.919
Mof_Cu	Cu	0.40685	0.08157	0.47658	0.919
Mof_H 	H 	0.8784	0.3729	0.9416	0.082
Mof_H 	H 	0.8804	0.134	0.7373	0.091
Mof_H 	H 	0.5415	0.2534	0.7589	0.073
Mof_H 	H 	0.0932	0.4221	0.9068	0.014
Mof_H 	H 	0.1216	0.8729	0.5584	0.083
Mof_H 	H 	0.1196	0.634	0.7627	0.092
Mof_H 	H 	0.4585	0.7534	0.7411	0.073
Mof_H 	H 	0.9068	0.9221	0.5932	0.013
Mof_H 	H 	0.1216	0.6271	0.0584	0.083
Mof_H 	H 	0.1196	0.866	0.2627	0.092
Mof_H 	H 	0.4585	0.7466	0.2411	0.073
Mof_H 	H 	0.9068	0.5779	0.0932	0.014
Mof_H 	H 	0.8784	0.1271	0.4416	0.083
Mof_H 	H 	0.8804	0.366	0.2373	0.092
Mof_H 	H 	0.5415	0.2466	0.2589	0.073
Mof_H 	H 	0.0932	0.0779	0.4068	0.013
Mof_C 	C 	0.6254	0.3917	0.9093	0.351
Mof_C 	C 	0.6995	0.3247	0.859	-0.04
Mof_C 	C 	0.8322	0.3244	0.8909	-0.076
Mof_C 	C 	0.8973	0.2508	0.8469	0.112
Mof_C 	C 	0.8347	0.18	0.7674	-0.077
Mof_C 	C 	0.6993	0.1825	0.7358	-0.032
Mof_C 	C 	0.6317	0.2535	0.7809	-0.009
Mof_C 	C 	0.6269	0.1122	0.6491	0.334
Mof_C 	C 	0.1176	0.3439	0.9074	0.109
Mof_C 	C 	0.3746	0.8917	0.5907	0.351
Mof_C 	C 	0.3005	0.8247	0.641	-0.04
Mof_C 	C 	0.1678	0.8244	0.6091	-0.076
Mof_C 	C 	0.1027	0.7508	0.6531	0.111
Mof_C 	C 	0.1653	0.68	0.7326	-0.077
Mof_C 	C 	0.3007	0.6825	0.7642	-0.032
Mof_C 	C 	0.3683	0.7535	0.7191	-0.009
Mof_C 	C 	0.3731	0.6122	0.8509	0.334
Mof_C 	C 	0.8824	0.8439	0.5926	0.109
Mof_C 	C 	0.3746	0.6083	0.0907	0.351
Mof_C 	C 	0.3005	0.6753	0.141	-0.04
Mof_C 	C 	0.1678	0.6756	0.1091	-0.076
Mof_C 	C 	0.1027	0.7492	0.1531	0.112
Mof_C 	C 	0.1653	0.82	0.2326	-0.077
Mof_C 	C 	0.3007	0.8175	0.2642	-0.032
Mof_C 	C 	0.3683	0.7465	0.2191	-0.009
Mof_C 	C 	0.3731	0.8878	0.3509	0.334
Mof_C 	C 	0.8824	0.6561	0.0926	0.109
Mof_C 	C 	0.6254	0.1083	0.4093	0.351
Mof_C 	C 	0.6995	0.1753	0.359	-0.04
Mof_C 	C 	0.8322	0.1756	0.3909	-0.076
Mof_C 	C 	0.8973	0.2492	0.3469	0.111
Mof_C 	C 	0.8347	0.32	0.2674	-0.077
Mof_C 	C 	0.6993	0.3175	0.2358	-0.032
Mof_C 	C 	0.6317	0.2465	0.2809	-0.009
Mof_C 	C 	0.6269	0.3878	0.1491	0.334
Mof_C 	C 	0.1176	0.1561	0.4074	0.109
Mof_N 	N 	0.0376	0.2519	0.8812	-0.105
Mof_N 	N 	0.1093	0.1541	0.8923	-0.034
Mof_N 	N 	0.2297	0.1876	0.9238	-0.032
Mof_N 	N 	0.2393	0.3026	0.9347	-0.142
Mof_N 	N 	0.9624	0.7519	0.6188	-0.105
Mof_N 	N 	0.8907	0.6541	0.6077	-0.033
Mof_N 	N 	0.7703	0.6876	0.5762	-0.032
Mof_N 	N 	0.7607	0.8026	0.5653	-0.142
Mof_N 	N 	0.9624	0.7481	0.1188	-0.105
Mof_N 	N 	0.8907	0.8459	0.1077	-0.034
Mof_N 	N 	0.7703	0.8124	0.0762	-0.032
Mof_N 	N 	0.7607	0.6974	0.0653	-0.142
Mof_N 	N 	0.0376	0.2481	0.3812	-0.105
Mof_N 	N 	0.1093	0.3459	0.3923	-0.033
Mof_N 	N 	0.2297	0.3124	0.4238	-0.032
Mof_N 	N 	0.2393	0.1974	0.4347	-0.142
Mof_O 	O 	0.5175	0.3529	0.9074	-0.391
Mof_O 	O 	0.6776	0.4837	0.9495	-0.385
Mof_O 	O 	0.5161	0.1525	0.5976	-0.38
Mof_O 	O 	0.6784	0.0202	0.6356	-0.383
Mof_O 	O 	0.4825	0.8529	0.5926	-0.391
Mof_O 	O 	0.3224	0.9837	0.5505	-0.386
Mof_O 	O 	0.4839	0.6525	0.9024	-0.379
Mof_O 	O 	0.3216	0.5202	0.8644	-0.383
Mof_O 	O 	0.4825	0.6471	0.0926	-0.391
Mof_O 	O 	0.3224	0.5163	0.0505	-0.385
Mof_O 	O 	0.4839	0.8475	0.4024	-0.38
Mof_O 	O 	0.3216	0.9798	0.3644	-0.383
Mof_O 	O 	0.5175	0.1471	0.4074	-0.391
Mof_O 	O 	0.6776	0.0163	0.4495	-0.386
Mof_O 	O 	0.5161	0.3475	0.0976	-0.379
Mof_O 	O 	0.6784	0.4798	0.1356	-0.383
_end
