data_functionalizedCrystal
_audit_creation_method	'EQeq! by Chris Wilmer'
_symmetry_space_group_name_H-M	'P1'
_symmetry_Int_Tables_number	1
_symmetry_cell_setting	triclinic
loop_
_symmetry_equiv_pos_as_xyz
  x,y,z
_cell_length_a	11.03
_cell_length_b	11.03
_cell_length_c	33.008
_cell_angle_alpha	90
_cell_angle_beta	90
_cell_angle_gamma	120
loop_
_atom_site_label
_atom_site_type_symbol
_atom_site_fract_x
_atom_site_fract_y
_atom_site_fract_z
_atom_site_charge
Mof_N 	N 	0.1692	0.0554	0.034	-0.186
Mof_N 	N 	0.2434	0.1808	0.0554	-0.096
Mof_N 	N 	0.3203	0.0407	0.0715	-0.133
Mof_N 	N 	0.3841	0.9802	0.0919	-0.098
Mof_N 	N 	0.503	0.8748	0.1022	-0.09
Mof_N 	N 	0.4005	0.8353	0.1318	-0.166
Mof_C 	C 	0.2175	0.9755	0.0438	0.164
Mof_C 	C 	0.3325	0.1684	0.0779	0.09
Mof_C 	C 	0.4881	0.9595	0.0784	0.103
Mof_C 	C 	0.3317	0.8999	0.1254	0.118
Mof_H 	H 	0.192	0.886	0.03	-0.002
Mof_H 	H 	0.398	0.238	0.094	0.016
Mof_H 	H 	0.531	0.995	0.058	0.018
Mof_H 	H 	0.26	0.902	0.139	0.011
Mof_N 	N 	0.83587	0.38873	0.36733	-0.168
Mof_N 	N 	0.91007	0.51413	0.38873	-0.099
Mof_N 	N 	0.98697	0.37403	0.40483	-0.104
Mof_N 	N 	0.05077	0.31353	0.42523	-0.134
Mof_N 	N 	0.16967	0.20813	0.43553	-0.096
Mof_N 	N 	0.06717	0.16863	0.46513	-0.185
Mof_C 	C 	0.88417	0.30883	0.37713	0.119
Mof_C 	C 	0.99917	0.50173	0.41123	0.143
Mof_C 	C 	0.15477	0.29283	0.41173	0.099
Mof_C 	C 	0.99837	0.23323	0.45873	0.169
Mof_H 	H 	0.85867	0.21933	0.36333	0.014
Mof_H 	H 	0.06467	0.57133	0.42733	-0.013
Mof_H 	H 	0.19767	0.32833	0.39133	0.008
Mof_H 	H 	0.92667	0.23533	0.47233	-0.008
Mof_N 	N 	0.50253	0.72207	0.70067	-0.168
Mof_N 	N 	0.57673	0.84747	0.72207	-0.09
Mof_N 	N 	0.65363	0.70737	0.73817	-0.106
Mof_N 	N 	0.71743	0.64687	0.75857	-0.108
Mof_N 	N 	0.83633	0.54147	0.76887	-0.089
Mof_N 	N 	0.73383	0.50197	0.79847	-0.167
Mof_C 	C 	0.55083	0.64217	0.71047	0.119
Mof_C 	C 	0.66583	0.83507	0.74457	0.097
Mof_C 	C 	0.82143	0.62617	0.74507	0.106
Mof_C 	C 	0.66503	0.56657	0.79207	0.119
Mof_H 	H 	0.52533	0.55267	0.69667	0.013
Mof_H 	H 	0.73133	0.90467	0.76067	0.027
Mof_H 	H 	0.86433	0.66167	0.72467	0.017
Mof_H 	H 	0.59333	0.56867	0.80567	0.008
Mof_N 	N 	0.9446	0.1138	0.034	-0.141
Mof_N 	N 	0.8192	0.0626	0.0554	-0.1
Mof_N 	N 	0.9593	0.2796	0.0715	-0.081
Mof_N 	N 	0.0198	0.4039	0.0919	-0.122
Mof_N 	N 	0.1252	0.6282	0.1022	-0.096
Mof_N 	N 	0.1647	0.5652	0.1318	-0.169
Mof_C 	C 	0.0245	0.242	0.0438	0.065
Mof_C 	C 	0.8316	0.1641	0.0779	0.096
Mof_C 	C 	0.0405	0.5286	0.0784	0.104
Mof_C 	C 	0.1001	0.4318	0.1254	0.117
Mof_H 	H 	0.114	0.306	0.03	0.026
Mof_H 	H 	0.762	0.16	0.094	0.015
Mof_H 	H 	0.005	0.536	0.058	-0
Mof_H 	H 	0.098	0.358	0.139	0.001
Mof_N 	N 	0.61127	0.44713	0.36733	-0.168
Mof_N 	N 	0.48587	0.39593	0.38873	-0.095
Mof_N 	N 	0.62597	0.61293	0.40483	-0.107
Mof_N 	N 	0.68647	0.73723	0.42523	-0.108
Mof_N 	N 	0.79187	0.96153	0.43553	-0.083
Mof_N 	N 	0.83137	0.89853	0.46513	-0.151
Mof_C 	C 	0.69117	0.57533	0.37713	0.119
Mof_C 	C 	0.49827	0.49743	0.41123	0.095
Mof_C 	C 	0.70717	0.86193	0.41173	0.105
Mof_C 	C 	0.76677	0.76513	0.45873	0.119
Mof_H 	H 	0.78067	0.63933	0.36333	0.018
Mof_H 	H 	0.42867	0.49333	0.42733	0.018
Mof_H 	H 	0.67167	0.86933	0.39133	0.016
Mof_H 	H 	0.76467	0.69133	0.47233	0.012
Mof_N 	N 	0.27793	0.78047	0.70067	-0.168
Mof_N 	N 	0.15253	0.72927	0.72207	-0.098
Mof_N 	N 	0.29263	0.94627	0.73817	-0.097
Mof_N 	N 	0.35313	0.07057	0.75857	-0.121
Mof_N 	N 	0.45853	0.29487	0.76887	-0.094
Mof_N 	N 	0.49803	0.23187	0.79847	-0.168
Mof_C 	C 	0.35783	0.90867	0.71047	0.121
Mof_C 	C 	0.16493	0.83077	0.74457	0.096
Mof_C 	C 	0.37383	0.19527	0.74507	0.103
Mof_C 	C 	0.43343	0.09847	0.79207	0.116
Mof_H 	H 	0.44733	0.97267	0.69667	0.02
Mof_H 	H 	0.09533	0.82667	0.76067	0.015
Mof_H 	H 	0.33833	0.20267	0.72467	0.005
Mof_H 	H 	0.43133	0.02467	0.80567	-0
Mof_N 	N 	0.8862	0.8308	0.034	-0.152
Mof_N 	N 	0.9374	0.7566	0.0554	-0.085
Mof_N 	N 	0.7204	0.6797	0.0715	-0.107
Mof_N 	N 	0.5961	0.6159	0.0919	-0.109
Mof_N 	N 	0.3718	0.497	0.1022	-0.094
Mof_N 	N 	0.4348	0.5995	0.1318	-0.167
Mof_C 	C 	0.758	0.7825	0.0438	0.119
Mof_C 	C 	0.8359	0.6675	0.0779	0.097
Mof_C 	C 	0.4714	0.5119	0.0784	0.104
Mof_C 	C 	0.5682	0.6683	0.1254	0.117
Mof_H 	H 	0.694	0.808	0.03	0.017
Mof_H 	H 	0.84	0.602	0.094	0.023
Mof_H 	H 	0.464	0.469	0.058	0.009
Mof_H 	H 	0.642	0.74	0.139	0.012
Mof_N 	N 	0.55287	0.16413	0.36733	-0.169
Mof_N 	N 	0.60407	0.08993	0.38873	-0.089
Mof_N 	N 	0.38707	0.01303	0.40483	-0.112
Mof_N 	N 	0.26277	0.94923	0.42523	-0.084
Mof_N 	N 	0.03847	0.83033	0.43553	-0.098
Mof_N 	N 	0.10147	0.93283	0.46513	-0.139
Mof_C 	C 	0.42467	0.11583	0.37713	0.117
Mof_C 	C 	0.50257	0.00083	0.41123	0.047
Mof_C 	C 	0.13807	0.84523	0.41173	0.107
Mof_C 	C 	0.23487	0.00163	0.45873	0.061
Mof_H 	H 	0.36067	0.14133	0.36333	0.009
Mof_H 	H 	0.50667	0.93533	0.42733	0.05
Mof_H 	H 	0.13067	0.80233	0.39133	0.007
Mof_H 	H 	0.30867	0.07333	0.47233	0.025
Mof_N 	N 	0.21953	0.49747	0.70067	-0.169
Mof_N 	N 	0.27073	0.42327	0.72207	-0.095
Mof_N 	N 	0.05373	0.34637	0.73817	-0.119
Mof_N 	N 	0.92943	0.28257	0.75857	-0.099
Mof_N 	N 	0.70513	0.16367	0.76887	-0.097
Mof_N 	N 	0.76813	0.26617	0.79847	-0.167
Mof_C 	C 	0.09133	0.44917	0.71047	0.115
Mof_C 	C 	0.16923	0.33417	0.74457	0.092
Mof_C 	C 	0.80473	0.17857	0.74507	0.103
Mof_C 	C 	0.90153	0.33497	0.79207	0.117
Mof_H 	H 	0.02733	0.47467	0.69667	0.007
Mof_H 	H 	0.17333	0.26867	0.76067	0.012
Mof_H 	H 	0.79733	0.13567	0.72467	0.008
Mof_H 	H 	0.97533	0.40667	0.80567	0.015
Mof_N 	N 	0.8308	0.9446	0.966	-0.132
Mof_N 	N 	0.7566	0.8192	0.9446	-0.091
Mof_N 	N 	0.6797	0.9593	0.9285	-0.082
Mof_N 	N 	0.6159	0.0198	0.9081	-0.12
Mof_N 	N 	0.497	0.1252	0.8978	-0.097
Mof_N 	N 	0.5995	0.1647	0.8682	-0.168
Mof_C 	C 	0.7825	0.0245	0.9562	0.074
Mof_C 	C 	0.6675	0.8316	0.9221	0.1
Mof_C 	C 	0.5119	0.0405	0.9216	0.104
Mof_C 	C 	0.6683	0.1001	0.8746	0.117
Mof_H 	H 	0.808	0.114	0.97	0.032
Mof_H 	H 	0.602	0.762	0.906	0.02
Mof_H 	H 	0.469	0.005	0.942	0.002
Mof_H 	H 	0.74	0.098	0.861	0.006
Mof_N 	N 	0.49747	0.27793	0.29933	-0.169
Mof_N 	N 	0.42327	0.15253	0.27793	-0.099
Mof_N 	N 	0.34637	0.29263	0.26183	-0.109
Mof_N 	N 	0.28257	0.35313	0.24143	-0.111
Mof_N 	N 	0.16367	0.45853	0.23113	-0.098
Mof_N 	N 	0.26617	0.49803	0.20153	-0.168
Mof_C 	C 	0.44917	0.35783	0.28953	0.117
Mof_C 	C 	0.33417	0.16493	0.25543	0.093
Mof_C 	C 	0.17857	0.37383	0.25493	0.102
Mof_C 	C 	0.33497	0.43343	0.20793	0.115
Mof_H 	H 	0.47467	0.44733	0.30333	0.014
Mof_H 	H 	0.26867	0.09533	0.23933	0.008
Mof_H 	H 	0.13567	0.33833	0.27533	0.003
Mof_H 	H 	0.40667	0.43133	0.19433	0.007
Mof_N 	N 	0.16413	0.61127	0.63267	-0.169
Mof_N 	N 	0.08993	0.48587	0.61127	-0.09
Mof_N 	N 	0.01303	0.62597	0.59517	-0.11
Mof_N 	N 	0.94923	0.68647	0.57477	-0.085
Mof_N 	N 	0.83033	0.79187	0.56447	-0.089
Mof_N 	N 	0.93283	0.83137	0.53487	-0.134
Mof_C 	C 	0.11583	0.69117	0.62287	0.118
Mof_C 	C 	0.00083	0.49827	0.58877	0.047
Mof_C 	C 	0.84523	0.70717	0.58827	0.108
Mof_C 	C 	0.00163	0.76677	0.54127	0.069
Mof_H 	H 	0.14133	0.78067	0.63667	0.014
Mof_H 	H 	0.93533	0.42867	0.57267	0.049
Mof_H 	H 	0.80233	0.67167	0.60867	0.013
Mof_H 	H 	0.07333	0.76467	0.52767	0.026
Mof_N 	N 	0.0554	0.8862	0.966	-0.171
Mof_N 	N 	0.1808	0.9374	0.9446	-0.085
Mof_N 	N 	0.0407	0.7204	0.9285	-0.13
Mof_N 	N 	0.9802	0.5961	0.9081	-0.097
Mof_N 	N 	0.8748	0.3718	0.8978	-0.09
Mof_N 	N 	0.8353	0.4348	0.8682	-0.166
Mof_C 	C 	0.9755	0.758	0.9562	0.163
Mof_C 	C 	0.1684	0.8359	0.9221	0.094
Mof_C 	C 	0.9595	0.4714	0.9216	0.103
Mof_C 	C 	0.8999	0.5682	0.8746	0.118
Mof_H 	H 	0.886	0.694	0.97	0.007
Mof_H 	H 	0.238	0.84	0.906	0.022
Mof_H 	H 	0.995	0.464	0.942	0.021
Mof_H 	H 	0.902	0.642	0.861	0.014
Mof_N 	N 	0.72207	0.21953	0.29933	-0.168
Mof_N 	N 	0.84747	0.27073	0.27793	-0.091
Mof_N 	N 	0.70737	0.05373	0.26183	-0.117
Mof_N 	N 	0.64687	0.92943	0.24143	-0.098
Mof_N 	N 	0.54147	0.70513	0.23113	-0.092
Mof_N 	N 	0.50197	0.76813	0.20153	-0.166
Mof_C 	C 	0.64217	0.09133	0.28953	0.117
Mof_C 	C 	0.83507	0.16923	0.25543	0.095
Mof_C 	C 	0.62617	0.80473	0.25493	0.105
Mof_C 	C 	0.56657	0.90153	0.20793	0.119
Mof_H 	H 	0.55267	0.02733	0.30333	0.007
Mof_H 	H 	0.90467	0.17333	0.23933	0.022
Mof_H 	H 	0.66167	0.79733	0.27533	0.015
Mof_H 	H 	0.56867	0.97533	0.19433	0.016
Mof_N 	N 	0.38873	0.55287	0.63267	-0.168
Mof_N 	N 	0.51413	0.60407	0.61127	-0.094
Mof_N 	N 	0.37403	0.38707	0.59517	-0.108
Mof_N 	N 	0.31353	0.26277	0.57477	-0.11
Mof_N 	N 	0.20813	0.03847	0.56447	-0.102
Mof_N 	N 	0.16863	0.10147	0.53487	-0.167
Mof_C 	C 	0.30883	0.42467	0.62287	0.118
Mof_C 	C 	0.50173	0.50257	0.58877	0.095
Mof_C 	C 	0.29283	0.13807	0.58827	0.102
Mof_C 	C 	0.23323	0.23487	0.54127	0.113
Mof_H 	H 	0.21933	0.36067	0.63667	0.009
Mof_H 	H 	0.57133	0.50667	0.57267	0.019
Mof_H 	H 	0.32833	0.13067	0.60867	0.004
Mof_H 	H 	0.23533	0.30867	0.52767	0.007
Mof_N 	N 	0.1138	0.1692	0.966	-0.164
Mof_N 	N 	0.0626	0.2434	0.9446	-0.102
Mof_N 	N 	0.2796	0.3203	0.9285	-0.107
Mof_N 	N 	0.4039	0.3841	0.9081	-0.11
Mof_N 	N 	0.6282	0.503	0.8978	-0.092
Mof_N 	N 	0.5652	0.4005	0.8682	-0.168
Mof_C 	C 	0.242	0.2175	0.9562	0.114
Mof_C 	C 	0.1641	0.3325	0.9221	0.092
Mof_C 	C 	0.5286	0.4881	0.9216	0.104
Mof_C 	C 	0.4318	0.3317	0.8746	0.118
Mof_H 	H 	0.306	0.192	0.97	0.014
Mof_H 	H 	0.16	0.398	0.906	0.013
Mof_H 	H 	0.536	0.531	0.942	0.012
Mof_H 	H 	0.358	0.26	0.861	0.003
Mof_N 	N 	0.78047	0.50253	0.29933	-0.168
Mof_N 	N 	0.72927	0.57673	0.27793	-0.093
Mof_N 	N 	0.94627	0.65363	0.26183	-0.096
Mof_N 	N 	0.07057	0.71743	0.24143	-0.119
Mof_N 	N 	0.29487	0.83633	0.23113	-0.09
Mof_N 	N 	0.23187	0.73383	0.20153	-0.168
Mof_C 	C 	0.90867	0.55083	0.28953	0.121
Mof_C 	C 	0.83077	0.66583	0.25543	0.098
Mof_C 	C 	0.19527	0.82143	0.25493	0.105
Mof_C 	C 	0.09847	0.66503	0.20793	0.118
Mof_H 	H 	0.97267	0.52533	0.30333	0.02
Mof_H 	H 	0.82667	0.73133	0.23933	0.024
Mof_H 	H 	0.20267	0.86433	0.27533	0.013
Mof_H 	H 	0.02467	0.59333	0.19433	0
Mof_N 	N 	0.44713	0.83587	0.63267	-0.168
Mof_N 	N 	0.39593	0.91007	0.61127	-0.099
Mof_N 	N 	0.61293	0.98697	0.59517	-0.104
Mof_N 	N 	0.73723	0.05077	0.57477	-0.131
Mof_N 	N 	0.96153	0.16967	0.56447	-0.085
Mof_N 	N 	0.89853	0.06717	0.53487	-0.175
Mof_C 	C 	0.57533	0.88417	0.62287	0.12
Mof_C 	C 	0.49743	0.99917	0.58877	0.143
Mof_C 	C 	0.86193	0.15477	0.58827	0.1
Mof_C 	C 	0.76513	0.99837	0.54127	0.166
Mof_H 	H 	0.63933	0.85867	0.63667	0.018
Mof_H 	H 	0.49333	0.06467	0.57267	-0.014
Mof_H 	H 	0.86933	0.19767	0.60867	0.014
Mof_H 	H 	0.69133	0.92667	0.52767	-0.004
Mof_Fe	Fe	-0	0	-0	0.685
Mof_Fe	Fe	0.66667	0.33333	0.33333	0.766
Mof_Fe	Fe	0.33333	0.66667	0.66667	0.766
Mof_Fe	Fe	0.66667	0.33333	0.83333	0.77
Mof_Fe	Fe	0.33333	0.66667	0.16667	0.77
Mof_Fe	Fe	-1.45171e-32	0	0.5	0.702
_end
