# CIF file generated by openbabel 3.1.0, see https://openbabel.org
data_I
_chemical_name_common 'image0'
_cell_length_a 8.0222
_cell_length_b 18.1099
_cell_length_c 21.954
_cell_angle_alpha 90
_cell_angle_beta 90
_cell_angle_gamma 90
_space_group_name_H-M_alt 'P 1'
_space_group_name_Hall 'P 1'
loop_
    _symmetry_equiv_pos_as_xyz
    x,y,z
loop_
    _atom_site_label
    _atom_site_type_symbol
    _atom_site_fract_x
    _atom_site_fract_y
    _atom_site_fract_z
    _atom_site_occupancy
    Cd1      Cd       0.76819    0.09132    0.13978    1.000
    Cd2      Cd       0.96011    0.25271    0.89004    1.000
    C1       C        0.58980    0.16670    0.02050    1.000
    H1       H        0.48270    0.16360    0.03660    1.000
    C2       C        0.84590    0.15750    0.00910    1.000
    H2       H        0.95760    0.14610    0.01550    1.000
    C3       C        0.66710    0.92640    0.11090    1.000
    H3       H        0.55760    0.94230    0.10610    1.000
    C4       C        0.92270    0.92440    0.12570    1.000
    H4       H        0.03180    0.93940    0.13290    1.000
    C5       C        0.90940    0.15600    0.26550    1.000
    H5       H        0.01640    0.13900    0.25700    1.000
    C6       C        0.65660    0.17910    0.25840    1.000
    H6       H        0.54780    0.18230    0.24400    1.000
    N1       N        0.72720    0.13940    0.04880    1.000
    N2       N        0.79510    0.19190    0.96140    1.000
    N3       N        0.62520    0.19810    0.96780    1.000
    N4       N        0.77840    0.14650    0.22800    1.000
    N5       N        0.70410    0.20640    0.31060    1.000
    N6       N        0.86940    0.19180    0.31550    1.000
    N7       N        0.78870    0.97140    0.12310    1.000
    N8       N        0.71100    0.85680    0.10580    1.000
    N9       N        0.87720    0.85570    0.11660    1.000
    Cd3      Cd       0.23181    0.40868    0.63978    1.000
    Cd4      Cd       0.03989    0.24729    0.39004    1.000
    C7       C        0.41020    0.33330    0.52050    1.000
    H7       H        0.51730    0.33640    0.53660    1.000
    C8       C        0.15410    0.34250    0.50910    1.000
    H8       H        0.04240    0.35390    0.51550    1.000
    C9       C        0.33290    0.57360    0.61090    1.000
    H9       H        0.44240    0.55770    0.60610    1.000
    C10      C        0.07730    0.57560    0.62570    1.000
    H10      H        0.96820    0.56060    0.63290    1.000
    C11      C        0.09060    0.34400    0.76550    1.000
    H11      H        0.98360    0.36100    0.75700    1.000
    C12      C        0.34340    0.32090    0.75840    1.000
    H12      H        0.45220    0.31770    0.74400    1.000
    N10      N        0.27280    0.36060    0.54880    1.000
    N11      N        0.20490    0.30810    0.46140    1.000
    N12      N        0.37480    0.30190    0.46780    1.000
    N13      N        0.22160    0.35350    0.72800    1.000
    N14      N        0.29590    0.29360    0.81060    1.000
    N15      N        0.13060    0.30820    0.81550    1.000
    N16      N        0.21130    0.52860    0.62310    1.000
    N17      N        0.28900    0.64320    0.60580    1.000
    N18      N        0.12280    0.64430    0.61660    1.000
    Cd5      Cd       0.26819    0.90868    0.36022    1.000
    Cd6      Cd       0.46011    0.74729    0.60996    1.000
    C13      C        0.08980    0.83330    0.47950    1.000
    H13      H        0.98270    0.83640    0.46340    1.000
    C14      C        0.34590    0.84250    0.49090    1.000
    H14      H        0.45760    0.85390    0.48450    1.000
    C15      C        0.16710    0.07360    0.38910    1.000
    H15      H        0.05760    0.05770    0.39390    1.000
    C16      C        0.42270    0.07560    0.37430    1.000
    H16      H        0.53180    0.06060    0.36710    1.000
    C17      C        0.40940    0.84400    0.23450    1.000
    H17      H        0.51640    0.86100    0.24300    1.000
    C18      C        0.15660    0.82090    0.24160    1.000
    H18      H        0.04780    0.81770    0.25600    1.000
    N19      N        0.22720    0.86060    0.45120    1.000
    N20      N        0.29510    0.80810    0.53860    1.000
    N21      N        0.12520    0.80190    0.53220    1.000
    N22      N        0.27840    0.85350    0.27200    1.000
    N23      N        0.20410    0.79360    0.18940    1.000
    N24      N        0.36940    0.80820    0.18450    1.000
    N25      N        0.28870    0.02860    0.37690    1.000
    N26      N        0.21100    0.14320    0.39420    1.000
    N27      N        0.37720    0.14430    0.38340    1.000
    Cd7      Cd       0.73181    0.59132    0.86022    1.000
    Cd8      Cd       0.53989    0.75271    0.10996    1.000
    C19      C        0.91020    0.66670    0.97950    1.000
    H19      H        0.01730    0.66360    0.96340    1.000
    C20      C        0.65410    0.65750    0.99090    1.000
    H20      H        0.54240    0.64610    0.98450    1.000
    C21      C        0.83290    0.42640    0.88910    1.000
    H21      H        0.94240    0.44230    0.89390    1.000
    C22      C        0.57730    0.42440    0.87430    1.000
    H22      H        0.46820    0.43940    0.86710    1.000
    C23      C        0.59060    0.65600    0.73450    1.000
    H23      H        0.48360    0.63900    0.74300    1.000
    C24      C        0.84340    0.67910    0.74160    1.000
    H24      H        0.95220    0.68230    0.75600    1.000
    N28      N        0.77280    0.63940    0.95120    1.000
    N29      N        0.70490    0.69190    0.03860    1.000
    N30      N        0.87480    0.69810    0.03220    1.000
    N31      N        0.72160    0.64650    0.77200    1.000
    N32      N        0.79590    0.70640    0.68940    1.000
    N33      N        0.63060    0.69180    0.68450    1.000
    N34      N        0.71130    0.47140    0.87690    1.000
    N35      N        0.78900    0.35680    0.89420    1.000
    N36      N        0.62280    0.35570    0.88340    1.000
    Cd9      Cd       0.23181    0.90868    0.86022    1.000
    Cd10     Cd       0.03989    0.74729    0.10996    1.000
    C25      C        0.41020    0.83330    0.97950    1.000
    H25      H        0.51730    0.83640    0.96340    1.000
    C26      C        0.15410    0.84250    0.99090    1.000
    H26      H        0.04240    0.85390    0.98450    1.000
    C27      C        0.33290    0.07360    0.88910    1.000
    H27      H        0.44240    0.05770    0.89390    1.000
    C28      C        0.07730    0.07560    0.87430    1.000
    H28      H        0.96820    0.06060    0.86710    1.000
    C29      C        0.09060    0.84400    0.73450    1.000
    H29      H        0.98360    0.86100    0.74300    1.000
    C30      C        0.34340    0.82090    0.74160    1.000
    H30      H        0.45220    0.81770    0.75600    1.000
    N37      N        0.27280    0.86060    0.95120    1.000
    N38      N        0.20490    0.80810    0.03860    1.000
    N39      N        0.37480    0.80190    0.03220    1.000
    N40      N        0.22160    0.85350    0.77200    1.000
    N41      N        0.29590    0.79360    0.68940    1.000
    N42      N        0.13060    0.80820    0.68450    1.000
    N43      N        0.21130    0.02860    0.87690    1.000
    N44      N        0.28900    0.14320    0.89420    1.000
    N45      N        0.12280    0.14430    0.88340    1.000
    Cd11     Cd       0.76819    0.59132    0.36022    1.000
    Cd12     Cd       0.96011    0.75271    0.60996    1.000
    C31      C        0.58980    0.66670    0.47950    1.000
    H31      H        0.48270    0.66360    0.46340    1.000
    C32      C        0.84590    0.65750    0.49090    1.000
    H32      H        0.95760    0.64610    0.48450    1.000
    C33      C        0.66710    0.42640    0.38910    1.000
    H33      H        0.55760    0.44230    0.39390    1.000
    C34      C        0.92270    0.42440    0.37430    1.000
    H34      H        0.03180    0.43940    0.36710    1.000
    C35      C        0.90940    0.65600    0.23450    1.000
    H35      H        0.01640    0.63900    0.24300    1.000
    C36      C        0.65660    0.67910    0.24160    1.000
    H36      H        0.54780    0.68230    0.25600    1.000
    N46      N        0.72720    0.63940    0.45120    1.000
    N47      N        0.79510    0.69190    0.53860    1.000
    N48      N        0.62520    0.69810    0.53220    1.000
    N49      N        0.77840    0.64650    0.27200    1.000
    N50      N        0.70410    0.70640    0.18940    1.000
    N51      N        0.86940    0.69180    0.18450    1.000
    N52      N        0.78870    0.47140    0.37690    1.000
    N53      N        0.71100    0.35680    0.39420    1.000
    N54      N        0.87720    0.35570    0.38340    1.000
    Cd13     Cd       0.73181    0.09132    0.63978    1.000
    Cd14     Cd       0.53989    0.25271    0.39004    1.000
    C37      C        0.91020    0.16670    0.52050    1.000
    H37      H        0.01730    0.16360    0.53660    1.000
    C38      C        0.65410    0.15750    0.50910    1.000
    H38      H        0.54240    0.14610    0.51550    1.000
    C39      C        0.83290    0.92640    0.61090    1.000
    H39      H        0.94240    0.94230    0.60610    1.000
    C40      C        0.57730    0.92440    0.62570    1.000
    H40      H        0.46820    0.93940    0.63290    1.000
    C41      C        0.59060    0.15600    0.76550    1.000
    H41      H        0.48360    0.13900    0.75700    1.000
    C42      C        0.84340    0.17910    0.75840    1.000
    H42      H        0.95220    0.18230    0.74400    1.000
    N55      N        0.77280    0.13940    0.54880    1.000
    N56      N        0.70490    0.19190    0.46140    1.000
    N57      N        0.87480    0.19810    0.46780    1.000
    N58      N        0.72160    0.14650    0.72800    1.000
    N59      N        0.79590    0.20640    0.81060    1.000
    N60      N        0.63060    0.19180    0.81550    1.000
    N61      N        0.71130    0.97140    0.62310    1.000
    N62      N        0.78900    0.85680    0.60580    1.000
    N63      N        0.62280    0.85570    0.61660    1.000
    Cd15     Cd       0.26819    0.40868    0.13978    1.000
    Cd16     Cd       0.46011    0.24729    0.89004    1.000
    C43      C        0.08980    0.33330    0.02050    1.000
    H43      H        0.98270    0.33640    0.03660    1.000
    C44      C        0.34590    0.34250    0.00910    1.000
    H44      H        0.45760    0.35390    0.01550    1.000
    C45      C        0.16710    0.57360    0.11090    1.000
    H45      H        0.05760    0.55770    0.10610    1.000
    C46      C        0.42270    0.57560    0.12570    1.000
    H46      H        0.53180    0.56060    0.13290    1.000
    C47      C        0.40940    0.34400    0.26550    1.000
    H47      H        0.51640    0.36100    0.25700    1.000
    C48      C        0.15660    0.32090    0.25840    1.000
    H48      H        0.04780    0.31770    0.24400    1.000
    N64      N        0.22720    0.36060    0.04880    1.000
    N65      N        0.29510    0.30810    0.96140    1.000
    N66      N        0.12520    0.30190    0.96780    1.000
    N67      N        0.27840    0.35350    0.22800    1.000
    N68      N        0.20410    0.29360    0.31060    1.000
    N69      N        0.36940    0.30820    0.31550    1.000
    N70      N        0.28870    0.52860    0.12310    1.000
    N71      N        0.21100    0.64320    0.10580    1.000
    N72      N        0.37720    0.64430    0.11660    1.000
