data_functionalizedCrystal
_audit_creation_method	'EQeq! by Chris Wilmer'
_symmetry_space_group_name_H-M	'P1'
_symmetry_Int_Tables_number	1
_symmetry_cell_setting	triclinic
loop_
_symmetry_equiv_pos_as_xyz
  x,y,z
_cell_length_a	25.1117
_cell_length_b	25.1117
_cell_length_c	13.2033
_cell_angle_alpha	90
_cell_angle_beta	90
_cell_angle_gamma	120
loop_
_atom_site_label
_atom_site_type_symbol
_atom_site_fract_x
_atom_site_fract_y
_atom_site_fract_z
_atom_site_charge
Mof_Zn	Zn	0.42879	0.33157	0.00124	1.13
Mof_N 	N 	0.4153	0.2524	0.0534	-0.37
Mof_C 	C 	0.397	0.3903	0.1766	0.261
Mof_C 	C 	0.3758	0.2161	0.1326	0.011
Mof_N 	N 	0.5175	0.3967	0.9945	-0.312
Mof_N 	N 	0.318	0.3891	0.1192	-0.126
Mof_N 	N 	0.3869	0.3664	0.0867	-0.329
Mof_C 	C 	0.3418	0.2275	0.2023	-0.129
Mof_H 	H 	0.3433	0.2653	0.2044	0.035
Mof_N 	N 	0.3373	0.3677	0.051	-0.135
Mof_N 	N 	0.354	0.4038	0.2016	-0.312
Mof_N 	N 	0.5586	0.3874	0.0388	-0.168
Mof_C 	C 	0.3049	0.18	0.2699	-0.048
Mof_H 	H 	0.2799	0.1857	0.3156	0.006
Mof_C 	C 	0.4443	0.3925	0.2479	-0.785
Mof_H 	H 	0.4704	0.3808	0.2126	0.202
Mof_H 	H 	0.4687	0.4334	0.2738	0.213
Mof_H 	H 	0.4243	0.3645	0.303	0.232
Mof_H 	H 	0.4721	0.4559	0.9044	0.357
Mof_H 	H 	0.5167	0.5174	0.9605	0.369
Mof_H 	H 	0.5346	0.5034	0.854	0.364
Mof_H 	H 	0.4892	0.2086	0.9041	0.212
Mof_H 	H 	0.4624	0.2497	0.8671	0.222
Mof_H 	H 	0.5177	0.2763	0.9434	0.252
Mof_Zn	Zn	0.09546	0.6649	0.33457	1.164
Mof_N 	N 	0.08197	0.58573	0.38673	-0.391
Mof_C 	C 	0.06367	0.72363	0.50993	0.275
Mof_C 	C 	0.04247	0.54943	0.46593	0.031
Mof_N 	N 	0.18417	0.73003	0.32783	-0.358
Mof_N 	N 	0.98467	0.72243	0.45253	-0.064
Mof_N 	N 	0.05357	0.69973	0.42003	-0.31
Mof_C 	C 	0.00847	0.56083	0.53563	-0.198
Mof_H 	H 	0.00997	0.59863	0.53773	0.054
Mof_N 	N 	0.00397	0.70103	0.38433	-0.129
Mof_N 	N 	0.02067	0.73713	0.53493	-0.336
Mof_N 	N 	0.22527	0.72073	0.37213	-0.111
Mof_C 	C 	0.97157	0.51333	0.60323	0.023
Mof_H 	H 	0.94657	0.51903	0.64893	0.005
Mof_C 	C 	0.11097	0.72583	0.58123	-0.803
Mof_H 	H 	0.13707	0.71413	0.54593	0.219
Mof_H 	H 	0.13537	0.76673	0.60713	0.225
Mof_H 	H 	0.09097	0.69783	0.63633	0.234
Mof_H 	H 	0.13877	0.78923	0.23773	0.237
Mof_H 	H 	0.18337	0.85073	0.29383	0.242
Mof_H 	H 	0.20127	0.83673	0.18733	0.243
Mof_H 	H 	0.15587	0.54193	0.23743	0.265
Mof_H 	H 	0.12907	0.58303	0.20043	0.275
Mof_H 	H 	0.18437	0.60963	0.27673	0.296
Mof_Zn	Zn	0.76212	0.99824	0.66791	1.151
Mof_N 	N 	0.74863	0.91907	0.72007	-0.397
Mof_C 	C 	0.73033	0.05697	0.84327	0.347
Mof_C 	C 	0.70913	0.88277	0.79927	0.018
Mof_N 	N 	0.85083	0.06337	0.66117	-0.365
Mof_N 	N 	0.65133	0.05577	0.78587	-0.089
Mof_N 	N 	0.72023	0.03307	0.75337	-0.302
Mof_C 	C 	0.67513	0.89417	0.86897	-0.103
Mof_H 	H 	0.67663	0.93197	0.87107	0.034
Mof_N 	N 	0.67063	0.03437	0.71767	-0.076
Mof_N 	N 	0.68733	0.07047	0.86827	-0.286
Mof_N 	N 	0.89193	0.05407	0.70547	-0.091
Mof_C 	C 	0.63823	0.84667	0.93657	-0.041
Mof_H 	H 	0.61323	0.85237	0.98227	0.049
Mof_C 	C 	0.77763	0.05917	0.91457	-0.955
Mof_H 	H 	0.80373	0.04747	0.87927	0.285
Mof_H 	H 	0.80203	0.10007	0.94047	0.302
Mof_H 	H 	0.75763	0.03117	0.96967	0.336
Mof_H 	H 	0.80543	0.12257	0.57107	0.316
Mof_H 	H 	0.85003	0.18407	0.62717	0.318
Mof_H 	H 	0.86793	0.17007	0.52067	0.33
Mof_H 	H 	0.82253	0.87527	0.57077	0.294
Mof_H 	H 	0.79573	0.91637	0.53377	0.308
Mof_H 	H 	0.85103	0.94297	0.61007	0.318
Mof_Zn	Zn	0.66843	0.09722	0.00124	1.13
Mof_N 	N 	0.7476	0.1629	0.0534	-0.371
Mof_C 	C 	0.6097	0.0067	0.1766	0.335
Mof_C 	C 	0.7839	0.1597	0.1326	0.011
Mof_N 	N 	0.6033	0.1208	0.9945	-0.277
Mof_N 	N 	0.6109	0.9289	0.1192	-0.129
Mof_N 	N 	0.6336	0.0205	0.0867	-0.318
Mof_C 	C 	0.7725	0.1143	0.2023	-0.127
Mof_H 	H 	0.7347	0.078	0.2044	0.042
Mof_N 	N 	0.6323	0.9696	0.051	-0.159
Mof_N 	N 	0.5962	0.9502	0.2016	-0.345
Mof_N 	N 	0.6126	0.1712	0.0388	-0.169
Mof_C 	C 	0.82	0.1249	0.2699	-0.045
Mof_H 	H 	0.8143	0.0942	0.3156	0.015
Mof_C 	C 	0.6075	0.0518	0.2479	-0.871
Mof_H 	H 	0.6192	0.0896	0.2126	0.229
Mof_H 	H 	0.5666	0.0353	0.2738	0.252
Mof_H 	H 	0.6355	0.0598	0.303	0.269
Mof_H 	H 	0.5441	0.0162	0.9044	0.282
Mof_H 	H 	0.4826	0.9993	0.9605	0.224
Mof_H 	H 	0.4966	0.0312	0.854	0.253
Mof_H 	H 	0.7914	0.2806	0.9041	0.21
Mof_H 	H 	0.7503	0.2127	0.8671	0.22
Mof_H 	H 	0.7237	0.2414	0.9434	0.251
Mof_Zn	Zn	0.3351	0.43055	0.33457	1.166
Mof_N 	N 	0.41427	0.49623	0.38673	-0.387
Mof_C 	C 	0.27637	0.34003	0.50993	0.282
Mof_C 	C 	0.45057	0.49303	0.46593	0.026
Mof_N 	N 	0.26997	0.45413	0.32783	-0.36
Mof_N 	N 	0.27757	0.26223	0.45253	-0.109
Mof_N 	N 	0.30027	0.35383	0.42003	-0.307
Mof_C 	C 	0.43917	0.44763	0.53563	-0.117
Mof_H 	H 	0.40137	0.41133	0.53773	0.042
Mof_N 	N 	0.29897	0.30293	0.38433	-0.094
Mof_N 	N 	0.26287	0.28353	0.53493	-0.311
Mof_N 	N 	0.27927	0.50453	0.37213	-0.111
Mof_C 	C 	0.48667	0.45823	0.60323	-0.042
Mof_H 	H 	0.48097	0.42753	0.64893	0.013
Mof_C 	C 	0.27417	0.38513	0.58123	-0.812
Mof_H 	H 	0.28587	0.42293	0.54593	0.223
Mof_H 	H 	0.23327	0.36863	0.60713	0.227
Mof_H 	H 	0.30217	0.39313	0.63633	0.243
Mof_H 	H 	0.21077	0.34953	0.23773	0.246
Mof_H 	H 	0.14927	0.33263	0.29383	0.249
Mof_H 	H 	0.16327	0.36453	0.18733	0.25
Mof_H 	H 	0.45807	0.61393	0.23743	0.27
Mof_H 	H 	0.41697	0.54603	0.20043	0.281
Mof_H 	H 	0.39037	0.57473	0.27673	0.301
Mof_Zn	Zn	0.00176	0.76389	0.66791	1.15
Mof_N 	N 	0.08093	0.82957	0.72007	-0.385
Mof_C 	C 	0.94303	0.67337	0.84327	0.342
Mof_C 	C 	0.11723	0.82637	0.79927	0.02
Mof_N 	N 	0.93663	0.78747	0.66117	-0.363
Mof_N 	N 	0.94423	0.59557	0.78587	-0.089
Mof_N 	N 	0.96693	0.68717	0.75337	-0.302
Mof_C 	C 	0.10583	0.78097	0.86897	-0.109
Mof_H 	H 	0.06803	0.74467	0.87107	0.035
Mof_N 	N 	0.96563	0.63627	0.71767	-0.076
Mof_N 	N 	0.92953	0.61687	0.86827	-0.285
Mof_N 	N 	0.94593	0.83787	0.70547	-0.097
Mof_C 	C 	0.15333	0.79157	0.93657	-0.036
Mof_H 	H 	0.14763	0.76087	0.98227	0.047
Mof_C 	C 	0.94083	0.71847	0.91457	-0.941
Mof_H 	H 	0.95253	0.75627	0.87927	0.277
Mof_H 	H 	0.89993	0.70197	0.94047	0.296
Mof_H 	H 	0.96883	0.72647	0.96967	0.328
Mof_H 	H 	0.87743	0.68287	0.57107	0.311
Mof_H 	H 	0.81593	0.66597	0.62717	0.312
Mof_H 	H 	0.82993	0.69787	0.52067	0.322
Mof_H 	H 	0.12473	0.94727	0.57077	0.241
Mof_H 	H 	0.08363	0.87937	0.53377	0.264
Mof_H 	H 	0.05703	0.90807	0.61007	0.269
Mof_Zn	Zn	0.90278	0.57121	0.00124	1.131
Mof_N 	N 	0.8371	0.5847	0.0534	-0.371
Mof_C 	C 	0.9933	0.603	0.1766	0.335
Mof_C 	C 	0.8403	0.6242	0.1326	0.011
Mof_N 	N 	0.8792	0.4825	0.9945	-0.277
Mof_N 	N 	0.0711	0.682	0.1192	-0.128
Mof_N 	N 	0.9795	0.6131	0.0867	-0.318
Mof_C 	C 	0.8857	0.6582	0.2023	-0.128
Mof_H 	H 	0.922	0.6567	0.2044	0.041
Mof_N 	N 	0.0304	0.6627	0.051	-0.159
Mof_N 	N 	0.0498	0.646	0.2016	-0.345
Mof_N 	N 	0.8288	0.4414	0.0388	-0.169
Mof_C 	C 	0.8751	0.6951	0.2699	-0.047
Mof_H 	H 	0.9058	0.7201	0.3156	0.012
Mof_C 	C 	0.9482	0.5557	0.2479	-0.87
Mof_H 	H 	0.9104	0.5296	0.2126	0.229
Mof_H 	H 	0.9647	0.5313	0.2738	0.252
Mof_H 	H 	0.9402	0.5757	0.303	0.269
Mof_H 	H 	0.9838	0.5279	0.9044	0.282
Mof_H 	H 	0.0007	0.4833	0.9605	0.224
Mof_H 	H 	0.9688	0.4654	0.854	0.253
Mof_H 	H 	0.7194	0.5108	0.9041	0.211
Mof_H 	H 	0.7873	0.5376	0.8671	0.222
Mof_H 	H 	0.7586	0.4823	0.9434	0.252
Mof_Zn	Zn	0.56945	0.90454	0.33457	1.164
Mof_N 	N 	0.50377	0.91803	0.38673	-0.391
Mof_C 	C 	0.65997	0.93633	0.50993	0.274
Mof_C 	C 	0.50697	0.95753	0.46593	0.031
Mof_N 	N 	0.54587	0.81583	0.32783	-0.36
Mof_N 	N 	0.73777	0.01533	0.45253	-0.063
Mof_N 	N 	0.64617	0.94643	0.42003	-0.31
Mof_C 	C 	0.55237	0.99153	0.53563	-0.198
Mof_H 	H 	0.58867	0.99003	0.53773	0.054
Mof_N 	N 	0.69707	0.99603	0.38433	-0.129
Mof_N 	N 	0.71647	0.97933	0.53493	-0.337
Mof_N 	N 	0.49547	0.77473	0.37213	-0.111
Mof_C 	C 	0.54177	0.02843	0.60323	0.023
Mof_H 	H 	0.57247	0.05343	0.64893	0.005
Mof_C 	C 	0.61487	0.88903	0.58123	-0.801
Mof_H 	H 	0.57707	0.86293	0.54593	0.219
Mof_H 	H 	0.63137	0.86463	0.60713	0.223
Mof_H 	H 	0.60687	0.90903	0.63633	0.233
Mof_H 	H 	0.65047	0.86123	0.23773	0.244
Mof_H 	H 	0.66737	0.81663	0.29383	0.25
Mof_H 	H 	0.63547	0.79873	0.18733	0.25
Mof_H 	H 	0.38607	0.84413	0.23743	0.266
Mof_H 	H 	0.45397	0.87093	0.20043	0.275
Mof_H 	H 	0.42527	0.81563	0.27673	0.296
Mof_Zn	Zn	0.23611	0.23788	0.66791	1.167
Mof_N 	N 	0.17043	0.25137	0.72007	-0.392
Mof_C 	C 	0.32663	0.26967	0.84327	0.324
Mof_C 	C 	0.17363	0.29087	0.79927	0.031
Mof_N 	N 	0.21253	0.14917	0.66117	-0.376
Mof_N 	N 	0.40443	0.34867	0.78587	-0.101
Mof_N 	N 	0.31283	0.27977	0.75337	-0.314
Mof_C 	C 	0.21903	0.32487	0.86897	-0.114
Mof_H 	H 	0.25533	0.32337	0.87107	0.053
Mof_N 	N 	0.36373	0.32937	0.71767	-0.09
Mof_N 	N 	0.38313	0.31267	0.86827	-0.289
Mof_N 	N 	0.16213	0.10807	0.70547	-0.108
Mof_C 	C 	0.20843	0.36177	0.93657	-0.027
Mof_H 	H 	0.23913	0.38677	0.98227	0.047
Mof_C 	C 	0.28153	0.22237	0.91457	-0.909
Mof_H 	H 	0.24373	0.19627	0.87927	0.258
Mof_H 	H 	0.29803	0.19797	0.94047	0.285
Mof_H 	H 	0.27353	0.24237	0.96967	0.304
Mof_H 	H 	0.31713	0.19457	0.57107	0.307
Mof_H 	H 	0.33403	0.14997	0.62717	0.313
Mof_H 	H 	0.30213	0.13207	0.52067	0.324
Mof_H 	H 	0.05273	0.17747	0.57077	0.287
Mof_H 	H 	0.12063	0.20427	0.53377	0.309
Mof_H 	H 	0.09193	0.14897	0.61007	0.324
Mof_Zn	Zn	0.66843	0.57121	0.00124	1.129
Mof_N 	N 	0.7476	0.5847	0.0534	-0.371
Mof_C 	C 	0.6097	0.603	0.1766	0.261
Mof_C 	C 	0.7839	0.6242	0.1326	0.011
Mof_N 	N 	0.6033	0.4825	0.9945	-0.312
Mof_N 	N 	0.6109	0.682	0.1192	-0.126
Mof_N 	N 	0.6336	0.6131	0.0867	-0.329
Mof_C 	C 	0.7725	0.6582	0.2023	-0.129
Mof_H 	H 	0.7347	0.6567	0.2044	0.035
Mof_N 	N 	0.6323	0.6627	0.051	-0.135
Mof_N 	N 	0.5962	0.646	0.2016	-0.312
Mof_N 	N 	0.6126	0.4414	0.0388	-0.168
Mof_C 	C 	0.82	0.6951	0.2699	-0.048
Mof_H 	H 	0.8143	0.7201	0.3156	0.006
Mof_C 	C 	0.6075	0.5557	0.2479	-0.785
Mof_H 	H 	0.6192	0.5296	0.2126	0.202
Mof_H 	H 	0.5666	0.5313	0.2738	0.213
Mof_H 	H 	0.6355	0.5757	0.303	0.232
Mof_H 	H 	0.5441	0.5279	0.9044	0.357
Mof_H 	H 	0.4826	0.4833	0.9605	0.369
Mof_H 	H 	0.4966	0.4654	0.854	0.364
Mof_H 	H 	0.7914	0.5108	0.9041	0.212
Mof_H 	H 	0.7503	0.5376	0.8671	0.222
Mof_H 	H 	0.7237	0.4823	0.9434	0.252
Mof_Zn	Zn	0.3351	0.90454	0.33457	1.164
Mof_N 	N 	0.41427	0.91803	0.38673	-0.391
Mof_C 	C 	0.27637	0.93633	0.50993	0.275
Mof_C 	C 	0.45057	0.95753	0.46593	0.031
Mof_N 	N 	0.26997	0.81583	0.32783	-0.358
Mof_N 	N 	0.27757	0.01533	0.45253	-0.064
Mof_N 	N 	0.30027	0.94643	0.42003	-0.31
Mof_C 	C 	0.43917	0.99153	0.53563	-0.198
Mof_H 	H 	0.40137	0.99003	0.53773	0.054
Mof_N 	N 	0.29897	0.99603	0.38433	-0.129
Mof_N 	N 	0.26287	0.97933	0.53493	-0.336
Mof_N 	N 	0.27927	0.77473	0.37213	-0.111
Mof_C 	C 	0.48667	0.02843	0.60323	0.023
Mof_H 	H 	0.48097	0.05343	0.64893	0.005
Mof_C 	C 	0.27417	0.88903	0.58123	-0.803
Mof_H 	H 	0.28587	0.86293	0.54593	0.219
Mof_H 	H 	0.23327	0.86463	0.60713	0.225
Mof_H 	H 	0.30217	0.90903	0.63633	0.234
Mof_H 	H 	0.21077	0.86123	0.23773	0.237
Mof_H 	H 	0.14927	0.81663	0.29383	0.242
Mof_H 	H 	0.16327	0.79873	0.18733	0.243
Mof_H 	H 	0.45807	0.84413	0.23743	0.265
Mof_H 	H 	0.41697	0.87093	0.20043	0.275
Mof_H 	H 	0.39037	0.81563	0.27673	0.296
Mof_Zn	Zn	0.00176	0.23788	0.66791	1.151
Mof_N 	N 	0.08093	0.25137	0.72007	-0.397
Mof_C 	C 	0.94303	0.26967	0.84327	0.347
Mof_C 	C 	0.11723	0.29087	0.79927	0.018
Mof_N 	N 	0.93663	0.14917	0.66117	-0.365
Mof_N 	N 	0.94423	0.34867	0.78587	-0.089
Mof_N 	N 	0.96693	0.27977	0.75337	-0.302
Mof_C 	C 	0.10583	0.32487	0.86897	-0.103
Mof_H 	H 	0.06803	0.32337	0.87107	0.034
Mof_N 	N 	0.96563	0.32937	0.71767	-0.076
Mof_N 	N 	0.92953	0.31267	0.86827	-0.286
Mof_N 	N 	0.94593	0.10807	0.70547	-0.091
Mof_C 	C 	0.15333	0.36177	0.93657	-0.041
Mof_H 	H 	0.14763	0.38677	0.98227	0.049
Mof_C 	C 	0.94083	0.22237	0.91457	-0.955
Mof_H 	H 	0.95253	0.19627	0.87927	0.285
Mof_H 	H 	0.89993	0.19797	0.94047	0.302
Mof_H 	H 	0.96883	0.24237	0.96967	0.336
Mof_H 	H 	0.87743	0.19457	0.57107	0.316
Mof_H 	H 	0.81593	0.14997	0.62717	0.318
Mof_H 	H 	0.82993	0.13207	0.52067	0.33
Mof_H 	H 	0.12473	0.17747	0.57077	0.294
Mof_H 	H 	0.08363	0.20427	0.53377	0.308
Mof_H 	H 	0.05703	0.14897	0.61007	0.318
Mof_Zn	Zn	0.90278	0.33157	0.00124	1.13
Mof_N 	N 	0.8371	0.2524	0.0534	-0.371
Mof_C 	C 	0.9933	0.3903	0.1766	0.335
Mof_C 	C 	0.8403	0.2161	0.1326	0.011
Mof_N 	N 	0.8792	0.3967	0.9945	-0.277
Mof_N 	N 	0.0711	0.3891	0.1192	-0.129
Mof_N 	N 	0.9795	0.3664	0.0867	-0.318
Mof_C 	C 	0.8857	0.2275	0.2023	-0.127
Mof_H 	H 	0.922	0.2653	0.2044	0.042
Mof_N 	N 	0.0304	0.3677	0.051	-0.159
Mof_N 	N 	0.0498	0.4038	0.2016	-0.345
Mof_N 	N 	0.8288	0.3874	0.0388	-0.169
Mof_C 	C 	0.8751	0.18	0.2699	-0.045
Mof_H 	H 	0.9058	0.1857	0.3156	0.015
Mof_C 	C 	0.9482	0.3925	0.2479	-0.871
Mof_H 	H 	0.9104	0.3808	0.2126	0.229
Mof_H 	H 	0.9647	0.4334	0.2738	0.252
Mof_H 	H 	0.9402	0.3645	0.303	0.269
Mof_H 	H 	0.9838	0.4559	0.9044	0.282
Mof_H 	H 	0.0007	0.5174	0.9605	0.224
Mof_H 	H 	0.9688	0.5034	0.854	0.253
Mof_H 	H 	0.7194	0.2086	0.9041	0.21
Mof_H 	H 	0.7873	0.2497	0.8671	0.22
Mof_H 	H 	0.7586	0.2763	0.9434	0.251
Mof_Zn	Zn	0.56945	0.6649	0.33457	1.166
Mof_N 	N 	0.50377	0.58573	0.38673	-0.387
Mof_C 	C 	0.65997	0.72363	0.50993	0.282
Mof_C 	C 	0.50697	0.54943	0.46593	0.026
Mof_N 	N 	0.54587	0.73003	0.32783	-0.36
Mof_N 	N 	0.73777	0.72243	0.45253	-0.109
Mof_N 	N 	0.64617	0.69973	0.42003	-0.307
Mof_C 	C 	0.55237	0.56083	0.53563	-0.117
Mof_H 	H 	0.58867	0.59863	0.53773	0.042
Mof_N 	N 	0.69707	0.70103	0.38433	-0.094
Mof_N 	N 	0.71647	0.73713	0.53493	-0.311
Mof_N 	N 	0.49547	0.72073	0.37213	-0.111
Mof_C 	C 	0.54177	0.51333	0.60323	-0.042
Mof_H 	H 	0.57247	0.51903	0.64893	0.013
Mof_C 	C 	0.61487	0.72583	0.58123	-0.812
Mof_H 	H 	0.57707	0.71413	0.54593	0.223
Mof_H 	H 	0.63137	0.76673	0.60713	0.227
Mof_H 	H 	0.60687	0.69783	0.63633	0.243
Mof_H 	H 	0.65047	0.78923	0.23773	0.246
Mof_H 	H 	0.66737	0.85073	0.29383	0.249
Mof_H 	H 	0.63547	0.83673	0.18733	0.25
Mof_H 	H 	0.38607	0.54193	0.23743	0.27
Mof_H 	H 	0.45397	0.58303	0.20043	0.281
Mof_H 	H 	0.42527	0.60963	0.27673	0.301
Mof_Zn	Zn	0.23611	0.99824	0.66791	1.15
Mof_N 	N 	0.17043	0.91907	0.72007	-0.385
Mof_C 	C 	0.32663	0.05697	0.84327	0.342
Mof_C 	C 	0.17363	0.88277	0.79927	0.02
Mof_N 	N 	0.21253	0.06337	0.66117	-0.363
Mof_N 	N 	0.40443	0.05577	0.78587	-0.089
Mof_N 	N 	0.31283	0.03307	0.75337	-0.302
Mof_C 	C 	0.21903	0.89417	0.86897	-0.109
Mof_H 	H 	0.25533	0.93197	0.87107	0.035
Mof_N 	N 	0.36373	0.03437	0.71767	-0.076
Mof_N 	N 	0.38313	0.07047	0.86827	-0.285
Mof_N 	N 	0.16213	0.05407	0.70547	-0.097
Mof_C 	C 	0.20843	0.84667	0.93657	-0.036
Mof_H 	H 	0.23913	0.85237	0.98227	0.047
Mof_C 	C 	0.28153	0.05917	0.91457	-0.941
Mof_H 	H 	0.24373	0.04747	0.87927	0.277
Mof_H 	H 	0.29803	0.10007	0.94047	0.296
Mof_H 	H 	0.27353	0.03117	0.96967	0.328
Mof_H 	H 	0.31713	0.12257	0.57107	0.311
Mof_H 	H 	0.33403	0.18407	0.62717	0.312
Mof_H 	H 	0.30213	0.17007	0.52067	0.322
Mof_H 	H 	0.05273	0.87527	0.57077	0.241
Mof_H 	H 	0.12063	0.91637	0.53377	0.264
Mof_H 	H 	0.09193	0.94297	0.61007	0.269
Mof_Zn	Zn	0.42879	0.09722	0.00124	1.131
Mof_N 	N 	0.4153	0.1629	0.0534	-0.371
Mof_C 	C 	0.397	0.0067	0.1766	0.335
Mof_C 	C 	0.3758	0.1597	0.1326	0.011
Mof_N 	N 	0.5175	0.1208	0.9945	-0.277
Mof_N 	N 	0.318	0.9289	0.1192	-0.128
Mof_N 	N 	0.3869	0.0205	0.0867	-0.318
Mof_C 	C 	0.3418	0.1143	0.2023	-0.128
Mof_H 	H 	0.3433	0.078	0.2044	0.041
Mof_N 	N 	0.3373	0.9696	0.051	-0.159
Mof_N 	N 	0.354	0.9502	0.2016	-0.345
Mof_N 	N 	0.5586	0.1712	0.0388	-0.169
Mof_C 	C 	0.3049	0.1249	0.2699	-0.047
Mof_H 	H 	0.2799	0.0942	0.3156	0.012
Mof_C 	C 	0.4443	0.0518	0.2479	-0.87
Mof_H 	H 	0.4704	0.0896	0.2126	0.229
Mof_H 	H 	0.4687	0.0353	0.2738	0.252
Mof_H 	H 	0.4243	0.0598	0.303	0.269
Mof_H 	H 	0.4721	0.0162	0.9044	0.282
Mof_H 	H 	0.5167	0.9993	0.9605	0.224
Mof_H 	H 	0.5346	0.0312	0.854	0.253
Mof_H 	H 	0.4892	0.2806	0.9041	0.211
Mof_H 	H 	0.4624	0.2127	0.8671	0.222
Mof_H 	H 	0.5177	0.2414	0.9434	0.252
Mof_Zn	Zn	0.09546	0.43055	0.33457	1.164
Mof_N 	N 	0.08197	0.49623	0.38673	-0.391
Mof_C 	C 	0.06367	0.34003	0.50993	0.274
Mof_C 	C 	0.04247	0.49303	0.46593	0.031
Mof_N 	N 	0.18417	0.45413	0.32783	-0.36
Mof_N 	N 	0.98467	0.26223	0.45253	-0.063
Mof_N 	N 	0.05357	0.35383	0.42003	-0.31
Mof_C 	C 	0.00847	0.44763	0.53563	-0.198
Mof_H 	H 	0.00997	0.41133	0.53773	0.054
Mof_N 	N 	0.00397	0.30293	0.38433	-0.129
Mof_N 	N 	0.02067	0.28353	0.53493	-0.337
Mof_N 	N 	0.22527	0.50453	0.37213	-0.111
Mof_C 	C 	0.97157	0.45823	0.60323	0.023
Mof_H 	H 	0.94657	0.42753	0.64893	0.005
Mof_C 	C 	0.11097	0.38513	0.58123	-0.801
Mof_H 	H 	0.13707	0.42293	0.54593	0.219
Mof_H 	H 	0.13537	0.36863	0.60713	0.223
Mof_H 	H 	0.09097	0.39313	0.63633	0.233
Mof_H 	H 	0.13877	0.34953	0.23773	0.244
Mof_H 	H 	0.18337	0.33263	0.29383	0.25
Mof_H 	H 	0.20127	0.36453	0.18733	0.25
Mof_H 	H 	0.15587	0.61393	0.23743	0.266
Mof_H 	H 	0.12907	0.54603	0.20043	0.275
Mof_H 	H 	0.18437	0.57473	0.27673	0.296
Mof_Zn	Zn	0.76212	0.76389	0.66791	1.167
Mof_N 	N 	0.74863	0.82957	0.72007	-0.392
Mof_C 	C 	0.73033	0.67337	0.84327	0.324
Mof_C 	C 	0.70913	0.82637	0.79927	0.031
Mof_N 	N 	0.85083	0.78747	0.66117	-0.376
Mof_N 	N 	0.65133	0.59557	0.78587	-0.101
Mof_N 	N 	0.72023	0.68717	0.75337	-0.314
Mof_C 	C 	0.67513	0.78097	0.86897	-0.114
Mof_H 	H 	0.67663	0.74467	0.87107	0.053
Mof_N 	N 	0.67063	0.63627	0.71767	-0.09
Mof_N 	N 	0.68733	0.61687	0.86827	-0.289
Mof_N 	N 	0.89193	0.83787	0.70547	-0.108
Mof_C 	C 	0.63823	0.79157	0.93657	-0.027
Mof_H 	H 	0.61323	0.76087	0.98227	0.047
Mof_C 	C 	0.77763	0.71847	0.91457	-0.909
Mof_H 	H 	0.80373	0.75627	0.87927	0.258
Mof_H 	H 	0.80203	0.70197	0.94047	0.285
Mof_H 	H 	0.75763	0.72647	0.96967	0.304
Mof_H 	H 	0.80543	0.68287	0.57107	0.307
Mof_H 	H 	0.85003	0.66597	0.62717	0.313
Mof_H 	H 	0.86793	0.69787	0.52067	0.324
Mof_H 	H 	0.82253	0.94727	0.57077	0.287
Mof_H 	H 	0.79573	0.87937	0.53377	0.309
Mof_H 	H 	0.85103	0.90807	0.61007	0.324
Mof_C 	C 	0.5461	0.4539	0.9685	0.625
Mof_C 	C 	0.5144	0.4856	0.917	-2.151
Mof_C 	C 	0.21277	0.78723	0.30183	0.444
Mof_C 	C 	0.18107	0.81893	0.25033	-1.555
Mof_C 	C 	0.87943	0.12057	0.63517	0.554
Mof_C 	C 	0.84773	0.15227	0.58367	-1.95
Mof_C 	C 	0.5461	0.0922	0.9685	0.478
Mof_C 	C 	0.5144	0.0288	0.917	-1.502
Mof_C 	C 	0.21277	0.42553	0.30183	0.452
Mof_C 	C 	0.18107	0.36213	0.25033	-1.591
Mof_C 	C 	0.87943	0.75887	0.63517	0.543
Mof_C 	C 	0.84773	0.69547	0.58367	-1.92
Mof_C 	C 	0.9078	0.4539	0.9685	0.478
Mof_C 	C 	0.9712	0.4856	0.917	-1.502
Mof_C 	C 	0.57447	0.78723	0.30183	0.452
Mof_C 	C 	0.63787	0.81893	0.25033	-1.591
Mof_C 	C 	0.24113	0.12057	0.63517	0.543
Mof_C 	C 	0.30453	0.15227	0.58367	-1.92
Mof_C 	C 	0.437	0.2185	0.0085	0.282
Mof_C 	C 	0.4803	0.24015	0.9235	-1.349
Mof_C 	C 	0.10367	0.55183	0.34183	0.498
Mof_C 	C 	0.14697	0.57348	0.25683	-1.818
Mof_C 	C 	0.77033	0.88517	0.67517	0.544
Mof_C 	C 	0.81363	0.90682	0.59017	-1.966
Mof_C 	C 	0.7815	0.2185	0.0085	0.278
Mof_C 	C 	0.75985	0.24015	0.9235	-1.34
Mof_C 	C 	0.44817	0.55183	0.34183	0.512
Mof_C 	C 	0.42652	0.57348	0.25683	-1.847
Mof_C 	C 	0.11483	0.88517	0.67517	0.472
Mof_C 	C 	0.09318	0.90682	0.59017	-1.712
Mof_C 	C 	0.7815	0.563	0.0085	0.282
Mof_C 	C 	0.75985	0.5197	0.9235	-1.349
Mof_C 	C 	0.44817	0.89633	0.34183	0.498
Mof_C 	C 	0.42652	0.85303	0.25683	-1.818
Mof_C 	C 	0.11483	0.22967	0.67517	0.544
Mof_C 	C 	0.09318	0.18637	0.59017	-1.966
_end
