data_functionalizedCrystal
_audit_creation_method	'EQeq! by Chris Wilmer'
_symmetry_space_group_name_H-M	'P1'
_symmetry_Int_Tables_number	1
_symmetry_cell_setting	triclinic
loop_
_symmetry_equiv_pos_as_xyz
  x,y,z
_cell_length_a	6.6286
_cell_length_b	16.7168
_cell_length_c	12.8473
_cell_angle_alpha	90
_cell_angle_beta	90
_cell_angle_gamma	90
loop_
_atom_site_label
_atom_site_type_symbol
_atom_site_fract_x
_atom_site_fract_y
_atom_site_fract_z
_atom_site_charge
Mof_O 	O 	0.16467	0.16836	0.84265	-1.525
Mof_C 	C 	0.8091	0.03561	0.9677	0.03
Mof_O 	O 	0.66467	0.66836	0.34265	-1.518
Mof_C 	C 	0.3091	0.53561	0.4677	0.074
Mof_O 	O 	0.83533	0.33164	0.84265	-1.548
Mof_C 	C 	0.1909	0.46439	0.9677	0.061
Mof_O 	O 	0.33533	0.83164	0.34265	-1.518
Mof_C 	C 	0.6909	0.96439	0.4677	0.054
Mof_O 	O 	0.83533	0.66836	0.15735	-1.548
Mof_C 	C 	0.1909	0.53561	0.0323	0.061
Mof_O 	O 	0.33533	0.16836	0.65735	-1.518
Mof_C 	C 	0.6909	0.03561	0.5323	0.054
Mof_O 	O 	0.16467	0.83164	0.15735	-1.526
Mof_C 	C 	0.8091	0.96439	0.0323	0.029
Mof_O 	O 	0.66467	0.33164	0.65735	-1.518
Mof_C 	C 	0.3091	0.46439	0.5323	0.074
Mof_O 	O 	0.83533	0.83164	0.15735	-1.548
Mof_C 	C 	0.1909	0.96439	0.0323	0.061
Mof_O 	O 	0.33533	0.33164	0.65735	-1.518
Mof_C 	C 	0.6909	0.46439	0.5323	0.054
Mof_O 	O 	0.16467	0.66836	0.15735	-1.526
Mof_C 	C 	0.8091	0.53561	0.0323	0.029
Mof_O 	O 	0.66467	0.16836	0.65735	-1.518
Mof_C 	C 	0.3091	0.03561	0.5323	0.074
Mof_O 	O 	0.16467	0.33164	0.84265	-1.526
Mof_C 	C 	0.8091	0.46439	0.9677	0.029
Mof_O 	O 	0.66467	0.83164	0.34265	-1.518
Mof_C 	C 	0.3091	0.96439	0.4677	0.074
Mof_O 	O 	0.83533	0.16836	0.84265	-1.548
Mof_C 	C 	0.1909	0.03561	0.9677	0.061
Mof_O 	O 	0.33533	0.66836	0.34265	-1.518
Mof_C 	C 	0.6909	0.53561	0.4677	0.054
Mof_Al	Al	0.25	0.25	0.75	6.417
Mof_Al	Al	0.75	0.25	0.75	6.331
Mof_Al	Al	0.75	0.75	0.25	6.331
Mof_Al	Al	0.25	0.75	0.25	6.417
Mof_O 	O 	-1.27486e-32	0.25	0.6858	-2.219
Mof_O 	O 	0.5	0.75	0.1858	-2.245
Mof_O 	O 	2.44486e-32	0.75	0.3142	-2.219
Mof_O 	O 	0.5	0.25	0.8142	-2.245
Mof_C 	C 	6.88325e-33	0.0619	0.9472	-0.261
Mof_C 	C 	6.34186e-33	0.1369	0.8727	1.177
Mof_C 	C 	0.5	0.5619	0.4472	-0.3
Mof_C 	C 	0.5	0.6369	0.3727	1.133
Mof_C 	C 	6.88325e-33	0.4381	0.9472	-0.26
Mof_C 	C 	2.40741e-32	0.3631	0.8727	1.177
Mof_C 	C 	0.5	0.9381	0.4472	-0.3
Mof_C 	C 	0.5	0.8631	0.3727	1.133
Mof_C 	C 	-7.2457e-34	0.5619	0.0528	-0.26
Mof_C 	C 	-1.01576e-32	0.6369	0.1273	1.177
Mof_C 	C 	0.5	0.0619	0.5528	-0.3
Mof_C 	C 	0.5	0.1369	0.6273	1.133
Mof_C 	C 	-7.2457e-34	0.9381	0.0528	-0.261
Mof_C 	C 	-1.01576e-32	0.8631	0.1273	1.177
Mof_C 	C 	0.5	0.4381	0.5528	-0.3
Mof_C 	C 	0.5	0.3631	0.6273	1.133
_end
