# CIF file generated by openbabel 3.1.0, see https://openbabel.org
data_I
_chemical_name_common 'WEBREC_clean'
_cell_length_a 13.289
_cell_length_b 13.711
_cell_length_c 16.467
_cell_angle_alpha 90
_cell_angle_beta 90
_cell_angle_gamma 117.02
_space_group_name_H-M_alt 'P 1'
_space_group_name_Hall 'P 1'
loop_
    _symmetry_equiv_pos_as_xyz
    x,y,z
loop_
    _atom_site_label
    _atom_site_type_symbol
    _atom_site_fract_x
    _atom_site_fract_y
    _atom_site_fract_z
    _atom_site_occupancy
    Zn1      Zn       0.09252    0.11422    0.50296    1.000
    Zn2      Zn       0.90748    0.38578    0.00296    1.000
    Zn3      Zn       0.90748    0.88578    0.49704    1.000
    Zn4      Zn       0.09252    0.61422    0.99704    1.000
    H1       H        0.33550    0.18590    0.52030    1.000
    H2       H        0.50670    0.34020    0.51930    1.000
    H3       H        0.34180    0.51890    0.47880    1.000
    H4       H        0.17540    0.35900    0.47910    1.000
    H5       H        0.92500    0.26550    0.34690    1.000
    H6       H        0.83750    0.30740    0.23940    1.000
    H7       H        0.70570    0.16910    0.15990    1.000
    H8       H        0.74530    0.94450    0.29560    1.000
    H9       H        0.50940    0.88000    0.29030    1.000
    H10      H        0.42490    0.69770    0.33190    1.000
    H11      H        0.56630    0.62110    0.14230    1.000
    H12      H        0.65150    0.80350    0.10090    1.000
    H13      H        0.33320    0.34610    0.32110    1.000
    H14      H        0.14850    0.22020    0.29290    1.000
    H15      H        0.04180    0.26380    0.20170    1.000
    H16      H        0.30230    0.56480    0.17200    1.000
    H17      H        0.66450    0.31410    0.02030    1.000
    H18      H        0.49330    0.15980    0.01930    1.000
    H19      H        0.65820    0.98110    0.97880    1.000
    H20      H        0.82460    0.14100    0.97910    1.000
    H21      H        0.07500    0.23450    0.84690    1.000
    H22      H        0.16250    0.19260    0.73940    1.000
    H23      H        0.29430    0.33090    0.65990    1.000
    H24      H        0.25470    0.55550    0.79560    1.000
    H25      H        0.49060    0.62000    0.79030    1.000
    H26      H        0.57510    0.80230    0.83190    1.000
    H27      H        0.43370    0.87890    0.64230    1.000
    H28      H        0.34850    0.69650    0.60090    1.000
    H29      H        0.66680    0.15390    0.82110    1.000
    H30      H        0.85150    0.27980    0.79290    1.000
    H31      H        0.95820    0.23620    0.70170    1.000
    H32      H        0.69770    0.93520    0.67200    1.000
    H33      H        0.66450    0.81410    0.47970    1.000
    H34      H        0.49330    0.65980    0.48070    1.000
    H35      H        0.65820    0.48110    0.52120    1.000
    H36      H        0.82460    0.64100    0.52090    1.000
    H37      H        0.07500    0.73450    0.65310    1.000
    H38      H        0.16250    0.69260    0.76060    1.000
    H39      H        0.29430    0.83090    0.84010    1.000
    H40      H        0.25470    0.05550    0.70440    1.000
    H41      H        0.49060    0.12000    0.70970    1.000
    H42      H        0.57510    0.30230    0.66810    1.000
    H43      H        0.43370    0.37890    0.85770    1.000
    H44      H        0.34850    0.19650    0.89910    1.000
    H45      H        0.66680    0.65390    0.67890    1.000
    H46      H        0.85150    0.77980    0.70710    1.000
    H47      H        0.95820    0.73620    0.79830    1.000
    H48      H        0.69770    0.43520    0.82800    1.000
    H49      H        0.33550    0.68590    0.97970    1.000
    H50      H        0.50670    0.84020    0.98070    1.000
    H51      H        0.34180    0.01890    0.02120    1.000
    H52      H        0.17540    0.85900    0.02090    1.000
    H53      H        0.92500    0.76550    0.15310    1.000
    H54      H        0.83750    0.80740    0.26060    1.000
    H55      H        0.70570    0.66910    0.34010    1.000
    H56      H        0.74530    0.44450    0.20440    1.000
    H57      H        0.50940    0.38000    0.20970    1.000
    H58      H        0.42490    0.19770    0.16810    1.000
    H59      H        0.56630    0.12110    0.35770    1.000
    H60      H        0.65150    0.30350    0.39910    1.000
    H61      H        0.33320    0.84610    0.17890    1.000
    H62      H        0.14850    0.72020    0.20710    1.000
    H63      H        0.04180    0.76380    0.29830    1.000
    H64      H        0.30230    0.06480    0.32800    1.000
    C1       C        0.33711    0.25368    0.51184    1.000
    C2       C        0.44061    0.34652    0.51153    1.000
    C3       C        0.44564    0.44912    0.49961    1.000
    C4       C        0.34293    0.45234    0.48728    1.000
    C5       C        0.24283    0.35546    0.48789    1.000
    C6       C        0.90274    0.07115    0.39774    1.000
    C7       C        0.84412    0.10093    0.33153    1.000
    C8       C        0.87195    0.20985    0.31512    1.000
    C9       C        0.81942    0.23475    0.25048    1.000
    C10      C        0.74062    0.15214    0.20270    1.000
    C11      C        0.71420    0.04350    0.21936    1.000
    C12      C        0.76452    0.01721    0.28406    1.000
    C13      C        0.58927    0.85822    0.19275    1.000
    C14      C        0.52117    0.82799    0.26120    1.000
    C15      C        0.47070    0.71938    0.28598    1.000
    C16      C        0.48981    0.64375    0.24105    1.000
    C17      C        0.55587    0.67348    0.17200    1.000
    C18      C        0.60661    0.78217    0.14723    1.000
    C19      C        0.33519    0.46737    0.24923    1.000
    C20      C        0.28978    0.36407    0.28555    1.000
    C21      C        0.17966    0.28864    0.26817    1.000
    C22      C        0.11538    0.31502    0.21371    1.000
    C23      C        0.16128    0.41814    0.17727    1.000
    C24      C        0.27170    0.49558    0.19542    1.000
    C25      C        0.09400    0.44591    0.11665    1.000
    C26      C        0.66289    0.24632    0.01184    1.000
    C27      C        0.55939    0.15348    0.01153    1.000
    C28      C        0.55436    0.05088    0.99961    1.000
    C29      C        0.65707    0.04766    0.98728    1.000
    C30      C        0.75717    0.14454    0.98789    1.000
    C31      C        0.09726    0.42885    0.89774    1.000
    C32      C        0.15588    0.39907    0.83153    1.000
    C33      C        0.12805    0.29015    0.81512    1.000
    C34      C        0.18058    0.26525    0.75048    1.000
    C35      C        0.25938    0.34786    0.70270    1.000
    C36      C        0.28580    0.45650    0.71936    1.000
    C37      C        0.23548    0.48279    0.78406    1.000
    C38      C        0.41073    0.64178    0.69275    1.000
    C39      C        0.47883    0.67201    0.76120    1.000
    C40      C        0.52930    0.78062    0.78598    1.000
    C41      C        0.51019    0.85625    0.74105    1.000
    C42      C        0.44413    0.82652    0.67200    1.000
    C43      C        0.39339    0.71783    0.64723    1.000
    C44      C        0.66481    0.03263    0.74923    1.000
    C45      C        0.71022    0.13593    0.78555    1.000
    C46      C        0.82034    0.21136    0.76817    1.000
    C47      C        0.88462    0.18498    0.71371    1.000
    C48      C        0.83872    0.08186    0.67727    1.000
    C49      C        0.72830    0.00442    0.69542    1.000
    C50      C        0.90600    0.05409    0.61665    1.000
    C51      C        0.66289    0.74632    0.48816    1.000
    C52      C        0.55939    0.65348    0.48847    1.000
    C53      C        0.55436    0.55088    0.50039    1.000
    C54      C        0.65707    0.54766    0.51272    1.000
    C55      C        0.75717    0.64454    0.51211    1.000
    C56      C        0.09726    0.92885    0.60226    1.000
    C57      C        0.15588    0.89907    0.66847    1.000
    C58      C        0.12805    0.79015    0.68488    1.000
    C59      C        0.18058    0.76525    0.74952    1.000
    C60      C        0.25938    0.84786    0.79730    1.000
    C61      C        0.28580    0.95650    0.78064    1.000
    C62      C        0.23548    0.98279    0.71594    1.000
    C63      C        0.41073    0.14178    0.80725    1.000
    C64      C        0.47883    0.17201    0.73880    1.000
    C65      C        0.52930    0.28062    0.71402    1.000
    C66      C        0.51019    0.35625    0.75895    1.000
    C67      C        0.44413    0.32652    0.82800    1.000
    C68      C        0.39339    0.21783    0.85277    1.000
    C69      C        0.66481    0.53263    0.75077    1.000
    C70      C        0.71022    0.63593    0.71445    1.000
    C71      C        0.82034    0.71136    0.73183    1.000
    C72      C        0.88462    0.68498    0.78629    1.000
    C73      C        0.83872    0.58186    0.82273    1.000
    C74      C        0.72830    0.50442    0.80458    1.000
    C75      C        0.90600    0.55409    0.88335    1.000
    C76      C        0.33711    0.75368    0.98816    1.000
    C77      C        0.44061    0.84652    0.98847    1.000
    C78      C        0.44564    0.94912    0.00039    1.000
    C79      C        0.34293    0.95234    0.01272    1.000
    C80      C        0.24283    0.85546    0.01211    1.000
    C81      C        0.90274    0.57115    0.10226    1.000
    C82      C        0.84412    0.60093    0.16847    1.000
    C83      C        0.87195    0.70985    0.18488    1.000
    C84      C        0.81942    0.73475    0.24952    1.000
    C85      C        0.74062    0.65214    0.29730    1.000
    C86      C        0.71420    0.54350    0.28064    1.000
    C87      C        0.76452    0.51721    0.21594    1.000
    C88      C        0.58927    0.35822    0.30725    1.000
    C89      C        0.52117    0.32799    0.23880    1.000
    C90      C        0.47070    0.21938    0.21402    1.000
    C91      C        0.48981    0.14375    0.25895    1.000
    C92      C        0.55587    0.17348    0.32800    1.000
    C93      C        0.60661    0.28217    0.35277    1.000
    C94      C        0.33519    0.96737    0.25077    1.000
    C95      C        0.28978    0.86407    0.21445    1.000
    C96      C        0.17966    0.78864    0.23183    1.000
    C97      C        0.11538    0.81502    0.28629    1.000
    C98      C        0.16128    0.91814    0.32273    1.000
    C99      C        0.27170    0.99558    0.30458    1.000
    C100     C        0.09400    0.94591    0.38335    1.000
    N1       N        0.23879    0.25781    0.50043    1.000
    N2       N        0.76121    0.24219    0.00043    1.000
    N3       N        0.76121    0.74219    0.49957    1.000
    N4       N        0.23879    0.75781    0.99957    1.000
    O1       O        0.99217    0.14679    0.42611    1.000
    O2       O        0.85917    0.97230    0.41882    1.000
    O3       O        0.63924    0.96613    0.16676    1.000
    O4       O        0.44554    0.53576    0.26847    1.000
    O5       O        0.13586    0.54299    0.09129    1.000
    O6       O        0.00072    0.36927    0.09490    1.000
    O7       O        0.00783    0.35321    0.92611    1.000
    O8       O        0.14083    0.52770    0.91882    1.000
    O9       O        0.36076    0.53387    0.66676    1.000
    O10      O        0.55446    0.96424    0.76847    1.000
    O11      O        0.86414    0.95701    0.59129    1.000
    O12      O        0.99928    0.13073    0.59490    1.000
    O13      O        0.00783    0.85321    0.57389    1.000
    O14      O        0.14083    0.02770    0.58118    1.000
    O15      O        0.36076    0.03387    0.83324    1.000
    O16      O        0.55446    0.46424    0.73153    1.000
    O17      O        0.86414    0.45701    0.90871    1.000
    O18      O        0.99928    0.63073    0.90510    1.000
    O19      O        0.99217    0.64679    0.07389    1.000
    O20      O        0.85917    0.47230    0.08118    1.000
    O21      O        0.63924    0.46613    0.33324    1.000
    O22      O        0.44554    0.03576    0.23153    1.000
    O23      O        0.13586    0.04299    0.40871    1.000
    O24      O        0.00072    0.86927    0.40510    1.000
