# CIF file generated by openbabel 3.1.0, see https://openbabel.org
data_I
_chemical_name_common 'image0'
_cell_length_a 9.2252
_cell_length_b 10.627
_cell_length_c 10.807
_cell_angle_alpha 86.51
_cell_angle_beta 83.93
_cell_angle_gamma 81.22
_space_group_name_H-M_alt 'P 1'
_space_group_name_Hall 'P 1'
loop_
    _symmetry_equiv_pos_as_xyz
    x,y,z
loop_
    _atom_site_label
    _atom_site_type_symbol
    _atom_site_fract_x
    _atom_site_fract_y
    _atom_site_fract_z
    _atom_site_occupancy
    Ce1      Ce       0.03105    0.23995    0.71858    1.000
    Ce2      Ce       0.97759    0.32305    0.31373    1.000
    C1       C        0.19580    0.53220    0.44080    1.000
    C2       C        0.35490    0.52150    0.47170    1.000
    C3       C        0.45570    0.58450    0.40260    1.000
    H1       H        0.42660    0.64280    0.33900    1.000
    C4       C        0.60350    0.56110    0.42760    1.000
    C5       C        0.71850    0.62170    0.34880    1.000
    C6       C        0.23430    0.14920    0.42080    1.000
    C7       C        0.37250    0.07120    0.46270    1.000
    C8       C        0.50590    0.09140    0.40270    1.000
    H2       H        0.50990    0.15330    0.33830    1.000
    C9       C        0.63700    0.01900    0.43800    1.000
    C10      C        0.78170    0.04680    0.36880    1.000
    C11      C        0.79100    0.49230    0.86480    1.000
    C12      C        0.64240    0.49760    0.94290    1.000
    C13      C        0.37920    0.55850    0.93870    1.000
    C14      C        0.52190    0.55620    0.88290    1.000
    H3       H        0.53730    0.59460    0.80390    1.000
    C15      C        0.25370    0.61320    0.86420    1.000
    O1       O        0.12140    0.17620    0.50010    1.000
    O2       O        0.23200    0.18300    0.30940    1.000
    O3       O        0.27870    0.67440    0.76320    1.000
    O4       O        0.12700    0.58830    0.90000    1.000
    O5       O        0.84090    0.13370    0.40720    1.000
    O6       O        0.84530    0.59230    0.84830    1.000
    O7       O        0.11410    0.63970    0.45550    1.000
    O8       O        0.69360    0.73460    0.30650    1.000
    O9       O        0.84810    0.55760    0.33070    1.000
    O10      O        0.83150    0.98420    0.27340    1.000
    O11      O        0.15930    0.43630    0.40130    1.000
    O12      O        0.83740    0.38790    0.81750    1.000
    Ce3      Ce       0.96895    0.76005    0.28142    1.000
    Ce4      Ce       0.02241    0.67695    0.68627    1.000
    C16      C        0.80420    0.46780    0.55920    1.000
    C17      C        0.64510    0.47850    0.52830    1.000
    C18      C        0.54430    0.41550    0.59740    1.000
    H4       H        0.57340    0.35720    0.66100    1.000
    C19      C        0.39650    0.43890    0.57240    1.000
    C20      C        0.28150    0.37830    0.65120    1.000
    C21      C        0.76570    0.85080    0.57920    1.000
    C22      C        0.62750    0.92880    0.53730    1.000
    C23      C        0.49410    0.90860    0.59730    1.000
    H5       H        0.49010    0.84670    0.66170    1.000
    C24      C        0.36300    0.98100    0.56200    1.000
    C25      C        0.21830    0.95320    0.63120    1.000
    C26      C        0.20900    0.50770    0.13520    1.000
    C27      C        0.35760    0.50240    0.05710    1.000
    C28      C        0.62080    0.44150    0.06130    1.000
    C29      C        0.47810    0.44380    0.11710    1.000
    H6       H        0.46270    0.40540    0.19610    1.000
    C30      C        0.74630    0.38680    0.13580    1.000
    O13      O        0.87860    0.82380    0.49990    1.000
    O14      O        0.76800    0.81700    0.69060    1.000
    O15      O        0.72130    0.32560    0.23680    1.000
    O16      O        0.87300    0.41170    0.10000    1.000
    O17      O        0.15910    0.86630    0.59280    1.000
    O18      O        0.15470    0.40770    0.15170    1.000
    O19      O        0.88590    0.36030    0.54450    1.000
    O20      O        0.30640    0.26540    0.69350    1.000
    O21      O        0.15190    0.44240    0.66930    1.000
    O22      O        0.16850    0.01580    0.72660    1.000
    O23      O        0.84070    0.56370    0.59870    1.000
    O24      O        0.16260    0.61210    0.18250    1.000
