data_functionalizedCrystal
_audit_creation_method	'EQeq! by Chris Wilmer'
_symmetry_space_group_name_H-M	'P1'
_symmetry_Int_Tables_number	1
_symmetry_cell_setting	triclinic
loop_
_symmetry_equiv_pos_as_xyz
  x,y,z
_cell_length_a	21.146
_cell_length_b	21.146
_cell_length_c	21.146
_cell_angle_alpha	90
_cell_angle_beta	90
_cell_angle_gamma	90
loop_
_atom_site_label
_atom_site_type_symbol
_atom_site_fract_x
_atom_site_fract_y
_atom_site_fract_z
_atom_site_charge
Mof_N 	N 	0.7427	0.6095	0.7886	-0.224
Mof_C 	C 	0.7566	0.5661	0.8285	0.096
Mof_H 	H 	0.733	0.5558	0.8641	-0.012
Mof_N 	N 	0.2427	0.1095	0.2886	-0.224
Mof_C 	C 	0.2566	0.0661	0.3285	0.096
Mof_H 	H 	0.233	0.0558	0.3641	-0.012
Mof_N 	N 	0.2573	0.3905	0.7886	-0.224
Mof_C 	C 	0.2434	0.4339	0.8285	0.096
Mof_H 	H 	0.267	0.4442	0.8641	-0.012
Mof_N 	N 	0.7573	0.8905	0.2886	-0.224
Mof_C 	C 	0.7434	0.9339	0.3285	0.096
Mof_H 	H 	0.767	0.9442	0.3641	-0.012
Mof_N 	N 	0.2573	0.6095	0.2114	-0.224
Mof_C 	C 	0.2434	0.5661	0.1715	0.096
Mof_H 	H 	0.267	0.5558	0.1359	-0.012
Mof_N 	N 	0.7573	0.1095	0.7114	-0.224
Mof_C 	C 	0.7434	0.0661	0.6715	0.096
Mof_H 	H 	0.767	0.0558	0.6359	-0.012
Mof_N 	N 	0.7427	0.3905	0.2114	-0.224
Mof_C 	C 	0.7566	0.4339	0.1715	0.096
Mof_H 	H 	0.733	0.4442	0.1359	-0.012
Mof_N 	N 	0.2427	0.8905	0.7114	-0.224
Mof_C 	C 	0.2566	0.9339	0.6715	0.096
Mof_H 	H 	0.233	0.9442	0.6359	-0.012
Mof_N 	N 	0.7886	0.7427	0.6095	-0.224
Mof_C 	C 	0.8285	0.7566	0.5661	0.096
Mof_H 	H 	0.8641	0.733	0.5558	-0.012
Mof_N 	N 	0.2886	0.2427	0.1095	-0.224
Mof_C 	C 	0.3285	0.2566	0.0661	0.095
Mof_H 	H 	0.3641	0.233	0.0558	-0.013
Mof_N 	N 	0.7886	0.2573	0.3905	-0.225
Mof_C 	C 	0.8285	0.2434	0.4339	0.095
Mof_H 	H 	0.8641	0.267	0.4442	-0.013
Mof_N 	N 	0.2886	0.7573	0.8905	-0.225
Mof_C 	C 	0.3285	0.7434	0.9339	0.095
Mof_H 	H 	0.3641	0.767	0.9442	-0.013
Mof_N 	N 	0.2114	0.2573	0.6095	-0.225
Mof_C 	C 	0.1715	0.2434	0.5661	0.095
Mof_H 	H 	0.1359	0.267	0.5558	-0.013
Mof_N 	N 	0.7114	0.7573	0.1095	-0.225
Mof_C 	C 	0.6715	0.7434	0.0661	0.095
Mof_H 	H 	0.6359	0.767	0.0558	-0.013
Mof_N 	N 	0.2114	0.7427	0.3905	-0.225
Mof_C 	C 	0.1715	0.7566	0.4339	0.095
Mof_H 	H 	0.1359	0.733	0.4442	-0.013
Mof_N 	N 	0.7114	0.2427	0.8905	-0.225
Mof_C 	C 	0.6715	0.2566	0.9339	0.095
Mof_H 	H 	0.6359	0.233	0.9442	-0.013
Mof_N 	N 	0.6095	0.7886	0.7427	-0.225
Mof_C 	C 	0.5661	0.8285	0.7566	0.095
Mof_H 	H 	0.5558	0.8641	0.733	-0.013
Mof_N 	N 	0.1095	0.2886	0.2427	-0.225
Mof_C 	C 	0.0661	0.3285	0.2566	0.095
Mof_H 	H 	0.0558	0.3641	0.233	-0.013
Mof_N 	N 	0.3905	0.7886	0.2573	-0.225
Mof_C 	C 	0.4339	0.8285	0.2434	0.095
Mof_H 	H 	0.4442	0.8641	0.267	-0.013
Mof_N 	N 	0.8905	0.2886	0.7573	-0.225
Mof_C 	C 	0.9339	0.3285	0.7434	0.095
Mof_H 	H 	0.9442	0.3641	0.767	-0.013
Mof_N 	N 	0.6095	0.2114	0.2573	-0.225
Mof_C 	C 	0.5661	0.1715	0.2434	0.095
Mof_H 	H 	0.5558	0.1359	0.267	-0.013
Mof_N 	N 	0.1095	0.7114	0.7573	-0.225
Mof_C 	C 	0.0661	0.6715	0.7434	0.095
Mof_H 	H 	0.0558	0.6359	0.767	-0.013
Mof_N 	N 	0.3905	0.2114	0.7427	-0.225
Mof_C 	C 	0.4339	0.1715	0.7566	0.095
Mof_H 	H 	0.4442	0.1359	0.733	-0.013
Mof_N 	N 	0.8905	0.7114	0.2427	-0.225
Mof_C 	C 	0.9339	0.6715	0.2566	0.095
Mof_H 	H 	0.9442	0.6359	0.233	-0.013
Mof_N 	N 	0.6095	0.7427	0.7886	-0.225
Mof_C 	C 	0.5661	0.7566	0.8285	0.095
Mof_H 	H 	0.5558	0.733	0.8641	-0.013
Mof_N 	N 	0.1095	0.2427	0.2886	-0.225
Mof_C 	C 	0.0661	0.2566	0.3285	0.095
Mof_H 	H 	0.0558	0.233	0.3641	-0.013
Mof_N 	N 	0.3905	0.2573	0.7886	-0.225
Mof_C 	C 	0.4339	0.2434	0.8285	0.095
Mof_H 	H 	0.4442	0.267	0.8641	-0.013
Mof_N 	N 	0.8905	0.7573	0.2886	-0.225
Mof_C 	C 	0.9339	0.7434	0.3285	0.095
Mof_H 	H 	0.9442	0.767	0.3641	-0.013
Mof_N 	N 	0.6095	0.2573	0.2114	-0.225
Mof_C 	C 	0.5661	0.2434	0.1715	0.095
Mof_H 	H 	0.5558	0.267	0.1359	-0.013
Mof_N 	N 	0.1095	0.7573	0.7114	-0.225
Mof_C 	C 	0.0661	0.7434	0.6715	0.095
Mof_H 	H 	0.0558	0.767	0.6359	-0.013
Mof_N 	N 	0.3905	0.7427	0.2114	-0.225
Mof_C 	C 	0.4339	0.7566	0.1715	0.095
Mof_H 	H 	0.4442	0.733	0.1359	-0.013
Mof_N 	N 	0.8905	0.2427	0.7114	-0.225
Mof_C 	C 	0.9339	0.2566	0.6715	0.095
Mof_H 	H 	0.9442	0.233	0.6359	-0.013
Mof_N 	N 	0.7427	0.7886	0.6095	-0.225
Mof_C 	C 	0.7566	0.8285	0.5661	0.095
Mof_H 	H 	0.733	0.8641	0.5558	-0.013
Mof_N 	N 	0.2427	0.2886	0.1095	-0.225
Mof_C 	C 	0.2566	0.3285	0.0661	0.095
Mof_H 	H 	0.233	0.3641	0.0558	-0.013
Mof_N 	N 	0.2573	0.7886	0.3905	-0.225
Mof_C 	C 	0.2434	0.8285	0.4339	0.095
Mof_H 	H 	0.267	0.8641	0.4442	-0.013
Mof_N 	N 	0.7573	0.2886	0.8905	-0.225
Mof_C 	C 	0.7434	0.3285	0.9339	0.095
Mof_H 	H 	0.767	0.3641	0.9442	-0.013
Mof_N 	N 	0.2573	0.2114	0.6095	-0.225
Mof_C 	C 	0.2434	0.1715	0.5661	0.095
Mof_H 	H 	0.267	0.1359	0.5558	-0.013
Mof_N 	N 	0.7573	0.7114	0.1095	-0.225
Mof_C 	C 	0.7434	0.6715	0.0661	0.095
Mof_H 	H 	0.767	0.6359	0.0558	-0.013
Mof_N 	N 	0.7427	0.2114	0.3905	-0.225
Mof_C 	C 	0.7566	0.1715	0.4339	0.095
Mof_H 	H 	0.733	0.1359	0.4442	-0.013
Mof_N 	N 	0.2427	0.7114	0.8905	-0.225
Mof_C 	C 	0.2566	0.6715	0.9339	0.095
Mof_H 	H 	0.233	0.6359	0.9442	-0.013
Mof_N 	N 	0.7886	0.6095	0.7427	-0.225
Mof_C 	C 	0.8285	0.5661	0.7566	0.095
Mof_H 	H 	0.8641	0.5558	0.733	-0.013
Mof_N 	N 	0.2886	0.1095	0.2427	-0.225
Mof_C 	C 	0.3285	0.0661	0.2566	0.095
Mof_H 	H 	0.3641	0.0558	0.233	-0.013
Mof_N 	N 	0.7886	0.3905	0.2573	-0.225
Mof_C 	C 	0.8285	0.4339	0.2434	0.095
Mof_H 	H 	0.8641	0.4442	0.267	-0.013
Mof_N 	N 	0.2886	0.8905	0.7573	-0.225
Mof_C 	C 	0.3285	0.9339	0.7434	0.095
Mof_H 	H 	0.3641	0.9442	0.767	-0.013
Mof_N 	N 	0.2114	0.6095	0.2573	-0.225
Mof_C 	C 	0.1715	0.5661	0.2434	0.095
Mof_H 	H 	0.1359	0.5558	0.267	-0.013
Mof_N 	N 	0.7114	0.1095	0.7573	-0.225
Mof_C 	C 	0.6715	0.0661	0.7434	0.095
Mof_H 	H 	0.6359	0.0558	0.767	-0.013
Mof_N 	N 	0.2114	0.3905	0.7427	-0.225
Mof_C 	C 	0.1715	0.4339	0.7566	0.095
Mof_H 	H 	0.1359	0.4442	0.733	-0.013
Mof_N 	N 	0.7114	0.8905	0.2427	-0.225
Mof_C 	C 	0.6715	0.9339	0.2566	0.095
Mof_H 	H 	0.6359	0.9442	0.233	-0.013
Mof_Cu	Cu	0.67417	0.67417	0.78738	0.845
Mof_Cu	Cu	0.17417	0.17417	0.28738	0.845
Mof_Cu	Cu	0.32583	0.32583	0.78738	0.845
Mof_Cu	Cu	0.82583	0.82583	0.28738	0.845
Mof_Cu	Cu	0.32583	0.67417	0.21262	0.845
Mof_Cu	Cu	0.82583	0.17417	0.71262	0.845
Mof_Cu	Cu	0.67417	0.32583	0.21262	0.845
Mof_Cu	Cu	0.17417	0.82583	0.71262	0.845
Mof_Cu	Cu	0.78738	0.67417	0.67417	0.845
Mof_Cu	Cu	0.28738	0.17417	0.17417	0.845
Mof_Cu	Cu	0.78738	0.32583	0.32583	0.845
Mof_Cu	Cu	0.28738	0.82583	0.82583	0.845
Mof_Cu	Cu	0.21262	0.32583	0.67417	0.845
Mof_Cu	Cu	0.71262	0.82583	0.17417	0.845
Mof_Cu	Cu	0.21262	0.67417	0.32583	0.845
Mof_Cu	Cu	0.71262	0.17417	0.82583	0.845
Mof_Cu	Cu	0.67417	0.78738	0.67417	0.845
Mof_Cu	Cu	0.17417	0.28738	0.17417	0.845
Mof_Cu	Cu	0.32583	0.78738	0.32583	0.845
Mof_Cu	Cu	0.82583	0.28738	0.82583	0.845
Mof_Cu	Cu	0.67417	0.21262	0.32583	0.845
Mof_Cu	Cu	0.17417	0.71262	0.82583	0.845
Mof_Cu	Cu	0.32583	0.21262	0.67417	0.845
Mof_Cu	Cu	0.82583	0.71262	0.17417	0.845
Mof_O 	O 	0.7002	0.7002	0.7002	-0.596
Mof_O 	O 	0.2002	0.2002	0.2002	-0.596
Mof_O 	O 	0.2998	0.2998	0.7002	-0.596
Mof_O 	O 	0.7998	0.7998	0.2002	-0.596
Mof_O 	O 	0.2998	0.7002	0.2998	-0.596
Mof_O 	O 	0.7998	0.2002	0.7998	-0.596
Mof_O 	O 	0.7002	0.2998	0.2998	-0.596
Mof_O 	O 	0.2002	0.7998	0.7998	-0.596
Mof_N 	N 	0.8525	0.3744	0.8525	-0.223
Mof_N 	N 	0.8109	0.5374	0.8109	-0.153
Mof_C 	C 	0.8255	0.4248	0.8255	-0.023
Mof_H 	H 	0.7946	0.419	0.7946	0.003
Mof_C 	C 	0.8967	0.3848	0.8967	0.039
Mof_H 	H 	0.9158	0.3502	0.9158	-0.022
Mof_C 	C 	0.9146	0.4426	0.9146	-0.068
Mof_H 	H 	0.9455	0.4477	0.9455	0.043
Mof_C 	C 	0.8862	0.4958	0.8862	-0.076
Mof_H 	H 	0.8976	0.5367	0.8976	0.053
Mof_C 	C 	0.8425	0.4849	0.8425	0.065
Mof_N 	N 	0.3525	0.8744	0.3525	-0.223
Mof_N 	N 	0.3109	0.0374	0.3109	-0.153
Mof_C 	C 	0.3255	0.9248	0.3255	-0.023
Mof_H 	H 	0.2946	0.919	0.2946	0.003
Mof_C 	C 	0.3967	0.8848	0.3967	0.039
Mof_H 	H 	0.4158	0.8502	0.4158	-0.021
Mof_C 	C 	0.4146	0.9426	0.4146	-0.068
Mof_H 	H 	0.4455	0.9477	0.4455	0.043
Mof_C 	C 	0.3862	0.9958	0.3862	-0.076
Mof_H 	H 	0.3976	0.0367	0.3976	0.053
Mof_C 	C 	0.3425	0.9849	0.3425	0.065
Mof_N 	N 	0.1475	0.6256	0.8525	-0.223
Mof_N 	N 	0.1891	0.4626	0.8109	-0.153
Mof_C 	C 	0.1745	0.5752	0.8255	-0.023
Mof_H 	H 	0.2054	0.581	0.7946	0.003
Mof_C 	C 	0.1033	0.6152	0.8967	0.039
Mof_H 	H 	0.0842	0.6498	0.9158	-0.022
Mof_C 	C 	0.0854	0.5574	0.9146	-0.068
Mof_H 	H 	0.0545	0.5523	0.9455	0.043
Mof_C 	C 	0.1138	0.5042	0.8862	-0.076
Mof_H 	H 	0.1024	0.4633	0.8976	0.053
Mof_C 	C 	0.1575	0.5151	0.8425	0.065
Mof_N 	N 	0.6475	0.1256	0.3525	-0.223
Mof_N 	N 	0.6891	0.9626	0.3109	-0.153
Mof_C 	C 	0.6745	0.0752	0.3255	-0.023
Mof_H 	H 	0.7054	0.081	0.2946	0.003
Mof_C 	C 	0.6033	0.1152	0.3967	0.039
Mof_H 	H 	0.5842	0.1498	0.4158	-0.021
Mof_C 	C 	0.5854	0.0574	0.4146	-0.068
Mof_H 	H 	0.5545	0.0523	0.4455	0.043
Mof_C 	C 	0.6138	0.0042	0.3862	-0.076
Mof_H 	H 	0.6024	0.9633	0.3976	0.053
Mof_C 	C 	0.6575	0.0151	0.3425	0.065
Mof_N 	N 	0.1475	0.3744	0.1475	-0.223
Mof_N 	N 	0.1891	0.5374	0.1891	-0.153
Mof_C 	C 	0.1745	0.4248	0.1745	-0.023
Mof_H 	H 	0.2054	0.419	0.2054	0.003
Mof_C 	C 	0.1033	0.3848	0.1033	0.039
Mof_H 	H 	0.0842	0.3502	0.0842	-0.022
Mof_C 	C 	0.0854	0.4426	0.0854	-0.068
Mof_H 	H 	0.0545	0.4477	0.0545	0.043
Mof_C 	C 	0.1138	0.4958	0.1138	-0.076
Mof_H 	H 	0.1024	0.5367	0.1024	0.053
Mof_C 	C 	0.1575	0.4849	0.1575	0.065
Mof_N 	N 	0.6475	0.8744	0.6475	-0.223
Mof_N 	N 	0.6891	0.0374	0.6891	-0.153
Mof_C 	C 	0.6745	0.9248	0.6745	-0.023
Mof_H 	H 	0.7054	0.919	0.7054	0.003
Mof_C 	C 	0.6033	0.8848	0.6033	0.039
Mof_H 	H 	0.5842	0.8502	0.5842	-0.021
Mof_C 	C 	0.5854	0.9426	0.5854	-0.068
Mof_H 	H 	0.5545	0.9477	0.5545	0.043
Mof_C 	C 	0.6138	0.9958	0.6138	-0.076
Mof_H 	H 	0.6024	0.0367	0.6024	0.053
Mof_C 	C 	0.6575	0.9849	0.6575	0.065
Mof_N 	N 	0.8525	0.6256	0.1475	-0.223
Mof_N 	N 	0.8109	0.4626	0.1891	-0.153
Mof_C 	C 	0.8255	0.5752	0.1745	-0.023
Mof_H 	H 	0.7946	0.581	0.2054	0.003
Mof_C 	C 	0.8967	0.6152	0.1033	0.039
Mof_H 	H 	0.9158	0.6498	0.0842	-0.022
Mof_C 	C 	0.9146	0.5574	0.0854	-0.068
Mof_H 	H 	0.9455	0.5523	0.0545	0.043
Mof_C 	C 	0.8862	0.5042	0.1138	-0.076
Mof_H 	H 	0.8976	0.4633	0.1024	0.053
Mof_C 	C 	0.8425	0.5151	0.1575	0.065
Mof_N 	N 	0.3525	0.1256	0.6475	-0.223
Mof_N 	N 	0.3109	0.9626	0.6891	-0.153
Mof_C 	C 	0.3255	0.0752	0.6745	-0.023
Mof_H 	H 	0.2946	0.081	0.7054	0.003
Mof_C 	C 	0.3967	0.1152	0.6033	0.039
Mof_H 	H 	0.4158	0.1498	0.5842	-0.021
Mof_C 	C 	0.4146	0.0574	0.5854	-0.068
Mof_H 	H 	0.4455	0.0523	0.5545	0.043
Mof_C 	C 	0.3862	0.0042	0.6138	-0.076
Mof_H 	H 	0.3976	0.9633	0.6024	0.053
Mof_C 	C 	0.3425	0.0151	0.6575	0.065
Mof_N 	N 	0.8525	0.8525	0.3744	-0.223
Mof_N 	N 	0.8109	0.8109	0.5374	-0.153
Mof_C 	C 	0.8255	0.8255	0.4248	-0.023
Mof_H 	H 	0.7946	0.7946	0.419	0.003
Mof_C 	C 	0.8967	0.8967	0.3848	0.039
Mof_H 	H 	0.9158	0.9158	0.3502	-0.022
Mof_C 	C 	0.9146	0.9146	0.4426	-0.068
Mof_H 	H 	0.9455	0.9455	0.4477	0.043
Mof_C 	C 	0.8862	0.8862	0.4958	-0.076
Mof_H 	H 	0.8976	0.8976	0.5367	0.053
Mof_C 	C 	0.8425	0.8425	0.4849	0.065
Mof_N 	N 	0.3525	0.3525	0.8744	-0.223
Mof_N 	N 	0.3109	0.3109	0.0374	-0.153
Mof_C 	C 	0.3255	0.3255	0.9248	-0.023
Mof_H 	H 	0.2946	0.2946	0.919	0.003
Mof_C 	C 	0.3967	0.3967	0.8848	0.039
Mof_H 	H 	0.4158	0.4158	0.8502	-0.021
Mof_C 	C 	0.4146	0.4146	0.9426	-0.068
Mof_H 	H 	0.4455	0.4455	0.9477	0.043
Mof_C 	C 	0.3862	0.3862	0.9958	-0.076
Mof_H 	H 	0.3976	0.3976	0.0367	0.053
Mof_C 	C 	0.3425	0.3425	0.9849	0.065
Mof_N 	N 	0.8525	0.1475	0.6256	-0.223
Mof_N 	N 	0.8109	0.1891	0.4626	-0.153
Mof_C 	C 	0.8255	0.1745	0.5752	-0.023
Mof_H 	H 	0.7946	0.2054	0.581	0.003
Mof_C 	C 	0.8967	0.1033	0.6152	0.039
Mof_H 	H 	0.9158	0.0842	0.6498	-0.022
Mof_C 	C 	0.9146	0.0854	0.5574	-0.068
Mof_H 	H 	0.9455	0.0545	0.5523	0.043
Mof_C 	C 	0.8862	0.1138	0.5042	-0.076
Mof_H 	H 	0.8976	0.1024	0.4633	0.053
Mof_C 	C 	0.8425	0.1575	0.5151	0.065
Mof_N 	N 	0.3525	0.6475	0.1256	-0.223
Mof_N 	N 	0.3109	0.6891	0.9626	-0.153
Mof_C 	C 	0.3255	0.6745	0.0752	-0.023
Mof_H 	H 	0.2946	0.7054	0.081	0.003
Mof_C 	C 	0.3967	0.6033	0.1152	0.039
Mof_H 	H 	0.4158	0.5842	0.1498	-0.021
Mof_C 	C 	0.4146	0.5854	0.0574	-0.068
Mof_H 	H 	0.4455	0.5545	0.0523	0.043
Mof_C 	C 	0.3862	0.6138	0.0042	-0.076
Mof_H 	H 	0.3976	0.6024	0.9633	0.053
Mof_C 	C 	0.3425	0.6575	0.0151	0.065
Mof_N 	N 	0.1475	0.1475	0.3744	-0.223
Mof_N 	N 	0.1891	0.1891	0.5374	-0.153
Mof_C 	C 	0.1745	0.1745	0.4248	-0.023
Mof_H 	H 	0.2054	0.2054	0.419	0.003
Mof_C 	C 	0.1033	0.1033	0.3848	0.039
Mof_H 	H 	0.0842	0.0842	0.3502	-0.022
Mof_C 	C 	0.0854	0.0854	0.4426	-0.068
Mof_H 	H 	0.0545	0.0545	0.4477	0.043
Mof_C 	C 	0.1138	0.1138	0.4958	-0.076
Mof_H 	H 	0.1024	0.1024	0.5367	0.053
Mof_C 	C 	0.1575	0.1575	0.4849	0.065
Mof_N 	N 	0.6475	0.6475	0.8744	-0.223
Mof_N 	N 	0.6891	0.6891	0.0374	-0.153
Mof_C 	C 	0.6745	0.6745	0.9248	-0.023
Mof_H 	H 	0.7054	0.7054	0.919	0.003
Mof_C 	C 	0.6033	0.6033	0.8848	0.039
Mof_H 	H 	0.5842	0.5842	0.8502	-0.021
Mof_C 	C 	0.5854	0.5854	0.9426	-0.068
Mof_H 	H 	0.5545	0.5545	0.9477	0.043
Mof_C 	C 	0.6138	0.6138	0.9958	-0.076
Mof_H 	H 	0.6024	0.6024	0.0367	0.053
Mof_C 	C 	0.6575	0.6575	0.9849	0.065
Mof_N 	N 	0.1475	0.8525	0.6256	-0.223
Mof_N 	N 	0.1891	0.8109	0.4626	-0.153
Mof_C 	C 	0.1745	0.8255	0.5752	-0.023
Mof_H 	H 	0.2054	0.7946	0.581	0.003
Mof_C 	C 	0.1033	0.8967	0.6152	0.039
Mof_H 	H 	0.0842	0.9158	0.6498	-0.022
Mof_C 	C 	0.0854	0.9146	0.5574	-0.068
Mof_H 	H 	0.0545	0.9455	0.5523	0.043
Mof_C 	C 	0.1138	0.8862	0.5042	-0.076
Mof_H 	H 	0.1024	0.8976	0.4633	0.053
Mof_C 	C 	0.1575	0.8425	0.5151	0.065
Mof_N 	N 	0.6475	0.3525	0.1256	-0.223
Mof_N 	N 	0.6891	0.3109	0.9626	-0.153
Mof_C 	C 	0.6745	0.3255	0.0752	-0.023
Mof_H 	H 	0.7054	0.2946	0.081	0.003
Mof_C 	C 	0.6033	0.3967	0.1152	0.039
Mof_H 	H 	0.5842	0.4158	0.1498	-0.021
Mof_C 	C 	0.5854	0.4146	0.0574	-0.068
Mof_H 	H 	0.5545	0.4455	0.0523	0.043
Mof_C 	C 	0.6138	0.3862	0.0042	-0.076
Mof_H 	H 	0.6024	0.3976	0.9633	0.053
Mof_C 	C 	0.6575	0.3425	0.0151	0.065
Mof_N 	N 	0.3744	0.8525	0.8525	-0.223
Mof_N 	N 	0.5374	0.8109	0.8109	-0.153
Mof_C 	C 	0.4248	0.8255	0.8255	-0.023
Mof_H 	H 	0.419	0.7946	0.7946	0.003
Mof_C 	C 	0.3848	0.8967	0.8967	0.039
Mof_H 	H 	0.3502	0.9158	0.9158	-0.022
Mof_C 	C 	0.4426	0.9146	0.9146	-0.068
Mof_H 	H 	0.4477	0.9455	0.9455	0.043
Mof_C 	C 	0.4958	0.8862	0.8862	-0.076
Mof_H 	H 	0.5367	0.8976	0.8976	0.053
Mof_C 	C 	0.4849	0.8425	0.8425	0.065
Mof_N 	N 	0.8744	0.3525	0.3525	-0.223
Mof_N 	N 	0.0374	0.3109	0.3109	-0.153
Mof_C 	C 	0.9248	0.3255	0.3255	-0.023
Mof_H 	H 	0.919	0.2946	0.2946	0.003
Mof_C 	C 	0.8848	0.3967	0.3967	0.039
Mof_H 	H 	0.8502	0.4158	0.4158	-0.021
Mof_C 	C 	0.9426	0.4146	0.4146	-0.068
Mof_H 	H 	0.9477	0.4455	0.4455	0.043
Mof_C 	C 	0.9958	0.3862	0.3862	-0.076
Mof_H 	H 	0.0367	0.3976	0.3976	0.053
Mof_C 	C 	0.9849	0.3425	0.3425	0.065
Mof_N 	N 	0.6256	0.8525	0.1475	-0.223
Mof_N 	N 	0.4626	0.8109	0.1891	-0.153
Mof_C 	C 	0.5752	0.8255	0.1745	-0.023
Mof_H 	H 	0.581	0.7946	0.2054	0.003
Mof_C 	C 	0.6152	0.8967	0.1033	0.039
Mof_H 	H 	0.6498	0.9158	0.0842	-0.022
Mof_C 	C 	0.5574	0.9146	0.0854	-0.068
Mof_H 	H 	0.5523	0.9455	0.0545	0.043
Mof_C 	C 	0.5042	0.8862	0.1138	-0.076
Mof_H 	H 	0.4633	0.8976	0.1024	0.053
Mof_C 	C 	0.5151	0.8425	0.1575	0.065
Mof_N 	N 	0.1256	0.3525	0.6475	-0.223
Mof_N 	N 	0.9626	0.3109	0.6891	-0.153
Mof_C 	C 	0.0752	0.3255	0.6745	-0.023
Mof_H 	H 	0.081	0.2946	0.7054	0.003
Mof_C 	C 	0.1152	0.3967	0.6033	0.039
Mof_H 	H 	0.1498	0.4158	0.5842	-0.021
Mof_C 	C 	0.0574	0.4146	0.5854	-0.068
Mof_H 	H 	0.0523	0.4455	0.5545	0.043
Mof_C 	C 	0.0042	0.3862	0.6138	-0.076
Mof_H 	H 	0.9633	0.3976	0.6024	0.053
Mof_C 	C 	0.0151	0.3425	0.6575	0.065
Mof_N 	N 	0.3744	0.1475	0.1475	-0.223
Mof_N 	N 	0.5374	0.1891	0.1891	-0.153
Mof_C 	C 	0.4248	0.1745	0.1745	-0.023
Mof_H 	H 	0.419	0.2054	0.2054	0.003
Mof_C 	C 	0.3848	0.1033	0.1033	0.039
Mof_H 	H 	0.3502	0.0842	0.0842	-0.022
Mof_C 	C 	0.4426	0.0854	0.0854	-0.068
Mof_H 	H 	0.4477	0.0545	0.0545	0.043
Mof_C 	C 	0.4958	0.1138	0.1138	-0.076
Mof_H 	H 	0.5367	0.1024	0.1024	0.053
Mof_C 	C 	0.4849	0.1575	0.1575	0.065
Mof_N 	N 	0.8744	0.6475	0.6475	-0.223
Mof_N 	N 	0.0374	0.6891	0.6891	-0.153
Mof_C 	C 	0.9248	0.6745	0.6745	-0.023
Mof_H 	H 	0.919	0.7054	0.7054	0.003
Mof_C 	C 	0.8848	0.6033	0.6033	0.039
Mof_H 	H 	0.8502	0.5842	0.5842	-0.021
Mof_C 	C 	0.9426	0.5854	0.5854	-0.068
Mof_H 	H 	0.9477	0.5545	0.5545	0.043
Mof_C 	C 	0.9958	0.6138	0.6138	-0.076
Mof_H 	H 	0.0367	0.6024	0.6024	0.053
Mof_C 	C 	0.9849	0.6575	0.6575	0.065
Mof_N 	N 	0.6256	0.1475	0.8525	-0.223
Mof_N 	N 	0.4626	0.1891	0.8109	-0.153
Mof_C 	C 	0.5752	0.1745	0.8255	-0.023
Mof_H 	H 	0.581	0.2054	0.7946	0.003
Mof_C 	C 	0.6152	0.1033	0.8967	0.039
Mof_H 	H 	0.6498	0.0842	0.9158	-0.022
Mof_C 	C 	0.5574	0.0854	0.9146	-0.068
Mof_H 	H 	0.5523	0.0545	0.9455	0.043
Mof_C 	C 	0.5042	0.1138	0.8862	-0.076
Mof_H 	H 	0.4633	0.1024	0.8976	0.053
Mof_C 	C 	0.5151	0.1575	0.8425	0.065
Mof_N 	N 	0.1256	0.6475	0.3525	-0.223
Mof_N 	N 	0.9626	0.6891	0.3109	-0.153
Mof_C 	C 	0.0752	0.6745	0.3255	-0.023
Mof_H 	H 	0.081	0.7054	0.2946	0.003
Mof_C 	C 	0.1152	0.6033	0.3967	0.039
Mof_H 	H 	0.1498	0.5842	0.4158	-0.021
Mof_C 	C 	0.0574	0.5854	0.4146	-0.068
Mof_H 	H 	0.0523	0.5545	0.4455	0.043
Mof_C 	C 	0.0042	0.6138	0.3862	-0.076
Mof_H 	H 	0.9633	0.6024	0.3976	0.053
Mof_C 	C 	0.0151	0.6575	0.3425	0.065
_end
