# CIF file generated by openbabel 3.1.0, see https://openbabel.org
data_I
_chemical_name_common 'image0'
_cell_length_a 11.001
_cell_length_b 11.001
_cell_length_c 6.333
_cell_angle_alpha 90
_cell_angle_beta 90
_cell_angle_gamma 120
_space_group_name_H-M_alt 'P 1'
_space_group_name_Hall 'P 1'
loop_
    _symmetry_equiv_pos_as_xyz
    x,y,z
loop_
    _atom_site_label
    _atom_site_type_symbol
    _atom_site_fract_x
    _atom_site_fract_y
    _atom_site_fract_z
    _atom_site_occupancy
    O1       O        0.01500    0.80400    0.12400    1.000
    O2       O        0.00300    0.77500    0.91600    1.000
    O3       O        0.19700    0.97800    0.12400    1.000
    O4       O        0.23100    0.01000    0.95300    1.000
    O5       O        0.92600    0.07100    0.66800    1.000
    O6       O        0.86800    0.93700    0.31800    1.000
    O7       O        0.34500    0.89900    0.95000    1.000
    O8       O        0.32100    0.85800    0.13100    1.000
    O9       O        0.10300    0.65100    0.93000    1.000
    O10      O        0.13500    0.69100    0.12000    1.000
    O11      O        0.26900    0.53400    0.31500    1.000
    O12      O        0.40100    0.59300    0.66800    1.000
    C1       C        0.11100    0.78000    0.04900    1.000
    C2       C        0.22800    0.89600    0.04500    1.000
    C3       C        0.94100    0.02100    0.49400    1.000
    C4       C        0.32200    0.59400    0.49400    1.000
    O13      O        0.19600    0.21100    0.12400    1.000
    O14      O        0.22500    0.22800    0.91600    1.000
    O15      O        0.02200    0.21900    0.12400    1.000
    O16      O        0.99000    0.22100    0.95300    1.000
    O17      O        0.92900    0.85500    0.66800    1.000
    O18      O        0.06300    0.93100    0.31800    1.000
    O19      O        0.10100    0.44600    0.95000    1.000
    O20      O        0.14200    0.46300    0.13100    1.000
    O21      O        0.34900    0.45200    0.93000    1.000
    O22      O        0.30900    0.44400    0.12000    1.000
    O23      O        0.46600    0.73500    0.31500    1.000
    O24      O        0.40700    0.80800    0.66800    1.000
    C5       C        0.22000    0.33100    0.04900    1.000
    C6       C        0.10400    0.33200    0.04500    1.000
    C7       C        0.97900    0.92000    0.49400    1.000
    C8       C        0.40600    0.72800    0.49400    1.000
    O25      O        0.78900    0.98500    0.12400    1.000
    O26      O        0.77200    0.99700    0.91600    1.000
    O27      O        0.78100    0.80300    0.12400    1.000
    O28      O        0.77900    0.76900    0.95300    1.000
    O29      O        0.14500    0.07400    0.66800    1.000
    O30      O        0.06900    0.13200    0.31800    1.000
    O31      O        0.55400    0.65500    0.95000    1.000
    O32      O        0.53700    0.67900    0.13100    1.000
    O33      O        0.54800    0.89700    0.93000    1.000
    O34      O        0.55600    0.86500    0.12000    1.000
    O35      O        0.26500    0.73100    0.31500    1.000
    O36      O        0.19200    0.59900    0.66800    1.000
    C9       C        0.66900    0.88900    0.04900    1.000
    C10      C        0.66800    0.77200    0.04500    1.000
    C11      C        0.08000    0.05900    0.49400    1.000
    C12      C        0.27200    0.67800    0.49400    1.000
    Np1      Np       0.00000    0.00000    0.99170    1.000
    Np2      Np       0.33333    0.66667    0.99170    1.000
