# CIF file generated by openbabel 3.1.0, see https://openbabel.org
data_I
_chemical_name_common 'CAJWIV_ion_b'
_cell_length_a 23.1185
_cell_length_b 23.1185
_cell_length_c 9.944
_cell_angle_alpha 101.779
_cell_angle_beta 101.779
_cell_angle_gamma 24.3162
_space_group_name_H-M_alt 'P 1'
_space_group_name_Hall 'P 1'
loop_
    _symmetry_equiv_pos_as_xyz
    x,y,z
loop_
    _atom_site_label
    _atom_site_type_symbol
    _atom_site_fract_x
    _atom_site_fract_y
    _atom_site_fract_z
    _atom_site_occupancy
    O1       O        0.09734    0.73903    0.63798    1.000
    O2       O        0.07427    0.81920    0.50198    1.000
    C3       C        0.31601    0.59009    0.61832    1.000
    C4       C        0.35058    0.61882    0.65478    1.000
    H5       H        0.26680    0.72670    0.65394    1.000
    C6       C        0.42183    0.67999    0.78463    1.000
    H7       H        0.31890    0.76004    0.80813    1.000
    C8       C        0.45175    0.71332    0.81115    1.000
    H9       H        0.37137    0.81727    0.85254    1.000
    C10      C        0.51880    0.77724    0.77605    1.000
    H11      H        0.41876    0.85276    0.72614    1.000
    C12      C        0.55001    0.80933    0.80073    1.000
    H13      H        0.47121    0.91090    0.77293    1.000
    C14      C        0.79742    0.69527    0.00918    1.000
    H15      H        0.83396    0.63571    0.08203    1.000
    C16      C        0.83276    0.72285    0.03666    1.000
    H17      H        0.89831    0.67981    0.12788    1.000
    C18      C        0.70142    0.85479    0.83095    1.000
    H19      H        0.66056    0.91917    0.76178    1.000
    C20      C        0.66720    0.82550    0.80238    1.000
    H21      H        0.60452    0.86468    0.70981    1.000
    C22      C        0.16265    0.71409    0.58779    1.000
    O23      O        0.30817    0.86394    0.46010    1.000
    O24      O        0.16987    0.92593    0.34533    1.000
    C25      C        0.43213    0.66153    0.36650    1.000
    C26      C        0.40544    0.62552    0.31696    1.000
    H27      H        0.29826    0.70946    0.28693    1.000
    C28      C        0.34431    0.55264    0.29062    1.000
    H29      H        0.26251    0.65660    0.33319    1.000
    C30      C        0.31422    0.51964    0.26289    1.000
    H31      H        0.21084    0.59930    0.28402    1.000
    C32      C        0.25543    0.44625    0.12616    1.000
    H33      H        0.17799    0.54644    0.09518    1.000
    C34      C        0.22400    0.41467    0.10216    1.000
    H35      H        0.12243    0.49263    0.05508    1.000
    C36      C        0.30609    0.81631    0.39238    1.000
    O37      O        0.90543    0.25762    0.36289    1.000
    O38      O        0.92853    0.17754    0.49922    1.000
    C39      C        0.68673    0.40665    0.38279    1.000
    C40      C        0.65213    0.37797    0.34616    1.000
    H41      H        0.73590    0.27006    0.34677    1.000
    C42      C        0.58058    0.31710    0.21598    1.000
    H43      H        0.68337    0.23723    0.19220    1.000
    C44      C        0.55067    0.28375    0.18942    1.000
    H45      H        0.63097    0.17990    0.14765    1.000
    C46      C        0.48383    0.21961    0.22443    1.000
    H47      H        0.58407    0.14386    0.27400    1.000
    C48      C        0.45251    0.18763    0.19986    1.000
    H49      H        0.53146    0.08589    0.22724    1.000
    C50      C        0.20440    0.30244    0.99222    1.000
    H51      H        0.16745    0.36240    0.91958    1.000
    C52      C        0.16912    0.27479    0.96472    1.000
    H53      H        0.10331    0.31810    0.87366    1.000
    C54      C        0.30130    0.14201    0.16992    1.000
    H55      H        0.34256    0.07724    0.23885    1.000
    C56      C        0.33547    0.17135    0.19853    1.000
    H57      H        0.39846    0.13185    0.29092    1.000
    C58      C        0.84013    0.28262    0.41328    1.000
    O59      O        0.69460    0.13283    0.54090    1.000
    O60      O        0.83287    0.07082    0.65586    1.000
    C61      C        0.57058    0.33527    0.63469    1.000
    C62      C        0.59717    0.37139    0.68439    1.000
    H63      H        0.70426    0.28754    0.71477    1.000
    C64      C        0.65832    0.44425    0.71063    1.000
    H65      H        0.74020    0.34018    0.66832    1.000
    C66      C        0.68842    0.47722    0.73836    1.000
    H67      H        0.79191    0.39746    0.71753    1.000
    C68      C        0.74678    0.55107    0.87531    1.000
    H69      H        0.82405    0.45106    0.90674    1.000
    C70      C        0.77810    0.58276    0.89945    1.000
    H71      H        0.87944    0.50506    0.94702    1.000
    C72      C        0.69665    0.18047    0.60877    1.000
    In73     In       0.90584    0.92395    0.54528    1.000
    In74     In       0.09696    0.07278    0.45577    1.000
    O75      O        0.88318    0.86853    0.40919    1.000
    O76      O        0.89878    0.93574    0.35013    1.000
    O77      O        0.90582    0.94444    0.86091    1.000
    O78      O        0.87611    0.89507    0.67749    1.000
    C79      C        0.42754    0.44653    0.60550    1.000
    H80      H        0.40357    0.42186    0.56943    1.000
    C81      C        0.48978    0.51165    0.69131    1.000
    C82      C        0.52383    0.54545    0.73061    1.000
    C83      C        0.58491    0.61270    0.78705    1.000
    C84      C        0.61680    0.64789    0.81343    1.000
    C85      C        0.68047    0.71219    0.86264    1.000
    C86      C        0.71479    0.74534    0.89146    1.000
    C87      C        0.78476    0.80387    0.94889    1.000
    C88      C        0.81822    0.83808    0.98504    1.000
    C89      C        0.83285    0.85272    0.12471    1.000
    H90      H        0.81267    0.84695    0.20438    1.000
    C91      C        0.86954    0.87887    0.16393    1.000
    C92      C        0.88781    0.89532    0.06285    1.000
    H93      H        0.91491    0.91702    0.09445    1.000
    C94      C        0.86922    0.88671    0.92227    1.000
    C95      C        0.83604    0.85608    0.88368    1.000
    H96      H        0.82544    0.84523    0.77567    1.000
    C97      C        0.88444    0.89405    0.31056    1.000
    C98      C        0.88456    0.91096    0.81963    1.000
    O99      O        0.11955    0.12833    0.59179    1.000
    O100     O        0.10403    0.06106    0.65086    1.000
    O101     O        0.09770    0.05152    0.14015    1.000
    O102     O        0.12652    0.10180    0.32348    1.000
    C103     C        0.57520    0.55024    0.39562    1.000
    H104     H        0.59913    0.57495    0.43153    1.000
    C105     C        0.51285    0.48523    0.30974    1.000
    C106     C        0.47873    0.45150    0.27037    1.000
    C107     C        0.41762    0.38427    0.21390    1.000
    C108     C        0.38569    0.34913    0.18750    1.000
    C109     C        0.32181    0.28504    0.13848    1.000
    C110     C        0.28743    0.25194    0.10970    1.000
    C111     C        0.21759    0.19330    0.05221    1.000
    C112     C        0.18426    0.15895    0.01601    1.000
    C113     C        0.16951    0.14447    0.87632    1.000
    H114     H        0.18933    0.15062    0.79661    1.000
    C115     C        0.13320    0.11794    0.83707    1.000
    C116     C        0.11537    0.10101    0.93814    1.000
    H117     H        0.08875    0.07881    0.90655    1.000
    C118     C        0.13382    0.10973    0.07872    1.000
    C119     C        0.16672    0.14064    0.11732    1.000
    H120     H        0.17733    0.15145    0.22535    1.000
    C121     C        0.11832    0.10279    0.69044    1.000
    C122     C        0.11855    0.08540    0.18138    1.000
    Li123    Li       0.96656    0.98128    0.56346    1.000
    O124     O        0.99657    0.03492    0.77822    1.000
    Li125    Li       0.03618    0.01551    0.43773    1.000
    O126     O        0.97322    0.98009    0.20367    1.000
    H127     H        0.94754    0.11526    0.82555    1.000
    H128     H        0.05547    0.99544    0.71177    1.000
    H129     H        0.06441    0.96364    0.84877    1.000
    H130     H        0.97461    0.98108    0.30422    1.000
    H131     H        0.97790    0.01748    0.19347    1.000
    H132     H        0.06585    0.87916    0.17544    1.000
