# CIF file generated by openbabel 3.1.0, see https://openbabel.org
data_I
_chemical_name_common 'image0'
_cell_length_a 7.2338
_cell_length_b 15.0238
_cell_length_c 9.2153
_cell_angle_alpha 90
_cell_angle_beta 107.741
_cell_angle_gamma 90
_space_group_name_H-M_alt 'P 1'
_space_group_name_Hall 'P 1'
loop_
    _symmetry_equiv_pos_as_xyz
    x,y,z
loop_
    _atom_site_label
    _atom_site_type_symbol
    _atom_site_fract_x
    _atom_site_fract_y
    _atom_site_fract_z
    _atom_site_occupancy
    Zn1      Zn       0.48795    0.23994    0.02498    1.000
    P1       P        0.23097    0.34172    0.72520    1.000
    H1       H        0.11100    0.28100    0.66100    1.000
    P2       P        0.76667    0.31754    0.33530    1.000
    H2       H        0.84600    0.23400    0.38800    1.000
    O1       O        0.31340    0.32230    0.89390    1.000
    O2       O        0.68630    0.31420    0.16130    1.000
    O3       O        0.38450    0.34210    0.64160    1.000
    O4       O        0.60740    0.33680    0.40880    1.000
    O5       O        0.11990    0.42870    0.70370    1.000
    O6       O        0.93380    0.38120    0.38220    1.000
    Zn2      Zn       0.51205    0.73994    0.47502    1.000
    P3       P        0.76903    0.84172    0.77480    1.000
    H3       H        0.88900    0.78100    0.83900    1.000
    P4       P        0.23333    0.81754    0.16470    1.000
    H4       H        0.15400    0.73400    0.11200    1.000
    O7       O        0.68660    0.82230    0.60610    1.000
    O8       O        0.31370    0.81420    0.33870    1.000
    O9       O        0.61550    0.84210    0.85840    1.000
    O10      O        0.39260    0.83680    0.09120    1.000
    O11      O        0.88010    0.92870    0.79630    1.000
    O12      O        0.06620    0.88120    0.11780    1.000
    Zn3      Zn       0.51205    0.76006    0.97502    1.000
    P5       P        0.76903    0.65828    0.27480    1.000
    H5       H        0.88900    0.71900    0.33900    1.000
    P6       P        0.23333    0.68246    0.66470    1.000
    H6       H        0.15400    0.76600    0.61200    1.000
    O13      O        0.68660    0.67770    0.10610    1.000
    O14      O        0.31370    0.68580    0.83870    1.000
    O15      O        0.61550    0.65790    0.35840    1.000
    O16      O        0.39260    0.66320    0.59120    1.000
    O17      O        0.88010    0.57130    0.29630    1.000
    O18      O        0.06620    0.61880    0.61780    1.000
    Zn4      Zn       0.48795    0.26006    0.52498    1.000
    P7       P        0.23097    0.15828    0.22520    1.000
    H7       H        0.11100    0.21900    0.16100    1.000
    P8       P        0.76667    0.18246    0.83530    1.000
    H8       H        0.84600    0.26600    0.88800    1.000
    O19      O        0.31340    0.17770    0.39390    1.000
    O20      O        0.68630    0.18580    0.66130    1.000
    O21      O        0.38450    0.15790    0.14160    1.000
    O22      O        0.60740    0.16320    0.90880    1.000
    O23      O        0.11990    0.07130    0.20370    1.000
    O24      O        0.93380    0.11880    0.88220    1.000
    Zn5      Zn       0.00000    0.50000    0.50000    1.000
    Zn6      Zn       0.00000    0.00000    0.00000    1.000
