data_functionalizedCrystal
_audit_creation_method	'EQeq! by Chris Wilmer'
_symmetry_space_group_name_H-M	'P1'
_symmetry_Int_Tables_number	1
_symmetry_cell_setting	triclinic
loop_
_symmetry_equiv_pos_as_xyz
  x,y,z
_cell_length_a	10.893
_cell_length_b	6.618
_cell_length_c	17.337
_cell_angle_alpha	90
_cell_angle_beta	106.885
_cell_angle_gamma	90
loop_
_atom_site_label
_atom_site_type_symbol
_atom_site_fract_x
_atom_site_fract_y
_atom_site_fract_z
_atom_site_charge
Mof_Mn	Mn	0.46859	0.49677	0.08739	0.78
Mof_O 	O 	0.2734	0.3528	0.0382	-0.389
Mof_O 	O 	0.3485	0.0385	0.0601	-0.403
Mof_O 	O 	0.3628	0.1454	0.3381	-0.421
Mof_O 	O 	0.3599	0.4544	0.3862	-0.419
Mof_O 	O 	0.5624	0.3127	0.0186	-0.546
Mof_H 	H 	0.6545	0.3128	0.0467	0.165
Mof_C 	C 	0.2574	0.1657	0.0414	0.38
Mof_C 	C 	0.1236	0.0818	0.0222	-0.215
Mof_C 	C 	0.0338	0.1507	0.0599	0.121
Mof_C 	C 	0.0721	0.2979	0.1283	-0.049
Mof_C 	C 	0.1717	0.2473	0.1966	0.012
Mof_H 	H 	0.2111	0.1218	0.199	0.031
Mof_C 	C 	0.2135	0.3798	0.2612	-0.129
Mof_C 	C 	0.1536	0.5685	0.2564	0.026
Mof_H 	H 	0.1807	0.6595	0.2989	0.027
Mof_C 	C 	0.0544	0.6209	0.1891	-0.084
Mof_H 	H 	0.0161	0.7474	0.1863	0.068
Mof_C 	C 	0.0114	0.4837	0.1252	-0.014
Mof_H 	H 	0.9425	0.517	0.081	0.037
Mof_C 	C 	0.3226	0.322	0.3345	0.405
Mof_C 	C 	0.0877	0.9303	0.9633	0.113
Mof_H 	H 	0.1481	0.8831	0.9392	0.007
Mof_Mn	Mn	0.53141	0.99677	0.41261	0.82
Mof_O 	O 	0.7266	0.8528	0.4618	-0.368
Mof_O 	O 	0.6515	0.5385	0.4399	-0.389
Mof_O 	O 	0.6372	0.6454	0.1619	-0.408
Mof_O 	O 	0.6401	0.9544	0.1138	-0.402
Mof_O 	O 	0.4376	0.8127	0.4814	-0.529
Mof_H 	H 	0.3455	0.8128	0.4533	0.176
Mof_C 	C 	0.7426	0.6657	0.4586	0.352
Mof_C 	C 	0.8764	0.5818	0.4778	-0.103
Mof_C 	C 	0.9662	0.6507	0.4401	0.051
Mof_C 	C 	0.9279	0.7979	0.3717	-0.028
Mof_C 	C 	0.8283	0.7473	0.3034	-0.006
Mof_H 	H 	0.7889	0.6218	0.301	0.04
Mof_C 	C 	0.7865	0.8798	0.2388	-0.102
Mof_C 	C 	0.8464	0.0685	0.2436	0.006
Mof_H 	H 	0.8193	0.1595	0.2011	0.027
Mof_C 	C 	0.9456	0.1209	0.3109	-0.108
Mof_H 	H 	0.9839	0.2474	0.3137	0.073
Mof_C 	C 	0.9886	0.9837	0.3748	0.027
Mof_H 	H 	0.0575	0.017	0.419	0.023
Mof_C 	C 	0.6774	0.822	0.1655	0.391
Mof_C 	C 	0.9123	0.4303	0.5367	-0.023
Mof_H 	H 	0.8519	0.3831	0.5608	0.038
Mof_Mn	Mn	0.53141	0.50323	0.91261	0.819
Mof_O 	O 	0.7266	0.6472	0.9618	-0.344
Mof_O 	O 	0.6515	0.9615	0.9399	-0.345
Mof_O 	O 	0.6372	0.8546	0.6619	-0.397
Mof_O 	O 	0.6401	0.5456	0.6138	-0.413
Mof_O 	O 	0.4376	0.6873	0.9814	-0.499
Mof_H 	H 	0.3455	0.6872	0.9533	0.18
Mof_C 	C 	0.7426	0.8343	0.9586	0.307
Mof_C 	C 	0.8764	0.9182	0.9778	0.041
Mof_C 	C 	0.9662	0.8493	0.9401	-0.056
Mof_C 	C 	0.9279	0.7021	0.8717	0.056
Mof_C 	C 	0.8283	0.7527	0.8034	-0.058
Mof_H 	H 	0.7889	0.8782	0.801	0.062
Mof_C 	C 	0.7865	0.6202	0.7388	-0.083
Mof_C 	C 	0.8464	0.4315	0.7436	-0.025
Mof_H 	H 	0.8193	0.3405	0.7011	0.041
Mof_C 	C 	0.9456	0.3791	0.8109	-0.02
Mof_H 	H 	0.9839	0.2526	0.8137	0.042
Mof_C 	C 	0.9886	0.5163	0.8748	-0.092
Mof_H 	H 	0.0575	0.483	0.919	0.085
Mof_C 	C 	0.6774	0.678	0.6655	0.385
Mof_C 	C 	0.9123	0.0697	0.0367	-0.197
Mof_H 	H 	0.8519	0.1169	0.0608	0.087
Mof_Mn	Mn	0.46859	0.00323	0.58739	0.775
Mof_O 	O 	0.2734	0.1472	0.5382	-0.369
Mof_O 	O 	0.3485	0.4615	0.5601	-0.383
Mof_O 	O 	0.3628	0.3546	0.8381	-0.404
Mof_O 	O 	0.3599	0.0456	0.8862	-0.401
Mof_O 	O 	0.5624	0.1873	0.5186	-0.538
Mof_H 	H 	0.6545	0.1872	0.5467	0.17
Mof_C 	C 	0.2574	0.3343	0.5414	0.342
Mof_C 	C 	0.1236	0.4182	0.5222	-0.078
Mof_C 	C 	0.0338	0.3493	0.5599	0.01
Mof_C 	C 	0.0721	0.2021	0.6283	0.038
Mof_C 	C 	0.1717	0.2527	0.6966	-0.044
Mof_H 	H 	0.2111	0.3782	0.699	0.054
Mof_C 	C 	0.2135	0.1202	0.7612	-0.103
Mof_C 	C 	0.1536	0.9315	0.7564	-0.01
Mof_H 	H 	0.1807	0.8405	0.7989	0.043
Mof_C 	C 	0.0544	0.8791	0.6891	0.005
Mof_H 	H 	0.0161	0.7526	0.6863	0.036
Mof_C 	C 	0.0114	0.0163	0.6252	-0.134
Mof_H 	H 	0.9425	0.983	0.581	0.1
Mof_C 	C 	0.3226	0.178	0.8345	0.389
Mof_C 	C 	0.0877	0.5697	0.4633	-0.052
Mof_H 	H 	0.1481	0.6169	0.4392	0.051
Mof_Mn	Mn	0.5	0	-0	0.892
Mof_Mn	Mn	0.5	0.5	0.5	0.974
_end
