# CIF file generated by openbabel 3.1.0, see https://openbabel.org
data_I
_chemical_name_common 'NAXKOO01_clean_h'
_cell_length_a 6.608
_cell_length_b 7.7998
_cell_length_c 10.617
_cell_angle_alpha 111.551
_cell_angle_beta 104.75
_cell_angle_gamma 90
_space_group_name_H-M_alt 'P 1'
_space_group_name_Hall 'P 1'
loop_
    _symmetry_equiv_pos_as_xyz
    x,y,z
loop_
    _atom_site_label
    _atom_site_type_symbol
    _atom_site_fract_x
    _atom_site_fract_y
    _atom_site_fract_z
    _atom_site_occupancy
    Al1      Al       0.00000    0.00000    0.00000    1.000
    Al2      Al       0.50000    0.00000    0.00000    1.000
    C3       C        0.90800    0.94900    0.35800    1.000
    C4       C        0.12400    0.95200    0.42400    1.000
    C5       C        0.19000    0.97500    0.57000    1.000
    C6       C        0.04800    0.01400    0.64800    1.000
    C7       C        0.83200    0.01100    0.58200    1.000
    C8       C        0.77000    0.98000    0.44000    1.000
    C9       C        0.84400    0.91700    0.21400    1.000
    C10      C        0.11200    0.03600    0.79200    1.000
    C11      C        0.40800    0.40900    0.35800    1.000
    C12      C        0.62400    0.47200    0.42400    1.000
    C13      C        0.69000    0.59500    0.57000    1.000
    C14      C        0.54800    0.63400    0.64800    1.000
    C15      C        0.33200    0.57100    0.58200    1.000
    C16      C        0.27000    0.46000    0.44000    1.000
    C17      C        0.34400    0.29700    0.21400    1.000
    C18      C        0.61200    0.75600    0.79200    1.000
    N19      N        0.27600    0.91300    0.34600    1.000
    N20      N        0.77600    0.43300    0.34600    1.000
    O21      O        0.97400    0.89200    0.14400    1.000
    O22      O        0.65600    0.92200    0.15600    1.000
    O23      O        0.30000    0.03700    0.85000    1.000
    O24      O        0.98200    0.06600    0.86200    1.000
    O25      O        0.26625    0.89234    0.00528    1.000
    O26      O        0.47400    0.25200    0.14400    1.000
    O27      O        0.15600    0.23400    0.15600    1.000
    O28      O        0.80000    0.81300    0.85000    1.000
    O29      O        0.48200    0.79600    0.86200    1.000
    O30      O        0.76625    0.11294    0.00528    1.000
    H31      H        0.36019    0.96067    0.62015    1.000
    H32      H        0.71226    0.03391    0.64573    1.000
    H33      H        0.59725    0.97931    0.38545    1.000
    H34      H        0.86019    0.65948    0.62015    1.000
    H35      H        0.21226    0.61182    0.64573    1.000
    H36      H        0.09725    0.40613    0.38545    1.000
    H37      H        0.22872    0.82153    0.23268    1.000
    H38      H        0.44182    0.97405    0.39849    1.000
    H39      H        0.72872    0.34153    0.23268    1.000
    H40      H        0.94182    0.49405    0.39849    1.000
    H41      H        0.76625    0.25079    0.04248    1.000
    H42      H        0.26625    0.75449    0.96808    1.000
