data_functionalizedCrystal
_audit_creation_method	'EQeq! by Chris Wilmer'
_symmetry_space_group_name_H-M	'P1'
_symmetry_Int_Tables_number	1
_symmetry_cell_setting	triclinic
loop_
_symmetry_equiv_pos_as_xyz
  x,y,z
_cell_length_a	11.1377
_cell_length_b	11.1377
_cell_length_c	21.4035
_cell_angle_alpha	95.9848
_cell_angle_beta	95.9848
_cell_angle_gamma	107.081
loop_
_atom_site_label
_atom_site_type_symbol
_atom_site_fract_x
_atom_site_fract_y
_atom_site_fract_z
_atom_site_charge
Mof_Mn	Mn	0.49718	0.01598	0.80629	0.793
Mof_Mn	Mn	0.98402	0.50282	0.69371	0.793
Mof_Mn	Mn	0.50282	0.98402	0.19371	0.793
Mof_Mn	Mn	0.01598	0.49718	0.30629	0.793
Mof_Mn	Mn	0.75282	0.24718	0.75	1.006
Mof_Mn	Mn	0.24718	0.75282	0.25	1.006
Mof_H 	H 	0.3931	0.2859	0.9218	0.05
Mof_H 	H 	0.7373	0.5211	0.9072	0.041
Mof_H 	H 	0.726	0.6586	0.993	0.063
Mof_H 	H 	0.6535	0.0479	0.609	0.057
Mof_H 	H 	0.2771	0.9903	0.601	0.039
Mof_H 	H 	0.2537	0.9685	0.492	0.068
Mof_H 	H 	0.0123	0.2403	0.5303	0.047
Mof_H 	H 	0.9043	0.9805	0.6471	0.035
Mof_H 	H 	0.9363	0.8267	0.5762	0.057
Mof_H 	H 	0.7141	0.6069	0.5782	0.05
Mof_H 	H 	0.4789	0.2627	0.5928	0.041
Mof_H 	H 	0.3414	0.274	0.507	0.063
Mof_H 	H 	0.9521	0.3465	0.891	0.057
Mof_H 	H 	0.0097	0.7229	0.899	0.041
Mof_H 	H 	0.0315	0.7463	0.008	0.065
Mof_H 	H 	0.7597	0.9877	0.9697	0.049
Mof_H 	H 	0.0195	0.0957	0.8529	0.037
Mof_H 	H 	0.1733	0.0637	0.9238	0.056
Mof_H 	H 	0.6069	0.7141	0.0782	0.05
Mof_H 	H 	0.2627	0.4789	0.0928	0.041
Mof_H 	H 	0.274	0.3414	0.007	0.063
Mof_H 	H 	0.3465	0.9521	0.391	0.057
Mof_H 	H 	0.7229	0.0097	0.399	0.039
Mof_H 	H 	0.7463	0.0315	0.508	0.068
Mof_H 	H 	0.9877	0.7597	0.4697	0.047
Mof_H 	H 	0.0957	0.0195	0.3529	0.035
Mof_H 	H 	0.0637	0.1733	0.4238	0.057
Mof_H 	H 	0.2859	0.3931	0.4218	0.05
Mof_H 	H 	0.5211	0.7373	0.4072	0.041
Mof_H 	H 	0.6586	0.726	0.493	0.063
Mof_H 	H 	0.0479	0.6535	0.109	0.057
Mof_H 	H 	0.9903	0.2771	0.101	0.041
Mof_H 	H 	0.9685	0.2537	0.992	0.065
Mof_H 	H 	0.2403	0.0123	0.0303	0.049
Mof_H 	H 	0.9805	0.9043	0.1471	0.037
Mof_H 	H 	0.8267	0.9363	0.0762	0.056
Mof_C 	C 	0.44966	0.44352	0.98939	0.022
Mof_C 	C 	0.45978	0.36112	0.93648	-0.033
Mof_C 	C 	0.56514	0.38926	0.90644	-0.091
Mof_C 	C 	0.66501	0.50179	0.92799	0.016
Mof_C 	C 	0.65828	0.58372	0.97897	-0.089
Mof_C 	C 	0.57501	0.29799	0.85125	0.381
Mof_C 	C 	0.56099	0.01217	0.51776	0.026
Mof_C 	C 	0.57311	0.02997	0.58489	-0.037
Mof_C 	C 	0.46941	0.02135	0.61498	-0.083
Mof_C 	C 	0.3482	0.9968	0.57985	0.01
Mof_C 	C 	0.33429	0.98231	0.5151	-0.091
Mof_C 	C 	0.48115	0.03167	0.68564	0.335
Mof_C 	C 	0.01186	0.0625	0.49303	0.017
Mof_C 	C 	0.99476	0.15624	0.53868	-0.03
Mof_C 	C 	0.95309	0.12571	0.59458	-0.096
Mof_C 	C 	0.93154	0.00106	0.60831	0.02
Mof_C 	C 	0.94961	0.90919	0.56595	-0.095
Mof_C 	C 	0.92325	0.22315	0.63988	0.373
Mof_C 	C 	0.55648	0.55034	0.51061	0.022
Mof_C 	C 	0.63888	0.54022	0.56352	-0.032
Mof_C 	C 	0.61074	0.43486	0.59356	-0.091
Mof_C 	C 	0.49821	0.33499	0.57201	0.016
Mof_C 	C 	0.41628	0.34172	0.52103	-0.089
Mof_C 	C 	0.70201	0.42499	0.64875	0.381
Mof_C 	C 	0.98783	0.43901	0.98224	0.023
Mof_C 	C 	0.97003	0.42689	0.91511	-0.036
Mof_C 	C 	0.97865	0.53059	0.88502	-0.083
Mof_C 	C 	0.0032	0.6518	0.92015	0.008
Mof_C 	C 	0.01769	0.66571	0.9849	-0.084
Mof_C 	C 	0.96833	0.51885	0.81436	0.335
Mof_C 	C 	0.9375	0.98814	0.00697	0.018
Mof_C 	C 	0.84376	0.00524	0.96132	-0.035
Mof_C 	C 	0.87429	0.04691	0.90542	-0.094
Mof_C 	C 	0.99894	0.06846	0.89169	0.015
Mof_C 	C 	0.09081	0.05039	0.93405	-0.092
Mof_C 	C 	0.77685	0.07675	0.86012	0.372
Mof_C 	C 	0.55034	0.55648	0.01061	0.022
Mof_C 	C 	0.54022	0.63888	0.06352	-0.033
Mof_C 	C 	0.43486	0.61074	0.09356	-0.091
Mof_C 	C 	0.33499	0.49821	0.07201	0.016
Mof_C 	C 	0.34172	0.41628	0.02103	-0.089
Mof_C 	C 	0.42499	0.70201	0.14875	0.381
Mof_C 	C 	0.43901	0.98783	0.48224	0.026
Mof_C 	C 	0.42689	0.97003	0.41511	-0.037
Mof_C 	C 	0.53059	0.97865	0.38502	-0.083
Mof_C 	C 	0.6518	0.0032	0.42015	0.01
Mof_C 	C 	0.66571	0.01769	0.4849	-0.091
Mof_C 	C 	0.51885	0.96833	0.31436	0.335
Mof_C 	C 	0.98814	0.9375	0.50697	0.017
Mof_C 	C 	0.00524	0.84376	0.46132	-0.03
Mof_C 	C 	0.04691	0.87429	0.40542	-0.096
Mof_C 	C 	0.06846	0.99894	0.39169	0.02
Mof_C 	C 	0.05039	0.09081	0.43405	-0.095
Mof_C 	C 	0.07675	0.77685	0.36012	0.373
Mof_C 	C 	0.44352	0.44966	0.48939	0.022
Mof_C 	C 	0.36112	0.45978	0.43648	-0.032
Mof_C 	C 	0.38926	0.56514	0.40644	-0.091
Mof_C 	C 	0.50179	0.66501	0.42799	0.016
Mof_C 	C 	0.58372	0.65828	0.47897	-0.089
Mof_C 	C 	0.29799	0.57501	0.35125	0.381
Mof_C 	C 	0.01217	0.56099	0.01776	0.023
Mof_C 	C 	0.02997	0.57311	0.08489	-0.036
Mof_C 	C 	0.02135	0.46941	0.11498	-0.083
Mof_C 	C 	0.9968	0.3482	0.07985	0.008
Mof_C 	C 	0.98231	0.33429	0.0151	-0.084
Mof_C 	C 	0.03167	0.48115	0.18564	0.335
Mof_C 	C 	0.0625	0.01186	0.99303	0.018
Mof_C 	C 	0.15624	0.99476	0.03868	-0.035
Mof_C 	C 	0.12571	0.95309	0.09458	-0.094
Mof_C 	C 	0.00106	0.93154	0.10831	0.015
Mof_C 	C 	0.90919	0.94961	0.06595	-0.092
Mof_C 	C 	0.22315	0.92325	0.13988	0.372
Mof_O 	O 	0.66889	0.33173	0.82263	-0.38
Mof_O 	O 	0.48706	0.19476	0.83867	-0.39
Mof_O 	O 	0.5905	0.07512	0.7189	-0.415
Mof_O 	O 	0.38403	0.99199	0.711	-0.356
Mof_O 	O 	0.86415	0.18247	0.68379	-0.374
Mof_O 	O 	0.95913	0.33631	0.62996	-0.394
Mof_O 	O 	0.66827	0.33111	0.67737	-0.38
Mof_O 	O 	0.80524	0.51294	0.66133	-0.39
Mof_O 	O 	0.92488	0.4095	0.7811	-0.415
Mof_O 	O 	0.00801	0.61597	0.789	-0.355
Mof_O 	O 	0.81753	0.13585	0.81621	-0.374
Mof_O 	O 	0.66369	0.04087	0.87004	-0.394
Mof_O 	O 	0.33111	0.66827	0.17737	-0.38
Mof_O 	O 	0.51294	0.80524	0.16133	-0.39
Mof_O 	O 	0.4095	0.92488	0.2811	-0.415
Mof_O 	O 	0.61597	0.00801	0.289	-0.356
Mof_O 	O 	0.13585	0.81753	0.31621	-0.374
Mof_O 	O 	0.04087	0.66369	0.37004	-0.394
Mof_O 	O 	0.33173	0.66889	0.32263	-0.38
Mof_O 	O 	0.19476	0.48706	0.33867	-0.39
Mof_O 	O 	0.07512	0.5905	0.2189	-0.415
Mof_O 	O 	0.99199	0.38403	0.211	-0.355
Mof_O 	O 	0.18247	0.86415	0.18379	-0.374
Mof_O 	O 	0.33631	0.95913	0.12996	-0.394
_end
