data_functionalizedCrystal
_audit_creation_method	'EQeq! by Chris Wilmer'
_symmetry_space_group_name_H-M	'P1'
_symmetry_Int_Tables_number	1
_symmetry_cell_setting	triclinic
loop_
_symmetry_equiv_pos_as_xyz
  x,y,z
_cell_length_a	13.6309
_cell_length_b	13.6309
_cell_length_c	13.6309
_cell_angle_alpha	105.85
_cell_angle_beta	109.737
_cell_angle_gamma	112.903
loop_
_atom_site_label
_atom_site_type_symbol
_atom_site_fract_x
_atom_site_fract_y
_atom_site_fract_z
_atom_site_charge
Mof_Co	Co	-0	0.5	0.5	1.137
Mof_Co	Co	0.5	0	0.5	1.131
Mof_H 	H 	0.9586	0.6385	0.3571	-0.011
Mof_H 	H 	0.9589	0.6568	0.1965	0.08
Mof_H 	H 	0.9875	0.3666	0.1101	0.093
Mof_H 	H 	0.9878	0.3572	0.2684	-0.005
Mof_H 	H 	0.9792	0.5898	0.0248	0.029
Mof_H 	H 	0.2814	0.6015	0.6429	-0.021
Mof_H 	H 	0.4603	0.7624	0.8035	0.078
Mof_H 	H 	0.2565	0.8774	0.8899	0.095
Mof_H 	H 	0.0888	0.7194	0.7316	-0.01
Mof_H 	H 	0.565	0.9544	0.9752	0.031
Mof_H 	H 	0.5414	0.8985	0.6799	-0.019
Mof_H 	H 	0.5411	0.7376	0.6979	0.09
Mof_H 	H 	0.5125	0.6226	0.3791	0.115
Mof_H 	H 	0.5122	0.7806	0.3694	-0.033
Mof_H 	H 	0.5208	0.5456	0.6106	0.063
Mof_H 	H 	0.2186	0.8615	0.3201	-0.061
Mof_H 	H 	0.0397	0.8432	0.3021	0.129
Mof_H 	H 	0.2435	0.1334	0.6209	0.187
Mof_H 	H 	0.4112	0.1428	0.6306	-0.074
Mof_H 	H 	0.935	0.9102	0.3894	0.171
Mof_H 	H 	0.0414	0.3615	0.6429	-0.036
Mof_H 	H 	0.0411	0.3432	0.8035	0.09
Mof_H 	H 	0.0125	0.6334	0.8899	0.118
Mof_H 	H 	0.0122	0.6428	0.7316	-0.034
Mof_H 	H 	0.0208	0.4102	0.9752	0.085
Mof_H 	H 	0.7186	0.3985	0.3571	-0.027
Mof_H 	H 	0.5397	0.2376	0.1965	0.093
Mof_H 	H 	0.7435	0.1226	0.1101	0.117
Mof_H 	H 	0.9112	0.2806	0.2684	-0.029
Mof_H 	H 	0.435	0.0456	0.0248	0.084
Mof_H 	H 	0.4586	0.1015	0.3201	-0.028
Mof_H 	H 	0.4589	0.2624	0.3021	0.08
Mof_H 	H 	0.4875	0.3774	0.6209	0.096
Mof_H 	H 	0.4878	0.2194	0.6306	-0.005
Mof_H 	H 	0.4792	0.4544	0.3894	0.052
Mof_H 	H 	0.7814	0.1385	0.6799	0.013
Mof_H 	H 	0.9603	0.1568	0.6979	0.042
Mof_H 	H 	0.7565	0.8666	0.3791	0.025
Mof_H 	H 	0.5888	0.8572	0.3694	0.035
Mof_H 	H 	0.065	0.0898	0.6106	-0.056
Mof_C 	C 	0.8369	0.2116	0.3747	0.112
Mof_C 	C 	0.9647	0.5831	0.3058	0.097
Mof_C 	C 	0.9637	0.5953	0.2106	-0.148
Mof_C 	C 	0.9707	0.5016	0.1287	0.09
Mof_C 	C 	0.9805	0.4232	0.1587	-0.178
Mof_C 	C 	0.9816	0.4178	0.2536	0.117
Mof_C 	C 	0.9877	0.5279	0.034	0.029
Mof_C 	C 	0.8369	0.4622	0.6253	0.116
Mof_C 	C 	0.2773	0.6589	0.6942	0.097
Mof_C 	C 	0.3847	0.7531	0.7894	-0.156
Mof_C 	C 	0.3729	0.842	0.8713	0.093
Mof_C 	C 	0.2645	0.8218	0.8413	-0.184
Mof_C 	C 	0.1642	0.728	0.7464	0.114
Mof_C 	C 	0.4939	0.9537	0.966	0.016
Mof_C 	C 	0.6631	0.0378	0.3747	0.104
Mof_C 	C 	0.5353	0.8411	0.6184	0.118
Mof_C 	C 	0.5363	0.7469	0.6316	-0.188
Mof_C 	C 	0.5293	0.658	0.5309	0.158
Mof_C 	C 	0.5195	0.6782	0.4427	-0.25
Mof_C 	C 	0.5184	0.772	0.4362	0.165
Mof_C 	C 	0.5123	0.5463	0.5402	-0.107
Mof_C 	C 	0.6631	0.2884	0.6253	0.109
Mof_C 	C 	0.2227	0.9169	0.3816	0.231
Mof_C 	C 	0.1153	0.9047	0.3684	-0.32
Mof_C 	C 	0.1271	0.9984	0.4691	0.376
Mof_C 	C 	0.2355	0.0768	0.5573	-0.483
Mof_C 	C 	0.3358	0.0822	0.5638	0.265
Mof_C 	C 	0.0061	0.9721	0.4598	-0.355
Mof_C 	C 	0.1631	0.7884	0.6253	0.104
Mof_C 	C 	0.0353	0.4169	0.6942	0.124
Mof_C 	C 	0.0363	0.4047	0.7894	-0.214
Mof_C 	C 	0.0293	0.4984	0.8713	0.192
Mof_C 	C 	0.0195	0.5768	0.8413	-0.278
Mof_C 	C 	0.0184	0.5822	0.7464	0.162
Mof_C 	C 	0.0123	0.4721	0.966	-0.213
Mof_C 	C 	0.1631	0.5378	0.3747	0.1
Mof_C 	C 	0.7227	0.3411	0.3058	0.124
Mof_C 	C 	0.6153	0.2469	0.2106	-0.207
Mof_C 	C 	0.6271	0.158	0.1287	0.189
Mof_C 	C 	0.7355	0.1782	0.1587	-0.272
Mof_C 	C 	0.8358	0.272	0.2536	0.164
Mof_C 	C 	0.5061	0.0463	0.034	-0.2
Mof_C 	C 	0.3369	0.9622	0.6253	0.112
Mof_C 	C 	0.4647	0.1589	0.3816	0.102
Mof_C 	C 	0.4637	0.2531	0.3684	-0.175
Mof_C 	C 	0.4707	0.342	0.4691	0.123
Mof_C 	C 	0.4805	0.3218	0.5573	-0.205
Mof_C 	C 	0.4816	0.228	0.5638	0.113
Mof_C 	C 	0.4877	0.4537	0.4598	-0.077
Mof_C 	C 	0.3369	0.7116	0.3747	0.106
Mof_C 	C 	0.7773	0.0831	0.6184	-0.01
Mof_C 	C 	0.8847	0.0953	0.6316	-0.043
Mof_C 	C 	0.8729	0.0016	0.5309	-0.094
Mof_C 	C 	0.7645	0.9232	0.4427	0.026
Mof_C 	C 	0.6642	0.9178	0.4362	0.013
Mof_C 	C 	0.9939	0.0279	0.5402	0.172
Mof_S 	S 	0.7534	0.0685	0.3151	-0.049
Mof_S 	S 	0.7534	0.4383	0.6849	-0.037
Mof_S 	S 	0.7466	0.0617	0.3151	-0.046
Mof_S 	S 	0.7466	0.4315	0.6849	-0.036
Mof_S 	S 	0.2466	0.9315	0.6849	-0.029
Mof_S 	S 	0.2466	0.5617	0.3151	-0.042
Mof_S 	S 	0.2534	0.9383	0.6849	-0.032
Mof_S 	S 	0.2534	0.5685	0.3151	-0.043
Mof_N 	N 	0.8985	0.313	0.4145	-0.233
Mof_N 	N 	0.9736	0.4999	0.3333	-0.197
Mof_N 	N 	0.8985	0.484	0.5855	-0.227
Mof_N 	N 	0.1666	0.6403	0.6667	-0.206
Mof_N 	N 	0.6015	0.016	0.4145	-0.251
Mof_N 	N 	0.5264	0.8597	0.5263	-0.211
Mof_N 	N 	0.6015	0.187	0.5855	-0.24
Mof_N 	N 	0.3334	0.0001	0.4737	-0.279
Mof_N 	N 	0.1015	0.687	0.5855	-0.239
Mof_N 	N 	0.0264	0.5001	0.6667	-0.225
Mof_N 	N 	0.1015	0.516	0.4145	-0.245
Mof_N 	N 	0.8334	0.3597	0.3333	-0.216
Mof_N 	N 	0.3985	0.984	0.5855	-0.22
Mof_N 	N 	0.4736	0.1403	0.4737	-0.21
Mof_N 	N 	0.3985	0.813	0.4145	-0.231
Mof_N 	N 	0.6666	0.9999	0.5263	-0.142
_end
