# CIF file generated by openbabel 3.1.0, see https://openbabel.org
data_I
_chemical_name_common 'image0'
_cell_length_a 22.128
_cell_length_b 14.5817
_cell_length_c 28.083
_cell_angle_alpha 90
_cell_angle_beta 116.316
_cell_angle_gamma 90
_space_group_name_H-M_alt 'P 1'
_space_group_name_Hall 'P 1'
loop_
    _symmetry_equiv_pos_as_xyz
    x,y,z
loop_
    _atom_site_label
    _atom_site_type_symbol
    _atom_site_fract_x
    _atom_site_fract_y
    _atom_site_fract_z
    _atom_site_occupancy
    Ni1      Ni       0.74600    0.32840    0.74428    1.000
    Ni2      Ni       0.78102    0.50577    0.46059    1.000
    O1       O        0.82688    0.33501    0.66539    1.000
    O2       O        0.77692    0.41707    0.70439    1.000
    O3       O        0.78698    0.73962    0.71597    1.000
    O4       O        0.83571    0.82498    0.67718    1.000
    O5       O        0.21609    0.57218    0.65146    1.000
    O6       O        0.15278    0.51130    0.57211    1.000
    O7       O        0.86478    0.55038    0.52755    1.000
    O8       O        0.91188    0.41190    0.54990    1.000
    N1       N        0.72033    0.53090    0.49717    1.000
    N2       N        0.63179    0.53190    0.51353    1.000
    N3       N        0.84241    0.32940    0.80790    1.000
    N4       N        0.92720    0.30070    0.88616    1.000
    N5       N        0.06775    0.20100    0.10108    1.000
    N6       N        0.15109    0.17550    0.18056    1.000
    C1       C        0.84360    0.49680    0.67377    1.000
    C2       C        0.82060    0.57940    0.68421    1.000
    H1       H        0.78610    0.57950    0.69460    1.000
    C3       C        0.84880    0.66240    0.67924    1.000
    C4       C        0.90130    0.66090    0.66444    1.000
    H2       H        0.92080    0.71580    0.66150    1.000
    C5       C        0.92480    0.57930    0.65409    1.000
    C6       C        0.98400    0.57550    0.64129    1.000
    C7       C        0.04690    0.60640    0.67937    1.000
    H3       H        0.05050    0.63360    0.71050    1.000
    C8       C        0.10370    0.59670    0.67088    1.000
    H4       H        0.14550    0.61630    0.69660    1.000
    C9       C        0.09850    0.55770    0.62402    1.000
    C10      C        0.03620    0.52720    0.58622    1.000
    H5       H        0.03260    0.50050    0.55500    1.000
    C11      C        0.97860    0.53630    0.59477    1.000
    C12      C        0.81330    0.40960    0.68119    1.000
    C13      C        0.82220    0.74930    0.69168    1.000
    C14      C        0.15990    0.54640    0.61464    1.000
    C15      C        0.91300    0.49630    0.55419    1.000
    C16      C        0.68410    0.56900    0.55670    1.000
    H6       H        0.68320    0.59110    0.58740    1.000
    C17      C        0.73780    0.56720    0.54570    1.000
    C18      C        0.65660    0.50950    0.47920    1.000
    H7       H        0.63140    0.48200    0.44650    1.000
    C19      C        0.51380    0.49920    0.45684    1.000
    H8       H        0.52330    0.49850    0.42770    1.000
    C20      C        0.56470    0.51660    0.50659    1.000
    C21      C        0.55150    0.51750    0.55036    1.000
    H9       H        0.58590    0.52910    0.58410    1.000
    C22      C        0.95440    0.32390    0.85273    1.000
    H10      H        0.00010    0.32700    0.86120    1.000
    C23      C        0.90260    0.34140    0.80522    1.000
    H11      H        0.90670    0.35900    0.77500    1.000
    C24      C        0.85970    0.30520    0.85739    1.000
    H12      H        0.82910    0.29280    0.87090    1.000
    C25      C        0.96330    0.27560    0.94103    1.000
    C26      C        0.93470    0.29290    0.97493    1.000
    C27      C        0.03300    0.22640    0.04618    1.000
    C28      C        0.06130    0.21210    0.01208    1.000
    H13      H        0.10400    0.18610    0.02450    1.000
    C29      C        0.02620    0.23630    0.95925    1.000
    H14      H        0.04500    0.22600    0.93600    1.000
    C30      C        0.03930    0.17400    0.13335    1.000
    H15      H        0.99360    0.16770    0.12390    1.000
    C31      C        0.09090    0.15830    0.18140    1.000
    C32      C        0.13480    0.20020    0.13100    1.000
    H16      H        0.16610    0.21520    0.11840    1.000
    C33      C        0.97010    0.26770    0.02836    1.000
    C34      C        0.89490    0.49840    0.65821    1.000
    H17      H        0.89500    0.33100    0.96090    1.000
    H18      H        0.94900    0.28600    0.04820    1.000
    H19      H        0.91170    0.45000    0.64980    1.000
    H20      H        0.09000    0.14400    0.21320    1.000
    H21      H        0.77400    0.58500    0.56200    1.000
    Ni3      Ni       0.75400    0.82840    0.75572    1.000
    Ni4      Ni       0.71898    0.00577    0.03941    1.000
    O9       O        0.67312    0.83501    0.83461    1.000
    O10      O        0.72308    0.91707    0.79561    1.000
    O11      O        0.71302    0.23962    0.78403    1.000
    O12      O        0.66429    0.32498    0.82282    1.000
    O13      O        0.28391    0.07218    0.84854    1.000
    O14      O        0.34722    0.01130    0.92789    1.000
    O15      O        0.63522    0.05038    0.97245    1.000
    O16      O        0.58812    0.91190    0.95010    1.000
    N7       N        0.77967    0.03090    0.00283    1.000
    N8       N        0.86821    0.03190    0.98647    1.000
    N9       N        0.65759    0.82940    0.69210    1.000
    N10      N        0.57280    0.80070    0.61384    1.000
    N11      N        0.43225    0.70100    0.39892    1.000
    N12      N        0.34891    0.67550    0.31944    1.000
    C35      C        0.65640    0.99680    0.82623    1.000
    C36      C        0.67940    0.07940    0.81579    1.000
    H22      H        0.71390    0.07950    0.80540    1.000
    C37      C        0.65120    0.16240    0.82076    1.000
    C38      C        0.59870    0.16090    0.83556    1.000
    H23      H        0.57920    0.21580    0.83850    1.000
    C39      C        0.57520    0.07930    0.84591    1.000
    C40      C        0.51600    0.07550    0.85871    1.000
    C41      C        0.45310    0.10640    0.82063    1.000
    H24      H        0.44950    0.13360    0.78950    1.000
    C42      C        0.39630    0.09670    0.82912    1.000
    H25      H        0.35450    0.11630    0.80340    1.000
    C43      C        0.40150    0.05770    0.87598    1.000
    C44      C        0.46380    0.02720    0.91378    1.000
    H26      H        0.46740    0.00050    0.94500    1.000
    C45      C        0.52140    0.03630    0.90523    1.000
    C46      C        0.68670    0.90960    0.81881    1.000
    C47      C        0.67780    0.24930    0.80832    1.000
    C48      C        0.34010    0.04640    0.88536    1.000
    C49      C        0.58700    0.99630    0.94581    1.000
    C50      C        0.81590    0.06900    0.94330    1.000
    H27      H        0.81680    0.09110    0.91260    1.000
    C51      C        0.76220    0.06720    0.95430    1.000
    C52      C        0.84340    0.00950    0.02080    1.000
    H28      H        0.86860    0.98200    0.05350    1.000
    C53      C        0.98620    0.99920    0.04316    1.000
    H29      H        0.97670    0.99850    0.07230    1.000
    C54      C        0.93530    0.01660    0.99341    1.000
    C55      C        0.94850    0.01750    0.94964    1.000
    H30      H        0.91410    0.02910    0.91590    1.000
    C56      C        0.54560    0.82390    0.64727    1.000
    H31      H        0.49990    0.82700    0.63880    1.000
    C57      C        0.59740    0.84140    0.69478    1.000
    H32      H        0.59330    0.85900    0.72500    1.000
    C58      C        0.64030    0.80520    0.64261    1.000
    H33      H        0.67090    0.79280    0.62910    1.000
    C59      C        0.53670    0.77560    0.55897    1.000
    C60      C        0.56530    0.79290    0.52507    1.000
    C61      C        0.46700    0.72640    0.45382    1.000
    C62      C        0.43870    0.71210    0.48792    1.000
    H34      H        0.39600    0.68610    0.47550    1.000
    C63      C        0.47380    0.73630    0.54075    1.000
    H35      H        0.45500    0.72600    0.56400    1.000
    C64      C        0.46070    0.67400    0.36665    1.000
    H36      H        0.50640    0.66770    0.37610    1.000
    C65      C        0.40910    0.65830    0.31860    1.000
    C66      C        0.36520    0.70020    0.36900    1.000
    H37      H        0.33390    0.71520    0.38160    1.000
    C67      C        0.52990    0.76770    0.47164    1.000
    C68      C        0.60510    0.99840    0.84179    1.000
    H38      H        0.60500    0.83100    0.53910    1.000
    H39      H        0.55100    0.78600    0.45180    1.000
    H40      H        0.58830    0.95000    0.85020    1.000
    H41      H        0.41000    0.64400    0.28680    1.000
    H42      H        0.72600    0.08500    0.93800    1.000
    Ni5      Ni       0.25400    0.67160    0.25572    1.000
    Ni6      Ni       0.21898    0.49423    0.53941    1.000
    O17      O        0.17312    0.66499    0.33461    1.000
    O18      O        0.22308    0.58293    0.29561    1.000
    O19      O        0.21302    0.26038    0.28403    1.000
    O20      O        0.16429    0.17502    0.32282    1.000
    O21      O        0.78391    0.42782    0.34854    1.000
    O22      O        0.84722    0.48870    0.42789    1.000
    O23      O        0.13522    0.44962    0.47245    1.000
    O24      O        0.08812    0.58810    0.45010    1.000
    N13      N        0.27967    0.46910    0.50283    1.000
    N14      N        0.36821    0.46810    0.48647    1.000
    N15      N        0.15759    0.67060    0.19210    1.000
    N16      N        0.07280    0.69930    0.11384    1.000
    N17      N        0.93225    0.79900    0.89892    1.000
    N18      N        0.84891    0.82450    0.81944    1.000
    C69      C        0.15640    0.50320    0.32623    1.000
    C70      C        0.17940    0.42060    0.31579    1.000
    H43      H        0.21390    0.42050    0.30540    1.000
    C71      C        0.15120    0.33760    0.32076    1.000
    C72      C        0.09870    0.33910    0.33556    1.000
    H44      H        0.07920    0.28420    0.33850    1.000
    C73      C        0.07520    0.42070    0.34591    1.000
    C74      C        0.01600    0.42450    0.35871    1.000
    C75      C        0.95310    0.39360    0.32063    1.000
    H45      H        0.94950    0.36640    0.28950    1.000
    C76      C        0.89630    0.40330    0.32912    1.000
    H46      H        0.85450    0.38370    0.30340    1.000
    C77      C        0.90150    0.44230    0.37598    1.000
    C78      C        0.96380    0.47280    0.41378    1.000
    H47      H        0.96740    0.49950    0.44500    1.000
    C79      C        0.02140    0.46370    0.40523    1.000
    C80      C        0.18670    0.59040    0.31881    1.000
    C81      C        0.17780    0.25070    0.30832    1.000
    C82      C        0.84010    0.45360    0.38536    1.000
    C83      C        0.08700    0.50370    0.44581    1.000
    C84      C        0.31590    0.43100    0.44330    1.000
    H48      H        0.31680    0.40890    0.41260    1.000
    C85      C        0.26220    0.43280    0.45430    1.000
    C86      C        0.34340    0.49050    0.52080    1.000
    H49      H        0.36860    0.51800    0.55350    1.000
    C87      C        0.48620    0.50080    0.54316    1.000
    H50      H        0.47670    0.50150    0.57230    1.000
    C88      C        0.43530    0.48340    0.49341    1.000
    C89      C        0.44850    0.48250    0.44964    1.000
    H51      H        0.41410    0.47090    0.41590    1.000
    C90      C        0.04560    0.67610    0.14727    1.000
    H52      H        0.99990    0.67300    0.13880    1.000
    C91      C        0.09740    0.65860    0.19478    1.000
    H53      H        0.09330    0.64100    0.22500    1.000
    C92      C        0.14030    0.69480    0.14261    1.000
    H54      H        0.17090    0.70720    0.12910    1.000
    C93      C        0.03670    0.72440    0.05897    1.000
    C94      C        0.06530    0.70710    0.02507    1.000
    C95      C        0.96700    0.77360    0.95382    1.000
    C96      C        0.93870    0.78790    0.98792    1.000
    H55      H        0.89600    0.81390    0.97550    1.000
    C97      C        0.97380    0.76370    0.04075    1.000
    H56      H        0.95500    0.77400    0.06400    1.000
    C98      C        0.96070    0.82600    0.86665    1.000
    H57      H        0.00640    0.83230    0.87610    1.000
    C99      C        0.90910    0.84170    0.81860    1.000
    C100     C        0.86520    0.79980    0.86900    1.000
    H58      H        0.83390    0.78480    0.88160    1.000
    C101     C        0.02990    0.73230    0.97164    1.000
    C102     C        0.10510    0.50160    0.34179    1.000
    H59      H        0.10500    0.66900    0.03910    1.000
    H60      H        0.05100    0.71400    0.95180    1.000
    H61      H        0.08830    0.55000    0.35020    1.000
    H62      H        0.91000    0.85600    0.78680    1.000
    H63      H        0.22600    0.41500    0.43800    1.000
    Ni7      Ni       0.24600    0.17160    0.24428    1.000
    Ni8      Ni       0.28102    0.99423    0.96059    1.000
    O25      O        0.32688    0.16499    0.16539    1.000
    O26      O        0.27692    0.08293    0.20439    1.000
    O27      O        0.28698    0.76038    0.21597    1.000
    O28      O        0.33571    0.67502    0.17718    1.000
    O29      O        0.71609    0.92782    0.15146    1.000
    O30      O        0.65278    0.98870    0.07211    1.000
    O31      O        0.36478    0.94962    0.02755    1.000
    O32      O        0.41188    0.08810    0.04990    1.000
    N19      N        0.22033    0.96910    0.99717    1.000
    N20      N        0.13179    0.96810    0.01353    1.000
    N21      N        0.34241    0.17060    0.30790    1.000
    N22      N        0.42720    0.19930    0.38616    1.000
    N23      N        0.56775    0.29900    0.60108    1.000
    N24      N        0.65109    0.32450    0.68056    1.000
    C103     C        0.34360    0.00320    0.17377    1.000
    C104     C        0.32060    0.92060    0.18421    1.000
    H64      H        0.28610    0.92050    0.19460    1.000
    C105     C        0.34880    0.83760    0.17924    1.000
    C106     C        0.40130    0.83910    0.16444    1.000
    H65      H        0.42080    0.78420    0.16150    1.000
    C107     C        0.42480    0.92070    0.15409    1.000
    C108     C        0.48400    0.92450    0.14129    1.000
    C109     C        0.54690    0.89360    0.17937    1.000
    H66      H        0.55050    0.86640    0.21050    1.000
    C110     C        0.60370    0.90330    0.17088    1.000
    H67      H        0.64550    0.88370    0.19660    1.000
    C111     C        0.59850    0.94230    0.12402    1.000
    C112     C        0.53620    0.97280    0.08622    1.000
    H68      H        0.53260    0.99950    0.05500    1.000
    C113     C        0.47860    0.96370    0.09477    1.000
    C114     C        0.31330    0.09040    0.18119    1.000
    C115     C        0.32220    0.75070    0.19168    1.000
    C116     C        0.65990    0.95360    0.11464    1.000
    C117     C        0.41300    0.00370    0.05419    1.000
    C118     C        0.18410    0.93100    0.05670    1.000
    H69      H        0.18320    0.90890    0.08740    1.000
    C119     C        0.23780    0.93280    0.04570    1.000
    C120     C        0.15660    0.99050    0.97920    1.000
    H70      H        0.13140    0.01800    0.94650    1.000
    C121     C        0.01380    0.00080    0.95684    1.000
    H71      H        0.02330    0.00150    0.92770    1.000
    C122     C        0.06470    0.98340    0.00659    1.000
    C123     C        0.05150    0.98250    0.05036    1.000
    H72      H        0.08590    0.97090    0.08410    1.000
    C124     C        0.45440    0.17610    0.35273    1.000
    H73      H        0.50010    0.17300    0.36120    1.000
    C125     C        0.40260    0.15860    0.30522    1.000
    H74      H        0.40670    0.14100    0.27500    1.000
    C126     C        0.35970    0.19480    0.35739    1.000
    H75      H        0.32910    0.20720    0.37090    1.000
    C127     C        0.46330    0.22440    0.44103    1.000
    C128     C        0.43470    0.20710    0.47493    1.000
    C129     C        0.53300    0.27360    0.54618    1.000
    C130     C        0.56130    0.28790    0.51208    1.000
    H76      H        0.60400    0.31390    0.52450    1.000
    C131     C        0.52620    0.26370    0.45925    1.000
    H77      H        0.54500    0.27400    0.43600    1.000
    C132     C        0.53930    0.32600    0.63335    1.000
    H78      H        0.49360    0.33230    0.62390    1.000
    C133     C        0.59090    0.34170    0.68140    1.000
    C134     C        0.63480    0.29980    0.63100    1.000
    H79      H        0.66610    0.28480    0.61840    1.000
    C135     C        0.47010    0.23230    0.52836    1.000
    C136     C        0.39490    0.00160    0.15821    1.000
    H80      H        0.39500    0.16900    0.46090    1.000
    H81      H        0.44900    0.21400    0.54820    1.000
    H82      H        0.41170    0.05000    0.14980    1.000
    H83      H        0.59000    0.35600    0.71320    1.000
    H84      H        0.27400    0.91500    0.06200    1.000
    Ni9      Ni       0.24600    0.82840    0.74428    1.000
    Ni10     Ni       0.28102    0.00577    0.46059    1.000
    O33      O        0.32688    0.83501    0.66539    1.000
    O34      O        0.27692    0.91707    0.70439    1.000
    O35      O        0.28698    0.23962    0.71597    1.000
    O36      O        0.33571    0.32498    0.67718    1.000
    O37      O        0.71609    0.07218    0.65146    1.000
    O38      O        0.65278    0.01130    0.57211    1.000
    O39      O        0.36478    0.05038    0.52755    1.000
    O40      O        0.41188    0.91190    0.54990    1.000
    N25      N        0.22033    0.03090    0.49717    1.000
    N26      N        0.13179    0.03190    0.51353    1.000
    N27      N        0.34241    0.82940    0.80790    1.000
    N28      N        0.42720    0.80070    0.88616    1.000
    N29      N        0.56775    0.70100    0.10108    1.000
    N30      N        0.65109    0.67550    0.18056    1.000
    C137     C        0.34360    0.99680    0.67377    1.000
    C138     C        0.32060    0.07940    0.68421    1.000
    H85      H        0.28610    0.07950    0.69460    1.000
    C139     C        0.34880    0.16240    0.67924    1.000
    C140     C        0.40130    0.16090    0.66444    1.000
    H86      H        0.42080    0.21580    0.66150    1.000
    C141     C        0.42480    0.07930    0.65409    1.000
    C142     C        0.48400    0.07550    0.64129    1.000
    C143     C        0.54690    0.10640    0.67937    1.000
    H87      H        0.55050    0.13360    0.71050    1.000
    C144     C        0.60370    0.09670    0.67088    1.000
    H88      H        0.64550    0.11630    0.69660    1.000
    C145     C        0.59850    0.05770    0.62402    1.000
    C146     C        0.53620    0.02720    0.58622    1.000
    H89      H        0.53260    0.00050    0.55500    1.000
    C147     C        0.47860    0.03630    0.59477    1.000
    C148     C        0.31330    0.90960    0.68119    1.000
    C149     C        0.32220    0.24930    0.69168    1.000
    C150     C        0.65990    0.04640    0.61464    1.000
    C151     C        0.41300    0.99630    0.55419    1.000
    C152     C        0.18410    0.06900    0.55670    1.000
    H90      H        0.18320    0.09110    0.58740    1.000
    C153     C        0.23780    0.06720    0.54570    1.000
    C154     C        0.15660    0.00950    0.47920    1.000
    H91      H        0.13140    0.98200    0.44650    1.000
    C155     C        0.01380    0.99920    0.45684    1.000
    H92      H        0.02330    0.99850    0.42770    1.000
    C156     C        0.06470    0.01660    0.50659    1.000
    C157     C        0.05150    0.01750    0.55036    1.000
    H93      H        0.08590    0.02910    0.58410    1.000
    C158     C        0.45440    0.82390    0.85273    1.000
    H94      H        0.50010    0.82700    0.86120    1.000
    C159     C        0.40260    0.84140    0.80522    1.000
    H95      H        0.40670    0.85900    0.77500    1.000
    C160     C        0.35970    0.80520    0.85739    1.000
    H96      H        0.32910    0.79280    0.87090    1.000
    C161     C        0.46330    0.77560    0.94103    1.000
    C162     C        0.43470    0.79290    0.97493    1.000
    C163     C        0.53300    0.72640    0.04618    1.000
    C164     C        0.56130    0.71210    0.01208    1.000
    H97      H        0.60400    0.68610    0.02450    1.000
    C165     C        0.52620    0.73630    0.95925    1.000
    H98      H        0.54500    0.72600    0.93600    1.000
    C166     C        0.53930    0.67400    0.13335    1.000
    H99      H        0.49360    0.66770    0.12390    1.000
    C167     C        0.59090    0.65830    0.18140    1.000
    C168     C        0.63480    0.70020    0.13100    1.000
    H100     H        0.66610    0.71520    0.11840    1.000
    C169     C        0.47010    0.76770    0.02836    1.000
    C170     C        0.39490    0.99840    0.65821    1.000
    H101     H        0.39500    0.83100    0.96090    1.000
    H102     H        0.44900    0.78600    0.04820    1.000
    H103     H        0.41170    0.95000    0.64980    1.000
    H104     H        0.59000    0.64400    0.21320    1.000
    H105     H        0.27400    0.08500    0.56200    1.000
    Ni11     Ni       0.25400    0.32840    0.75572    1.000
    Ni12     Ni       0.21898    0.50577    0.03941    1.000
    O41      O        0.17312    0.33501    0.83461    1.000
    O42      O        0.22308    0.41707    0.79561    1.000
    O43      O        0.21302    0.73962    0.78403    1.000
    O44      O        0.16429    0.82498    0.82282    1.000
    O45      O        0.78391    0.57218    0.84854    1.000
    O46      O        0.84722    0.51130    0.92789    1.000
    O47      O        0.13522    0.55038    0.97245    1.000
    O48      O        0.08812    0.41190    0.95010    1.000
    N31      N        0.27967    0.53090    0.00283    1.000
    N32      N        0.36821    0.53190    0.98647    1.000
    N33      N        0.15759    0.32940    0.69210    1.000
    N34      N        0.07280    0.30070    0.61384    1.000
    N35      N        0.93225    0.20100    0.39892    1.000
    N36      N        0.84891    0.17550    0.31944    1.000
    C171     C        0.15640    0.49680    0.82623    1.000
    C172     C        0.17940    0.57940    0.81579    1.000
    H106     H        0.21390    0.57950    0.80540    1.000
    C173     C        0.15120    0.66240    0.82076    1.000
    C174     C        0.09870    0.66090    0.83556    1.000
    H107     H        0.07920    0.71580    0.83850    1.000
    C175     C        0.07520    0.57930    0.84591    1.000
    C176     C        0.01600    0.57550    0.85871    1.000
    C177     C        0.95310    0.60640    0.82063    1.000
    H108     H        0.94950    0.63360    0.78950    1.000
    C178     C        0.89630    0.59670    0.82912    1.000
    H109     H        0.85450    0.61630    0.80340    1.000
    C179     C        0.90150    0.55770    0.87598    1.000
    C180     C        0.96380    0.52720    0.91378    1.000
    H110     H        0.96740    0.50050    0.94500    1.000
    C181     C        0.02140    0.53630    0.90523    1.000
    C182     C        0.18670    0.40960    0.81881    1.000
    C183     C        0.17780    0.74930    0.80832    1.000
    C184     C        0.84010    0.54640    0.88536    1.000
    C185     C        0.08700    0.49630    0.94581    1.000
    C186     C        0.31590    0.56900    0.94330    1.000
    H111     H        0.31680    0.59110    0.91260    1.000
    C187     C        0.26220    0.56720    0.95430    1.000
    C188     C        0.34340    0.50950    0.02080    1.000
    H112     H        0.36860    0.48200    0.05350    1.000
    C189     C        0.48620    0.49920    0.04316    1.000
    H113     H        0.47670    0.49850    0.07230    1.000
    C190     C        0.43530    0.51660    0.99341    1.000
    C191     C        0.44850    0.51750    0.94964    1.000
    H114     H        0.41410    0.52910    0.91590    1.000
    C192     C        0.04560    0.32390    0.64727    1.000
    H115     H        0.99990    0.32700    0.63880    1.000
    C193     C        0.09740    0.34140    0.69478    1.000
    H116     H        0.09330    0.35900    0.72500    1.000
    C194     C        0.14030    0.30520    0.64261    1.000
    H117     H        0.17090    0.29280    0.62910    1.000
    C195     C        0.03670    0.27560    0.55897    1.000
    C196     C        0.06530    0.29290    0.52507    1.000
    C197     C        0.96700    0.22640    0.45382    1.000
    C198     C        0.93870    0.21210    0.48792    1.000
    H118     H        0.89600    0.18610    0.47550    1.000
    C199     C        0.97380    0.23630    0.54075    1.000
    H119     H        0.95500    0.22600    0.56400    1.000
    C200     C        0.96070    0.17400    0.36665    1.000
    H120     H        0.00640    0.16770    0.37610    1.000
    C201     C        0.90910    0.15830    0.31860    1.000
    C202     C        0.86520    0.20020    0.36900    1.000
    H121     H        0.83390    0.21520    0.38160    1.000
    C203     C        0.02990    0.26770    0.47164    1.000
    C204     C        0.10510    0.49840    0.84179    1.000
    H122     H        0.10500    0.33100    0.53910    1.000
    H123     H        0.05100    0.28600    0.45180    1.000
    H124     H        0.08830    0.45000    0.85020    1.000
    H125     H        0.91000    0.14400    0.28680    1.000
    H126     H        0.22600    0.58500    0.93800    1.000
    Ni13     Ni       0.75400    0.17160    0.25572    1.000
    Ni14     Ni       0.71898    0.99423    0.53941    1.000
    O49      O        0.67312    0.16499    0.33461    1.000
    O50      O        0.72308    0.08293    0.29561    1.000
    O51      O        0.71302    0.76038    0.28403    1.000
    O52      O        0.66429    0.67502    0.32282    1.000
    O53      O        0.28391    0.92782    0.34854    1.000
    O54      O        0.34722    0.98870    0.42789    1.000
    O55      O        0.63522    0.94962    0.47245    1.000
    O56      O        0.58812    0.08810    0.45010    1.000
    N37      N        0.77967    0.96910    0.50283    1.000
    N38      N        0.86821    0.96810    0.48647    1.000
    N39      N        0.65759    0.17060    0.19210    1.000
    N40      N        0.57280    0.19930    0.11384    1.000
    N41      N        0.43225    0.29900    0.89892    1.000
    N42      N        0.34891    0.32450    0.81944    1.000
    C205     C        0.65640    0.00320    0.32623    1.000
    C206     C        0.67940    0.92060    0.31579    1.000
    H127     H        0.71390    0.92050    0.30540    1.000
    C207     C        0.65120    0.83760    0.32076    1.000
    C208     C        0.59870    0.83910    0.33556    1.000
    H128     H        0.57920    0.78420    0.33850    1.000
    C209     C        0.57520    0.92070    0.34591    1.000
    C210     C        0.51600    0.92450    0.35871    1.000
    C211     C        0.45310    0.89360    0.32063    1.000
    H129     H        0.44950    0.86640    0.28950    1.000
    C212     C        0.39630    0.90330    0.32912    1.000
    H130     H        0.35450    0.88370    0.30340    1.000
    C213     C        0.40150    0.94230    0.37598    1.000
    C214     C        0.46380    0.97280    0.41378    1.000
    H131     H        0.46740    0.99950    0.44500    1.000
    C215     C        0.52140    0.96370    0.40523    1.000
    C216     C        0.68670    0.09040    0.31881    1.000
    C217     C        0.67780    0.75070    0.30832    1.000
    C218     C        0.34010    0.95360    0.38536    1.000
    C219     C        0.58700    0.00370    0.44581    1.000
    C220     C        0.81590    0.93100    0.44330    1.000
    H132     H        0.81680    0.90890    0.41260    1.000
    C221     C        0.76220    0.93280    0.45430    1.000
    C222     C        0.84340    0.99050    0.52080    1.000
    H133     H        0.86860    0.01800    0.55350    1.000
    C223     C        0.98620    0.00080    0.54316    1.000
    H134     H        0.97670    0.00150    0.57230    1.000
    C224     C        0.93530    0.98340    0.49341    1.000
    C225     C        0.94850    0.98250    0.44964    1.000
    H135     H        0.91410    0.97090    0.41590    1.000
    C226     C        0.54560    0.17610    0.14727    1.000
    H136     H        0.49990    0.17300    0.13880    1.000
    C227     C        0.59740    0.15860    0.19478    1.000
    H137     H        0.59330    0.14100    0.22500    1.000
    C228     C        0.64030    0.19480    0.14261    1.000
    H138     H        0.67090    0.20720    0.12910    1.000
    C229     C        0.53670    0.22440    0.05897    1.000
    C230     C        0.56530    0.20710    0.02507    1.000
    C231     C        0.46700    0.27360    0.95382    1.000
    C232     C        0.43870    0.28790    0.98792    1.000
    H139     H        0.39600    0.31390    0.97550    1.000
    C233     C        0.47380    0.26370    0.04075    1.000
    H140     H        0.45500    0.27400    0.06400    1.000
    C234     C        0.46070    0.32600    0.86665    1.000
    H141     H        0.50640    0.33230    0.87610    1.000
    C235     C        0.40910    0.34170    0.81860    1.000
    C236     C        0.36520    0.29980    0.86900    1.000
    H142     H        0.33390    0.28480    0.88160    1.000
    C237     C        0.52990    0.23230    0.97164    1.000
    C238     C        0.60510    0.00160    0.34179    1.000
    H143     H        0.60500    0.16900    0.03910    1.000
    H144     H        0.55100    0.21400    0.95180    1.000
    H145     H        0.58830    0.05000    0.35020    1.000
    H146     H        0.41000    0.35600    0.78680    1.000
    H147     H        0.72600    0.91500    0.43800    1.000
    Ni15     Ni       0.74600    0.67160    0.24428    1.000
    Ni16     Ni       0.78102    0.49423    0.96059    1.000
    O57      O        0.82688    0.66499    0.16539    1.000
    O58      O        0.77692    0.58293    0.20439    1.000
    O59      O        0.78698    0.26038    0.21597    1.000
    O60      O        0.83571    0.17502    0.17718    1.000
    O61      O        0.21609    0.42782    0.15146    1.000
    O62      O        0.15278    0.48870    0.07211    1.000
    O63      O        0.86478    0.44962    0.02755    1.000
    O64      O        0.91188    0.58810    0.04990    1.000
    N43      N        0.72033    0.46910    0.99717    1.000
    N44      N        0.63179    0.46810    0.01353    1.000
    N45      N        0.84241    0.67060    0.30790    1.000
    N46      N        0.92720    0.69930    0.38616    1.000
    N47      N        0.06775    0.79900    0.60108    1.000
    N48      N        0.15109    0.82450    0.68056    1.000
    C239     C        0.84360    0.50320    0.17377    1.000
    C240     C        0.82060    0.42060    0.18421    1.000
    H148     H        0.78610    0.42050    0.19460    1.000
    C241     C        0.84880    0.33760    0.17924    1.000
    C242     C        0.90130    0.33910    0.16444    1.000
    H149     H        0.92080    0.28420    0.16150    1.000
    C243     C        0.92480    0.42070    0.15409    1.000
    C244     C        0.98400    0.42450    0.14129    1.000
    C245     C        0.04690    0.39360    0.17937    1.000
    H150     H        0.05050    0.36640    0.21050    1.000
    C246     C        0.10370    0.40330    0.17088    1.000
    H151     H        0.14550    0.38370    0.19660    1.000
    C247     C        0.09850    0.44230    0.12402    1.000
    C248     C        0.03620    0.47280    0.08622    1.000
    H152     H        0.03260    0.49950    0.05500    1.000
    C249     C        0.97860    0.46370    0.09477    1.000
    C250     C        0.81330    0.59040    0.18119    1.000
    C251     C        0.82220    0.25070    0.19168    1.000
    C252     C        0.15990    0.45360    0.11464    1.000
    C253     C        0.91300    0.50370    0.05419    1.000
    C254     C        0.68410    0.43100    0.05670    1.000
    H153     H        0.68320    0.40890    0.08740    1.000
    C255     C        0.73780    0.43280    0.04570    1.000
    C256     C        0.65660    0.49050    0.97920    1.000
    H154     H        0.63140    0.51800    0.94650    1.000
    C257     C        0.51380    0.50080    0.95684    1.000
    H155     H        0.52330    0.50150    0.92770    1.000
    C258     C        0.56470    0.48340    0.00659    1.000
    C259     C        0.55150    0.48250    0.05036    1.000
    H156     H        0.58590    0.47090    0.08410    1.000
    C260     C        0.95440    0.67610    0.35273    1.000
    H157     H        0.00010    0.67300    0.36120    1.000
    C261     C        0.90260    0.65860    0.30522    1.000
    H158     H        0.90670    0.64100    0.27500    1.000
    C262     C        0.85970    0.69480    0.35739    1.000
    H159     H        0.82910    0.70720    0.37090    1.000
    C263     C        0.96330    0.72440    0.44103    1.000
    C264     C        0.93470    0.70710    0.47493    1.000
    C265     C        0.03300    0.77360    0.54618    1.000
    C266     C        0.06130    0.78790    0.51208    1.000
    H160     H        0.10400    0.81390    0.52450    1.000
    C267     C        0.02620    0.76370    0.45925    1.000
    H161     H        0.04500    0.77400    0.43600    1.000
    C268     C        0.03930    0.82600    0.63335    1.000
    H162     H        0.99360    0.83230    0.62390    1.000
    C269     C        0.09090    0.84170    0.68140    1.000
    C270     C        0.13480    0.79980    0.63100    1.000
    H163     H        0.16610    0.78480    0.61840    1.000
    C271     C        0.97010    0.73230    0.52836    1.000
    C272     C        0.89490    0.50160    0.15821    1.000
    H164     H        0.89500    0.66900    0.46090    1.000
    H165     H        0.94900    0.71400    0.54820    1.000
    H166     H        0.91170    0.55000    0.14980    1.000
    H167     H        0.09000    0.85600    0.71320    1.000
    H168     H        0.77400    0.41500    0.06200    1.000
