data_functionalizedCrystal
_audit_creation_method	'EQeq! by Chris Wilmer'
_symmetry_space_group_name_H-M	'P1'
_symmetry_Int_Tables_number	1
_symmetry_cell_setting	triclinic
loop_
_symmetry_equiv_pos_as_xyz
  x,y,z
_cell_length_a	14.8779
_cell_length_b	13.0633
_cell_length_c	15.4191
_cell_angle_alpha	90
_cell_angle_beta	110.745
_cell_angle_gamma	90
loop_
_atom_site_label
_atom_site_type_symbol
_atom_site_fract_x
_atom_site_fract_y
_atom_site_fract_z
_atom_site_charge
Mof_Al	Al	0.3773	0.30755	0.12409	4.855
Mof_Al	Al	0.74283	0.37415	0.07967	4.955
Mof_Mn	Mn	0.25717	0.62585	0.92033	1.679
Mof_Al	Al	0.08384	0.1094	0.16377	4.339
Mof_Mn	Mn	0.41616	0.6094	0.33623	1.308
Mof_P 	P 	0.24469	0.11429	0.07551	1.255
Mof_P 	P 	0.87413	0.19095	0.12656	1.032
Mof_P 	P 	0.58877	0.36602	0.17098	1.367
Mof_O 	O 	0.9731	0.1878	0.1201	-1.297
Mof_O 	O 	0.3368	0.1771	0.1088	-1.453
Mof_O 	O 	0.6579	0.3281	0.1263	-1.549
Mof_O 	O 	0.8685	0.1322	0.2079	-0.676
Mof_O 	O 	0.5012	0.2962	0.1396	-1.554
Mof_O 	O 	0.1746	0.1564	0.1162	-1.441
Mof_O 	O 	0.637	0.3646	0.2755	-1.496
Mof_O 	O 	0.8496	0.3039	0.1304	-1.451
Mof_O 	O 	0.7981	0.1436	0.0421	-0.836
Mof_O 	O 	0.5586	0.4741	0.1405	-1.502
Mof_O 	O 	0.2719	0.0043	0.1063	-1.397
Mof_O 	O 	0.2016	0.1167	0.9706	-1.397
Mof_Al	Al	0.8773	0.80755	0.12409	4.776
Mof_Al	Al	0.24283	0.87415	0.07967	4.566
Mof_Mn	Mn	0.75717	0.12585	0.92033	1.802
Mof_Al	Al	0.58384	0.6094	0.16377	4.071
Mof_Mn	Mn	0.91616	0.1094	0.33623	1.441
Mof_P 	P 	0.74469	0.61429	0.07551	1.257
Mof_P 	P 	0.37413	0.69095	0.12656	0.997
Mof_P 	P 	0.08877	0.86602	0.17098	1.358
Mof_O 	O 	0.4731	0.6878	0.1201	-1.265
Mof_O 	O 	0.8368	0.6771	0.1088	-1.451
Mof_O 	O 	0.1579	0.8281	0.1263	-1.485
Mof_O 	O 	0.3685	0.6322	0.2079	-0.682
Mof_O 	O 	0.0012	0.7962	0.1396	-1.543
Mof_O 	O 	0.6746	0.6564	0.1162	-1.408
Mof_O 	O 	0.137	0.8646	0.2755	-1.511
Mof_O 	O 	0.3496	0.8039	0.1304	-1.387
Mof_O 	O 	0.2981	0.6436	0.0421	-0.838
Mof_O 	O 	0.0586	0.9741	0.1405	-1.612
Mof_O 	O 	0.7719	0.5043	0.1063	-1.549
Mof_O 	O 	0.7016	0.6167	0.9706	-1.416
Mof_Al	Al	0.6227	0.30755	0.37591	4.776
Mof_Al	Al	0.25717	0.37415	0.42033	5.358
Mof_Mn	Mn	0.74283	0.62585	0.57967	1.511
Mof_P 	P 	0.75531	0.11429	0.42449	1.233
Mof_P 	P 	0.12587	0.19095	0.37344	1.058
Mof_P 	P 	0.41123	0.36602	0.32902	1.242
Mof_O 	O 	0.0269	0.1878	0.3799	-0.667
Mof_O 	O 	0.6632	0.1771	0.3912	-1.393
Mof_O 	O 	0.3421	0.3281	0.3737	-1.565
Mof_O 	O 	0.1315	0.1322	0.2921	-1.245
Mof_O 	O 	0.4988	0.2962	0.3604	-1.474
Mof_O 	O 	0.8254	0.1564	0.3838	-0.771
Mof_O 	O 	0.363	0.3646	0.2245	-1.487
Mof_O 	O 	0.1504	0.3039	0.3696	-1.538
Mof_O 	O 	0.2019	0.1436	0.4579	-0.722
Mof_O 	O 	0.4414	0.4741	0.3595	-0.824
Mof_O 	O 	0.7281	0.0043	0.3937	-1.386
Mof_O 	O 	0.7984	0.1167	0.5294	-1.421
Mof_Al	Al	0.1227	0.80755	0.37591	4.743
Mof_Al	Al	0.75717	0.87415	0.42033	4.947
Mof_Mn	Mn	0.24283	0.12585	0.57967	1.634
Mof_P 	P 	0.25531	0.61429	0.42449	1.244
Mof_P 	P 	0.62587	0.69095	0.37344	1.02
Mof_P 	P 	0.91123	0.86602	0.32902	1.224
Mof_O 	O 	0.5269	0.6878	0.3799	-0.655
Mof_O 	O 	0.1632	0.6771	0.3912	-1.402
Mof_O 	O 	0.8421	0.8281	0.3737	-1.495
Mof_O 	O 	0.6315	0.6322	0.2921	-1.216
Mof_O 	O 	0.9988	0.7962	0.3604	-1.48
Mof_O 	O 	0.3254	0.6564	0.3838	-0.773
Mof_O 	O 	0.863	0.8646	0.2245	-1.494
Mof_O 	O 	0.6504	0.8039	0.3696	-1.467
Mof_O 	O 	0.7019	0.6436	0.4579	-0.716
Mof_O 	O 	0.9414	0.9741	0.3595	-0.915
Mof_O 	O 	0.2281	0.5043	0.3937	-1.552
Mof_O 	O 	0.2984	0.6167	0.5294	-1.447
Mof_Al	Al	0.6227	0.69245	0.87591	4.85
Mof_Al	Al	0.91616	0.8906	0.83623	3.845
Mof_Mn	Mn	0.58384	0.3906	0.66377	1.306
Mof_P 	P 	0.75531	0.88571	0.92449	1.287
Mof_P 	P 	0.12587	0.80905	0.87344	1.005
Mof_P 	P 	0.41123	0.63398	0.82902	1.206
Mof_O 	O 	0.0269	0.8122	0.8799	-1.185
Mof_O 	O 	0.6632	0.8229	0.8912	-1.415
Mof_O 	O 	0.3421	0.6719	0.8737	-0.715
Mof_O 	O 	0.1315	0.8678	0.7921	-0.653
Mof_O 	O 	0.4988	0.7038	0.8604	-1.494
Mof_O 	O 	0.8254	0.8436	0.8838	-1.291
Mof_O 	O 	0.363	0.6354	0.7245	-1.433
Mof_O 	O 	0.1504	0.6961	0.8696	-0.65
Mof_O 	O 	0.2019	0.8564	0.9579	-1.327
Mof_O 	O 	0.4414	0.5259	0.8595	-1.419
Mof_O 	O 	0.7281	0.9957	0.8937	-0.821
Mof_O 	O 	0.7984	0.8833	0.0294	-1.588
Mof_Al	Al	0.1227	0.19245	0.87591	4.881
Mof_Al	Al	0.41616	0.3906	0.83623	4.195
Mof_Mn	Mn	0.08384	0.8906	0.66377	1.204
Mof_P 	P 	0.25531	0.38571	0.92449	1.303
Mof_P 	P 	0.62587	0.30905	0.87344	1.046
Mof_P 	P 	0.91123	0.13398	0.82902	1.197
Mof_O 	O 	0.5269	0.3122	0.8799	-1.247
Mof_O 	O 	0.1632	0.3229	0.8912	-1.412
Mof_O 	O 	0.8421	0.1719	0.8737	-0.716
Mof_O 	O 	0.6315	0.3678	0.7921	-0.651
Mof_O 	O 	0.9988	0.2038	0.8604	-1.489
Mof_O 	O 	0.3254	0.3436	0.8838	-1.341
Mof_O 	O 	0.863	0.1354	0.7245	-1.412
Mof_O 	O 	0.6504	0.1961	0.8696	-0.658
Mof_O 	O 	0.7019	0.3564	0.9579	-1.392
Mof_O 	O 	0.9414	0.0259	0.8595	-1.275
Mof_O 	O 	0.2281	0.4957	0.8937	-0.728
Mof_O 	O 	0.2984	0.3833	0.0294	-1.58
Mof_Al	Al	0.3773	0.69245	0.62409	4.673
Mof_P 	P 	0.24469	0.88571	0.57551	1.05
Mof_P 	P 	0.87413	0.80905	0.62656	1.037
Mof_P 	P 	0.58877	0.63398	0.67098	1.048
Mof_O 	O 	0.9731	0.8122	0.6201	-0.682
Mof_O 	O 	0.3368	0.8229	0.6088	-1.363
Mof_O 	O 	0.6579	0.6719	0.6263	-0.669
Mof_O 	O 	0.8685	0.8678	0.7079	-1.178
Mof_O 	O 	0.5012	0.7038	0.6396	-1.442
Mof_O 	O 	0.1746	0.8436	0.6162	-0.701
Mof_O 	O 	0.637	0.6354	0.7755	-1.422
Mof_O 	O 	0.8496	0.6961	0.6304	-0.669
Mof_O 	O 	0.7981	0.8564	0.5421	-1.467
Mof_O 	O 	0.5586	0.5259	0.6405	-0.749
Mof_O 	O 	0.2719	0.9957	0.6063	-0.73
Mof_O 	O 	0.2016	0.8833	0.4706	-1.419
Mof_Al	Al	0.8773	0.19245	0.62409	4.724
Mof_P 	P 	0.74469	0.38571	0.57551	1.052
Mof_P 	P 	0.37413	0.30905	0.62656	1.08
Mof_P 	P 	0.08877	0.13398	0.67098	1.051
Mof_O 	O 	0.4731	0.3122	0.6201	-0.684
Mof_O 	O 	0.8368	0.3229	0.6088	-1.36
Mof_O 	O 	0.1579	0.1719	0.6263	-0.674
Mof_O 	O 	0.3685	0.3678	0.7079	-1.216
Mof_O 	O 	0.0012	0.2038	0.6396	-1.446
Mof_O 	O 	0.6746	0.3436	0.6162	-0.701
Mof_O 	O 	0.137	0.1354	0.7755	-1.406
Mof_O 	O 	0.3496	0.1961	0.6304	-0.679
Mof_O 	O 	0.2981	0.3564	0.5421	-1.53
Mof_O 	O 	0.0586	0.0259	0.6405	-0.669
Mof_O 	O 	0.7719	0.4957	0.6063	-0.638
Mof_O 	O 	0.7016	0.3833	0.4706	-1.401
_end
