# CIF file generated by openbabel 3.1.0, see https://openbabel.org
data_I
_chemical_name_common 'image0'
_cell_length_a 12.789
_cell_length_b 12.789
_cell_length_c 12.789
_cell_angle_alpha 90
_cell_angle_beta 90
_cell_angle_gamma 90
_space_group_name_H-M_alt 'P 1'
_space_group_name_Hall 'P 1'
loop_
    _symmetry_equiv_pos_as_xyz
    x,y,z
loop_
    _atom_site_label
    _atom_site_type_symbol
    _atom_site_fract_x
    _atom_site_fract_y
    _atom_site_fract_z
    _atom_site_occupancy
    Cs1      Cs       0.50000    0.50000    0.50000    1.000
    Cs2      Cs       0.50000    0.00000    0.00000    1.000
    Cs3      Cs       0.00000    0.50000    0.00000    1.000
    Cs4      Cs       0.00000    0.00000    0.50000    1.000
    Cr1      Cr       0.00000    0.50000    0.50000    1.000
    Cr2      Cr       0.00000    0.00000    0.00000    1.000
    Cr3      Cr       0.50000    0.00000    0.50000    1.000
    Cr4      Cr       0.50000    0.50000    0.00000    1.000
    N1       N        0.25080    0.50000    0.50000    1.000
    C1       C        0.16120    0.50000    0.50000    1.000
    N2       N        0.25080    0.00000    0.00000    1.000
    C2       C        0.16120    0.00000    0.00000    1.000
    N3       N        0.75080    0.50000    0.00000    1.000
    C3       C        0.66120    0.50000    0.00000    1.000
    N4       N        0.75080    0.00000    0.50000    1.000
    C4       C        0.66120    0.00000    0.50000    1.000
    N5       N        0.74920    0.50000    0.50000    1.000
    C5       C        0.83880    0.50000    0.50000    1.000
    N6       N        0.74920    0.00000    0.00000    1.000
    C6       C        0.83880    0.00000    0.00000    1.000
    N7       N        0.24920    0.50000    0.00000    1.000
    C7       C        0.33880    0.50000    0.00000    1.000
    N8       N        0.24920    0.00000    0.50000    1.000
    C8       C        0.33880    0.00000    0.50000    1.000
    N9       N        0.50000    0.25080    0.50000    1.000
    C9       C        0.50000    0.16120    0.50000    1.000
    N10      N        0.50000    0.75080    0.00000    1.000
    C10      C        0.50000    0.66120    0.00000    1.000
    N11      N        0.00000    0.25080    0.00000    1.000
    C11      C        0.00000    0.16120    0.00000    1.000
    N12      N        0.00000    0.75080    0.50000    1.000
    C12      C        0.00000    0.66120    0.50000    1.000
    N13      N        0.50000    0.74920    0.50000    1.000
    C13      C        0.50000    0.83880    0.50000    1.000
    N14      N        0.50000    0.24920    0.00000    1.000
    C14      C        0.50000    0.33880    0.00000    1.000
    N15      N        0.00000    0.74920    0.00000    1.000
    C15      C        0.00000    0.83880    0.00000    1.000
    N16      N        0.00000    0.24920    0.50000    1.000
    C16      C        0.00000    0.33880    0.50000    1.000
    N17      N        0.50000    0.50000    0.25080    1.000
    C17      C        0.50000    0.50000    0.16120    1.000
    N18      N        0.50000    0.00000    0.75080    1.000
    C18      C        0.50000    0.00000    0.66120    1.000
    N19      N        0.00000    0.50000    0.75080    1.000
    C19      C        0.00000    0.50000    0.66120    1.000
    N20      N        0.00000    0.00000    0.25080    1.000
    C20      C        0.00000    0.00000    0.16120    1.000
    N21      N        0.50000    0.50000    0.74920    1.000
    C21      C        0.50000    0.50000    0.83880    1.000
    N22      N        0.50000    0.00000    0.24920    1.000
    C22      C        0.50000    0.00000    0.33880    1.000
    N23      N        0.00000    0.50000    0.24920    1.000
    C23      C        0.00000    0.50000    0.33880    1.000
    N24      N        0.00000    0.00000    0.74920    1.000
    C24      C        0.00000    0.00000    0.83880    1.000
