data_functionalizedCrystal
_audit_creation_method	'EQeq! by Chris Wilmer'
_symmetry_space_group_name_H-M	'P1'
_symmetry_Int_Tables_number	1
_symmetry_cell_setting	triclinic
loop_
_symmetry_equiv_pos_as_xyz
  x,y,z
_cell_length_a	8.6736
_cell_length_b	9.7813
_cell_length_c	22.7964
_cell_angle_alpha	90
_cell_angle_beta	90
_cell_angle_gamma	90
loop_
_atom_site_label
_atom_site_type_symbol
_atom_site_fract_x
_atom_site_fract_y
_atom_site_fract_z
_atom_site_charge
Mof_Y 	Y 	0.04	0.8591	0.74424	1.556
Mof_P 	P 	0.9814	0.1102	0.8702	0.482
Mof_P 	P 	0.3047	0.1399	0.7204	0.472
Mof_P 	P 	0.7815	0.099	0.6663	0.47
Mof_O 	O 	0.9253	0.2278	0.8386	-0.407
Mof_O 	O 	0.9876	0.99	0.8275	-0.392
Mof_O 	O 	0.1377	0.1187	0.8983	-0.232
Mof_O 	O 	0.1718	0.238	0.7253	-0.406
Mof_O 	O 	0.2477	0.9979	0.7235	-0.395
Mof_O 	O 	0.384	0.1686	0.6611	-0.193
Mof_O 	O 	0.8831	0.9854	0.6834	-0.404
Mof_O 	O 	0.7827	0.2072	0.7137	-0.387
Mof_O 	O 	0.6216	0.0519	0.6519	-0.206
Mof_N 	N 	0.6722	0.0737	0.911	-0.1
Mof_N 	N 	0.3985	0.1358	0.8464	-0.101
Mof_N 	N 	0.9151	0.9111	0.45	-0.06
Mof_C 	C 	0.8357	0.0619	0.9301	0.008
Mof_C 	C 	0.6254	0.9917	0.8585	0.053
Mof_C 	C 	0.455	0.9868	0.8569	0.053
Mof_C 	C 	0.451	0.2256	0.8935	0.073
Mof_C 	C 	0.6206	0.2221	0.8999	0.048
Mof_C 	C 	0.4438	0.1756	0.7833	0.001
Mof_C 	C 	0.8567	0.1843	0.5969	-0
Mof_C 	C 	0.883	0.1463	0.4905	0.058
Mof_C 	C 	0.926	0.9517	0.5576	0.026
Mof_C 	C 	0.863	0.0533	0.442	0.032
Mof_N 	N 	0.854	0.0876	0.5497	-0.05
Mof_Y 	Y 	0.04	0.1409	0.25576	1.555
Mof_P 	P 	0.9814	0.8898	0.1298	0.481
Mof_P 	P 	0.3047	0.8601	0.2796	0.472
Mof_P 	P 	0.7815	0.901	0.3337	0.47
Mof_O 	O 	0.9253	0.7722	0.1614	-0.407
Mof_O 	O 	0.9876	0.01	0.1725	-0.392
Mof_O 	O 	0.1377	0.8813	0.1017	-0.232
Mof_O 	O 	0.1718	0.762	0.2747	-0.406
Mof_O 	O 	0.2477	0.0021	0.2765	-0.395
Mof_O 	O 	0.384	0.8314	0.3389	-0.193
Mof_O 	O 	0.8831	0.0146	0.3166	-0.404
Mof_O 	O 	0.7827	0.7928	0.2863	-0.387
Mof_O 	O 	0.6216	0.9481	0.3481	-0.206
Mof_N 	N 	0.6722	0.9263	0.089	-0.1
Mof_N 	N 	0.3985	0.8642	0.1536	-0.101
Mof_N 	N 	0.9151	0.0889	0.55	-0.06
Mof_C 	C 	0.8357	0.9381	0.0699	0.008
Mof_C 	C 	0.6254	0.0083	0.1415	0.053
Mof_C 	C 	0.455	0.0132	0.1431	0.053
Mof_C 	C 	0.451	0.7744	0.1065	0.073
Mof_C 	C 	0.6206	0.7779	0.1001	0.048
Mof_C 	C 	0.4438	0.8244	0.2167	0.001
Mof_C 	C 	0.8567	0.8157	0.4031	-0
Mof_C 	C 	0.883	0.8537	0.5095	0.058
Mof_C 	C 	0.926	0.0483	0.4424	0.026
Mof_C 	C 	0.863	0.9467	0.558	0.032
Mof_N 	N 	0.854	0.9124	0.4503	-0.05
Mof_Y 	Y 	0.96	0.6409	0.24424	1.553
Mof_P 	P 	0.0186	0.3898	0.3702	0.482
Mof_P 	P 	0.6953	0.3601	0.2204	0.473
Mof_P 	P 	0.2185	0.401	0.1663	0.47
Mof_O 	O 	0.0747	0.2722	0.3386	-0.407
Mof_O 	O 	0.0124	0.51	0.3275	-0.392
Mof_O 	O 	0.8623	0.3813	0.3983	-0.232
Mof_O 	O 	0.8282	0.262	0.2253	-0.407
Mof_O 	O 	0.7523	0.5021	0.2235	-0.394
Mof_O 	O 	0.616	0.3314	0.1611	-0.193
Mof_O 	O 	0.1169	0.5146	0.1834	-0.404
Mof_O 	O 	0.2173	0.2928	0.2137	-0.386
Mof_O 	O 	0.3784	0.4481	0.1519	-0.205
Mof_N 	N 	0.3278	0.4263	0.411	-0.1
Mof_N 	N 	0.6015	0.3642	0.3464	-0.1
Mof_N 	N 	0.0849	0.5889	0.95	-0.059
Mof_C 	C 	0.1643	0.4381	0.4301	0.01
Mof_C 	C 	0.3746	0.5083	0.3585	0.053
Mof_C 	C 	0.545	0.5132	0.3569	0.053
Mof_C 	C 	0.549	0.2744	0.3935	0.073
Mof_C 	C 	0.3794	0.2779	0.3999	0.048
Mof_C 	C 	0.5562	0.3244	0.2833	0.001
Mof_C 	C 	0.1433	0.3157	0.0969	0
Mof_C 	C 	0.117	0.3537	0.9905	0.058
Mof_C 	C 	0.074	0.5483	0.0576	0.025
Mof_C 	C 	0.137	0.4467	0.942	0.033
Mof_N 	N 	0.146	0.4124	0.0497	-0.051
Mof_Y 	Y 	0.96	0.3591	0.75576	1.553
Mof_P 	P 	0.0186	0.6102	0.6298	0.482
Mof_P 	P 	0.6953	0.6399	0.7796	0.473
Mof_P 	P 	0.2185	0.599	0.8337	0.47
Mof_O 	O 	0.0747	0.7278	0.6614	-0.407
Mof_O 	O 	0.0124	0.49	0.6725	-0.392
Mof_O 	O 	0.8623	0.6187	0.6017	-0.232
Mof_O 	O 	0.8282	0.738	0.7747	-0.407
Mof_O 	O 	0.7523	0.4979	0.7765	-0.394
Mof_O 	O 	0.616	0.6686	0.8389	-0.193
Mof_O 	O 	0.1169	0.4854	0.8166	-0.404
Mof_O 	O 	0.2173	0.7072	0.7863	-0.386
Mof_O 	O 	0.3784	0.5519	0.8481	-0.205
Mof_N 	N 	0.3278	0.5737	0.589	-0.1
Mof_N 	N 	0.6015	0.6358	0.6536	-0.1
Mof_N 	N 	0.0849	0.4111	0.05	-0.059
Mof_C 	C 	0.1643	0.5619	0.5699	0.01
Mof_C 	C 	0.3746	0.4917	0.6415	0.053
Mof_C 	C 	0.545	0.4868	0.6431	0.053
Mof_C 	C 	0.549	0.7256	0.6065	0.073
Mof_C 	C 	0.3794	0.7221	0.6001	0.048
Mof_C 	C 	0.5562	0.6756	0.7167	0.001
Mof_C 	C 	0.1433	0.6843	0.9031	0
Mof_C 	C 	0.117	0.6463	0.0095	0.058
Mof_C 	C 	0.074	0.4517	0.9424	0.025
Mof_C 	C 	0.137	0.5533	0.058	0.033
Mof_N 	N 	0.146	0.5876	0.9503	-0.051
_end
