data_functionalizedCrystal
_audit_creation_method	'EQeq! by Chris Wilmer'
_symmetry_space_group_name_H-M	'P1'
_symmetry_Int_Tables_number	1
_symmetry_cell_setting	triclinic
loop_
_symmetry_equiv_pos_as_xyz
  x,y,z
_cell_length_a	11.4087
_cell_length_b	13.6584
_cell_length_c	24.023
_cell_angle_alpha	93.171
_cell_angle_beta	103.627
_cell_angle_gamma	112.671
loop_
_atom_site_label
_atom_site_type_symbol
_atom_site_fract_x
_atom_site_fract_y
_atom_site_fract_z
_atom_site_charge
Mof_Sm	Sm	0.64698	0.59774	0.96206	2.157
Mof_O 	O 	0.637	0.6107	0.8576	-0.471
Mof_O 	O 	0.6041	0.6896	0.035	-0.584
Mof_O 	O 	0.6268	0.7418	0.9118	-0.486
Mof_O 	O 	0.4335	0.59	0.0659	-0.578
Mof_C 	C 	0.6256	0.6997	0.8631	0.321
Mof_C 	C 	0.6134	0.7556	0.8115	-0.146
Mof_C 	C 	0.5767	0.8426	0.8155	0.09
Mof_C 	C 	0.6309	0.7239	0.7607	0.055
Mof_H 	H 	0.565	0.8656	0.8501	-0.009
Mof_C 	C 	0.5583	0.8931	0.7691	-0.215
Mof_C 	C 	0.6165	0.7753	0.7126	-0.149
Mof_H 	H 	0.6533	0.6655	0.7578	0.009
Mof_C 	C 	0.5799	0.8608	0.7175	0.06
Mof_C 	C 	0.516	0.9863	0.7631	0.514
Mof_H 	H 	0.6309	0.7532	0.6785	0.074
Mof_C 	C 	0.5592	0.9315	0.6756	0.06
Mof_C 	C 	0.3765	0.9513	0.7686	-0.97
Mof_C 	C 	0.5199	0.0031	0.7022	-0.215
Mof_C 	C 	0.611	0.0843	0.8088	-0.959
Mof_C 	C 	0.5636	0.9328	0.619	-0.131
Mof_H 	H 	0.348	0.0078	0.7599	0.312
Mof_H 	H 	0.3752	0.9385	0.8078	0.297
Mof_H 	H 	0.3186	0.8868	0.7415	0.311
Mof_C 	C 	0.4922	0.0796	0.6721	0.082
Mof_H 	H 	0.5801	0.1406	0.8055	0.297
Mof_H 	H 	0.6168	0.0654	0.8473	0.291
Mof_H 	H 	0.6961	0.1087	0.8019	0.291
Mof_C 	C 	0.5325	0.0061	0.5887	0.047
Mof_H 	H 	0.5875	0.8841	0.6012	0.073
Mof_C 	C 	0.4968	0.0795	0.6155	-0.133
Mof_H 	H 	0.4709	0.1299	0.6901	-0.006
Mof_H 	H 	0.5353	0.0069	0.5504	0.029
Mof_C 	C 	0.4636	0.1621	0.5819	0.338
Mof_O 	O 	0.4561	0.155	0.5289	-0.47
Mof_O 	O 	0.4396	0.2305	0.6078	-0.481
Mof_Sm	Sm	0.37573	0.29807	0.51771	2.066
Mof_O 	O 	0.1579	0.148	0.4851	-0.477
Mof_O 	O 	0.2682	0.1951	0.4212	-0.477
Mof_C 	C 	0.1641	0.1365	0.4341	0.345
Mof_C 	C 	0.0522	0.0524	0.3874	-0.118
Mof_C 	C 	0.0619	0.0537	0.3301	0.058
Mof_C 	C 	0.945	0.9793	0.4008	0.026
Mof_C 	C 	0.9561	0.9772	0.2872	-0.173
Mof_H 	H 	0.1353	0.1031	0.3213	0.011
Mof_C 	C 	0.8414	0.9028	0.3566	-0.107
Mof_H 	H 	0.9413	0.9806	0.4391	0.032
Mof_C 	C 	0.9427	0.9606	0.2218	0.459
Mof_C 	C 	0.8478	0.9025	0.3003	0.028
Mof_H 	H 	0.7686	0.8523	0.3653	0.053
Mof_C 	C 	0.946	0.0615	0.1953	-0.889
Mof_C 	C 	0.8075	0.8663	0.1999	-0.236
Mof_C 	C 	0.0516	0.9314	0.2096	-0.893
Mof_C 	C 	0.7558	0.8333	0.2462	0.09
Mof_H 	H 	0.9248	0.0447	0.1535	0.269
Mof_H 	H 	0.8817	0.0824	0.2056	0.279
Mof_H 	H 	0.0312	0.1196	0.2096	0.283
Mof_C 	C 	0.7418	0.8127	0.1442	0.154
Mof_H 	H 	0.0562	0.8731	0.2297	0.274
Mof_H 	H 	0.0335	0.9103	0.1683	0.267
Mof_H 	H 	0.1339	0.9929	0.2233	0.29
Mof_C 	C 	0.6317	0.7484	0.236	-0.203
Mof_H 	H 	0.7786	0.8337	0.1139	-0.047
Mof_C 	C 	0.6179	0.7255	0.1338	-0.254
Mof_C 	C 	0.5646	0.6948	0.1792	0.132
Mof_H 	H 	0.5945	0.7281	0.2664	0.085
Mof_C 	C 	0.5481	0.6648	0.0735	0.531
Mof_H 	H 	0.4825	0.6374	0.1718	-0.034
Mof_O 	O 	0.7726	0.5647	0.0481	-0.592
Mof_O 	O 	0.5843	0.4683	0.0654	-0.608
Mof_O 	O 	0.4528	0.5419	0.4236	-0.591
Mof_O 	O 	0.3173	0.418	0.4627	-0.592
Mof_C 	C 	0.3414	0.4707	0.4216	0.514
Mof_C 	C 	0.2297	0.4477	0.369	-0.256
Mof_C 	C 	0.1133	0.3558	0.358	0.137
Mof_C 	C 	0.2426	0.5213	0.3301	0.162
Mof_C 	C 	0.0081	0.3377	0.3105	-0.189
Mof_H 	H 	0.1061	0.3056	0.3831	-0.024
Mof_C 	C 	0.14	0.5058	0.2839	-0.235
Mof_H 	H 	0.3222	0.5811	0.3362	-0.034
Mof_C 	C 	0.0207	0.4142	0.2734	0.077
Mof_H 	H 	0.9303	0.2758	0.3033	0.077
Mof_C 	C 	0.1261	0.5762	0.2383	0.496
Mof_C 	C 	0.9238	0.4208	0.2226	0.077
Mof_C 	C 	0.2277	0.5883	0.203	-0.909
Mof_C 	C 	0.1462	0.6873	0.2656	-0.954
Mof_C 	C 	0.9857	0.5141	0.2016	-0.236
Mof_C 	C 	0.789	0.3526	0.1971	-0.181
Mof_H 	H 	0.2198	0.5187	0.1879	0.288
Mof_H 	H 	0.3147	0.6283	0.2283	0.292
Mof_H 	H 	0.2119	0.6261	0.1711	0.271
Mof_H 	H 	0.0862	0.68	0.2888	0.306
Mof_H 	H 	0.2347	0.725	0.2898	0.308
Mof_H 	H 	0.1296	0.7269	0.2347	0.284
Mof_C 	C 	0.9146	0.5409	0.1541	0.152
Mof_C 	C 	0.7215	0.3822	0.1505	0.126
Mof_H 	H 	0.7475	0.2902	0.2113	0.075
Mof_C 	C 	0.7835	0.4749	0.1295	-0.243
Mof_H 	H 	0.9553	0.6027	0.1392	-0.041
Mof_H 	H 	0.6326	0.3391	0.1328	-0.015
Mof_C 	C 	0.707	0.5044	0.0771	0.533
Mof_Sm	Sm	0.35302	0.40226	0.03794	2.156
Mof_O 	O 	0.363	0.3893	0.1424	-0.472
Mof_O 	O 	0.3959	0.3104	0.965	-0.585
Mof_O 	O 	0.3732	0.2582	0.0882	-0.487
Mof_O 	O 	0.5665	0.41	0.9341	-0.579
Mof_C 	C 	0.3744	0.3003	0.1369	0.32
Mof_C 	C 	0.3866	0.2444	0.1885	-0.147
Mof_C 	C 	0.4233	0.1574	0.1845	0.089
Mof_C 	C 	0.3691	0.2761	0.2393	0.055
Mof_H 	H 	0.435	0.1344	0.1499	-0.009
Mof_C 	C 	0.4417	0.1069	0.2309	-0.215
Mof_C 	C 	0.3835	0.2247	0.2874	-0.149
Mof_H 	H 	0.3467	0.3345	0.2422	0.009
Mof_C 	C 	0.4201	0.1392	0.2825	0.06
Mof_C 	C 	0.484	0.0137	0.2369	0.514
Mof_H 	H 	0.3691	0.2468	0.3215	0.074
Mof_C 	C 	0.4408	0.0685	0.3244	0.06
Mof_C 	C 	0.6235	0.0487	0.2314	-0.97
Mof_C 	C 	0.4801	0.9969	0.2978	-0.215
Mof_C 	C 	0.389	0.9157	0.1912	-0.959
Mof_C 	C 	0.4364	0.0672	0.381	-0.131
Mof_H 	H 	0.652	0.9922	0.2401	0.312
Mof_H 	H 	0.6248	0.0615	0.1922	0.297
Mof_H 	H 	0.6814	0.1132	0.2585	0.311
Mof_C 	C 	0.5078	0.9204	0.3279	0.082
Mof_H 	H 	0.4199	0.8594	0.1945	0.297
Mof_H 	H 	0.3832	0.9346	0.1527	0.291
Mof_H 	H 	0.3039	0.8913	0.1981	0.291
Mof_C 	C 	0.4675	0.9939	0.4113	0.047
Mof_H 	H 	0.4125	0.1159	0.3988	0.073
Mof_C 	C 	0.5032	0.9205	0.3845	-0.133
Mof_H 	H 	0.5291	0.8701	0.3099	-0.006
Mof_H 	H 	0.4647	0.9931	0.4496	0.029
Mof_C 	C 	0.5364	0.8379	0.4181	0.338
Mof_O 	O 	0.5439	0.845	0.4711	-0.47
Mof_O 	O 	0.5604	0.7695	0.3922	-0.481
Mof_Sm	Sm	0.62427	0.70193	0.48229	2.066
Mof_O 	O 	0.8421	0.852	0.5149	-0.477
Mof_O 	O 	0.7318	0.8049	0.5788	-0.477
Mof_C 	C 	0.8359	0.8635	0.5659	0.345
Mof_C 	C 	0.9478	0.9476	0.6126	-0.118
Mof_C 	C 	0.9381	0.9463	0.6699	0.058
Mof_C 	C 	0.055	0.0207	0.5992	0.026
Mof_C 	C 	0.0439	0.0228	0.7128	-0.173
Mof_H 	H 	0.8647	0.8969	0.6787	0.011
Mof_C 	C 	0.1586	0.0972	0.6434	-0.107
Mof_H 	H 	0.0587	0.0194	0.5609	0.032
Mof_C 	C 	0.0573	0.0394	0.7782	0.459
Mof_C 	C 	0.1522	0.0975	0.6997	0.028
Mof_H 	H 	0.2314	0.1477	0.6347	0.053
Mof_C 	C 	0.054	0.9385	0.8047	-0.889
Mof_C 	C 	0.1925	0.1337	0.8001	-0.236
Mof_C 	C 	0.9484	0.0686	0.7904	-0.893
Mof_C 	C 	0.2442	0.1667	0.7538	0.09
Mof_H 	H 	0.0752	0.9553	0.8465	0.269
Mof_H 	H 	0.1183	0.9176	0.7944	0.279
Mof_H 	H 	0.9688	0.8804	0.7904	0.283
Mof_C 	C 	0.2582	0.1873	0.8558	0.154
Mof_H 	H 	0.9438	0.1269	0.7703	0.274
Mof_H 	H 	0.9665	0.0897	0.8317	0.267
Mof_H 	H 	0.8661	0.0071	0.7767	0.29
Mof_C 	C 	0.3683	0.2516	0.764	-0.203
Mof_H 	H 	0.2214	0.1663	0.8861	-0.047
Mof_C 	C 	0.3821	0.2745	0.8662	-0.254
Mof_C 	C 	0.4354	0.3052	0.8208	0.132
Mof_H 	H 	0.4055	0.2719	0.7336	0.085
Mof_C 	C 	0.4519	0.3352	0.9265	0.531
Mof_H 	H 	0.5175	0.3626	0.8282	-0.034
Mof_O 	O 	0.2274	0.4353	0.9519	-0.592
Mof_O 	O 	0.4157	0.5317	0.9346	-0.608
Mof_O 	O 	0.5472	0.4581	0.5764	-0.591
Mof_O 	O 	0.6827	0.582	0.5373	-0.592
Mof_C 	C 	0.6586	0.5293	0.5784	0.514
Mof_C 	C 	0.7703	0.5523	0.631	-0.256
Mof_C 	C 	0.8867	0.6442	0.642	0.137
Mof_C 	C 	0.7574	0.4787	0.6699	0.162
Mof_C 	C 	0.9919	0.6623	0.6895	-0.189
Mof_H 	H 	0.8939	0.6944	0.6169	-0.024
Mof_C 	C 	0.86	0.4942	0.7161	-0.235
Mof_H 	H 	0.6778	0.4189	0.6638	-0.034
Mof_C 	C 	0.9793	0.5858	0.7266	0.077
Mof_H 	H 	0.0697	0.7242	0.6967	0.077
Mof_C 	C 	0.8739	0.4238	0.7617	0.496
Mof_C 	C 	0.0762	0.5792	0.7774	0.077
Mof_C 	C 	0.7723	0.4117	0.797	-0.909
Mof_C 	C 	0.8538	0.3127	0.7344	-0.954
Mof_C 	C 	0.0143	0.4859	0.7984	-0.236
Mof_C 	C 	0.211	0.6474	0.8029	-0.181
Mof_H 	H 	0.7802	0.4813	0.8121	0.288
Mof_H 	H 	0.6853	0.3717	0.7717	0.292
Mof_H 	H 	0.7881	0.3739	0.8289	0.271
Mof_H 	H 	0.9138	0.32	0.7112	0.306
Mof_H 	H 	0.7653	0.275	0.7102	0.308
Mof_H 	H 	0.8704	0.2731	0.7653	0.284
Mof_C 	C 	0.0854	0.4591	0.8459	0.152
Mof_C 	C 	0.2785	0.6178	0.8495	0.126
Mof_H 	H 	0.2525	0.7098	0.7887	0.075
Mof_C 	C 	0.2165	0.5251	0.8705	-0.243
Mof_H 	H 	0.0447	0.3973	0.8608	-0.041
Mof_H 	H 	0.3674	0.6609	0.8672	-0.015
Mof_C 	C 	0.293	0.4956	0.9229	0.533
_end
