data_functionalizedCrystal
_audit_creation_method	'EQeq! by Chris Wilmer'
_symmetry_space_group_name_H-M	'P1'
_symmetry_Int_Tables_number	1
_symmetry_cell_setting	triclinic
loop_
_symmetry_equiv_pos_as_xyz
  x,y,z
_cell_length_a	8.9151
_cell_length_b	9.3148
_cell_length_c	9.3148
_cell_angle_alpha	76.7616
_cell_angle_beta	61.4097
_cell_angle_gamma	61.4098
loop_
_atom_site_label
_atom_site_type_symbol
_atom_site_fract_x
_atom_site_fract_y
_atom_site_fract_z
_atom_site_charge
Mof_Tb	Tb	0.875	0.25	0.25	2.219
Mof_Tb	Tb	0.125	0.75	0.75	2.219
Mof_K 	K 	0.375	0.25	0.25	2.591
Mof_K 	K 	0.625	0.75	0.75	2.591
Mof_C 	C 	0.4431	0.472	0.4814	0.268
Mof_C 	C 	0.8965	0.028	0.0186	0.249
Mof_C 	C 	0.9245	0.5186	0.972	0.278
Mof_C 	C 	0.9151	0.9814	0.528	0.279
Mof_C 	C 	0.5569	0.528	0.5186	0.268
Mof_C 	C 	0.1035	0.972	0.9814	0.249
Mof_C 	C 	0.0755	0.4814	0.028	0.278
Mof_C 	C 	0.0849	0.0186	0.472	0.279
Mof_O 	O 	0.5367	0.3593	0.3787	-0.801
Mof_O 	O 	0.8244	0.4413	0.0431	-0.683
Mof_O 	O 	0.7747	0.1407	0.1213	-0.798
Mof_O 	O 	0.8088	0.0587	0.4569	-0.683
Mof_O 	O 	0.9154	0.6213	0.8593	-0.798
Mof_O 	O 	0.8675	0.9569	0.9413	-0.649
Mof_O 	O 	0.896	0.8787	0.6407	-0.798
Mof_O 	O 	0.2657	0.5431	0.5587	-0.674
Mof_O 	O 	0.4633	0.6407	0.6213	-0.801
Mof_O 	O 	0.1756	0.5587	0.9569	-0.683
Mof_O 	O 	0.2253	0.8593	0.8787	-0.798
Mof_O 	O 	0.1912	0.9413	0.5431	-0.683
Mof_O 	O 	0.0846	0.3787	0.1407	-0.798
Mof_O 	O 	0.1325	0.0431	0.0587	-0.649
Mof_O 	O 	0.104	0.1213	0.3593	-0.798
Mof_O 	O 	0.7343	0.4569	0.4413	-0.674
_end
