data_functionalizedCrystal
_audit_creation_method	'EQeq! by Chris Wilmer'
_symmetry_space_group_name_H-M	'P1'
_symmetry_Int_Tables_number	1
_symmetry_cell_setting	triclinic
loop_
_symmetry_equiv_pos_as_xyz
  x,y,z
_cell_length_a	10.513
_cell_length_b	15.617
_cell_length_c	13.895
_cell_angle_alpha	90
_cell_angle_beta	97.014
_cell_angle_gamma	90
loop_
_atom_site_label
_atom_site_type_symbol
_atom_site_fract_x
_atom_site_fract_y
_atom_site_fract_z
_atom_site_charge
Mof_Zn	Zn	0.03326	0.0855	0.39017	1.205
Mof_O 	O 	0.1223	0.10652	0.51985	-0.443
Mof_O 	O 	0.1726	0.11098	0.31218	-0.47
Mof_O 	O 	0.872	0.14405	0.36587	-0.412
Mof_O 	O 	0.0282	0.96204	0.37295	-0.542
Mof_P 	P 	0.07053	0.10694	0.61767	0.375
Mof_P 	P 	0.20793	0.16557	0.22902	0.47
Mof_O 	O 	0.0208	0.19556	0.63831	-0.471
Mof_H 	H 	0.1698	0.0884	0.6835	-0.042
Mof_H 	H 	0.1816	0.2423	0.247	-0.087
Mof_O 	O 	0.3511	0.15988	0.22171	-0.422
Mof_Zn	Zn	0.53326	0.5855	0.39017	1.228
Mof_O 	O 	0.6223	0.60652	0.51985	-0.423
Mof_O 	O 	0.6726	0.61098	0.31218	-0.442
Mof_O 	O 	0.372	0.64405	0.36587	-0.464
Mof_O 	O 	0.5282	0.46204	0.37295	-0.455
Mof_P 	P 	0.57053	0.60694	0.61767	0.451
Mof_P 	P 	0.70793	0.66557	0.22902	0.468
Mof_O 	O 	0.5208	0.69556	0.63831	-0.438
Mof_H 	H 	0.6698	0.5884	0.6835	-0.032
Mof_H 	H 	0.6816	0.7423	0.247	-0.066
Mof_O 	O 	0.8511	0.65988	0.22171	-0.375
Mof_Zn	Zn	0.96674	0.0855	0.10983	1.249
Mof_O 	O 	0.8777	0.10652	0.98015	-0.421
Mof_O 	O 	0.8274	0.11098	0.18782	-0.434
Mof_O 	O 	0.128	0.14405	0.13413	-0.5
Mof_O 	O 	0.9718	0.96204	0.12705	-0.374
Mof_P 	P 	0.92947	0.10694	0.88233	0.527
Mof_P 	P 	0.79207	0.16557	0.27098	0.47
Mof_O 	O 	0.9792	0.19556	0.86169	-0.388
Mof_H 	H 	0.8302	0.0884	0.8165	-0.039
Mof_H 	H 	0.8184	0.2423	0.253	-0.054
Mof_O 	O 	0.6489	0.15988	0.27829	-0.416
Mof_Zn	Zn	0.46674	0.5855	0.10983	1.229
Mof_O 	O 	0.3777	0.60652	0.98015	-0.444
Mof_O 	O 	0.3274	0.61098	0.18782	-0.459
Mof_O 	O 	0.628	0.64405	0.13413	-0.447
Mof_O 	O 	0.4718	0.46204	0.12705	-0.461
Mof_P 	P 	0.42947	0.60694	0.88233	0.451
Mof_P 	P 	0.29207	0.66557	0.27098	0.47
Mof_O 	O 	0.4792	0.69556	0.86169	-0.437
Mof_H 	H 	0.3302	0.5884	0.8165	-0.051
Mof_H 	H 	0.3184	0.7423	0.253	-0.074
Mof_O 	O 	0.1489	0.65988	0.27829	-0.449
Mof_Zn	Zn	0.96674	0.9145	0.60983	1.25
Mof_O 	O 	0.8777	0.89348	0.48015	-0.42
Mof_O 	O 	0.8274	0.88902	0.68782	-0.434
Mof_O 	O 	0.128	0.85595	0.63413	-0.502
Mof_O 	O 	0.9718	0.03796	0.62705	-0.373
Mof_P 	P 	0.92947	0.89306	0.38233	0.525
Mof_P 	P 	0.79207	0.83443	0.77098	0.471
Mof_O 	O 	0.9792	0.80444	0.36169	-0.389
Mof_H 	H 	0.8302	0.9116	0.3165	-0.039
Mof_H 	H 	0.8184	0.7577	0.753	-0.054
Mof_O 	O 	0.6489	0.84012	0.77829	-0.417
Mof_Zn	Zn	0.46674	0.4145	0.60983	1.228
Mof_O 	O 	0.3777	0.39348	0.48015	-0.439
Mof_O 	O 	0.3274	0.38902	0.68782	-0.46
Mof_O 	O 	0.628	0.35595	0.63413	-0.449
Mof_O 	O 	0.4718	0.53796	0.62705	-0.463
Mof_P 	P 	0.42947	0.39306	0.38233	0.451
Mof_P 	P 	0.29207	0.33443	0.77098	0.471
Mof_O 	O 	0.4792	0.30444	0.36169	-0.435
Mof_H 	H 	0.3302	0.4116	0.3165	-0.05
Mof_H 	H 	0.3184	0.2577	0.753	-0.075
Mof_O 	O 	0.1489	0.34012	0.77829	-0.451
Mof_Zn	Zn	0.03326	0.9145	0.89017	1.203
Mof_O 	O 	0.1223	0.89348	0.01985	-0.436
Mof_O 	O 	0.1726	0.88902	0.81218	-0.473
Mof_O 	O 	0.872	0.85595	0.86587	-0.414
Mof_O 	O 	0.0282	0.03796	0.87295	-0.544
Mof_P 	P 	0.07053	0.89306	0.11767	0.378
Mof_P 	P 	0.20793	0.83443	0.72902	0.47
Mof_O 	O 	0.0208	0.80444	0.13831	-0.468
Mof_H 	H 	0.1698	0.9116	0.1835	-0.041
Mof_H 	H 	0.1816	0.7577	0.747	-0.089
Mof_O 	O 	0.3511	0.84012	0.72171	-0.423
Mof_Zn	Zn	0.53326	0.4145	0.89017	1.227
Mof_O 	O 	0.6223	0.39348	0.01985	-0.422
Mof_O 	O 	0.6726	0.38902	0.81218	-0.443
Mof_O 	O 	0.372	0.35595	0.86587	-0.465
Mof_O 	O 	0.5282	0.53796	0.87295	-0.457
Mof_P 	P 	0.57053	0.39306	0.11767	0.452
Mof_P 	P 	0.70793	0.33443	0.72902	0.468
Mof_O 	O 	0.5208	0.30444	0.13831	-0.437
Mof_H 	H 	0.6698	0.4116	0.1835	-0.032
Mof_H 	H 	0.6816	0.2577	0.747	-0.066
Mof_O 	O 	0.8511	0.34012	0.72171	-0.374
Mof_Zn	Zn	-2.5105e-17	0.26613	0.75	1.203
Mof_Zn	Zn	0.5	0.76613	0.75	1.236
Mof_Zn	Zn	1.39018e-33	0.73387	0.25	1.204
Mof_Zn	Zn	0.5	0.23387	0.25	1.236
_end
