# CIF file generated by openbabel 3.1.0, see https://openbabel.org
data_I
_chemical_name_common 'image0'
_cell_length_a 9.1091
_cell_length_b 15.2324
_cell_length_c 15.587
_cell_angle_alpha 102.771
_cell_angle_beta 95.335
_cell_angle_gamma 104.33
_space_group_name_H-M_alt 'P 1'
_space_group_name_Hall 'P 1'
loop_
    _symmetry_equiv_pos_as_xyz
    x,y,z
loop_
    _atom_site_label
    _atom_site_type_symbol
    _atom_site_fract_x
    _atom_site_fract_y
    _atom_site_fract_z
    _atom_site_occupancy
    Co1      Co       0.50805    0.25374    0.28367    1.000
    Cr1      Cr       0.17441    0.34802    0.30495    1.000
    O1       O        0.31460    0.29910    0.29150    1.000
    N1       N        0.64500    0.39520    0.29760    1.000
    C1       C        0.58910    0.45440    0.26080    1.000
    H1       H        0.48370    0.43540    0.23570    1.000
    Cr2      Cr       0.85997    0.17628    0.28251    1.000
    N2       N        0.53930    0.26970    0.42410    1.000
    C2       C        0.67640    0.54110    0.25740    1.000
    H2       H        0.63090    0.57980    0.22980    1.000
    N3       N        0.37170    0.11180    0.27130    1.000
    C3       C        0.83040    0.57210    0.29410    1.000
    O2       O        0.01990    0.27070    0.33670    1.000
    N4       N        0.47410    0.23680    0.14190    1.000
    C4       C        0.88920    0.51160    0.33240    1.000
    H3       H        0.99470    0.52820    0.35690    1.000
    C5       C        0.79090    0.42560    0.33440    1.000
    H4       H        0.83170    0.38670    0.36420    1.000
    C6       C        0.92720    0.66530    0.29060    1.000
    O3       O        0.70690    0.21360    0.27820    1.000
    C7       C        0.98420    0.73710    0.36810    1.000
    C8       C        0.07240    0.82540    0.36220    1.000
    C9       C        0.09890    0.83930    0.27950    1.000
    C10      C        0.04160    0.76740    0.20170    1.000
    C11      C        0.95370    0.67930    0.20680    1.000
    C12      C        0.95020    0.72220    0.45750    1.000
    H5       H        0.86870    0.66380    0.44890    1.000
    H6       H        0.91690    0.77480    0.49000    1.000
    H7       H        0.04300    0.71820    0.49190    1.000
    C13      C        0.13170    0.90250    0.44750    1.000
    H8       H        0.21990    0.94970    0.43860    1.000
    H9       H        0.16300    0.87580    0.49550    1.000
    H10      H        0.05030    0.93190    0.46350    1.000
    C14      C        0.06960    0.78550    0.11080    1.000
    H11      H        0.97280    0.76180    0.06930    1.000
    H12      H        0.14390    0.75320    0.08760    1.000
    H13      H        0.11010    0.85290    0.11750    1.000
    C15      C        0.89290    0.60060    0.12280    1.000
    H14      H        0.89880    0.54120    0.13550    1.000
    H15      H        0.95470    0.61300    0.07640    1.000
    H16      H        0.78590    0.59660    0.10230    1.000
    C16      C        0.19290    0.93280    0.27510    1.000
    C17      C        0.14220    0.01200    0.29620    1.000
    H17      H        0.04200    0.00650    0.31090    1.000
    C18      C        0.23400    0.09900    0.29640    1.000
    H18      H        0.19710    0.15210    0.31520    1.000
    C19      C        0.33860    0.94770    0.25030    1.000
    H19      H        0.38060    0.89640    0.23380    1.000
    C20      C        0.42170    0.03590    0.24930    1.000
    H20      H        0.52040    0.04320    0.23200    1.000
    C21      C        0.49610    0.33570    0.47920    1.000
    H21      H        0.47010    0.38370    0.45630    1.000
    C22      C        0.48690    0.33830    0.56760    1.000
    H22      H        0.45640    0.38750    0.60370    1.000
    C23      C        0.52160    0.27020    0.60360    1.000
    C24      C        0.57380    0.20410    0.54720    1.000
    H23      H        0.60660    0.15770    0.56950    1.000
    C25      C        0.57820    0.20530    0.46000    1.000
    H24      H        0.61080    0.15770    0.42300    1.000
    C26      C        0.50590    0.26600    0.69670    1.000
    C27      C        0.39410    0.19190    0.71280    1.000
    C28      C        0.38300    0.18600    0.80060    1.000
    C29      C        0.47990    0.25450    0.87130    1.000
    C30      C        0.58960    0.33040    0.85500    1.000
    C31      C        0.60570    0.33460    0.76790    1.000
    C32      C        0.28530    0.11960    0.63690    1.000
    H25      H        0.31360    0.06060    0.62830    1.000
    H26      H        0.29090    0.14140    0.58240    1.000
    H27      H        0.18050    0.10960    0.65050    1.000
    C33      C        0.26760    0.10460    0.81870    1.000
    H28      H        0.16750    0.11770    0.81840    1.000
    H29      H        0.30150    0.09600    0.87710    1.000
    H30      H        0.25900    0.04760    0.77250    1.000
    C34      C        0.73100    0.41200    0.75040    1.000
    H31      H        0.69550    0.46830    0.75460    1.000
    H32      H        0.75560    0.39160    0.69060    1.000
    H33      H        0.82280    0.42600    0.79470    1.000
    C35      C        0.68650    0.40880    0.93290    1.000
    H34      H        0.79520    0.41240    0.93210    1.000
    H35      H        0.65790    0.39600    0.98890    1.000
    H36      H        0.66870    0.46840    0.92790    1.000
    C36      C        0.47390    0.24630    0.96450    1.000
    C37      C        0.36910    0.27500    0.01510    1.000
    H37      H        0.29470    0.29960    0.98940    1.000
    C38      C        0.37060    0.26870    0.10100    1.000
    H38      H        0.29520    0.28770    0.13300    1.000
    C39      C        0.57580    0.20850    0.00560    1.000
    H39      H        0.64770    0.18490    0.97380    1.000
    C40      C        0.57210    0.20530    0.09380    1.000
    H40      H        0.64300    0.17940    0.12100    1.000
    Co2      Co       0.49195    0.74626    0.71633    1.000
    Cr3      Cr       0.82559    0.65198    0.69505    1.000
    O4       O        0.68540    0.70090    0.70850    1.000
    N5       N        0.35500    0.60480    0.70240    1.000
    C41      C        0.41090    0.54560    0.73920    1.000
    H41      H        0.51630    0.56460    0.76430    1.000
    Cr4      Cr       0.14003    0.82372    0.71749    1.000
    N6       N        0.46070    0.73030    0.57590    1.000
    C42      C        0.32360    0.45890    0.74260    1.000
    H42      H        0.36910    0.42020    0.77020    1.000
    N7       N        0.62830    0.88820    0.72870    1.000
    C43      C        0.16960    0.42790    0.70590    1.000
    O5       O        0.98010    0.72930    0.66330    1.000
    N8       N        0.52590    0.76320    0.85810    1.000
    C44      C        0.11080    0.48840    0.66760    1.000
    H43      H        0.00530    0.47180    0.64310    1.000
    C45      C        0.20910    0.57440    0.66560    1.000
    H44      H        0.16830    0.61330    0.63580    1.000
    C46      C        0.07280    0.33470    0.70940    1.000
    O6       O        0.29310    0.78640    0.72180    1.000
    C47      C        0.01580    0.26290    0.63190    1.000
    C48      C        0.92760    0.17460    0.63780    1.000
    C49      C        0.90110    0.16070    0.72050    1.000
    C50      C        0.95840    0.23260    0.79830    1.000
    C51      C        0.04630    0.32070    0.79320    1.000
    C52      C        0.04980    0.27780    0.54250    1.000
    H45      H        0.13130    0.33620    0.55110    1.000
    H46      H        0.08310    0.22520    0.51000    1.000
    H47      H        0.95700    0.28180    0.50810    1.000
    C53      C        0.86830    0.09750    0.55250    1.000
    H48      H        0.78010    0.05030    0.56140    1.000
    H49      H        0.83700    0.12420    0.50450    1.000
    H50      H        0.94970    0.06810    0.53650    1.000
    C54      C        0.93040    0.21450    0.88920    1.000
    H51      H        0.02720    0.23820    0.93070    1.000
    H52      H        0.85610    0.24680    0.91240    1.000
    H53      H        0.88990    0.14710    0.88250    1.000
    C55      C        0.10710    0.39940    0.87720    1.000
    H54      H        0.10120    0.45880    0.86450    1.000
    H55      H        0.04530    0.38700    0.92360    1.000
    H56      H        0.21410    0.40340    0.89770    1.000
    C56      C        0.80710    0.06720    0.72490    1.000
    C57      C        0.85780    0.98800    0.70380    1.000
    H57      H        0.95800    0.99350    0.68910    1.000
    C58      C        0.76600    0.90100    0.70360    1.000
    H58      H        0.80290    0.84790    0.68480    1.000
    C59      C        0.66140    0.05230    0.74970    1.000
    H59      H        0.61940    0.10360    0.76620    1.000
    C60      C        0.57830    0.96410    0.75070    1.000
    H60      H        0.47960    0.95680    0.76800    1.000
    C61      C        0.50390    0.66430    0.52080    1.000
    H61      H        0.52990    0.61630    0.54370    1.000
    C62      C        0.51310    0.66170    0.43240    1.000
    H62      H        0.54360    0.61250    0.39630    1.000
    C63      C        0.47840    0.72980    0.39640    1.000
    C64      C        0.42620    0.79590    0.45280    1.000
    H63      H        0.39340    0.84230    0.43050    1.000
    C65      C        0.42180    0.79470    0.54000    1.000
    H64      H        0.38920    0.84230    0.57700    1.000
    C66      C        0.49410    0.73400    0.30330    1.000
    C67      C        0.60590    0.80810    0.28720    1.000
    C68      C        0.61700    0.81400    0.19940    1.000
    C69      C        0.52010    0.74550    0.12870    1.000
    C70      C        0.41040    0.66960    0.14500    1.000
    C71      C        0.39430    0.66540    0.23210    1.000
    C72      C        0.71470    0.88040    0.36310    1.000
    H65      H        0.68640    0.93940    0.37170    1.000
    H66      H        0.70910    0.85860    0.41760    1.000
    H67      H        0.81950    0.89040    0.34950    1.000
    C73      C        0.73240    0.89540    0.18130    1.000
    H68      H        0.83250    0.88230    0.18160    1.000
    H69      H        0.69850    0.90400    0.12290    1.000
    H70      H        0.74100    0.95240    0.22750    1.000
    C74      C        0.26900    0.58800    0.24960    1.000
    H71      H        0.30450    0.53170    0.24540    1.000
    H72      H        0.24440    0.60840    0.30940    1.000
    H73      H        0.17720    0.57400    0.20530    1.000
    C75      C        0.31350    0.59120    0.06710    1.000
    H74      H        0.20480    0.58760    0.06790    1.000
    H75      H        0.34210    0.60400    0.01110    1.000
    H76      H        0.33130    0.53160    0.07210    1.000
    C76      C        0.52610    0.75370    0.03550    1.000
    C77      C        0.63090    0.72500    0.98490    1.000
    H77      H        0.70530    0.70040    0.01060    1.000
    C78      C        0.62940    0.73130    0.89900    1.000
    H78      H        0.70480    0.71230    0.86700    1.000
    C79      C        0.42420    0.79150    0.99440    1.000
    H79      H        0.35230    0.81510    0.02620    1.000
    C80      C        0.42790    0.79470    0.90620    1.000
    H80      H        0.35700    0.82060    0.87900    1.000
