data_functionalizedCrystal
_audit_creation_method	'EQeq! by Chris Wilmer'
_symmetry_space_group_name_H-M	'P1'
_symmetry_Int_Tables_number	1
_symmetry_cell_setting	triclinic
loop_
_symmetry_equiv_pos_as_xyz
  x,y,z
_cell_length_a	16.3187
_cell_length_b	17.0365
_cell_length_c	18.9426
_cell_angle_alpha	88.412
_cell_angle_beta	70.681
_cell_angle_gamma	62.592
loop_
_atom_site_label
_atom_site_type_symbol
_atom_site_fract_x
_atom_site_fract_y
_atom_site_fract_z
_atom_site_charge
Mof_Cd	Cd	0.67246	0.63001	0.44488	0.468
Mof_Cd	Cd	0.76104	0.71682	0.26259	0.443
Mof_Cd	Cd	0.85101	0.80512	0.07699	0.471
Mof_O 	O 	0.7784	0.6822	0.3782	-0.303
Mof_O 	O 	0.6938	0.7419	0.4994	-0.261
Mof_O 	O 	0.5964	0.7803	0.313	-0.295
Mof_O 	O 	0.574	0.6778	0.3793	-0.299
Mof_O 	O 	0.7136	0.4865	0.392	-0.262
Mof_O 	O 	0.7856	0.4985	0.4685	-0.269
Mof_O 	O 	0.7436	0.7512	0.1476	-0.303
Mof_O 	O 	0.8313	0.6924	0.0309	-0.295
Mof_O 	O 	0.845	0.9421	0.0463	-0.303
Mof_O 	O 	0.7195	0.9425	0.1174	-0.313
Mof_O 	O 	0.9256	0.6585	0.2055	-0.288
Mof_O 	O 	0.9372	0.775	0.1553	-0.28
Mof_N 	N 	0.5468	0.6541	0.5531	-0.17
Mof_N 	N 	3.90868e-17	0.7445	0.977	-0.161
Mof_C 	C 	0.5138	0.5952	0.5706	0.108
Mof_H 	H 	0.545	0.5416	0.5362	0.007
Mof_C 	C 	0.4365	0.6079	0.6361	-0.178
Mof_H 	H 	0.4155	0.5638	0.6464	0.103
Mof_C 	C 	0.3906	0.685	0.6859	0.127
Mof_C 	C 	0.4285	0.7437	0.6697	-0.187
Mof_H 	H 	0.403	0.7962	0.7038	0.098
Mof_C 	C 	0.5043	0.7228	0.6025	0.124
Mof_H 	H 	0.5281	0.7648	0.5911	0.008
Mof_C 	C 	0.3047	0.7077	0.7576	-0.072
Mof_H 	H 	0.2781	0.7639	0.7871	0.056
Mof_C 	C 	0.2629	0.6598	0.7838	-0.104
Mof_H 	H 	0.2921	0.6018	0.7566	0.074
Mof_C 	C 	0.1736	0.6862	0.8523	0.151
Mof_C 	C 	0.1367	0.6326	0.8802	-0.2
Mof_H 	H 	0.1703	0.5717	0.858	0.105
Mof_C 	C 	0.0481	0.6655	0.9424	0.127
Mof_H 	H 	0.0225	0.6257	0.9599	0.008
Mof_C 	C 	0.0361	0.8015	0.9517	0.095
Mof_H 	H 	0.0027	0.8614	0.9763	0.027
Mof_C 	C 	0.1226	0.7708	0.8893	-0.178
Mof_H 	H 	0.1474	0.8111	0.8715	0.094
Mof_C 	C 	0.7595	0.7333	0.4348	0.295
Mof_C 	C 	0.8139	0.7844	0.4295	-0.091
Mof_C 	C 	0.9056	0.7547	0.3703	0.025
Mof_H 	H 	0.9307	0.7041	0.3341	0.041
Mof_C 	C 	0.9593	0.7998	0.365	-0.104
Mof_H 	H 	0.0238	0.7765	0.3279	0.075
Mof_C 	C 	0.9208	0.8773	0.4125	0.042
Mof_C 	C 	0.8274	0.9089	0.4704	-0.098
Mof_H 	H 	0.8	0.9624	0.5039	0.067
Mof_C 	C 	0.7756	0.8613	0.4782	0.027
Mof_H 	H 	0.7131	0.8822	0.5176	0.037
Mof_C 	C 	0.9778	0.9265	0.4061	0.029
Mof_C 	C 	0.0785	0.8823	0.3914	-0.089
Mof_H 	H 	0.1124	0.8189	0.3848	0.064
Mof_C 	C 	0.1312	0.9287	0.3859	0.032
Mof_C 	C 	0.0809	0.0218	0.3922	-0.082
Mof_H 	H 	0.1161	0.0541	0.3893	0.06
Mof_C 	C 	0.9802	0.069	0.4028	0.023
Mof_C 	C 	0.9287	0.0199	0.4113	-0.09
Mof_H 	H 	0.8597	0.0505	0.4207	0.063
Mof_C 	C 	0.2378	0.8818	0.3758	0.038
Mof_C 	C 	0.2739	0.8088	0.4121	-0.097
Mof_H 	H 	0.2301	0.7893	0.4435	0.068
Mof_C 	C 	0.3736	0.7635	0.4032	0.022
Mof_H 	H 	0.3983	0.7122	0.4269	0.039
Mof_C 	C 	0.4371	0.795	0.3585	-0.094
Mof_C 	C 	0.4009	0.8684	0.3245	0.024
Mof_H 	H 	0.4438	0.8897	0.2949	0.042
Mof_C 	C 	0.3013	0.9124	0.3329	-0.096
Mof_H 	H 	0.2768	0.9637	0.309	0.066
Mof_C 	C 	0.5452	0.7466	0.3497	0.332
Mof_C 	C 	0.928	0.1663	0.409	0.05
Mof_C 	C 	0.9542	0.2199	0.4414	-0.116
Mof_H 	H 	0.0089	0.1921	0.4577	0.077
Mof_C 	C 	0.9035	0.3112	0.4501	0.035
Mof_H 	H 	0.9194	0.346	0.4762	0.036
Mof_C 	C 	0.8279	0.3535	0.4206	-0.096
Mof_C 	C 	0.8031	0.2997	0.3882	0.031
Mof_H 	H 	0.7506	0.3267	0.3694	0.034
Mof_C 	C 	0.8529	0.2076	0.3826	-0.106
Mof_H 	H 	0.8342	0.1726	0.3599	0.069
Mof_C 	C 	0.7717	0.451	0.4299	0.292
Mof_C 	C 	0.7679	0.6992	0.0899	0.334
Mof_C 	C 	0.7101	0.6496	0.0949	-0.105
Mof_C 	C 	0.7478	0.577	0.0411	0.029
Mof_H 	H 	0.8093	0.5587	0.001	0.036
Mof_C 	C 	0.6948	0.5303	0.0458	-0.101
Mof_H 	H 	0.7236	0.4776	0.011	0.07
Mof_C 	C 	0.6036	0.5587	0.099	0.039
Mof_C 	C 	0.5655	0.6336	0.1526	-0.101
Mof_H 	H 	0.5027	0.6536	0.1916	0.069
Mof_C 	C 	0.6174	0.677	0.149	0.035
Mof_H 	H 	0.5892	0.7285	0.1851	0.038
Mof_C 	C 	0.5479	0.5084	0.1005	0.048
Mof_C 	C 	0.5957	0.4168	0.0902	-0.108
Mof_H 	H 	0.665	0.3857	0.0792	0.069
Mof_C 	C 	0.5461	0.3679	0.0953	0.044
Mof_C 	C 	0.4471	0.4142	0.1074	-0.107
Mof_H 	H 	0.4127	0.3813	0.1097	0.069
Mof_C 	C 	0.3948	0.5064	0.1162	0.049
Mof_C 	C 	0.448	0.5536	0.1131	-0.106
Mof_H 	H 	0.4145	0.6171	0.1199	0.069
Mof_C 	C 	0.5989	0.2687	0.0922	0.045
Mof_C 	C 	0.6973	0.2181	0.0464	-0.106
Mof_H 	H 	0.7306	0.2459	0.0136	0.065
Mof_C 	C 	0.7482	0.1254	0.048	0.042
Mof_H 	H 	0.8173	0.0924	0.0207	0.03
Mof_C 	C 	0.6997	0.0836	0.088	-0.127
Mof_C 	C 	0.6028	0.133	0.1337	0.051
Mof_H 	H 	0.5681	0.1043	0.163	0.029
Mof_C 	C 	0.5565	0.2231	0.1371	-0.113
Mof_H 	H 	0.491	0.2564	0.1725	0.072
Mof_C 	C 	0.7563	0.9824	0.0826	0.385
Mof_C 	C 	0.2868	0.5567	0.1315	0.023
Mof_C 	C 	0.2261	0.5183	0.1629	-0.081
Mof_H 	H 	0.2543	0.4597	0.1755	0.062
Mof_C 	C 	0.1281	0.5627	0.1758	0.01
Mof_H 	H 	0.0886	0.5349	0.1975	0.047
Mof_C 	C 	0.0846	0.6481	0.1579	-0.075
Mof_C 	C 	0.1422	0.6876	0.1254	0.008
Mof_H 	H 	0.1134	0.7454	0.1114	0.042
Mof_C 	C 	0.241	0.6434	0.1134	-0.084
Mof_H 	H 	0.2798	0.6718	0.0921	0.057
Mof_C 	C 	0.974	0.6971	0.1732	0.299
Mof_Cd	Cd	0.32754	0.36999	0.55512	0.469
Mof_Cd	Cd	0.23896	0.28318	0.73741	0.444
Mof_Cd	Cd	0.14899	0.19488	0.92301	0.474
Mof_O 	O 	0.2216	0.3178	0.6218	-0.3
Mof_O 	O 	0.3062	0.2581	0.5006	-0.259
Mof_O 	O 	0.4036	0.2197	0.687	-0.295
Mof_O 	O 	0.426	0.3222	0.6207	-0.298
Mof_O 	O 	0.2864	0.5135	0.608	-0.26
Mof_O 	O 	0.2144	0.5015	0.5315	-0.266
Mof_O 	O 	0.2564	0.2488	0.8524	-0.303
Mof_O 	O 	0.1687	0.3076	0.9691	-0.293
Mof_O 	O 	0.155	0.0579	0.9537	-0.301
Mof_O 	O 	0.2805	0.0575	0.8826	-0.313
Mof_O 	O 	0.0744	0.3415	0.7945	-0.289
Mof_O 	O 	0.0628	0.225	0.8447	-0.28
Mof_N 	N 	0.4532	0.3459	0.4469	-0.17
Mof_N 	N 	4.07154e-19	0.2555	0.023	-0.154
Mof_C 	C 	0.4862	0.4048	0.4294	0.108
Mof_H 	H 	0.455	0.4584	0.4638	0.007
Mof_C 	C 	0.5635	0.3921	0.3639	-0.179
Mof_H 	H 	0.5845	0.4362	0.3536	0.104
Mof_C 	C 	0.6094	0.315	0.3141	0.128
Mof_C 	C 	0.5715	0.2563	0.3303	-0.188
Mof_H 	H 	0.597	0.2038	0.2962	0.098
Mof_C 	C 	0.4957	0.2772	0.3975	0.124
Mof_H 	H 	0.4719	0.2352	0.4089	0.008
Mof_C 	C 	0.6953	0.2923	0.2424	-0.075
Mof_H 	H 	0.7219	0.2361	0.2129	0.057
Mof_C 	C 	0.7371	0.3402	0.2162	-0.1
Mof_H 	H 	0.7079	0.3982	0.2434	0.072
Mof_C 	C 	0.8264	0.3138	0.1477	0.145
Mof_C 	C 	0.8633	0.3674	0.1198	-0.193
Mof_H 	H 	0.8297	0.4283	0.142	0.102
Mof_C 	C 	0.9519	0.3345	0.0576	0.117
Mof_H 	H 	0.9775	0.3743	0.0401	0.008
Mof_C 	C 	0.9639	0.1985	0.0483	0.086
Mof_H 	H 	0.9973	0.1386	0.0237	0.026
Mof_C 	C 	0.8774	0.2292	0.1107	-0.172
Mof_H 	H 	0.8526	0.1889	0.1285	0.091
Mof_C 	C 	0.2405	0.2667	0.5652	0.29
Mof_C 	C 	0.1861	0.2156	0.5705	-0.076
Mof_C 	C 	0.0944	0.2453	0.6297	0.001
Mof_H 	H 	0.0693	0.2959	0.6659	0.052
Mof_C 	C 	0.0407	0.2002	0.635	-0.061
Mof_H 	H 	0.9762	0.2235	0.6721	0.053
Mof_C 	C 	0.0792	0.1227	0.5875	0.014
Mof_C 	C 	0.1726	0.0911	0.5296	-0.079
Mof_H 	H 	0.2	0.0376	0.4961	0.06
Mof_C 	C 	0.2244	0.1387	0.5218	0.011
Mof_H 	H 	0.2869	0.1178	0.4824	0.043
Mof_C 	C 	0.0222	0.0735	0.5939	0.066
Mof_C 	C 	0.9215	0.1177	0.6086	-0.127
Mof_H 	H 	0.8876	0.1811	0.6152	0.075
Mof_C 	C 	0.8688	0.0713	0.6141	0.056
Mof_C 	C 	0.9191	0.9782	0.6078	-0.119
Mof_H 	H 	0.8839	0.9459	0.6107	0.071
Mof_C 	C 	0.0198	0.931	0.5972	0.061
Mof_C 	C 	0.0713	0.9801	0.5887	-0.118
Mof_H 	H 	0.1403	0.9495	0.5793	0.073
Mof_C 	C 	0.7622	0.1182	0.6242	0.025
Mof_C 	C 	0.7261	0.1912	0.5879	-0.089
Mof_H 	H 	0.7699	0.2107	0.5565	0.065
Mof_C 	C 	0.6264	0.2365	0.5968	0.016
Mof_H 	H 	0.6017	0.2878	0.5731	0.04
Mof_C 	C 	0.5629	0.205	0.6415	-0.091
Mof_C 	C 	0.5991	0.1316	0.6755	0.018
Mof_H 	H 	0.5562	0.1103	0.7051	0.043
Mof_C 	C 	0.6987	0.0876	0.6671	-0.088
Mof_H 	H 	0.7232	0.0363	0.691	0.062
Mof_C 	C 	0.4548	0.2534	0.6503	0.331
Mof_C 	C 	0.072	0.8337	0.591	0.02
Mof_C 	C 	0.0458	0.7801	0.5586	-0.071
Mof_H 	H 	0.9911	0.8079	0.5423	0.055
Mof_C 	C 	0.0965	0.6888	0.5499	0.008
Mof_H 	H 	0.0806	0.654	0.5238	0.048
Mof_C 	C 	0.1721	0.6465	0.5794	-0.079
Mof_C 	C 	0.1969	0.7003	0.6118	0.013
Mof_H 	H 	0.2494	0.6733	0.6306	0.041
Mof_C 	C 	0.1471	0.7924	0.6174	-0.082
Mof_H 	H 	0.1658	0.8274	0.6401	0.061
Mof_C 	C 	0.2283	0.549	0.5701	0.286
Mof_C 	C 	0.2321	0.3008	0.9101	0.333
Mof_C 	C 	0.2899	0.3504	0.9051	-0.104
Mof_C 	C 	0.2522	0.423	0.9589	0.028
Mof_H 	H 	0.1907	0.4413	0.999	0.037
Mof_C 	C 	0.3052	0.4697	0.9542	-0.1
Mof_H 	H 	0.2764	0.5224	0.989	0.069
Mof_C 	C 	0.3964	0.4413	0.901	0.039
Mof_C 	C 	0.4345	0.3664	0.8474	-0.101
Mof_H 	H 	0.4973	0.3464	0.8084	0.069
Mof_C 	C 	0.3826	0.323	0.851	0.034
Mof_H 	H 	0.4108	0.2715	0.8149	0.038
Mof_C 	C 	0.4521	0.4916	0.8995	0.047
Mof_C 	C 	0.4043	0.5832	0.9098	-0.108
Mof_H 	H 	0.335	0.6143	0.9208	0.069
Mof_C 	C 	0.4539	0.6321	0.9047	0.044
Mof_C 	C 	0.5529	0.5858	0.8926	-0.106
Mof_H 	H 	0.5873	0.6187	0.8903	0.068
Mof_C 	C 	0.6052	0.4936	0.8838	0.046
Mof_C 	C 	0.552	0.4464	0.8869	-0.104
Mof_H 	H 	0.5855	0.3829	0.8801	0.068
Mof_C 	C 	0.4011	0.7313	0.9078	0.044
Mof_C 	C 	0.3027	0.7819	0.9536	-0.105
Mof_H 	H 	0.2694	0.7541	0.9864	0.064
Mof_C 	C 	0.2518	0.8746	0.952	0.04
Mof_H 	H 	0.1827	0.9076	0.9793	0.032
Mof_C 	C 	0.3003	0.9164	0.912	-0.123
Mof_C 	C 	0.3972	0.867	0.8663	0.049
Mof_H 	H 	0.4319	0.8957	0.837	0.03
Mof_C 	C 	0.4435	0.7769	0.8629	-0.111
Mof_H 	H 	0.509	0.7436	0.8275	0.071
Mof_C 	C 	0.2437	0.0176	0.9174	0.383
Mof_C 	C 	0.7132	0.4433	0.8685	0.028
Mof_C 	C 	0.7739	0.4817	0.8371	-0.09
Mof_H 	H 	0.7457	0.5403	0.8245	0.064
Mof_C 	C 	0.8719	0.4373	0.8242	0.021
Mof_H 	H 	0.9114	0.4651	0.8025	0.04
Mof_C 	C 	0.9154	0.3519	0.8421	-0.093
Mof_C 	C 	0.8578	0.3124	0.8746	0.018
Mof_H 	H 	0.8866	0.2546	0.8886	0.035
Mof_C 	C 	0.759	0.3566	0.8866	-0.092
Mof_H 	H 	0.7202	0.3282	0.9079	0.059
Mof_C 	C 	0.026	0.3029	0.8268	0.312
_end
