data_functionalizedCrystal
_audit_creation_method	'EQeq! by Chris Wilmer'
_symmetry_space_group_name_H-M	'P1'
_symmetry_Int_Tables_number	1
_symmetry_cell_setting	triclinic
loop_
_symmetry_equiv_pos_as_xyz
  x,y,z
_cell_length_a	25.6349
_cell_length_b	25.6349
_cell_length_c	25.6349
_cell_angle_alpha	90
_cell_angle_beta	90
_cell_angle_gamma	90
loop_
_atom_site_label
_atom_site_type_symbol
_atom_site_fract_x
_atom_site_fract_y
_atom_site_fract_z
_atom_site_charge
Mof_Zn	Zn	0.125	0.625	0.875	1.251
Mof_Zn	Zn	0.375	0.375	0.375	1.251
Mof_Zn	Zn	0.875	0.125	0.625	1.251
Mof_Zn	Zn	0.625	0.875	0.125	1.251
Mof_Zn	Zn	0.04477	0.54477	0.95523	1.199
Mof_Zn	Zn	0.45523	0.45523	0.45523	1.199
Mof_Zn	Zn	0.95523	0.04477	0.54477	1.199
Mof_Zn	Zn	0.54477	0.95523	0.04477	1.199
Mof_Zn	Zn	0.29477	0.29477	0.29477	1.199
Mof_Zn	Zn	0.20523	0.70523	0.79477	1.199
Mof_Zn	Zn	0.79477	0.20523	0.70523	1.2
Mof_Zn	Zn	0.70523	0.79477	0.20523	1.2
Mof_H 	H 	0.1883	0.6828	0.9993	0.026
Mof_H 	H 	0.2553	0.7061	0.0551	0.078
Mof_H 	H 	0.2332	0.5715	0.1338	0.076
Mof_H 	H 	0.1669	0.5493	0.0764	0.019
Mof_H 	H 	0.3117	0.3172	0.4993	0.027
Mof_H 	H 	0.2447	0.2939	0.5551	0.078
Mof_H 	H 	0.2668	0.4285	0.6338	0.076
Mof_H 	H 	0.3331	0.4507	0.5764	0.019
Mof_H 	H 	0.8117	0.1828	0.5007	0.027
Mof_H 	H 	0.7447	0.2061	0.4449	0.078
Mof_H 	H 	0.7668	0.0715	0.3662	0.076
Mof_H 	H 	0.8331	0.0493	0.4236	0.019
Mof_H 	H 	0.6883	0.8172	0.0007	0.026
Mof_H 	H 	0.7553	0.7939	0.9449	0.078
Mof_H 	H 	0.7332	0.9285	0.8662	0.076
Mof_H 	H 	0.6669	0.9507	0.9236	0.019
Mof_H 	H 	0.9993	0.1883	0.6828	0.026
Mof_H 	H 	0.0551	0.2553	0.7061	0.078
Mof_H 	H 	0.1338	0.2332	0.5715	0.076
Mof_H 	H 	0.0764	0.1669	0.5493	0.019
Mof_H 	H 	0.4993	0.3117	0.3172	0.027
Mof_H 	H 	0.5551	0.2447	0.2939	0.078
Mof_H 	H 	0.6338	0.2668	0.4285	0.076
Mof_H 	H 	0.5764	0.3331	0.4507	0.019
Mof_H 	H 	0.5007	0.8117	0.1828	0.027
Mof_H 	H 	0.4449	0.7447	0.2061	0.078
Mof_H 	H 	0.3662	0.7668	0.0715	0.076
Mof_H 	H 	0.4236	0.8331	0.0493	0.019
Mof_H 	H 	0.0007	0.6883	0.8172	0.026
Mof_H 	H 	0.9449	0.7553	0.7939	0.078
Mof_H 	H 	0.8662	0.7332	0.9285	0.076
Mof_H 	H 	0.9236	0.6669	0.9507	0.019
Mof_H 	H 	0.6828	0.9993	0.1883	0.026
Mof_H 	H 	0.7061	0.0551	0.2553	0.078
Mof_H 	H 	0.5715	0.1338	0.2332	0.076
Mof_H 	H 	0.5493	0.0764	0.1669	0.019
Mof_H 	H 	0.3172	0.4993	0.3117	0.027
Mof_H 	H 	0.2939	0.5551	0.2447	0.078
Mof_H 	H 	0.4285	0.6338	0.2668	0.076
Mof_H 	H 	0.4507	0.5764	0.3331	0.019
Mof_H 	H 	0.1828	0.5007	0.8117	0.027
Mof_H 	H 	0.2061	0.4449	0.7447	0.078
Mof_H 	H 	0.0715	0.3662	0.7668	0.076
Mof_H 	H 	0.0493	0.4236	0.8331	0.019
Mof_H 	H 	0.8172	0.0007	0.6883	0.026
Mof_H 	H 	0.7939	0.9449	0.7553	0.078
Mof_H 	H 	0.9285	0.8662	0.7332	0.076
Mof_H 	H 	0.9507	0.9236	0.6669	0.019
Mof_H 	H 	0.4328	0.4383	0.2507	0.027
Mof_H 	H 	0.4561	0.5053	0.1949	0.078
Mof_H 	H 	0.3215	0.4832	0.1162	0.076
Mof_H 	H 	0.2993	0.4169	0.1736	0.019
Mof_H 	H 	0.0672	0.5617	0.7507	0.027
Mof_H 	H 	0.0439	0.4947	0.6949	0.078
Mof_H 	H 	0.1785	0.5168	0.6162	0.076
Mof_H 	H 	0.2007	0.5831	0.6736	0.019
Mof_H 	H 	0.9328	0.0617	0.7493	0.025
Mof_H 	H 	0.9561	0.9947	0.8051	0.081
Mof_H 	H 	0.8215	0.0168	0.8838	0.077
Mof_H 	H 	0.7993	0.0831	0.8264	0.018
Mof_H 	H 	0.5672	0.9383	0.2493	0.026
Mof_H 	H 	0.5439	0.0053	0.3051	0.079
Mof_H 	H 	0.6785	0.9832	0.3838	0.076
Mof_H 	H 	0.7007	0.9169	0.3264	0.019
Mof_H 	H 	0.9383	0.2493	0.5672	0.026
Mof_H 	H 	0.0053	0.3051	0.5439	0.079
Mof_H 	H 	0.9832	0.3838	0.6785	0.076
Mof_H 	H 	0.9169	0.3264	0.7007	0.019
Mof_H 	H 	0.0617	0.7493	0.9328	0.025
Mof_H 	H 	0.9947	0.8051	0.9561	0.081
Mof_H 	H 	0.0168	0.8838	0.8215	0.077
Mof_H 	H 	0.0831	0.8264	0.7993	0.018
Mof_H 	H 	0.5617	0.7507	0.0672	0.027
Mof_H 	H 	0.4947	0.6949	0.0439	0.078
Mof_H 	H 	0.5168	0.6162	0.1785	0.076
Mof_H 	H 	0.5831	0.6736	0.2007	0.019
Mof_H 	H 	0.4383	0.2507	0.4328	0.027
Mof_H 	H 	0.5053	0.1949	0.4561	0.078
Mof_H 	H 	0.4832	0.1162	0.3215	0.076
Mof_H 	H 	0.4169	0.1736	0.2993	0.019
Mof_H 	H 	0.7493	0.9328	0.0617	0.025
Mof_H 	H 	0.8051	0.9561	0.9947	0.081
Mof_H 	H 	0.8838	0.8215	0.0168	0.077
Mof_H 	H 	0.8264	0.7993	0.0831	0.018
Mof_H 	H 	0.2493	0.5672	0.9383	0.026
Mof_H 	H 	0.3051	0.5439	0.0053	0.079
Mof_H 	H 	0.3838	0.6785	0.9832	0.076
Mof_H 	H 	0.3264	0.7007	0.9169	0.019
Mof_H 	H 	0.2507	0.4328	0.4383	0.027
Mof_H 	H 	0.1949	0.4561	0.5053	0.078
Mof_H 	H 	0.1162	0.3215	0.4832	0.076
Mof_H 	H 	0.1736	0.2993	0.4169	0.019
Mof_H 	H 	0.7507	0.0672	0.5617	0.027
Mof_H 	H 	0.6949	0.0439	0.4947	0.078
Mof_H 	H 	0.6162	0.1785	0.5168	0.076
Mof_H 	H 	0.6736	0.2007	0.5831	0.019
Mof_C 	C 	0.29661	0.65192	0.13352	0.105
Mof_C 	C 	0.12818	0.6006	0.99377	0.417
Mof_C 	C 	0.17111	0.61468	0.03224	-0.138
Mof_C 	C 	0.19759	0.66038	0.02631	0.057
Mof_C 	C 	0.23802	0.67446	0.05929	-0.113
Mof_C 	C 	0.25203	0.64007	0.09872	0.047
Mof_C 	C 	0.22464	0.59358	0.1063	-0.115
Mof_C 	C 	0.18469	0.5807	0.07239	0.053
Mof_C 	C 	0.20339	0.34808	0.63352	0.105
Mof_C 	C 	0.37182	0.3994	0.49377	0.418
Mof_C 	C 	0.32889	0.38532	0.53224	-0.139
Mof_C 	C 	0.30241	0.33962	0.52631	0.056
Mof_C 	C 	0.26198	0.32554	0.55929	-0.113
Mof_C 	C 	0.24797	0.35993	0.59872	0.047
Mof_C 	C 	0.27536	0.40642	0.6063	-0.115
Mof_C 	C 	0.31531	0.4193	0.57239	0.053
Mof_C 	C 	0.70339	0.15192	0.36648	0.105
Mof_C 	C 	0.87182	0.1006	0.50623	0.418
Mof_C 	C 	0.82889	0.11468	0.46776	-0.139
Mof_C 	C 	0.80241	0.16038	0.47369	0.056
Mof_C 	C 	0.76198	0.17446	0.44071	-0.113
Mof_C 	C 	0.74797	0.14007	0.40128	0.047
Mof_C 	C 	0.77536	0.09358	0.3937	-0.115
Mof_C 	C 	0.81531	0.0807	0.42761	0.053
Mof_C 	C 	0.79661	0.84808	0.86648	0.105
Mof_C 	C 	0.62818	0.8994	0.00623	0.417
Mof_C 	C 	0.67111	0.88532	0.96776	-0.139
Mof_C 	C 	0.69759	0.83962	0.97369	0.057
Mof_C 	C 	0.73802	0.82554	0.94071	-0.113
Mof_C 	C 	0.75203	0.85993	0.90128	0.047
Mof_C 	C 	0.72464	0.90642	0.8937	-0.115
Mof_C 	C 	0.68469	0.9193	0.92761	0.053
Mof_C 	C 	0.13352	0.29661	0.65192	0.105
Mof_C 	C 	0.99377	0.12818	0.6006	0.417
Mof_C 	C 	0.03224	0.17111	0.61468	-0.138
Mof_C 	C 	0.02631	0.19759	0.66038	0.057
Mof_C 	C 	0.05929	0.23802	0.67446	-0.113
Mof_C 	C 	0.09872	0.25203	0.64007	0.047
Mof_C 	C 	0.1063	0.22464	0.59358	-0.115
Mof_C 	C 	0.07239	0.18469	0.5807	0.053
Mof_C 	C 	0.63352	0.20339	0.34808	0.105
Mof_C 	C 	0.49377	0.37182	0.3994	0.418
Mof_C 	C 	0.53224	0.32889	0.38532	-0.139
Mof_C 	C 	0.52631	0.30241	0.33962	0.056
Mof_C 	C 	0.55929	0.26198	0.32554	-0.113
Mof_C 	C 	0.59872	0.24797	0.35993	0.047
Mof_C 	C 	0.6063	0.27536	0.40642	-0.115
Mof_C 	C 	0.57239	0.31531	0.4193	0.053
Mof_C 	C 	0.36648	0.70339	0.15192	0.105
Mof_C 	C 	0.50623	0.87182	0.1006	0.418
Mof_C 	C 	0.46776	0.82889	0.11468	-0.139
Mof_C 	C 	0.47369	0.80241	0.16038	0.056
Mof_C 	C 	0.44071	0.76198	0.17446	-0.113
Mof_C 	C 	0.40128	0.74797	0.14007	0.047
Mof_C 	C 	0.3937	0.77536	0.09358	-0.115
Mof_C 	C 	0.42761	0.81531	0.0807	0.053
Mof_C 	C 	0.86648	0.79661	0.84808	0.105
Mof_C 	C 	0.00623	0.62818	0.8994	0.417
Mof_C 	C 	0.96776	0.67111	0.88532	-0.139
Mof_C 	C 	0.97369	0.69759	0.83962	0.057
Mof_C 	C 	0.94071	0.73802	0.82554	-0.113
Mof_C 	C 	0.90128	0.75203	0.85993	0.047
Mof_C 	C 	0.8937	0.72464	0.90642	-0.115
Mof_C 	C 	0.92761	0.68469	0.9193	0.053
Mof_C 	C 	0.65192	0.13352	0.29661	0.105
Mof_C 	C 	0.6006	0.99377	0.12818	0.417
Mof_C 	C 	0.61468	0.03224	0.17111	-0.138
Mof_C 	C 	0.66038	0.02631	0.19759	0.057
Mof_C 	C 	0.67446	0.05929	0.23802	-0.113
Mof_C 	C 	0.64007	0.09872	0.25203	0.047
Mof_C 	C 	0.59358	0.1063	0.22464	-0.115
Mof_C 	C 	0.5807	0.07239	0.18469	0.053
Mof_C 	C 	0.34808	0.63352	0.20339	0.105
Mof_C 	C 	0.3994	0.49377	0.37182	0.418
Mof_C 	C 	0.38532	0.53224	0.32889	-0.139
Mof_C 	C 	0.33962	0.52631	0.30241	0.056
Mof_C 	C 	0.32554	0.55929	0.26198	-0.113
Mof_C 	C 	0.35993	0.59872	0.24797	0.047
Mof_C 	C 	0.40642	0.6063	0.27536	-0.115
Mof_C 	C 	0.4193	0.57239	0.31531	0.053
Mof_C 	C 	0.15192	0.36648	0.70339	0.105
Mof_C 	C 	0.1006	0.50623	0.87182	0.418
Mof_C 	C 	0.11468	0.46776	0.82889	-0.139
Mof_C 	C 	0.16038	0.47369	0.80241	0.056
Mof_C 	C 	0.17446	0.44071	0.76198	-0.113
Mof_C 	C 	0.14007	0.40128	0.74797	0.047
Mof_C 	C 	0.09358	0.3937	0.77536	-0.115
Mof_C 	C 	0.0807	0.42761	0.81531	0.053
Mof_C 	C 	0.84808	0.86648	0.79661	0.105
Mof_C 	C 	0.8994	0.00623	0.62818	0.417
Mof_C 	C 	0.88532	0.96776	0.67111	-0.139
Mof_C 	C 	0.83962	0.97369	0.69759	0.057
Mof_C 	C 	0.82554	0.94071	0.73802	-0.113
Mof_C 	C 	0.85993	0.90128	0.75203	0.047
Mof_C 	C 	0.90642	0.8937	0.72464	-0.115
Mof_C 	C 	0.9193	0.92761	0.68469	0.053
Mof_C 	C 	0.40192	0.54661	0.11648	0.105
Mof_C 	C 	0.3506	0.37818	0.25623	0.418
Mof_C 	C 	0.36468	0.42111	0.21776	-0.139
Mof_C 	C 	0.41038	0.44759	0.22369	0.056
Mof_C 	C 	0.42446	0.48802	0.19071	-0.113
Mof_C 	C 	0.39007	0.50203	0.15128	0.047
Mof_C 	C 	0.34358	0.47464	0.1437	-0.115
Mof_C 	C 	0.3307	0.43469	0.17761	0.053
Mof_C 	C 	0.09808	0.45339	0.61648	0.105
Mof_C 	C 	0.1494	0.62182	0.75623	0.418
Mof_C 	C 	0.13532	0.57889	0.71776	-0.139
Mof_C 	C 	0.08962	0.55241	0.72369	0.056
Mof_C 	C 	0.07554	0.51198	0.69071	-0.113
Mof_C 	C 	0.10993	0.49797	0.65128	0.047
Mof_C 	C 	0.15642	0.52536	0.6437	-0.115
Mof_C 	C 	0.1693	0.56531	0.67761	0.053
Mof_C 	C 	0.90192	0.95339	0.88352	0.103
Mof_C 	C 	0.8506	0.12182	0.74377	0.419
Mof_C 	C 	0.86468	0.07889	0.78224	-0.142
Mof_C 	C 	0.91038	0.05241	0.77631	0.06
Mof_C 	C 	0.92446	0.01198	0.80929	-0.119
Mof_C 	C 	0.89007	0.99797	0.84872	0.052
Mof_C 	C 	0.84358	0.02536	0.8563	-0.119
Mof_C 	C 	0.8307	0.06531	0.82239	0.056
Mof_C 	C 	0.59808	0.04661	0.38352	0.104
Mof_C 	C 	0.6494	0.87818	0.24377	0.419
Mof_C 	C 	0.63532	0.92111	0.28224	-0.14
Mof_C 	C 	0.58962	0.94759	0.27631	0.058
Mof_C 	C 	0.57554	0.98802	0.30929	-0.115
Mof_C 	C 	0.60993	0.00203	0.34872	0.048
Mof_C 	C 	0.65642	0.97464	0.3563	-0.116
Mof_C 	C 	0.6693	0.93469	0.32239	0.054
Mof_C 	C 	0.04661	0.38352	0.59808	0.104
Mof_C 	C 	0.87818	0.24377	0.6494	0.419
Mof_C 	C 	0.92111	0.28224	0.63532	-0.14
Mof_C 	C 	0.94759	0.27631	0.58962	0.058
Mof_C 	C 	0.98802	0.30929	0.57554	-0.115
Mof_C 	C 	0.00203	0.34872	0.60993	0.048
Mof_C 	C 	0.97464	0.3563	0.65642	-0.116
Mof_C 	C 	0.93469	0.32239	0.6693	0.054
Mof_C 	C 	0.95339	0.88352	0.90192	0.103
Mof_C 	C 	0.12182	0.74377	0.8506	0.419
Mof_C 	C 	0.07889	0.78224	0.86468	-0.142
Mof_C 	C 	0.05241	0.77631	0.91038	0.06
Mof_C 	C 	0.01198	0.80929	0.92446	-0.119
Mof_C 	C 	0.99797	0.84872	0.89007	0.052
Mof_C 	C 	0.02536	0.8563	0.84358	-0.119
Mof_C 	C 	0.06531	0.82239	0.8307	0.056
Mof_C 	C 	0.45339	0.61648	0.09808	0.105
Mof_C 	C 	0.62182	0.75623	0.1494	0.418
Mof_C 	C 	0.57889	0.71776	0.13532	-0.139
Mof_C 	C 	0.55241	0.72369	0.08962	0.056
Mof_C 	C 	0.51198	0.69071	0.07554	-0.113
Mof_C 	C 	0.49797	0.65128	0.10993	0.047
Mof_C 	C 	0.52536	0.6437	0.15642	-0.115
Mof_C 	C 	0.56531	0.67761	0.1693	0.053
Mof_C 	C 	0.54661	0.11648	0.40192	0.105
Mof_C 	C 	0.37818	0.25623	0.3506	0.418
Mof_C 	C 	0.42111	0.21776	0.36468	-0.139
Mof_C 	C 	0.44759	0.22369	0.41038	0.056
Mof_C 	C 	0.48802	0.19071	0.42446	-0.113
Mof_C 	C 	0.50203	0.15128	0.39007	0.047
Mof_C 	C 	0.47464	0.1437	0.34358	-0.115
Mof_C 	C 	0.43469	0.17761	0.3307	0.053
Mof_C 	C 	0.88352	0.90192	0.95339	0.103
Mof_C 	C 	0.74377	0.8506	0.12182	0.419
Mof_C 	C 	0.78224	0.86468	0.07889	-0.142
Mof_C 	C 	0.77631	0.91038	0.05241	0.06
Mof_C 	C 	0.80929	0.92446	0.01198	-0.119
Mof_C 	C 	0.84872	0.89007	0.99797	0.052
Mof_C 	C 	0.8563	0.84358	0.02536	-0.119
Mof_C 	C 	0.82239	0.8307	0.06531	0.056
Mof_C 	C 	0.38352	0.59808	0.04661	0.104
Mof_C 	C 	0.24377	0.6494	0.87818	0.419
Mof_C 	C 	0.28224	0.63532	0.92111	-0.14
Mof_C 	C 	0.27631	0.58962	0.94759	0.058
Mof_C 	C 	0.30929	0.57554	0.98802	-0.115
Mof_C 	C 	0.34872	0.60993	0.00203	0.048
Mof_C 	C 	0.3563	0.65642	0.97464	-0.116
Mof_C 	C 	0.32239	0.6693	0.93469	0.054
Mof_C 	C 	0.11648	0.40192	0.54661	0.105
Mof_C 	C 	0.25623	0.3506	0.37818	0.418
Mof_C 	C 	0.21776	0.36468	0.42111	-0.139
Mof_C 	C 	0.22369	0.41038	0.44759	0.056
Mof_C 	C 	0.19071	0.42446	0.48802	-0.113
Mof_C 	C 	0.15128	0.39007	0.50203	0.047
Mof_C 	C 	0.1437	0.34358	0.47464	-0.115
Mof_C 	C 	0.17761	0.3307	0.43469	0.053
Mof_C 	C 	0.61648	0.09808	0.45339	0.105
Mof_C 	C 	0.75623	0.1494	0.62182	0.418
Mof_C 	C 	0.71776	0.13532	0.57889	-0.139
Mof_C 	C 	0.72369	0.08962	0.55241	0.056
Mof_C 	C 	0.69071	0.07554	0.51198	-0.113
Mof_C 	C 	0.65128	0.10993	0.49797	0.047
Mof_C 	C 	0.6437	0.15642	0.52536	-0.115
Mof_C 	C 	0.67761	0.1693	0.56531	0.053
Mof_N 	N 	0.32539	0.69446	0.12166	-0.14
Mof_N 	N 	0.17461	0.30554	0.62166	-0.14
Mof_N 	N 	0.67461	0.19446	0.37834	-0.14
Mof_N 	N 	0.82539	0.80554	0.87834	-0.14
Mof_N 	N 	0.12166	0.32539	0.69446	-0.14
Mof_N 	N 	0.62166	0.17461	0.30554	-0.14
Mof_N 	N 	0.37834	0.67461	0.19446	-0.14
Mof_N 	N 	0.87834	0.82539	0.80554	-0.14
Mof_N 	N 	0.69446	0.12166	0.32539	-0.14
Mof_N 	N 	0.30554	0.62166	0.17461	-0.14
Mof_N 	N 	0.19446	0.37834	0.67461	-0.14
Mof_N 	N 	0.80554	0.87834	0.82539	-0.14
Mof_N 	N 	0.44446	0.57539	0.12834	-0.14
Mof_N 	N 	0.05554	0.42461	0.62834	-0.14
Mof_N 	N 	0.94446	0.92461	0.87166	-0.139
Mof_N 	N 	0.55554	0.07539	0.37166	-0.14
Mof_N 	N 	0.07539	0.37166	0.55554	-0.14
Mof_N 	N 	0.92461	0.87166	0.94446	-0.139
Mof_N 	N 	0.42461	0.62834	0.05554	-0.14
Mof_N 	N 	0.57539	0.12834	0.44446	-0.14
Mof_N 	N 	0.87166	0.94446	0.92461	-0.139
Mof_N 	N 	0.37166	0.55554	0.07539	-0.14
Mof_N 	N 	0.12834	0.44446	0.57539	-0.14
Mof_N 	N 	0.62834	0.05554	0.42461	-0.14
Mof_O 	O 	0.12263	0.62917	0.95571	-0.47
Mof_O 	O 	0.10113	0.56096	0.00337	-0.509
Mof_O 	O 	0.37737	0.37083	0.45571	-0.47
Mof_O 	O 	0.39887	0.43904	0.50337	-0.51
Mof_O 	O 	0.87737	0.12917	0.54429	-0.471
Mof_O 	O 	0.89887	0.06096	0.49663	-0.51
Mof_O 	O 	0.62263	0.87083	0.04429	-0.47
Mof_O 	O 	0.60113	0.93904	0.99663	-0.509
Mof_O 	O 	0.95571	0.12263	0.62917	-0.47
Mof_O 	O 	0.00337	0.10113	0.56096	-0.509
Mof_O 	O 	0.45571	0.37737	0.37083	-0.47
Mof_O 	O 	0.50337	0.39887	0.43904	-0.51
Mof_O 	O 	0.54429	0.87737	0.12917	-0.471
Mof_O 	O 	0.49663	0.89887	0.06096	-0.51
Mof_O 	O 	0.04429	0.62263	0.87083	-0.47
Mof_O 	O 	0.99663	0.60113	0.93904	-0.509
Mof_O 	O 	0.62917	0.95571	0.12263	-0.47
Mof_O 	O 	0.56096	0.00337	0.10113	-0.509
Mof_O 	O 	0.37083	0.45571	0.37737	-0.47
Mof_O 	O 	0.43904	0.50337	0.39887	-0.51
Mof_O 	O 	0.12917	0.54429	0.87737	-0.471
Mof_O 	O 	0.06096	0.49663	0.89887	-0.51
Mof_O 	O 	0.87083	0.04429	0.62263	-0.47
Mof_O 	O 	0.93904	0.99663	0.60113	-0.509
Mof_O 	O 	0.37917	0.37263	0.29429	-0.47
Mof_O 	O 	0.31096	0.35113	0.24663	-0.51
Mof_O 	O 	0.12083	0.62737	0.79429	-0.47
Mof_O 	O 	0.18904	0.64887	0.74663	-0.51
Mof_O 	O 	0.87917	0.12737	0.70571	-0.471
Mof_O 	O 	0.81096	0.14887	0.75337	-0.51
Mof_O 	O 	0.62083	0.87263	0.20571	-0.471
Mof_O 	O 	0.68904	0.85113	0.25337	-0.51
Mof_O 	O 	0.87263	0.20571	0.62083	-0.471
Mof_O 	O 	0.85113	0.25337	0.68904	-0.51
Mof_O 	O 	0.12737	0.70571	0.87917	-0.471
Mof_O 	O 	0.14887	0.75337	0.81096	-0.51
Mof_O 	O 	0.62737	0.79429	0.12083	-0.47
Mof_O 	O 	0.64887	0.74663	0.18904	-0.51
Mof_O 	O 	0.37263	0.29429	0.37917	-0.47
Mof_O 	O 	0.35113	0.24663	0.31096	-0.51
Mof_O 	O 	0.70571	0.87917	0.12737	-0.471
Mof_O 	O 	0.75337	0.81096	0.14887	-0.51
Mof_O 	O 	0.20571	0.62083	0.87263	-0.471
Mof_O 	O 	0.25337	0.68904	0.85113	-0.51
Mof_O 	O 	0.29429	0.37917	0.37263	-0.47
Mof_O 	O 	0.24663	0.31096	0.35113	-0.51
Mof_O 	O 	0.79429	0.12083	0.62737	-0.47
Mof_O 	O 	0.74663	0.18904	0.64887	-0.51
_end
