data_functionalizedCrystal
_audit_creation_method	'EQeq! by Chris Wilmer'
_symmetry_space_group_name_H-M	'P1'
_symmetry_Int_Tables_number	1
_symmetry_cell_setting	triclinic
loop_
_symmetry_equiv_pos_as_xyz
  x,y,z
_cell_length_a	7.2094
_cell_length_b	22.652
_cell_length_c	10.6553
_cell_angle_alpha	90
_cell_angle_beta	90.554
_cell_angle_gamma	90
loop_
_atom_site_label
_atom_site_type_symbol
_atom_site_fract_x
_atom_site_fract_y
_atom_site_fract_z
_atom_site_charge
Mof_Sm	Sm	0.26141	0.25076	0.85258	1.844
Mof_Sb	Sb	0.45956	0.98823	0.12384	0.554
Mof_Sb	Sb	0.569	0.48338	0.60413	0.554
Mof_N 	N 	0.1989	0.04779	0.1201	-0.061
Mof_N 	N 	0.221	0.9211	0.1542	-0.057
Mof_N 	N 	0.8052	0.41621	0.6369	-0.057
Mof_N 	N 	0.8316	0.54247	0.6027	-0.04
Mof_O 	O 	0.3816	0.00311	0.3211	-0.299
Mof_O 	O 	0.2645	0.06937	0.453	-0.281
Mof_O 	O 	0.5233	0.08573	0.0217	-0.293
Mof_O 	O 	0.388	0.16009	0.9206	-0.549
Mof_O 	O 	0.5765	0.88709	0.1818	-0.335
Mof_O 	O 	0.5032	0.80759	0.2945	-0.549
Mof_O 	O 	0.3571	0.97058	0.9406	-0.301
Mof_O 	O 	0.2048	0.9084	0.8139	-0.27
Mof_O 	O 	0.4497	0.38274	0.6626	-0.335
Mof_O 	O 	0.5194	0.30662	0.7872	-0.558
Mof_O 	O 	0.6734	0.46581	0.4213	-0.305
Mof_O 	O 	0.8218	0.4041	0.2964	-0.293
Mof_O 	O 	0.6469	0.50063	0.8024	-0.31
Mof_O 	O 	0.7642	0.56742	0.9324	-0.308
Mof_O 	O 	0.5072	0.57926	0.5025	-0.309
Mof_O 	O 	0.6377	0.6549	0.4024	-0.541
Mof_C 	C 	0.2103	0.0847	0.2362	-0.255
Mof_H 	H 	0.2897	0.1195	0.2198	0.102
Mof_H 	H 	0.0847	0.0992	0.2567	0.128
Mof_C 	C 	0.2885	0.0512	0.348	0.368
Mof_C 	C 	0.1943	0.0873	0.0088	-0.246
Mof_H 	H 	0.1514	0.0646	0.9347	0.118
Mof_H 	H 	0.1043	0.1195	0.0234	0.096
Mof_C 	C 	0.3818	0.1136	0.9822	0.41
Mof_C 	C 	0.0309	0.0092	0.117	-0.019
Mof_H 	H 	0.0046	0.9975	0.0291	0.085
Mof_H 	H 	0.9233	0.0321	0.1473	0.031
Mof_C 	C 	0.0512	0.9553	0.1943	-0.029
Mof_H 	H 	0.0634	0.9663	0.2839	0.078
Mof_H 	H 	0.9395	0.9303	0.1843	0.028
Mof_C 	C 	0.2683	0.8775	0.2531	-0.298
Mof_H 	H 	0.2544	0.8961	0.3366	0.14
Mof_H 	H 	0.181	0.8438	0.2479	0.113
Mof_C 	C 	0.4629	0.8552	0.2398	0.44
Mof_C 	C 	0.1924	0.8896	0.0323	-0.24
Mof_H 	H 	0.2632	0.8522	0.0345	0.1
Mof_H 	H 	0.0594	0.8796	0.0231	0.125
Mof_C 	C 	0.2514	0.9248	0.9186	0.346
Mof_C 	C 	0.759	0.3727	0.7357	-0.284
Mof_H 	H 	0.7809	0.3908	0.8191	0.122
Mof_H 	H 	0.8422	0.3382	0.7283	0.087
Mof_C 	C 	0.5605	0.3523	0.7264	0.438
Mof_C 	C 	0.8325	0.3846	0.515	-0.25
Mof_H 	H 	0.7603	0.3474	0.5161	0.095
Mof_H 	H 	0.9652	0.374	0.5072	0.096
Mof_C 	C 	0.7746	0.4202	0.4019	0.355
Mof_C 	C 	0.9763	0.4489	0.6768	-0.075
Mof_H 	H 	0.0862	0.4232	0.6665	0.086
Mof_H 	H 	0.9675	0.4596	0.7666	0.067
Mof_C 	C 	0.9991	0.5048	0.598	-0.193
Mof_H 	H 	0.1074	0.5274	0.6296	0.127
Mof_H 	H 	0.0234	0.4936	0.5098	0.142
Mof_C 	C 	0.8235	0.5801	0.718	-0.26
Mof_H 	H 	0.7467	0.6154	0.7001	0.097
Mof_H 	H 	0.9503	0.5937	0.7399	0.107
Mof_C 	C 	0.7434	0.5474	0.8283	0.377
Mof_C 	C 	0.836	0.5818	0.4917	-0.289
Mof_H 	H 	0.8781	0.5591	0.4179	0.123
Mof_H 	H 	0.9261	0.614	0.507	0.082
Mof_C 	C 	0.6478	0.608	0.4638	0.433
Mof_Sm	Sm	0.76141	0.74924	0.35258	1.808
Mof_Sb	Sb	0.95956	0.01177	0.62384	0.506
Mof_Sb	Sb	0.069	0.51662	0.10413	0.591
Mof_N 	N 	0.6989	0.95221	0.6201	-0.054
Mof_N 	N 	0.721	0.0789	0.6542	-0.059
Mof_N 	N 	0.3052	0.58379	0.1369	-0.053
Mof_N 	N 	0.3316	0.45753	0.1027	-0.044
Mof_O 	O 	0.8816	0.99689	0.8211	-0.312
Mof_O 	O 	0.7645	0.93063	0.953	-0.305
Mof_O 	O 	0.0233	0.91427	0.5217	-0.266
Mof_O 	O 	0.888	0.83991	0.4206	-0.552
Mof_O 	O 	0.0765	0.11291	0.6818	-0.275
Mof_O 	O 	0.0032	0.19241	0.7945	-0.499
Mof_O 	O 	0.8571	0.02942	0.4406	-0.307
Mof_O 	O 	0.7048	0.0916	0.3139	-0.287
Mof_O 	O 	0.9497	0.61726	0.1626	-0.378
Mof_O 	O 	0.0194	0.69338	0.2872	-0.541
Mof_O 	O 	0.1734	0.53419	0.9213	-0.3
Mof_O 	O 	0.3218	0.5959	0.7964	-0.276
Mof_O 	O 	0.1469	0.49937	0.3024	-0.302
Mof_O 	O 	0.2642	0.43258	0.4324	-0.287
Mof_O 	O 	0.0072	0.42074	0.0025	-0.282
Mof_O 	O 	0.1377	0.3451	0.9024	-0.536
Mof_C 	C 	0.7103	0.9153	0.7362	-0.252
Mof_H 	H 	0.7897	0.8805	0.7198	0.091
Mof_H 	H 	0.5847	0.9008	0.7567	0.114
Mof_C 	C 	0.7885	0.9488	0.848	0.361
Mof_C 	C 	0.6943	0.9127	0.5088	-0.283
Mof_H 	H 	0.6514	0.9354	0.4347	0.129
Mof_H 	H 	0.6043	0.8805	0.5234	0.092
Mof_C 	C 	0.8818	0.8864	0.4822	0.403
Mof_C 	C 	0.5309	0.9908	0.617	-0.077
Mof_H 	H 	0.5046	0.0025	0.5291	0.085
Mof_H 	H 	0.4233	0.9679	0.6473	0.076
Mof_C 	C 	0.5512	0.0447	0.6943	-0.066
Mof_H 	H 	0.5634	0.0337	0.7839	0.077
Mof_H 	H 	0.4395	0.0697	0.6843	0.065
Mof_C 	C 	0.7683	0.1225	0.7531	-0.249
Mof_H 	H 	0.7544	0.1039	0.8366	0.115
Mof_H 	H 	0.681	0.1562	0.7479	0.086
Mof_C 	C 	0.9629	0.1448	0.7398	0.334
Mof_C 	C 	0.6924	0.1104	0.5323	-0.248
Mof_H 	H 	0.7632	0.1478	0.5345	0.091
Mof_H 	H 	0.5594	0.1204	0.5231	0.111
Mof_C 	C 	0.7514	0.0752	0.4186	0.351
Mof_C 	C 	0.259	0.6273	0.2357	-0.309
Mof_H 	H 	0.2809	0.6092	0.3191	0.142
Mof_H 	H 	0.3422	0.6618	0.2283	0.106
Mof_C 	C 	0.0605	0.6477	0.2264	0.488
Mof_C 	C 	0.3325	0.6154	0.015	-0.239
Mof_H 	H 	0.2603	0.6526	0.0161	0.102
Mof_H 	H 	0.4652	0.626	0.0072	0.109
Mof_C 	C 	0.2746	0.5798	0.9019	0.35
Mof_C 	C 	0.4763	0.5511	0.1768	-0.067
Mof_H 	H 	0.5862	0.5768	0.1665	0.063
Mof_H 	H 	0.4675	0.5404	0.2666	0.076
Mof_C 	C 	0.4991	0.4952	0.098	-0.078
Mof_H 	H 	0.6074	0.4726	0.1296	0.07
Mof_H 	H 	0.5234	0.5064	0.0098	0.09
Mof_C 	C 	0.3235	0.4199	0.218	-0.264
Mof_H 	H 	0.2467	0.3846	0.2001	0.107
Mof_H 	H 	0.4503	0.4063	0.2399	0.12
Mof_C 	C 	0.2434	0.4526	0.3283	0.38
Mof_C 	C 	0.336	0.4182	0.9917	-0.329
Mof_H 	H 	0.3781	0.4409	0.9179	0.141
Mof_H 	H 	0.4261	0.386	0.007	0.113
Mof_C 	C 	0.1478	0.392	0.9638	0.428
_end
