# CIF file generated by openbabel 3.1.0, see https://openbabel.org
data_I
_chemical_name_common 'image0'
_cell_length_a 9.109
_cell_length_b 11.021
_cell_length_c 11.987
_cell_angle_alpha 90
_cell_angle_beta 90
_cell_angle_gamma 90
_space_group_name_H-M_alt 'P 1'
_space_group_name_Hall 'P 1'
loop_
    _symmetry_equiv_pos_as_xyz
    x,y,z
loop_
    _atom_site_label
    _atom_site_type_symbol
    _atom_site_fract_x
    _atom_site_fract_y
    _atom_site_fract_z
    _atom_site_occupancy
    P1       P        0.54160    0.31350    0.40620    1.000
    O1       O        0.54320    0.39610    0.50950    1.000
    O2       O        0.53530    0.18160    0.43680    1.000
    O3       O        0.40790    0.35270    0.33410    1.000
    O4       O        0.31680    0.65560    0.65990    1.000
    P2       P        0.54160    0.18650    0.09380    1.000
    O5       O        0.54320    0.10390    0.99050    1.000
    O6       O        0.53530    0.31840    0.06320    1.000
    O7       O        0.40790    0.14730    0.16590    1.000
    O8       O        0.31680    0.84440    0.84010    1.000
    P3       P        0.95840    0.68650    0.90620    1.000
    O9       O        0.95680    0.60390    0.00950    1.000
    O10      O        0.96470    0.81840    0.93680    1.000
    O11      O        0.09210    0.64730    0.83410    1.000
    O12      O        0.18320    0.34440    0.15990    1.000
    P4       P        0.95840    0.81350    0.59380    1.000
    O13      O        0.95680    0.89610    0.49050    1.000
    O14      O        0.96470    0.68160    0.56320    1.000
    O15      O        0.09210    0.85270    0.66590    1.000
    O16      O        0.18320    0.15560    0.34010    1.000
    P5       P        0.45840    0.68650    0.59380    1.000
    O17      O        0.45680    0.60390    0.49050    1.000
    O18      O        0.46470    0.81840    0.56320    1.000
    O19      O        0.59210    0.64730    0.66590    1.000
    O20      O        0.68320    0.34440    0.34010    1.000
    P6       P        0.45840    0.81350    0.90620    1.000
    O21      O        0.45680    0.89610    0.00950    1.000
    O22      O        0.46470    0.68160    0.93680    1.000
    O23      O        0.59210    0.85270    0.83410    1.000
    O24      O        0.68320    0.15560    0.15990    1.000
    P7       P        0.04160    0.31350    0.09380    1.000
    O25      O        0.04320    0.39610    0.99050    1.000
    O26      O        0.03530    0.18160    0.06320    1.000
    O27      O        0.90790    0.35270    0.16590    1.000
    O28      O        0.81680    0.65560    0.84010    1.000
    P8       P        0.04160    0.18650    0.40620    1.000
    O29      O        0.04320    0.10390    0.50950    1.000
    O30      O        0.03530    0.31840    0.43680    1.000
    O31      O        0.90790    0.14730    0.33410    1.000
    O32      O        0.81680    0.84440    0.65990    1.000
    Ga1      Ga       0.70350    0.75000    0.75000    1.000
    Ga2      Ga       0.79650    0.25000    0.25000    1.000
    Ga3      Ga       0.29650    0.25000    0.25000    1.000
    Ga4      Ga       0.20350    0.75000    0.75000    1.000
    H1       H        0.50000    0.50000    0.50000    1.000
    H2       H        0.50000    0.00000    0.00000    1.000
    H3       H        0.00000    0.50000    0.00000    1.000
    H4       H        0.00000    0.00000    0.50000    1.000
