# CIF file generated by openbabel 3.1.0, see https://openbabel.org
data_I
_chemical_name_common 'image0'
_cell_length_a 16.1093
_cell_length_b 14.5197
_cell_length_c 15.1862
_cell_angle_alpha 89.9953
_cell_angle_beta 89.9994
_cell_angle_gamma 83.5708
_space_group_name_H-M_alt 'P 1'
_space_group_name_Hall 'P 1'
loop_
    _symmetry_equiv_pos_as_xyz
    x,y,z
loop_
    _atom_site_label
    _atom_site_type_symbol
    _atom_site_fract_x
    _atom_site_fract_y
    _atom_site_fract_z
    _atom_site_occupancy
    O1       O        0.10334    0.11854    0.92683    1.000
    O2       O        0.86130    0.13329    0.92681    1.000
    O3       O        0.98874    0.99166    0.92683    1.000
    O4       O        0.97590    0.26017    0.92681    1.000
    O5       O        0.98873    0.99166    0.07328    1.000
    O6       O        0.86129    0.13329    0.07327    1.000
    O7       O        0.10333    0.11854    0.07328    1.000
    Zn1      Zn       0.98231    0.12591    0.09653    1.000
    Zn2      Zn       0.98232    0.12592    0.90356    1.000
    O8       O        0.97589    0.26017    0.07327    1.000
    C1       C        0.83032    0.13269    0.00004    1.000
    C2       C        0.73802    0.13090    0.00003    1.000
    C3       C        0.98813    0.95730    0.00006    1.000
    C4       C        0.98634    0.85493    0.00006    1.000
    C5       C        0.51589    0.21077    0.00004    1.000
    C6       C        0.42916    0.20908    0.00004    1.000
    C7       C        0.44875    0.04105    0.00005    1.000
    C8       C        0.53547    0.04274    0.00005    1.000
    C9       C        0.56904    0.12761    0.00004    1.000
    C10      C        0.39559    0.12422    0.00005    1.000
    C11      C        0.30156    0.12239    0.00005    1.000
    C12      C        0.66307    0.12944    0.00004    1.000
    C13      C        0.97974    0.48005    0.00003    1.000
    C14      C        0.98157    0.58435    0.00004    1.000
    C15      C        0.98304    0.66748    0.00004    1.000
    C16      C        0.98487    0.77179    0.00005    1.000
    C17      C        0.13431    0.11914    0.00005    1.000
    C18      C        0.22661    0.12093    0.00005    1.000
    C19      C        0.97649    0.29453    0.00004    1.000
    C20      C        0.97829    0.39690    0.00003    1.000
    N1       N        0.98231    0.12591    0.22822    1.000
    N2       N        0.98233    0.12591    0.77187    1.000
    C21      C        0.03875    0.06322    0.45395    1.000
    C22      C        0.03876    0.06322    0.54614    1.000
    C23      C        0.92587    0.18861    0.54614    1.000
    C24      C        0.92587    0.18860    0.45395    1.000
    C25      C        0.98231    0.12591    0.40786    1.000
    C26      C        0.98232    0.12591    0.59224    1.000
    C27      C        0.98232    0.12591    0.69219    1.000
    C28      C        0.98231    0.12591    0.30790    1.000
    H1       H        0.54321    0.27988    0.00004    1.000
    H2       H        0.38589    0.27681    0.00004    1.000
    O9       O        0.09361    0.00223    0.40932    1.000
    C29      C        0.20560    0.87789    0.41905    1.000
    C30      C        0.14351    0.94690    0.46971    1.000
    H3       H        0.24598    0.83316    0.46786    1.000
    H4       H        0.16968    0.83174    0.37593    1.000
    H5       H        0.24715    0.91774    0.37586    1.000
    H6       H        0.10194    0.90714    0.51295    1.000
    H7       H        0.17949    0.99305    0.51278    1.000
    H8       H        0.42141    0.97195    0.00006    1.000
    H9       H        0.57875    0.97501    0.00005    1.000
    H10      H        0.08472    0.01217    0.58367    1.000
    H11      H        0.87992    0.23965    0.58367    1.000
    O10      O        0.87101    0.24960    0.40930    1.000
    C31      C        0.75901    0.37393    0.41902    1.000
    C32      C        0.82110    0.30493    0.46969    1.000
    H12      H        0.71863    0.41867    0.46782    1.000
    H13      H        0.79492    0.42007    0.37587    1.000
    H14      H        0.71745    0.33407    0.37585    1.000
    H15      H        0.86267    0.34470    0.51291    1.000
    H16      H        0.78514    0.25878    0.51278    1.000
