data_functionalizedCrystal
_audit_creation_method	'EQeq! by Chris Wilmer'
_symmetry_space_group_name_H-M	'P1'
_symmetry_Int_Tables_number	1
_symmetry_cell_setting	triclinic
loop_
_symmetry_equiv_pos_as_xyz
  x,y,z
_cell_length_a	10.3605
_cell_length_b	10.5224
_cell_length_c	15.014
_cell_angle_alpha	89.979
_cell_angle_beta	76.656
_cell_angle_gamma	89.98
loop_
_atom_site_label
_atom_site_type_symbol
_atom_site_fract_x
_atom_site_fract_y
_atom_site_fract_z
_atom_site_charge
Mof_Ag	Ag	0.63777	0.38787	0.51539	0.582
Mof_N 	N 	0.323	0.1013	0.0622	-0.141
Mof_N 	N 	0.831	0.1267	0.0583	-0.204
Mof_N 	N 	0.4247	0.1324	0.1041	-0.16
Mof_N 	N 	0.5732	0.3039	0.3859	-0.204
Mof_N 	N 	0.2384	0.1825	0.197	-0.093
Mof_N 	N 	0.1509	0.2384	0.273	-0.421
Mof_C 	C 	0.8477	0.0894	0.1393	0.076
Mof_C 	C 	0.9394	0.1637	0.9969	0.084
Mof_C 	C 	0.0643	0.1658	0.0133	-0.151
Mof_C 	C 	0.08	0.128	0.0988	0.051
Mof_C 	C 	0.9684	0.0877	0.1632	-0.145
Mof_C 	C 	0.2119	0.1336	0.1194	0.06
Mof_C 	C 	0.3713	0.1815	0.1842	0.065
Mof_C 	C 	0.4435	0.2241	0.253	0.092
Mof_C 	C 	0.407	0.1781	0.3415	-0.171
Mof_C 	C 	0.4751	0.2195	0.4047	0.087
Mof_C 	C 	0.6097	0.3452	0.2997	0.112
Mof_C 	C 	0.5488	0.3078	0.2316	-0.231
Mof_H 	H 	0.766	0.062	0.187	-0.007
Mof_H 	H 	0.921	0.186	0.936	-0.022
Mof_H 	H 	0.136	0.191	0.969	0.081
Mof_H 	H 	0.971	0.057	0.221	0.066
Mof_H 	H 	0.34	0.121	0.358	0.089
Mof_H 	H 	0.443	0.191	0.467	-0.013
Mof_H 	H 	0.676	0.413	0.285	-0.021
Mof_H 	H 	0.574	0.337	0.179	0.107
Mof_H 	H 	0.118	0.281	0.256	0.298
Mof_H 	H 	0.103	0.174	0.307	0.151
Mof_Ag	Ag	0.63778	0.11213	0.01539	0.581
Mof_N 	N 	0.5736	0.1963	0.886	-0.199
Mof_N 	N 	0.3225	0.3987	0.5627	-0.14
Mof_N 	N 	0.8313	0.373	0.5582	-0.218
Mof_N 	N 	0.4252	0.3674	0.6041	-0.162
Mof_N 	N 	0.2383	0.3176	0.6972	-0.096
Mof_N 	N 	0.1513	0.2595	0.7723	-0.437
Mof_C 	C 	0.4748	0.2803	0.9054	0.077
Mof_C 	C 	0.61	0.1557	0.7999	0.092
Mof_C 	C 	0.3723	0.318	0.684	0.076
Mof_C 	C 	0.443	0.2757	0.7534	0.065
Mof_C 	C 	0.4068	0.3215	0.8414	-0.153
Mof_C 	C 	0.5491	0.1921	0.7308	-0.174
Mof_C 	C 	0.9397	0.3362	0.4967	0.133
Mof_C 	C 	0.8472	0.4109	0.6392	0.109
Mof_C 	C 	0.2119	0.3663	0.6193	0.042
Mof_C 	C 	0.0795	0.3722	0.5988	0.092
Mof_C 	C 	0.0639	0.3342	0.5142	-0.232
Mof_C 	C 	0.9673	0.4114	0.6633	-0.196
Mof_H 	H 	0.446	0.311	0.965	-0.013
Mof_H 	H 	0.678	0.1	0.787	-0.015
Mof_H 	H 	0.977	0.442	0.717	0.08
Mof_H 	H 	0.342	0.381	0.856	0.079
Mof_H 	H 	0.578	0.166	0.674	0.077
Mof_H 	H 	0.927	0.303	0.442	-0.042
Mof_H 	H 	0.775	0.445	0.681	-0.024
Mof_H 	H 	0.134	0.316	0.474	0.122
Mof_H 	H 	0.099	0.215	0.748	0.164
Mof_H 	H 	0.115	0.308	0.787	0.296
Mof_Ag	Ag	0.36222	0.88787	0.98461	0.581
Mof_N 	N 	0.4264	0.8037	0.114	-0.199
Mof_N 	N 	0.6775	0.6013	0.4373	-0.14
Mof_N 	N 	0.1687	0.627	0.4418	-0.218
Mof_N 	N 	0.5748	0.6326	0.3959	-0.162
Mof_N 	N 	0.7617	0.6824	0.3028	-0.096
Mof_N 	N 	0.8487	0.7405	0.2277	-0.437
Mof_C 	C 	0.5252	0.7197	0.0946	0.077
Mof_C 	C 	0.39	0.8443	0.2001	0.092
Mof_C 	C 	0.6277	0.682	0.316	0.076
Mof_C 	C 	0.557	0.7243	0.2466	0.065
Mof_C 	C 	0.5932	0.6785	0.1586	-0.153
Mof_C 	C 	0.4509	0.8079	0.2692	-0.174
Mof_C 	C 	0.0603	0.6638	0.5033	0.133
Mof_C 	C 	0.1528	0.5891	0.3608	0.109
Mof_C 	C 	0.7881	0.6337	0.3807	0.042
Mof_C 	C 	0.9205	0.6278	0.4012	0.092
Mof_C 	C 	0.9361	0.6658	0.4858	-0.232
Mof_C 	C 	0.0327	0.5886	0.3367	-0.196
Mof_H 	H 	0.554	0.689	0.035	-0.013
Mof_H 	H 	0.322	0.9	0.213	-0.015
Mof_H 	H 	0.023	0.558	0.283	0.08
Mof_H 	H 	0.658	0.619	0.144	0.079
Mof_H 	H 	0.422	0.834	0.326	0.077
Mof_H 	H 	0.073	0.697	0.558	-0.042
Mof_H 	H 	0.225	0.555	0.319	-0.024
Mof_H 	H 	0.866	0.684	0.526	0.122
Mof_H 	H 	0.901	0.785	0.252	0.164
Mof_H 	H 	0.885	0.692	0.213	0.296
Mof_Ag	Ag	0.36223	0.61213	0.48461	0.581
Mof_N 	N 	0.677	0.8987	0.9378	-0.142
Mof_N 	N 	0.169	0.8733	0.9417	-0.204
Mof_N 	N 	0.5753	0.8676	0.8959	-0.16
Mof_N 	N 	0.4268	0.6961	0.6141	-0.204
Mof_N 	N 	0.7616	0.8175	0.803	-0.093
Mof_N 	N 	0.8491	0.7616	0.727	-0.421
Mof_C 	C 	0.1523	0.9106	0.8607	0.076
Mof_C 	C 	0.0606	0.8363	0.0031	0.084
Mof_C 	C 	0.9357	0.8342	0.9867	-0.151
Mof_C 	C 	0.92	0.872	0.9012	0.051
Mof_C 	C 	0.0316	0.9123	0.8368	-0.145
Mof_C 	C 	0.7881	0.8664	0.8806	0.06
Mof_C 	C 	0.6287	0.8185	0.8158	0.065
Mof_C 	C 	0.5565	0.7759	0.747	0.092
Mof_C 	C 	0.593	0.8219	0.6585	-0.171
Mof_C 	C 	0.5249	0.7805	0.5953	0.087
Mof_C 	C 	0.3903	0.6548	0.7003	0.112
Mof_C 	C 	0.4512	0.6922	0.7684	-0.231
Mof_H 	H 	0.234	0.938	0.813	-0.007
Mof_H 	H 	0.079	0.814	0.064	-0.022
Mof_H 	H 	0.864	0.809	0.031	0.081
Mof_H 	H 	0.029	0.943	0.779	0.066
Mof_H 	H 	0.66	0.879	0.642	0.089
Mof_H 	H 	0.557	0.809	0.533	-0.013
Mof_H 	H 	0.324	0.587	0.715	-0.021
Mof_H 	H 	0.426	0.663	0.821	0.107
Mof_H 	H 	0.882	0.719	0.744	0.298
Mof_H 	H 	0.897	0.826	0.693	0.151
_end
