data_functionalizedCrystal
_audit_creation_method	'EQeq! by Chris Wilmer'
_symmetry_space_group_name_H-M	'P1'
_symmetry_Int_Tables_number	1
_symmetry_cell_setting	triclinic
loop_
_symmetry_equiv_pos_as_xyz
  x,y,z
_cell_length_a	17.49
_cell_length_b	11.94
_cell_length_c	18.46
_cell_angle_alpha	90
_cell_angle_beta	116.87
_cell_angle_gamma	90
loop_
_atom_site_label
_atom_site_type_symbol
_atom_site_fract_x
_atom_site_fract_y
_atom_site_fract_z
_atom_site_charge
Mof_Mg	Mg	0.28708	0.41796	0.02756	1.475
Mof_Mg	Mg	0.28782	0.94757	0.69956	1.464
Mof_Mg	Mg	0.8341	0.82095	0.11824	1.459
Mof_O 	O 	0.32084	0.38236	0.94021	-0.538
Mof_O 	O 	0.30523	0.09463	0.65073	-0.649
Mof_O 	O 	0.18511	0.52388	0.98268	-0.525
Mof_O 	O 	0.1869	0.59469	0.09496	-0.556
Mof_O 	O 	0.37298	0.20991	0.6088	-0.44
Mof_O 	O 	0.79333	0.52092	0.75711	-0.55
Mof_O 	O 	0.81334	0.71296	0.00971	-0.593
Mof_O 	O 	0.628	0.3774	0.83336	-0.573
Mof_O 	O 	0.61487	0.46593	0.93328	-0.499
Mof_O 	O 	0.28638	0.20502	0.90222	-0.586
Mof_O 	O 	0.93735	0.78268	0.094	-0.502
Mof_O 	O 	0.8892	0.58318	0.71959	-0.563
Mof_C 	C 	0.9212	0.59721	0.85843	-0.249
Mof_C 	C 	0.15111	0.57296	0.02097	0.479
Mof_C 	C 	0.89257	0.72701	0.03188	0.395
Mof_C 	C 	0.86364	0.56365	0.77196	0.486
Mof_C 	C 	0.3566	0.17603	0.66372	0.416
Mof_C 	C 	0.05849	0.6063	0.9759	-0.213
Mof_C 	C 	0.93325	0.6781	0.9829	-0.206
Mof_C 	C 	0.58857	0.40301	0.87298	0.48
Mof_C 	C 	0.39302	0.23342	0.74356	-0.233
Mof_C 	C 	0.50164	0.34983	0.84369	-0.224
Mof_C 	C 	0.37721	0.29676	0.85957	-0.22
Mof_C 	C 	0.32395	0.29537	0.90488	0.476
Mof_C 	C 	0.00828	0.57704	0.895	0.164
Mof_H 	H 	0.0335	0.5438	0.8655	-0.016
Mof_C 	C 	0.88428	0.64669	0.90318	0.132
Mof_H 	H 	0.8254	0.6589	0.8789	-0.019
Mof_C 	C 	0.02067	0.65894	0.01854	0.134
Mof_H 	H 	0.0545	0.6817	0.0718	0.002
Mof_C 	C 	0.34881	0.23327	0.78974	0.136
Mof_H 	H 	0.2996	0.19	0.7735	-0.031
Mof_C 	C 	0.45323	0.35727	0.88609	0.146
Mof_H 	H 	0.4715	0.4024	0.9319	0.006
Mof_C 	C 	0.47	0.28993	0.77187	0.152
Mof_H 	H 	0.5011	0.2877	0.7422	-0.015
Mof_Mg	Mg	0.71292	0.91796	0.47244	1.475
Mof_Mg	Mg	0.71218	0.44757	0.80044	1.464
Mof_Mg	Mg	0.1659	0.32095	0.38176	1.459
Mof_O 	O 	0.67916	0.88236	0.55979	-0.538
Mof_O 	O 	0.69477	0.59463	0.84927	-0.65
Mof_O 	O 	0.81489	0.02388	0.51732	-0.53
Mof_O 	O 	0.8131	0.09469	0.40504	-0.558
Mof_O 	O 	0.62702	0.70991	0.8912	-0.441
Mof_O 	O 	0.20667	0.02092	0.74289	-0.548
Mof_O 	O 	0.18666	0.21296	0.49029	-0.593
Mof_O 	O 	0.372	0.8774	0.66664	-0.573
Mof_O 	O 	0.38513	0.96593	0.56672	-0.498
Mof_O 	O 	0.71362	0.70502	0.59778	-0.587
Mof_O 	O 	0.06265	0.28268	0.406	-0.503
Mof_O 	O 	0.1108	0.08318	0.78041	-0.56
Mof_C 	C 	0.0788	0.09721	0.64157	-0.237
Mof_C 	C 	0.84889	0.07296	0.47903	0.487
Mof_C 	C 	0.10743	0.22701	0.46812	0.388
Mof_C 	C 	0.13636	0.06365	0.72804	0.483
Mof_C 	C 	0.6434	0.67603	0.83628	0.416
Mof_C 	C 	0.94151	0.1063	0.5241	-0.219
Mof_C 	C 	0.06675	0.1781	0.5171	-0.197
Mof_C 	C 	0.41143	0.90301	0.62702	0.48
Mof_C 	C 	0.60698	0.73342	0.75644	-0.234
Mof_C 	C 	0.49836	0.84983	0.65631	-0.224
Mof_C 	C 	0.62279	0.79676	0.64043	-0.22
Mof_C 	C 	0.67605	0.79537	0.59512	0.476
Mof_C 	C 	0.99172	0.07704	0.605	0.154
Mof_H 	H 	0.9665	0.0438	0.6345	-0.015
Mof_C 	C 	0.11572	0.14669	0.59682	0.125
Mof_H 	H 	0.1746	0.1589	0.6211	-0.016
Mof_C 	C 	0.97933	0.15894	0.48146	0.136
Mof_H 	H 	0.9455	0.1817	0.4282	0.002
Mof_C 	C 	0.65119	0.73327	0.71026	0.136
Mof_H 	H 	0.7004	0.69	0.7265	-0.031
Mof_C 	C 	0.54677	0.85727	0.61391	0.146
Mof_H 	H 	0.5285	0.9024	0.5681	0.006
Mof_C 	C 	0.53	0.78993	0.72813	0.152
Mof_H 	H 	0.4989	0.7877	0.7578	-0.015
Mof_Mg	Mg	0.71292	0.58204	0.97244	1.475
Mof_Mg	Mg	0.71218	0.05243	0.30044	1.464
Mof_Mg	Mg	0.1659	0.17905	0.88176	1.459
Mof_O 	O 	0.67916	0.61764	0.05979	-0.538
Mof_O 	O 	0.69477	0.90537	0.34927	-0.649
Mof_O 	O 	0.81489	0.47612	0.01732	-0.525
Mof_O 	O 	0.8131	0.40531	0.90504	-0.556
Mof_O 	O 	0.62702	0.79009	0.3912	-0.44
Mof_O 	O 	0.20667	0.47908	0.24289	-0.55
Mof_O 	O 	0.18666	0.28704	0.99029	-0.593
Mof_O 	O 	0.372	0.6226	0.16664	-0.573
Mof_O 	O 	0.38513	0.53407	0.06672	-0.499
Mof_O 	O 	0.71362	0.79498	0.09778	-0.586
Mof_O 	O 	0.06265	0.21732	0.906	-0.502
Mof_O 	O 	0.1108	0.41682	0.28041	-0.563
Mof_C 	C 	0.0788	0.40279	0.14157	-0.249
Mof_C 	C 	0.84889	0.42704	0.97903	0.479
Mof_C 	C 	0.10743	0.27299	0.96812	0.395
Mof_C 	C 	0.13636	0.43635	0.22804	0.486
Mof_C 	C 	0.6434	0.82397	0.33628	0.416
Mof_C 	C 	0.94151	0.3937	0.0241	-0.213
Mof_C 	C 	0.06675	0.3219	0.0171	-0.206
Mof_C 	C 	0.41143	0.59699	0.12702	0.48
Mof_C 	C 	0.60698	0.76658	0.25644	-0.233
Mof_C 	C 	0.49836	0.65017	0.15631	-0.224
Mof_C 	C 	0.62279	0.70324	0.14043	-0.22
Mof_C 	C 	0.67605	0.70463	0.09512	0.476
Mof_C 	C 	0.99172	0.42296	0.105	0.164
Mof_H 	H 	0.9665	0.4562	0.1345	-0.016
Mof_C 	C 	0.11572	0.35331	0.09682	0.132
Mof_H 	H 	0.1746	0.3411	0.1211	-0.019
Mof_C 	C 	0.97933	0.34106	0.98146	0.134
Mof_H 	H 	0.9455	0.3183	0.9282	0.002
Mof_C 	C 	0.65119	0.76673	0.21026	0.136
Mof_H 	H 	0.7004	0.81	0.2265	-0.031
Mof_C 	C 	0.54677	0.64273	0.11391	0.146
Mof_H 	H 	0.5285	0.5976	0.0681	0.006
Mof_C 	C 	0.53	0.71007	0.22813	0.152
Mof_H 	H 	0.4989	0.7123	0.2578	-0.015
Mof_Mg	Mg	0.28708	0.08204	0.52756	1.475
Mof_Mg	Mg	0.28782	0.55243	0.19956	1.464
Mof_Mg	Mg	0.8341	0.67905	0.61824	1.459
Mof_O 	O 	0.32084	0.11764	0.44021	-0.538
Mof_O 	O 	0.30523	0.40537	0.15073	-0.65
Mof_O 	O 	0.18511	0.97612	0.48268	-0.53
Mof_O 	O 	0.1869	0.90531	0.59496	-0.558
Mof_O 	O 	0.37298	0.29009	0.1088	-0.441
Mof_O 	O 	0.79333	0.97908	0.25711	-0.548
Mof_O 	O 	0.81334	0.78704	0.50971	-0.593
Mof_O 	O 	0.628	0.1226	0.33336	-0.573
Mof_O 	O 	0.61487	0.03407	0.43328	-0.498
Mof_O 	O 	0.28638	0.29498	0.40222	-0.587
Mof_O 	O 	0.93735	0.71732	0.594	-0.503
Mof_O 	O 	0.8892	0.91682	0.21959	-0.56
Mof_C 	C 	0.9212	0.90279	0.35843	-0.237
Mof_C 	C 	0.15111	0.92704	0.52097	0.487
Mof_C 	C 	0.89257	0.77299	0.53188	0.388
Mof_C 	C 	0.86364	0.93635	0.27196	0.483
Mof_C 	C 	0.3566	0.32397	0.16372	0.416
Mof_C 	C 	0.05849	0.8937	0.4759	-0.219
Mof_C 	C 	0.93325	0.8219	0.4829	-0.197
Mof_C 	C 	0.58857	0.09699	0.37298	0.48
Mof_C 	C 	0.39302	0.26658	0.24356	-0.234
Mof_C 	C 	0.50164	0.15017	0.34369	-0.224
Mof_C 	C 	0.37721	0.20324	0.35957	-0.22
Mof_C 	C 	0.32395	0.20463	0.40488	0.476
Mof_C 	C 	0.00828	0.92296	0.395	0.154
Mof_H 	H 	0.0335	0.9562	0.3655	-0.015
Mof_C 	C 	0.88428	0.85331	0.40318	0.125
Mof_H 	H 	0.8254	0.8411	0.3789	-0.016
Mof_C 	C 	0.02067	0.84106	0.51854	0.136
Mof_H 	H 	0.0545	0.8183	0.5718	0.002
Mof_C 	C 	0.34881	0.26673	0.28974	0.136
Mof_H 	H 	0.2996	0.31	0.2735	-0.031
Mof_C 	C 	0.45323	0.14273	0.38609	0.146
Mof_H 	H 	0.4715	0.0976	0.4319	0.006
Mof_C 	C 	0.47	0.21007	0.27187	0.152
Mof_H 	H 	0.5011	0.2123	0.2422	-0.015
_end
