data_functionalizedCrystal
_audit_creation_method	'EQeq! by Chris Wilmer'
_symmetry_space_group_name_H-M	'P1'
_symmetry_Int_Tables_number	1
_symmetry_cell_setting	triclinic
loop_
_symmetry_equiv_pos_as_xyz
  x,y,z
_cell_length_a	16.9906
_cell_length_b	19.4438
_cell_length_c	19.4438
_cell_angle_alpha	68.1155
_cell_angle_beta	73.0656
_cell_angle_gamma	106.934
loop_
_atom_site_label
_atom_site_type_symbol
_atom_site_fract_x
_atom_site_fract_y
_atom_site_fract_z
_atom_site_charge
Mof_Cu	Cu	0.05275	0.57608	0.37961	0.909
Mof_Cu	Cu	0.1144	0.44425	0.49987	0.905
Mof_Cu	Cu	0.97044	0.72732	0.31683	0.942
Mof_Cu	Cu	0.43236	0.37961	0.04431	0.91
Mof_Cu	Cu	0.61427	0.49987	0.05588	0.905
Mof_Cu	Cu	0.28727	0.31683	0.95585	0.943
Mof_Cu	Cu	0.47667	0.04431	0.57608	0.91
Mof_Cu	Cu	0.67015	0.05588	0.44425	0.904
Mof_Cu	Cu	0.24312	0.95585	0.72732	0.942
Mof_Cu	Cu	0.94725	0.42392	0.62039	0.904
Mof_Cu	Cu	0.8856	0.55575	0.50013	0.9
Mof_Cu	Cu	0.02956	0.27268	0.68317	0.95
Mof_Cu	Cu	0.56764	0.62039	0.95569	0.902
Mof_Cu	Cu	0.38573	0.50013	0.94412	0.899
Mof_Cu	Cu	0.71273	0.68317	0.04415	0.95
Mof_Cu	Cu	0.52333	0.95569	0.42392	0.903
Mof_Cu	Cu	0.32985	0.94412	0.55575	0.899
Mof_Cu	Cu	0.75688	0.04415	0.27268	0.95
Mof_H 	H 	0.695	0.866	0.1937	0.076
Mof_H 	H 	0.4829	0.6771	0.219	0.1
Mof_H 	H 	0.4303	0.795	0.3489	0.087
Mof_H 	H 	0.2299	0.7661	0.2606	0.227
Mof_H 	H 	0.3347	0.7909	0.205	0.212
Mof_H 	H 	0.3097	0.8097	0.2799	0.228
Mof_H 	H 	0.3386	0.5604	0.4089	0.006
Mof_H 	H 	0.0362	0.2302	0.1633	0.077
Mof_H 	H 	0.1899	0.4218	0.1809	0.105
Mof_H 	H 	0.9295	0.2541	0.3648	0.102
Mof_H 	H 	0.987	0.524	0.26	0.203
Mof_H 	H 	0.9584	0.4378	0.2605	0.212
Mof_H 	H 	0.0575	0.514	0.1936	0.22
Mof_H 	H 	0.1088	0.3338	0.4067	0.002
Mof_H 	H 	0.8887	0.1937	0.9403	0.079
Mof_H 	H 	0.7019	0.219	0.1039	0.098
Mof_H 	H 	0.7792	0.3489	0.8561	0.086
Mof_H 	H 	0.4905	0.2606	0.9733	0.232
Mof_H 	H 	0.5397	0.205	0.0041	0.23
Mof_H 	H 	0.5896	0.2799	0.9104	0.236
Mof_H 	H 	0.7475	0.4089	0.0307	0.005
Mof_H 	H 	0.1995	0.1633	0.6065	0.078
Mof_H 	H 	0.3708	0.1809	0.3973	0.104
Mof_H 	H 	0.2943	0.3648	0.3811	0.1
Mof_H 	H 	0.247	0.26	0.216	0.236
Mof_H 	H 	0.2189	0.2605	0.3017	0.244
Mof_H 	H 	0.2511	0.1936	0.2924	0.243
Mof_H 	H 	0.5155	0.4067	0.2595	0.001
Mof_H 	H 	0.829	0.9403	0.866	0.077
Mof_H 	H 	0.8058	0.1039	0.6771	0.097
Mof_H 	H 	0.6353	0.8561	0.795	0.085
Mof_H 	H 	0.4638	0.9733	0.7661	0.231
Mof_H 	H 	0.5438	0.0041	0.7909	0.228
Mof_H 	H 	0.5	0.9104	0.8097	0.234
Mof_H 	H 	0.7782	0.0307	0.5604	0.005
Mof_H 	H 	0.806	0.6065	0.2302	0.076
Mof_H 	H 	0.7681	0.3973	0.4218	0.103
Mof_H 	H 	0.6754	0.3811	0.2541	0.099
Mof_H 	H 	0.463	0.216	0.524	0.234
Mof_H 	H 	0.5206	0.3017	0.4378	0.241
Mof_H 	H 	0.5435	0.2924	0.514	0.24
Mof_H 	H 	0.775	0.2595	0.3338	0.001
Mof_H 	H 	0.305	0.134	0.8063	0.078
Mof_H 	H 	0.5171	0.3229	0.781	0.1
Mof_H 	H 	0.5697	0.205	0.6511	0.088
Mof_H 	H 	0.7701	0.2339	0.7394	0.227
Mof_H 	H 	0.6653	0.2091	0.795	0.211
Mof_H 	H 	0.6903	0.1903	0.7201	0.229
Mof_H 	H 	0.6614	0.4396	0.5911	0.006
Mof_H 	H 	0.9638	0.7698	0.8367	0.076
Mof_H 	H 	0.8101	0.5782	0.8191	0.102
Mof_H 	H 	0.0705	0.7459	0.6352	0.098
Mof_H 	H 	0.013	0.476	0.74	0.252
Mof_H 	H 	0.0416	0.5622	0.7395	0.259
Mof_H 	H 	0.9425	0.486	0.8064	0.251
Mof_H 	H 	0.8912	0.6662	0.5933	0
Mof_H 	H 	0.1113	0.8063	0.0597	0.076
Mof_H 	H 	0.2981	0.781	0.8961	0.103
Mof_H 	H 	0.2208	0.6511	0.1439	0.088
Mof_H 	H 	0.5095	0.7394	0.0267	0.219
Mof_H 	H 	0.4603	0.795	0.9959	0.191
Mof_H 	H 	0.4104	0.7201	0.0896	0.218
Mof_H 	H 	0.2525	0.5911	0.9693	0.007
Mof_H 	H 	0.8005	0.8367	0.3935	0.074
Mof_H 	H 	0.6292	0.8191	0.6027	0.102
Mof_H 	H 	0.7057	0.6352	0.6189	0.099
Mof_H 	H 	0.753	0.74	0.784	0.233
Mof_H 	H 	0.7811	0.7395	0.6983	0.239
Mof_H 	H 	0.7489	0.8064	0.7076	0.237
Mof_H 	H 	0.4845	0.5933	0.7405	0.001
Mof_H 	H 	0.171	0.0597	0.134	0.079
Mof_H 	H 	0.1942	0.8961	0.3229	0.103
Mof_H 	H 	0.3647	0.1439	0.205	0.089
Mof_H 	H 	0.5362	0.0267	0.2339	0.223
Mof_H 	H 	0.4562	0.9959	0.2091	0.198
Mof_H 	H 	0.5	0.0896	0.1903	0.222
Mof_H 	H 	0.2218	0.9693	0.4396	0.007
Mof_H 	H 	0.194	0.3935	0.7698	0.076
Mof_H 	H 	0.2319	0.6027	0.5782	0.104
Mof_H 	H 	0.3246	0.6189	0.7459	0.099
Mof_H 	H 	0.537	0.784	0.476	0.234
Mof_H 	H 	0.4794	0.6983	0.5622	0.242
Mof_H 	H 	0.4565	0.7076	0.486	0.24
Mof_H 	H 	0.225	0.7405	0.6662	0.001
Mof_C 	C 	0.60191	0.90448	0.29845	0.34
Mof_C 	C 	0.56768	0.84078	0.27384	-0.043
Mof_C 	C 	0.63087	0.83106	0.21795	-0.029
Mof_C 	C 	0.59921	0.76948	0.19795	-0.019
Mof_C 	C 	0.50494	0.71811	0.23319	-0.107
Mof_C 	C 	0.44397	0.72838	0.28957	0.113
Mof_C 	C 	0.4734	0.78903	0.31053	-0.104
Mof_C 	C 	0.66802	0.75641	0.13985	0.306
Mof_C 	C 	0.28865	0.77068	0.26113	-0.649
Mof_C 	C 	0.27614	0.68726	0.31904	0.288
Mof_C 	C 	0.30676	0.5894	0.38852	0.117
Mof_C 	C 	0.87855	0.15684	0.30309	0.328
Mof_C 	C 	0.96932	0.2308	0.26914	-0.037
Mof_C 	C 	0.04271	0.25904	0.19301	-0.014
Mof_C 	C 	0.12546	0.32943	0.16044	-0.035
Mof_C 	C 	0.13455	0.37362	0.20277	-0.11
Mof_C 	C 	0.06029	0.34483	0.27805	0.133
Mof_C 	C 	0.97834	0.27338	0.31256	-0.116
Mof_C 	C 	0.20562	0.35799	0.07959	0.321
Mof_C 	C 	0.0096	0.48571	0.25081	-0.609
Mof_C 	C 	0.04839	0.45702	0.30915	0.292
Mof_C 	C 	0.09147	0.37627	0.38446	0.134
Mof_C 	C 	0.90036	0.29845	0.79707	0.338
Mof_C 	C 	0.84152	0.27384	0.88538	-0.042
Mof_C 	C 	0.84882	0.21795	0.95099	-0.041
Mof_C 	C 	0.79716	0.19795	0.03257	-0.011
Mof_C 	C 	0.73813	0.23319	0.0487	-0.097
Mof_C 	C 	0.73354	0.28957	0.98205	0.102
Mof_C 	C 	0.78393	0.31053	0.90044	-0.103
Mof_C 	C 	0.80787	0.13985	0.10374	0.305
Mof_C 	C 	0.54978	0.26113	0.96819	-0.68
Mof_C 	C 	0.59518	0.31904	0.9937	0.285
Mof_C 	C 	0.69528	0.38852	0.02208	0.127
Mof_C 	C 	0.18164	0.30309	0.54007	0.326
Mof_C 	C 	0.23846	0.26914	0.50006	-0.027
Mof_C 	C 	0.23572	0.19301	0.54795	-0.028
Mof_C 	C 	0.2859	0.16044	0.51013	-0.034
Mof_C 	C 	0.33732	0.20277	0.42361	-0.109
Mof_C 	C 	0.33834	0.27805	0.37712	0.122
Mof_C 	C 	0.2909	0.31256	0.41406	-0.105
Mof_C 	C 	0.28521	0.07959	0.56242	0.32
Mof_C 	C 	0.26041	0.25081	0.26348	-0.695
Mof_C 	C 	0.35754	0.30915	0.23383	0.311
Mof_C 	C 	0.47593	0.38446	0.23927	0.132
Mof_C 	C 	0.69743	0.79707	0.90448	0.338
Mof_C 	C 	0.7269	0.88538	0.84078	-0.042
Mof_C 	C 	0.79981	0.95099	0.83106	-0.045
Mof_C 	C 	0.82973	0.03257	0.76948	-0.009
Mof_C 	C 	0.78683	0.0487	0.71811	-0.095
Mof_C 	C 	0.71559	0.98205	0.72838	0.099
Mof_C 	C 	0.68437	0.90044	0.78903	-0.103
Mof_C 	C 	0.91161	0.10374	0.75641	0.304
Mof_C 	C 	0.51797	0.96819	0.77068	-0.678
Mof_C 	C 	0.58888	0.9937	0.68726	0.284
Mof_C 	C 	0.71736	0.02208	0.5894	0.129
Mof_C 	C 	0.72171	0.54007	0.15684	0.326
Mof_C 	C 	0.73852	0.50006	0.2308	-0.028
Mof_C 	C 	0.78367	0.54795	0.25904	-0.027
Mof_C 	C 	0.79603	0.51013	0.32943	-0.036
Mof_C 	C 	0.76093	0.42361	0.37362	-0.108
Mof_C 	C 	0.71546	0.37712	0.34483	0.121
Mof_C 	C 	0.70496	0.41406	0.27338	-0.105
Mof_C 	C 	0.84763	0.56242	0.35799	0.321
Mof_C 	C 	0.52389	0.26348	0.48571	-0.691
Mof_C 	C 	0.59137	0.23383	0.45702	0.31
Mof_C 	C 	0.7152	0.23927	0.37627	0.132
Mof_C 	C 	0.39809	0.09552	0.70155	0.338
Mof_C 	C 	0.43232	0.15922	0.72616	-0.041
Mof_C 	C 	0.36913	0.16894	0.78205	-0.031
Mof_C 	C 	0.40079	0.23052	0.80205	-0.018
Mof_C 	C 	0.49506	0.28189	0.76681	-0.108
Mof_C 	C 	0.55603	0.27162	0.71043	0.114
Mof_C 	C 	0.5266	0.21097	0.68947	-0.105
Mof_C 	C 	0.33198	0.24359	0.86015	0.305
Mof_C 	C 	0.71135	0.22932	0.73887	-0.649
Mof_C 	C 	0.72386	0.31274	0.68096	0.288
Mof_C 	C 	0.69324	0.4106	0.61148	0.117
Mof_C 	C 	0.12145	0.84316	0.69691	0.325
Mof_C 	C 	0.03068	0.7692	0.73086	-0.024
Mof_C 	C 	0.95729	0.74096	0.80699	-0.035
Mof_C 	C 	0.87454	0.67057	0.83956	-0.037
Mof_C 	C 	0.86545	0.62638	0.79723	-0.106
Mof_C 	C 	0.93971	0.65517	0.72195	0.112
Mof_C 	C 	0.02166	0.72662	0.68744	-0.097
Mof_C 	C 	0.79438	0.64201	0.92041	0.321
Mof_C 	C 	0.9904	0.51429	0.74919	-0.739
Mof_C 	C 	0.95161	0.54298	0.69085	0.32
Mof_C 	C 	0.90853	0.62373	0.61554	0.13
Mof_C 	C 	0.09964	0.70155	0.20293	0.341
Mof_C 	C 	0.15848	0.72616	0.11462	-0.044
Mof_C 	C 	0.15118	0.78205	0.04901	-0.011
Mof_C 	C 	0.20284	0.80205	0.96743	-0.033
Mof_C 	C 	0.26187	0.76681	0.9513	-0.122
Mof_C 	C 	0.26646	0.71043	0.01795	0.13
Mof_C 	C 	0.21607	0.68947	0.09956	-0.106
Mof_C 	C 	0.19213	0.86015	0.89626	0.308
Mof_C 	C 	0.45022	0.73887	0.03181	-0.613
Mof_C 	C 	0.40482	0.68096	0.0063	0.291
Mof_C 	C 	0.30472	0.61148	0.97792	0.104
Mof_C 	C 	0.81836	0.69691	0.45993	0.326
Mof_C 	C 	0.76154	0.73086	0.49994	-0.03
Mof_C 	C 	0.76428	0.80699	0.45205	-0.027
Mof_C 	C 	0.7141	0.83956	0.48987	-0.038
Mof_C 	C 	0.66268	0.79723	0.57639	-0.108
Mof_C 	C 	0.66166	0.72195	0.62288	0.12
Mof_C 	C 	0.7091	0.68744	0.58594	-0.104
Mof_C 	C 	0.71479	0.92041	0.43758	0.322
Mof_C 	C 	0.73959	0.74919	0.73652	-0.687
Mof_C 	C 	0.64246	0.69085	0.76617	0.308
Mof_C 	C 	0.52407	0.61554	0.76073	0.132
Mof_C 	C 	0.30257	0.20293	0.09552	0.339
Mof_C 	C 	0.2731	0.11462	0.15922	-0.041
Mof_C 	C 	0.20019	0.04901	0.16894	-0.019
Mof_C 	C 	0.17027	0.96743	0.23052	-0.024
Mof_C 	C 	0.21317	0.9513	0.28189	-0.119
Mof_C 	C 	0.28441	0.01795	0.27162	0.127
Mof_C 	C 	0.31563	0.09956	0.21097	-0.107
Mof_C 	C 	0.08839	0.89626	0.24359	0.306
Mof_C 	C 	0.48203	0.03181	0.22932	-0.623
Mof_C 	C 	0.41112	0.0063	0.31274	0.293
Mof_C 	C 	0.28264	0.97792	0.4106	0.107
Mof_C 	C 	0.27829	0.45993	0.84316	0.326
Mof_C 	C 	0.26148	0.49994	0.7692	-0.029
Mof_C 	C 	0.21633	0.45205	0.74096	-0.028
Mof_C 	C 	0.20397	0.48987	0.67057	-0.036
Mof_C 	C 	0.23907	0.57639	0.62638	-0.109
Mof_C 	C 	0.28454	0.62288	0.65517	0.121
Mof_C 	C 	0.29504	0.58594	0.72662	-0.105
Mof_C 	C 	0.15237	0.43758	0.64201	0.321
Mof_C 	C 	0.47611	0.73652	0.51429	-0.691
Mof_C 	C 	0.40863	0.76617	0.54298	0.31
Mof_C 	C 	0.2848	0.76073	0.62373	0.132
Mof_N 	N 	0.21812	0.55723	0.4117	-0.182
Mof_N 	N 	0.1974	0.618	0.36807	-0.191
Mof_N 	N 	0.34614	0.67145	0.33029	-0.182
Mof_N 	N 	0.06077	0.48088	0.36163	-0.213
Mof_N 	N 	0.08718	0.42896	0.41006	-0.181
Mof_N 	N 	0.06758	0.39084	0.32166	-0.18
Mof_N 	N 	0.62982	0.4117	0.03107	-0.182
Mof_N 	N 	0.56547	0.36807	0.01393	-0.185
Mof_N 	N 	0.67643	0.33029	0.99826	-0.187
Mof_N 	N 	0.4224	0.36163	0.15749	-0.218
Mof_N 	N 	0.49724	0.41006	0.16098	-0.182
Mof_N 	N 	0.38924	0.32166	0.2875	-0.183
Mof_N 	N 	0.66089	0.03107	0.55723	-0.182
Mof_N 	N 	0.5794	0.01393	0.618	-0.185
Mof_N 	N 	0.67469	0.99826	0.67145	-0.187
Mof_N 	N 	0.57989	0.15749	0.48088	-0.218
Mof_N 	N 	0.65822	0.16098	0.42896	-0.182
Mof_N 	N 	0.67674	0.2875	0.39084	-0.183
Mof_N 	N 	0.78188	0.44277	0.5883	-0.182
Mof_N 	N 	0.8026	0.382	0.63193	-0.191
Mof_N 	N 	0.65386	0.32855	0.66971	-0.182
Mof_N 	N 	0.93923	0.51912	0.63837	-0.222
Mof_N 	N 	0.91282	0.57104	0.58994	-0.183
Mof_N 	N 	0.93242	0.60916	0.67834	-0.185
Mof_N 	N 	0.37018	0.5883	0.96893	-0.182
Mof_N 	N 	0.43453	0.63193	0.98607	-0.198
Mof_N 	N 	0.32357	0.66971	0.00174	-0.175
Mof_N 	N 	0.5776	0.63837	0.84251	-0.219
Mof_N 	N 	0.50276	0.58994	0.83902	-0.182
Mof_N 	N 	0.61076	0.67834	0.7125	-0.183
Mof_N 	N 	0.33911	0.96893	0.44277	-0.182
Mof_N 	N 	0.4206	0.98607	0.382	-0.197
Mof_N 	N 	0.32531	0.00174	0.32855	-0.177
Mof_N 	N 	0.42011	0.84251	0.51912	-0.219
Mof_N 	N 	0.34178	0.83902	0.57104	-0.182
Mof_N 	N 	0.32326	0.7125	0.60916	-0.183
Mof_O 	O 	0.00401	0.64765	0.40696	-0.464
Mof_O 	O 	0.54148	0.90122	0.3575	-0.419
Mof_O 	O 	0.68592	0.95371	0.25936	-0.384
Mof_O 	O 	0.63199	0.70114	0.12394	-0.346
Mof_O 	O 	0.75104	0.79676	0.11414	-0.246
Mof_O 	O 	0.82107	0.12636	0.37701	-0.359
Mof_O 	O 	0.86788	0.13269	0.25275	-0.365
Mof_O 	O 	0.28065	0.4172	0.05843	-0.413
Mof_O 	O 	0.19178	0.31979	0.04082	-0.369
Mof_O 	O 	0.41097	0.40696	0.94539	-0.476
Mof_O 	O 	0.89898	0.3575	0.74128	-0.418
Mof_O 	O 	0.94528	0.25936	0.78693	-0.382
Mof_O 	O 	0.75593	0.12394	0.17492	-0.346
Mof_O 	O 	0.86518	0.11414	0.0891	-0.242
Mof_O 	O 	0.19808	0.37701	0.49663	-0.359
Mof_O 	O 	0.12063	0.25275	0.61456	-0.362
Mof_O 	O 	0.33908	0.05843	0.52437	-0.414
Mof_O 	O 	0.2326	0.04082	0.63939	-0.371
Mof_O 	O 	0.35636	0.94539	0.64765	-0.475
Mof_O 	O 	0.64026	0.74128	0.90122	-0.419
Mof_O 	O 	0.73221	0.78693	0.95371	-0.385
Mof_O 	O 	0.93085	0.17492	0.70114	-0.349
Mof_O 	O 	0.95428	0.0891	0.79676	-0.245
Mof_O 	O 	0.69471	0.49663	0.12636	-0.359
Mof_O 	O 	0.73519	0.61456	0.13269	-0.364
Mof_O 	O 	0.86345	0.52437	0.4172	-0.422
Mof_O 	O 	0.87199	0.63939	0.31979	-0.379
Mof_O 	O 	0.99599	0.35235	0.59304	-0.475
Mof_O 	O 	0.45852	0.09878	0.6425	-0.414
Mof_O 	O 	0.31408	0.04629	0.74064	-0.374
Mof_O 	O 	0.36801	0.29886	0.87606	-0.349
Mof_O 	O 	0.24896	0.20324	0.88586	-0.247
Mof_O 	O 	0.17893	0.87364	0.62299	-0.361
Mof_O 	O 	0.13212	0.86731	0.74725	-0.365
Mof_O 	O 	0.71935	0.5828	0.94157	-0.425
Mof_O 	O 	0.80822	0.68021	0.95918	-0.382
Mof_O 	O 	0.58903	0.59304	0.05461	-0.465
Mof_O 	O 	0.10102	0.6425	0.25872	-0.414
Mof_O 	O 	0.05472	0.74064	0.21307	-0.375
Mof_O 	O 	0.24407	0.87606	0.82508	-0.35
Mof_O 	O 	0.13482	0.88586	0.9109	-0.252
Mof_O 	O 	0.80192	0.62299	0.50337	-0.36
Mof_O 	O 	0.87937	0.74725	0.38544	-0.368
Mof_O 	O 	0.66092	0.94157	0.47563	-0.425
Mof_O 	O 	0.7674	0.95918	0.36061	-0.383
Mof_O 	O 	0.64364	0.05461	0.35235	-0.465
Mof_O 	O 	0.35974	0.25872	0.09878	-0.414
Mof_O 	O 	0.26779	0.21307	0.04629	-0.372
Mof_O 	O 	0.06915	0.82508	0.29886	-0.344
Mof_O 	O 	0.04572	0.9109	0.20324	-0.243
Mof_O 	O 	0.30529	0.50337	0.87364	-0.362
Mof_O 	O 	0.26481	0.38544	0.86731	-0.366
Mof_O 	O 	0.13655	0.47563	0.5828	-0.418
Mof_O 	O 	0.12801	0.36061	0.68021	-0.375
Mof_O 	O 	3.34967e-17	0.5	0.5	-0.502
Mof_O 	O 	0.5	0.5	-0	-0.5
Mof_O 	O 	0.5	-4.46623e-17	0.5	-0.5
Mof_N 	N 	0.4515	0.7935	0.7311	0.042
Mof_O 	O 	0.52825	0.81035	0.7361	-0.134
Mof_O 	O 	0.38701	0.81281	0.75578	-0.127
Mof_O 	O 	0.4496	0.752	0.6935	-0.128
Mof_N 	N 	0.1826	0.7311	0.4754	0.042
Mof_O 	O 	0.26435	0.7361	0.45355	-0.133
Mof_O 	O 	0.14279	0.75578	0.43141	-0.125
Mof_O 	O 	0.1431	0.6935	0.5545	-0.126
Mof_N 	N 	0.658	0.4754	0.7935	0.042
Mof_O 	O 	0.7179	0.45355	0.81035	-0.134
Mof_O 	O 	0.5742	0.43141	0.81281	-0.127
Mof_O 	O 	0.6976	0.5545	0.752	-0.128
Mof_N 	N 	0.5485	0.2065	0.2689	0.042
Mof_O 	O 	0.47175	0.18965	0.2639	-0.132
Mof_O 	O 	0.61299	0.18719	0.24422	-0.125
Mof_O 	O 	0.5504	0.248	0.3065	-0.127
Mof_N 	N 	0.8174	0.2689	0.5246	0.042
Mof_O 	O 	0.73565	0.2639	0.54645	-0.133
Mof_O 	O 	0.85721	0.24422	0.56859	-0.127
Mof_O 	O 	0.8569	0.3065	0.4455	-0.129
Mof_N 	N 	0.342	0.5246	0.2065	0.042
Mof_O 	O 	0.2821	0.54645	0.18965	-0.132
Mof_O 	O 	0.4258	0.56859	0.18719	-0.125
Mof_O 	O 	0.3024	0.4455	0.248	-0.127
_end
