data_functionalizedCrystal
_audit_creation_method	'EQeq! by Chris Wilmer'
_symmetry_space_group_name_H-M	'P1'
_symmetry_Int_Tables_number	1
_symmetry_cell_setting	triclinic
loop_
_symmetry_equiv_pos_as_xyz
  x,y,z
_cell_length_a	15.653
_cell_length_b	16.0791
_cell_length_c	16.0791
_cell_angle_alpha	112.323
_cell_angle_beta	90.8118
_cell_angle_gamma	90.8118
loop_
_atom_site_label
_atom_site_type_symbol
_atom_site_fract_x
_atom_site_fract_y
_atom_site_fract_z
_atom_site_charge
Mof_Cu	Cu	0.06538	0.2049	0.71796	0.924
Mof_Cu	Cu	0.43136	0.81254	0.34094	0.935
Mof_Cu	Cu	0.43462	0.28204	0.7951	0.926
Mof_Cu	Cu	0.06864	0.65906	0.18746	0.935
Mof_Cu	Cu	0.93462	0.7951	0.28204	0.924
Mof_Cu	Cu	0.56864	0.18746	0.65906	0.935
Mof_Cu	Cu	0.56538	0.71796	0.2049	0.925
Mof_Cu	Cu	0.93136	0.34094	0.81254	0.934
Mof_Cu	Cu	0.25	0.77131	0.22869	0.934
Mof_Cu	Cu	0.75	0.22869	0.77131	0.934
Mof_H 	H 	0.1586	0.156	0.0922	0.03
Mof_H 	H 	0.1042	0.1575	0.9571	0.081
Mof_H 	H 	0.0563	0.4215	0.0855	0.086
Mof_H 	H 	0.1217	0.4169	0.2149	0.026
Mof_H 	H 	0.7736	0.8969	0.7107	0.022
Mof_H 	H 	0.8572	0.0193	0.7165	0.09
Mof_H 	H 	0.0644	0.8902	0.7578	0.107
Mof_H 	H 	0.9758	0.7718	0.7508	0.023
Mof_H 	H 	0.7784	0.4093	0.4595	0.021
Mof_H 	H 	0.8507	0.413	0.5884	0.091
Mof_H 	H 	0.8875	0.1441	0.4641	0.072
Mof_H 	H 	0.8083	0.1476	0.34	0.028
Mof_H 	H 	0.3316	0.5407	0.7183	0.025
Mof_H 	H 	0.2629	0.4181	0.7329	0.078
Mof_H 	H 	0.0364	0.5368	0.7302	0.085
Mof_H 	H 	0.1112	0.6536	0.7114	0.031
Mof_H 	H 	0.0377	0.079	0.529	0.023
Mof_H 	H 	0.106	0.9639	0.4193	0.088
Mof_H 	H 	0.3241	0.0377	0.5681	0.08
Mof_H 	H 	0.2496	0.1509	0.6765	0.02
Mof_H 	H 	0.3414	0.9078	0.844	0.03
Mof_H 	H 	0.3958	0.0429	0.8425	0.082
Mof_H 	H 	0.4437	0.9145	0.5785	0.085
Mof_H 	H 	0.3783	0.7851	0.5831	0.027
Mof_H 	H 	0.7264	0.2893	0.1031	0.022
Mof_H 	H 	0.6428	0.2835	0.9807	0.088
Mof_H 	H 	0.4356	0.2422	0.1098	0.107
Mof_H 	H 	0.5242	0.2492	0.2282	0.022
Mof_H 	H 	0.7216	0.5405	0.5907	0.021
Mof_H 	H 	0.6493	0.4116	0.587	0.091
Mof_H 	H 	0.6125	0.5359	0.8559	0.072
Mof_H 	H 	0.6917	0.66	0.8524	0.028
Mof_H 	H 	0.1684	0.2817	0.4593	0.024
Mof_H 	H 	0.2371	0.2671	0.5819	0.078
Mof_H 	H 	0.4636	0.2698	0.4632	0.085
Mof_H 	H 	0.3888	0.2886	0.3464	0.03
Mof_H 	H 	0.4623	0.471	0.921	0.025
Mof_H 	H 	0.394	0.5807	0.0361	0.084
Mof_H 	H 	0.1759	0.4319	0.9623	0.079
Mof_H 	H 	0.2504	0.3235	0.8491	0.021
Mof_H 	H 	0.8414	0.844	0.9078	0.03
Mof_H 	H 	0.8958	0.8425	0.0429	0.081
Mof_H 	H 	0.9437	0.5785	0.9145	0.086
Mof_H 	H 	0.8783	0.5831	0.7851	0.026
Mof_H 	H 	0.2264	0.1031	0.2893	0.022
Mof_H 	H 	0.1428	0.9807	0.2835	0.09
Mof_H 	H 	0.9356	0.1098	0.2422	0.107
Mof_H 	H 	0.0242	0.2282	0.2492	0.023
Mof_H 	H 	0.2216	0.5907	0.5405	0.021
Mof_H 	H 	0.1493	0.587	0.4116	0.091
Mof_H 	H 	0.1125	0.8559	0.5359	0.072
Mof_H 	H 	0.1917	0.8524	0.66	0.028
Mof_H 	H 	0.6684	0.4593	0.2817	0.025
Mof_H 	H 	0.7371	0.5819	0.2671	0.078
Mof_H 	H 	0.9636	0.4632	0.2698	0.085
Mof_H 	H 	0.8888	0.3464	0.2886	0.031
Mof_H 	H 	0.9623	0.921	0.471	0.023
Mof_H 	H 	0.894	0.0361	0.5807	0.088
Mof_H 	H 	0.6759	0.9623	0.4319	0.08
Mof_H 	H 	0.7504	0.8491	0.3235	0.02
Mof_H 	H 	0.6586	0.0922	0.156	0.03
Mof_H 	H 	0.6042	0.9571	0.1575	0.082
Mof_H 	H 	0.5563	0.0855	0.4215	0.085
Mof_H 	H 	0.6217	0.2149	0.4169	0.027
Mof_H 	H 	0.2736	0.7107	0.8969	0.022
Mof_H 	H 	0.3572	0.7165	0.0193	0.088
Mof_H 	H 	0.5644	0.7578	0.8902	0.107
Mof_H 	H 	0.4758	0.7508	0.7718	0.022
Mof_H 	H 	0.2784	0.4595	0.4093	0.021
Mof_H 	H 	0.3507	0.5884	0.413	0.091
Mof_H 	H 	0.3875	0.4641	0.1441	0.072
Mof_H 	H 	0.3083	0.34	0.1476	0.028
Mof_H 	H 	0.8316	0.7183	0.5407	0.024
Mof_H 	H 	0.7629	0.7329	0.4181	0.078
Mof_H 	H 	0.5364	0.7302	0.5368	0.085
Mof_H 	H 	0.6112	0.7114	0.6536	0.03
Mof_H 	H 	0.5377	0.529	0.079	0.025
Mof_H 	H 	0.606	0.4193	0.9639	0.084
Mof_H 	H 	0.8241	0.5681	0.0377	0.079
Mof_H 	H 	0.7496	0.6765	0.1509	0.021
Mof_Rh	Rh	0.20934	0.28449	0.27735	1.166
Mof_Rh	Rh	0.29066	0.72265	0.71551	1.166
Mof_Rh	Rh	0.79066	0.71551	0.72265	1.166
Mof_Rh	Rh	0.70934	0.27735	0.28449	1.166
Mof_C 	C 	0.1404	0.2112	0.09	0.072
Mof_C 	C 	0.1069	0.2113	0.0093	-0.061
Mof_C 	C 	0.0775	0.2912	0.0064	-0.018
Mof_C 	C 	0.08	0.3672	0.0846	-0.069
Mof_C 	C 	0.1174	0.3635	0.1621	0.066
Mof_C 	C 	0.0451	0.294	0.9202	0.326
Mof_C 	C 	0.8337	0.8957	0.7195	0.08
Mof_C 	C 	0.8829	0.9688	0.7228	-0.093
Mof_C 	C 	0.971	0.9671	0.7353	0.006
Mof_C 	C 	0.0048	0.8924	0.747	-0.093
Mof_C 	C 	0.9518	0.8222	0.743	0.086
Mof_C 	C 	0.0312	0.0423	0.7353	0.293
Mof_C 	C 	0.799	0.3547	0.4617	0.079
Mof_C 	C 	0.8419	0.3575	0.5387	-0.073
Mof_C 	C 	0.8721	0.2773	0.5421	-0.016
Mof_C 	C 	0.8632	0.1985	0.4659	-0.067
Mof_C 	C 	0.8172	0.2016	0.3914	0.063
Mof_C 	C 	0.9119	0.2781	0.6283	0.319
Mof_C 	C 	0.2711	0.5401	0.7215	0.073
Mof_C 	C 	0.2305	0.4665	0.7301	-0.072
Mof_C 	C 	0.1431	0.4644	0.7346	-0.021
Mof_C 	C 	0.0971	0.5363	0.7279	-0.064
Mof_C 	C 	0.1421	0.606	0.718	0.072
Mof_C 	C 	0.0936	0.391	0.7506	0.339
Mof_C 	C 	0.0965	0.07	0.5376	0.051
Mof_C 	C 	0.1369	0.0014	0.4718	-0.085
Mof_C 	C 	0.2212	0.9873	0.4821	-0.009
Mof_C 	C 	0.2649	0.0447	0.5595	-0.075
Mof_C 	C 	0.2198	0.1124	0.6238	0.064
Mof_C 	C 	0.2685	0.9104	0.4134	0.321
Mof_C 	C 	0.3596	0.91	0.7888	0.073
Mof_C 	C 	0.3931	0.9907	0.7887	-0.062
Mof_C 	C 	0.4225	0.9936	0.7088	-0.02
Mof_C 	C 	0.42	0.9154	0.6328	-0.068
Mof_C 	C 	0.3826	0.8379	0.6365	0.066
Mof_C 	C 	0.4549	0.0798	0.706	0.331
Mof_C 	C 	0.6663	0.2805	0.1043	0.079
Mof_C 	C 	0.6171	0.2772	0.0312	-0.089
Mof_C 	C 	0.529	0.2647	0.0329	0.006
Mof_C 	C 	0.4952	0.253	0.1076	-0.097
Mof_C 	C 	0.5482	0.257	0.1778	0.089
Mof_C 	C 	0.4688	0.2647	0.9577	0.298
Mof_C 	C 	0.701	0.5383	0.6453	0.079
Mof_C 	C 	0.6581	0.4613	0.6425	-0.073
Mof_C 	C 	0.6279	0.4579	0.7227	-0.017
Mof_C 	C 	0.6368	0.5341	0.8015	-0.066
Mof_C 	C 	0.6828	0.6086	0.7984	0.063
Mof_C 	C 	0.5881	0.3717	0.7219	0.32
Mof_C 	C 	0.2289	0.2785	0.4599	0.073
Mof_C 	C 	0.2695	0.2699	0.5335	-0.072
Mof_C 	C 	0.3569	0.2654	0.5356	-0.02
Mof_C 	C 	0.4029	0.2721	0.4637	-0.065
Mof_C 	C 	0.3579	0.282	0.394	0.072
Mof_C 	C 	0.4064	0.2494	0.609	0.339
Mof_C 	C 	0.4035	0.4624	0.93	0.047
Mof_C 	C 	0.3631	0.5282	0.9986	-0.076
Mof_C 	C 	0.2788	0.5179	0.0127	-0.015
Mof_C 	C 	0.2351	0.4405	0.9553	-0.071
Mof_C 	C 	0.2802	0.3762	0.8876	0.062
Mof_C 	C 	0.2315	0.5866	0.0896	0.323
Mof_C 	C 	0.8596	0.7888	0.91	0.072
Mof_C 	C 	0.8931	0.7887	0.9907	-0.061
Mof_C 	C 	0.9225	0.7088	0.9936	-0.018
Mof_C 	C 	0.92	0.6328	0.9154	-0.069
Mof_C 	C 	0.8826	0.6365	0.8379	0.066
Mof_C 	C 	0.9549	0.706	0.0798	0.326
Mof_C 	C 	0.1663	0.1043	0.2805	0.08
Mof_C 	C 	0.1171	0.0312	0.2772	-0.093
Mof_C 	C 	0.029	0.0329	0.2647	0.006
Mof_C 	C 	0.9952	0.1076	0.253	-0.093
Mof_C 	C 	0.0482	0.1778	0.257	0.086
Mof_C 	C 	0.9688	0.9577	0.2647	0.293
Mof_C 	C 	0.201	0.6453	0.5383	0.079
Mof_C 	C 	0.1581	0.6425	0.4613	-0.073
Mof_C 	C 	0.1279	0.7227	0.4579	-0.016
Mof_C 	C 	0.1368	0.8015	0.5341	-0.067
Mof_C 	C 	0.1828	0.7984	0.6086	0.063
Mof_C 	C 	0.0881	0.7219	0.3717	0.319
Mof_C 	C 	0.7289	0.4599	0.2785	0.073
Mof_C 	C 	0.7695	0.5335	0.2699	-0.072
Mof_C 	C 	0.8569	0.5356	0.2654	-0.021
Mof_C 	C 	0.9029	0.4637	0.2721	-0.064
Mof_C 	C 	0.8579	0.394	0.282	0.072
Mof_C 	C 	0.9064	0.609	0.2494	0.339
Mof_C 	C 	0.9035	0.93	0.4624	0.051
Mof_C 	C 	0.8631	0.9986	0.5282	-0.085
Mof_C 	C 	0.7788	0.0127	0.5179	-0.009
Mof_C 	C 	0.7351	0.9553	0.4405	-0.075
Mof_C 	C 	0.7802	0.8876	0.3762	0.064
Mof_C 	C 	0.7315	0.0896	0.5866	0.321
Mof_C 	C 	0.6404	0.09	0.2112	0.073
Mof_C 	C 	0.6069	0.0093	0.2113	-0.062
Mof_C 	C 	0.5775	0.0064	0.2912	-0.02
Mof_C 	C 	0.58	0.0846	0.3672	-0.068
Mof_C 	C 	0.6174	0.1621	0.3635	0.066
Mof_C 	C 	0.5451	0.9202	0.294	0.331
Mof_C 	C 	0.3337	0.7195	0.8957	0.079
Mof_C 	C 	0.3829	0.7228	0.9688	-0.089
Mof_C 	C 	0.471	0.7353	0.9671	0.006
Mof_C 	C 	0.5048	0.747	0.8924	-0.097
Mof_C 	C 	0.4518	0.743	0.8222	0.089
Mof_C 	C 	0.5312	0.7353	0.0423	0.298
Mof_C 	C 	0.299	0.4617	0.3547	0.079
Mof_C 	C 	0.3419	0.5387	0.3575	-0.073
Mof_C 	C 	0.3721	0.5421	0.2773	-0.017
Mof_C 	C 	0.3632	0.4659	0.1985	-0.066
Mof_C 	C 	0.3172	0.3914	0.2016	0.063
Mof_C 	C 	0.4119	0.6283	0.2781	0.32
Mof_C 	C 	0.7711	0.7215	0.5401	0.073
Mof_C 	C 	0.7305	0.7301	0.4665	-0.072
Mof_C 	C 	0.6431	0.7346	0.4644	-0.02
Mof_C 	C 	0.5971	0.7279	0.5363	-0.065
Mof_C 	C 	0.6421	0.718	0.606	0.072
Mof_C 	C 	0.5936	0.7506	0.391	0.339
Mof_C 	C 	0.5965	0.5376	0.07	0.047
Mof_C 	C 	0.6369	0.4718	0.0014	-0.076
Mof_C 	C 	0.7212	0.4821	0.9873	-0.015
Mof_C 	C 	0.7649	0.5595	0.0447	-0.071
Mof_C 	C 	0.7198	0.6238	0.1124	0.062
Mof_C 	C 	0.7685	0.4134	0.9104	0.323
Mof_N 	N 	0.1479	0.2858	0.1646	-0.226
Mof_N 	N 	0.8671	0.8224	0.7284	-0.23
Mof_N 	N 	0.7854	0.2788	0.3906	-0.225
Mof_N 	N 	0.2287	0.6099	0.7175	-0.225
Mof_N 	N 	0.1374	0.126	0.6152	-0.196
Mof_N 	N 	0.3521	0.8354	0.7142	-0.226
Mof_N 	N 	0.6329	0.2716	0.1776	-0.23
Mof_N 	N 	0.7146	0.6094	0.7212	-0.225
Mof_N 	N 	0.2713	0.2825	0.3901	-0.225
Mof_N 	N 	0.3626	0.3848	0.874	-0.195
Mof_N 	N 	0.8521	0.7142	0.8354	-0.226
Mof_N 	N 	0.1329	0.1776	0.2716	-0.23
Mof_N 	N 	0.2146	0.7212	0.6094	-0.225
Mof_N 	N 	0.7713	0.3901	0.2825	-0.225
Mof_N 	N 	0.8626	0.874	0.3848	-0.196
Mof_N 	N 	0.6479	0.1646	0.2858	-0.226
Mof_N 	N 	0.3671	0.7284	0.8224	-0.23
Mof_N 	N 	0.2854	0.3906	0.2788	-0.225
Mof_N 	N 	0.7287	0.7175	0.6099	-0.225
Mof_N 	N 	0.6374	0.6152	0.126	-0.195
Mof_Cl	Cl	0.30879	0.18507	0.18893	-0.481
Mof_Cl	Cl	0.11059	0.38511	0.36833	-0.48
Mof_Cl	Cl	0.19121	0.81107	0.81493	-0.48
Mof_Cl	Cl	0.38941	0.63167	0.61489	-0.48
Mof_Cl	Cl	0.69121	0.81493	0.81107	-0.481
Mof_Cl	Cl	0.88941	0.61489	0.63167	-0.48
Mof_Cl	Cl	0.80879	0.18893	0.18507	-0.48
Mof_Cl	Cl	0.61059	0.36833	0.38511	-0.48
Mof_O 	O 	0.9863	0.3481	0.9247	-0.364
Mof_O 	O 	0.0798	0.2421	0.8497	-0.39
Mof_O 	O 	0.9954	0.103	0.7142	-0.358
Mof_O 	O 	0.1069	0.0377	0.7505	-0.259
Mof_O 	O 	0.8828	0.3361	0.6987	-0.395
Mof_O 	O 	0.9686	0.2217	0.6235	-0.358
Mof_O 	O 	0.1252	0.3138	0.7202	-0.395
Mof_O 	O 	0.0262	0.4143	0.7931	-0.385
Mof_O 	O 	0.3402	0.8914	0.4352	-0.346
Mof_O 	O 	0.2268	0.8727	0.3395	-0.385
Mof_O 	O 	0.3662	0.8057	0.2321	-0.398
Mof_O 	O 	0.5137	0.0753	0.6519	-0.367
Mof_O 	O 	0.4202	0.1503	0.7579	-0.39
Mof_O 	O 	0.5046	0.2858	0.897	-0.362
Mof_O 	O 	0.3931	0.2495	0.9623	-0.26
Mof_O 	O 	0.6172	0.3013	0.6639	-0.395
Mof_O 	O 	0.5314	0.3765	0.7783	-0.359
Mof_O 	O 	0.3748	0.2798	0.6862	-0.394
Mof_O 	O 	0.4738	0.2069	0.5857	-0.384
Mof_O 	O 	0.1598	0.5648	0.1086	-0.346
Mof_O 	O 	0.2732	0.6605	0.1273	-0.385
Mof_O 	O 	0.1338	0.7679	0.1943	-0.397
Mof_O 	O 	0.0137	0.6519	0.0753	-0.364
Mof_O 	O 	0.9202	0.7579	0.1503	-0.39
Mof_O 	O 	0.0046	0.897	0.2858	-0.358
Mof_O 	O 	0.8931	0.9623	0.2495	-0.259
Mof_O 	O 	0.1172	0.6639	0.3013	-0.395
Mof_O 	O 	0.0314	0.7783	0.3765	-0.358
Mof_O 	O 	0.8748	0.6862	0.2798	-0.395
Mof_O 	O 	0.9738	0.5857	0.2069	-0.385
Mof_O 	O 	0.6598	0.1086	0.5648	-0.346
Mof_O 	O 	0.7732	0.1273	0.6605	-0.385
Mof_O 	O 	0.6338	0.1943	0.7679	-0.398
Mof_O 	O 	0.4863	0.9247	0.3481	-0.367
Mof_O 	O 	0.5798	0.8497	0.2421	-0.39
Mof_O 	O 	0.4954	0.7142	0.103	-0.362
Mof_O 	O 	0.6069	0.7505	0.0377	-0.26
Mof_O 	O 	0.3828	0.6987	0.3361	-0.395
Mof_O 	O 	0.4686	0.6235	0.2217	-0.359
Mof_O 	O 	0.6252	0.7202	0.3138	-0.394
Mof_O 	O 	0.5262	0.7931	0.4143	-0.384
Mof_O 	O 	0.8402	0.4352	0.8914	-0.346
Mof_O 	O 	0.7268	0.3395	0.8727	-0.385
Mof_O 	O 	0.8662	0.2321	0.8057	-0.397
_end
