# CIF file generated by openbabel 3.1.0, see https://openbabel.org
data_I
_chemical_name_common 'DEYJIC_clean'
_cell_length_a 7.7086
_cell_length_b 11.4007
_cell_length_c 13.499
_cell_angle_alpha 96.395
_cell_angle_beta 105.619
_cell_angle_gamma 99.339
_space_group_name_H-M_alt 'P 1'
_space_group_name_Hall 'P 1'
loop_
    _symmetry_equiv_pos_as_xyz
    x,y,z
loop_
    _atom_site_label
    _atom_site_type_symbol
    _atom_site_fract_x
    _atom_site_fract_y
    _atom_site_fract_z
    _atom_site_occupancy
    V1       V        0.85707    0.67711    0.97466    1.000
    V2       V        0.79402    0.42040    0.85922    1.000
    V3       V        0.14293    0.32289    0.02534    1.000
    V4       V        0.20598    0.57960    0.14078    1.000
    Ni1      Ni       0.50000    0.50000    0.00000    1.000
    Ni2      Ni       0.00000    0.00000    0.00000    1.000
    H1       H        0.09140    0.86720    0.82290    1.000
    H2       H        0.09560    0.87780    0.65470    1.000
    H3       H        0.87020    0.17140    0.66760    1.000
    H4       H        0.86330    0.14770    0.83380    1.000
    H5       H        0.95730    0.11170    0.51110    1.000
    H6       H        0.65150    0.65450    0.21780    1.000
    H7       H        0.82050    0.64530    0.38410    1.000
    H8       H        0.91590    0.32740    0.27470    1.000
    H9       H        0.73550    0.34200    0.11250    1.000
    H10      H        0.06140    0.40610    0.45740    1.000
    H11      H        0.90860    0.13280    0.17710    1.000
    H12      H        0.90440    0.12220    0.34530    1.000
    H13      H        0.12980    0.82860    0.33240    1.000
    H14      H        0.13670    0.85230    0.16620    1.000
    H15      H        0.04270    0.88830    0.48890    1.000
    H16      H        0.34850    0.34550    0.78220    1.000
    H17      H        0.17950    0.35470    0.61590    1.000
    H18      H        0.08410    0.67260    0.72530    1.000
    H19      H        0.26450    0.65800    0.88750    1.000
    H20      H        0.93860    0.59390    0.54260    1.000
    C1       C        0.04570    0.92856    0.79082    1.000
    C2       C        0.04940    0.93448    0.68963    1.000
    C3       C        0.98280    0.02681    0.64043    1.000
    C4       C        0.91440    0.10815    0.69705    1.000
    C5       C        0.91280    0.09417    0.79773    1.000
    C6       C        0.98300    0.04053    0.53358    1.000
    C7       C        0.70230    0.58693    0.22992    1.000
    C8       C        0.80530    0.58242    0.33037    1.000
    C9       C        0.88640    0.48297    0.35076    1.000
    C10      C        0.86070    0.39367    0.26571    1.000
    C11      C        0.75280    0.40355    0.16766    1.000
    C12      C        0.99460    0.46727    0.45471    1.000
    C13      C        0.95430    0.07144    0.20918    1.000
    C14      C        0.95060    0.06552    0.31037    1.000
    C15      C        0.01720    0.97319    0.35957    1.000
    C16      C        0.08560    0.89185    0.30295    1.000
    C17      C        0.08720    0.90583    0.20227    1.000
    C18      C        0.01700    0.95947    0.46642    1.000
    C19      C        0.29770    0.41307    0.77008    1.000
    C20      C        0.19470    0.41758    0.66963    1.000
    C21      C        0.11360    0.51703    0.64924    1.000
    C22      C        0.13930    0.60633    0.73429    1.000
    C23      C        0.24720    0.59645    0.83234    1.000
    C24      C        0.00540    0.53273    0.54529    1.000
    N1       N        0.97940    0.00687    0.84495    1.000
    N2       N        0.67236    0.49793    0.14906    1.000
    N3       N        0.02060    0.99313    0.15505    1.000
    N4       N        0.32764    0.50207    0.85094    1.000
    O1       O        0.65299    0.40436    0.93245    1.000
    O2       O        0.64692    0.66458    0.98910    1.000
    O3       O        0.99959    0.63170    0.08418    1.000
    O4       O        0.94085    0.81669    0.96700    1.000
    O5       O        0.84751    0.58034    0.85778    1.000
    O6       O        0.34701    0.59564    0.06755    1.000
    O7       O        0.35308    0.33542    0.01090    1.000
    O8       O        0.00041    0.36830    0.91582    1.000
    O9       O        0.05915    0.18331    0.03300    1.000
    O10      O        0.15249    0.41966    0.14222    1.000
