data_functionalizedCrystal
_audit_creation_method	'EQeq! by Chris Wilmer'
_symmetry_space_group_name_H-M	'P1'
_symmetry_Int_Tables_number	1
_symmetry_cell_setting	triclinic
loop_
_symmetry_equiv_pos_as_xyz
  x,y,z
_cell_length_a	13.3467
_cell_length_b	14.354
_cell_length_c	16.0336
_cell_angle_alpha	116.591
_cell_angle_beta	98.621
_cell_angle_gamma	90
loop_
_atom_site_label
_atom_site_type_symbol
_atom_site_fract_x
_atom_site_fract_y
_atom_site_fract_z
_atom_site_charge
Mof_Ho	Ho	0.96027	0.89592	0.36682	1.771
Mof_Ho	Ho	0.53973	0.5291	0.63318	1.795
Mof_Ho	Ho	0.03973	0.10408	0.63318	1.77
Mof_Ho	Ho	0.46027	0.4709	0.36682	1.794
Mof_H 	H 	0.45	0.8668	0.8842	0.029
Mof_H 	H 	0.3938	0.9728	0.0296	0.081
Mof_H 	H 	0.3808	0.7279	0.0808	0.072
Mof_H 	H 	0.4033	0.6174	0.9256	0.024
Mof_H 	H 	0.2967	0.2265	0.5402	0.03
Mof_H 	H 	0.227	0.9724	0.2878	0.073
Mof_H 	H 	0.4218	0.2021	0.3176	0.057
Mof_H 	H 	0.05	0.9826	0.1158	0.03
Mof_H 	H 	0.1062	0.9432	0.9704	0.083
Mof_H 	H 	0.1192	0.6471	0.9192	0.074
Mof_H 	H 	0.0967	0.6918	0.0744	0.023
Mof_H 	H 	0.2033	0.6863	0.4598	0.029
Mof_H 	H 	0.273	0.6846	0.7122	0.067
Mof_H 	H 	0.0782	0.8845	0.6824	0.059
Mof_H 	H 	0.55	0.1332	0.1158	0.029
Mof_H 	H 	0.6062	0.0272	0.9704	0.081
Mof_H 	H 	0.6192	0.2721	0.9192	0.072
Mof_H 	H 	0.5967	0.3826	0.0744	0.024
Mof_H 	H 	0.7033	0.7735	0.4598	0.03
Mof_H 	H 	0.773	0.0276	0.7122	0.073
Mof_H 	H 	0.5782	0.7979	0.6824	0.057
Mof_H 	H 	0.95	0.0174	0.8842	0.03
Mof_H 	H 	0.8938	0.0568	0.0296	0.083
Mof_H 	H 	0.8808	0.3529	0.0808	0.074
Mof_H 	H 	0.9033	0.3082	0.9256	0.023
Mof_H 	H 	0.7967	0.3137	0.5402	0.029
Mof_H 	H 	0.727	0.3154	0.2878	0.067
Mof_H 	H 	0.9218	0.1155	0.3176	0.059
Mof_C 	C 	0.48	0.6661	0.805	0.341
Mof_C 	C 	0.443	0.7345	0.8944	-0.117
Mof_C 	C 	0.4341	0.8373	0.9222	0.042
Mof_C 	C 	0.4	0.9018	0.0102	-0.122
Mof_C 	C 	0.3769	0.8557	0.065	0.072
Mof_C 	C 	0.388	0.7555	0.039	-0.13
Mof_C 	C 	0.41	0.6896	0.949	0.041
Mof_C 	C 	0.3511	0.9221	0.1612	0.028
Mof_C 	C 	0.4264	0.3345	0.498	0.41
Mof_C 	C 	0.3701	0.2305	0.4396	-0.114
Mof_C 	C 	0.3044	0.1895	0.4772	0.036
Mof_C 	C 	0.2502	0.093	0.4198	-0.099
Mof_C 	C 	0.2638	0.0362	0.326	-0.058
Mof_C 	C 	0.3319	0.0745	0.2898	0.074
Mof_C 	C 	0.3814	0.1736	0.3442	-0.051
Mof_C 	C 	0.1727	0.051	0.4576	0.424
Mof_C 	C 	0.02	0.8611	0.195	0.353
Mof_C 	C 	0.057	0.8401	0.1056	-0.122
Mof_C 	C 	0.0659	0.9151	0.0778	0.047
Mof_C 	C 	0.1	0.8916	0.9898	-0.125
Mof_C 	C 	0.1231	0.7907	0.935	0.076
Mof_C 	C 	0.112	0.7165	0.961	-0.136
Mof_C 	C 	0.09	0.7406	0.051	0.047
Mof_C 	C 	0.1489	0.7609	0.8388	0.026
Mof_C 	C 	0.0736	0.8365	0.502	0.408
Mof_C 	C 	0.1299	0.7909	0.5604	-0.114
Mof_C 	C 	0.1956	0.7123	0.5228	0.04
Mof_C 	C 	0.2498	0.6732	0.5802	-0.106
Mof_C 	C 	0.2362	0.7102	0.674	-0.045
Mof_C 	C 	0.1681	0.7847	0.7102	0.071
Mof_C 	C 	0.1186	0.8294	0.6558	-0.049
Mof_C 	C 	0.3273	0.5934	0.5424	0.436
Mof_C 	C 	0.52	0.3339	0.195	0.341
Mof_C 	C 	0.557	0.2655	0.1056	-0.117
Mof_C 	C 	0.5659	0.1627	0.0778	0.042
Mof_C 	C 	0.6	0.0982	0.9898	-0.122
Mof_C 	C 	0.6231	0.1443	0.935	0.072
Mof_C 	C 	0.612	0.2445	0.961	-0.13
Mof_C 	C 	0.59	0.3104	0.051	0.041
Mof_C 	C 	0.6489	0.0779	0.8388	0.028
Mof_C 	C 	0.5736	0.6655	0.502	0.41
Mof_C 	C 	0.6299	0.7695	0.5604	-0.114
Mof_C 	C 	0.6956	0.8105	0.5228	0.036
Mof_C 	C 	0.7498	0.907	0.5802	-0.099
Mof_C 	C 	0.7362	0.9638	0.674	-0.058
Mof_C 	C 	0.6681	0.9255	0.7102	0.074
Mof_C 	C 	0.6186	0.8264	0.6558	-0.051
Mof_C 	C 	0.8273	0.949	0.5424	0.424
Mof_C 	C 	0.98	0.1389	0.805	0.353
Mof_C 	C 	0.943	0.1599	0.8944	-0.122
Mof_C 	C 	0.9341	0.0849	0.9222	0.047
Mof_C 	C 	0.9	0.1084	0.0102	-0.125
Mof_C 	C 	0.8769	0.2093	0.065	0.076
Mof_C 	C 	0.888	0.2835	0.039	-0.136
Mof_C 	C 	0.91	0.2594	0.949	0.047
Mof_C 	C 	0.8511	0.2391	0.1612	0.026
Mof_C 	C 	0.9264	0.1635	0.498	0.408
Mof_C 	C 	0.8701	0.2091	0.4396	-0.114
Mof_C 	C 	0.8044	0.2877	0.4772	0.04
Mof_C 	C 	0.7502	0.3268	0.4198	-0.106
Mof_C 	C 	0.7638	0.2898	0.326	-0.045
Mof_C 	C 	0.8319	0.2153	0.2898	0.071
Mof_C 	C 	0.8814	0.1706	0.3442	-0.049
Mof_C 	C 	0.6727	0.4066	0.4576	0.436
Mof_N 	N 	0.3502	0.0188	0.1954	-0.127
Mof_N 	N 	0.1498	0.8234	0.8046	-0.124
Mof_N 	N 	0.6498	0.9812	0.8046	-0.127
Mof_N 	N 	0.8502	0.1766	0.1954	-0.124
Mof_O 	O 	0.4816	0.5725	0.7784	-0.45
Mof_O 	O 	0.506	0.708	0.7544	-0.394
Mof_O 	O 	0.4456	0.368	0.5874	-0.444
Mof_O 	O 	0.4553	0.3873	0.46	-0.567
Mof_O 	O 	0.1279	0.963	0.4014	-0.454
Mof_O 	O 	0.1609	0.1073	0.5424	-0.501
Mof_O 	O 	0.0184	0.7941	0.2216	-0.448
Mof_O 	O 	0.994	0.9536	0.2456	-0.405
Mof_O 	O 	0.0544	0.7806	0.4126	-0.439
Mof_O 	O 	0.0447	0.9273	0.54	-0.558
Mof_O 	O 	0.3721	0.5616	0.5986	-0.465
Mof_O 	O 	0.3391	0.5649	0.4576	-0.504
Mof_O 	O 	0.5184	0.4275	0.2216	-0.45
Mof_O 	O 	0.494	0.292	0.2456	-0.394
Mof_O 	O 	0.5544	0.632	0.4126	-0.444
Mof_O 	O 	0.5447	0.6127	0.54	-0.567
Mof_O 	O 	0.8721	0.037	0.5986	-0.454
Mof_O 	O 	0.8391	0.8927	0.4576	-0.501
Mof_O 	O 	0.9816	0.2059	0.7784	-0.448
Mof_O 	O 	0.006	0.0464	0.7544	-0.405
Mof_O 	O 	0.9456	0.2194	0.5874	-0.439
Mof_O 	O 	0.9553	0.0727	0.46	-0.558
Mof_O 	O 	0.6279	0.4384	0.4014	-0.465
Mof_O 	O 	0.6609	0.4351	0.5424	-0.504
_end
