data_functionalizedCrystal
_audit_creation_method	'EQeq! by Chris Wilmer'
_symmetry_space_group_name_H-M	'P1'
_symmetry_Int_Tables_number	1
_symmetry_cell_setting	triclinic
loop_
_symmetry_equiv_pos_as_xyz
  x,y,z
_cell_length_a	14.15
_cell_length_b	11.86
_cell_length_c	16.574
_cell_angle_alpha	90
_cell_angle_beta	90
_cell_angle_gamma	90
loop_
_atom_site_label
_atom_site_type_symbol
_atom_site_fract_x
_atom_site_fract_y
_atom_site_fract_z
_atom_site_charge
Mof_Mn	Mn	0.61009	0.47072	0.56353	0.94
Mof_O 	O 	0.7967	0.5236	0.9601	-0.333
Mof_O 	O 	0.7877	0.3784	0.042	-0.293
Mof_O 	O 	0.6036	0.3137	0.6452	-0.295
Mof_O 	O 	0.4918	0.0623	0.8645	-0.315
Mof_C 	C 	0.6422	0.2816	0.9473	0.039
Mof_H 	H 	0.641	0.2616	0.0015	0.041
Mof_O 	O 	0.5045	0.1193	0.9933	-0.357
Mof_C 	C 	0.763	0.4284	0.9791	0.311
Mof_C 	C 	0.6985	0.4019	0.8405	0.013
Mof_H 	H 	0.7332	0.4643	0.8239	0.069
Mof_C 	C 	0.6486	0.3723	0.6945	0.294
Mof_C 	C 	0.6981	0.3706	0.9214	-0.07
Mof_C 	C 	0.5251	0.1301	0.918	0.306
Mof_O 	O 	0.6932	0.4597	0.6755	-0.304
Mof_C 	C 	0.5925	0.2485	0.809	0.016
Mof_H 	H 	0.5596	0.2053	0.7715	0.069
Mof_C 	C 	0.5879	0.2224	0.8918	-0.075
Mof_C 	C 	0.6467	0.3394	0.7843	-0.049
Mof_Mn	Mn	0.88991	0.52928	0.06353	0.94
Mof_O 	O 	0.7033	0.4764	0.4601	-0.331
Mof_O 	O 	0.7123	0.6216	0.542	-0.29
Mof_O 	O 	0.8964	0.6863	0.1452	-0.295
Mof_O 	O 	0.0082	0.9377	0.3645	-0.313
Mof_C 	C 	0.8578	0.7184	0.4473	0.027
Mof_H 	H 	0.859	0.7384	0.5015	0.049
Mof_O 	O 	0.9955	0.8807	0.4933	-0.361
Mof_C 	C 	0.737	0.5716	0.4791	0.305
Mof_C 	C 	0.8015	0.5981	0.3405	0.009
Mof_H 	H 	0.7668	0.5357	0.3239	0.07
Mof_C 	C 	0.8514	0.6277	0.1945	0.293
Mof_C 	C 	0.8019	0.6294	0.4214	-0.063
Mof_C 	C 	0.9749	0.8699	0.418	0.3
Mof_O 	O 	0.8068	0.5403	0.1755	-0.304
Mof_C 	C 	0.9075	0.7515	0.309	0.012
Mof_H 	H 	0.9404	0.7947	0.2715	0.07
Mof_C 	C 	0.9121	0.7776	0.3918	-0.07
Mof_C 	C 	0.8533	0.6606	0.2843	-0.046
Mof_Mn	Mn	0.38991	0.97072	0.93647	0.929
Mof_O 	O 	0.2033	0.0236	0.5399	-0.332
Mof_O 	O 	0.2123	0.8784	0.458	-0.288
Mof_O 	O 	0.3964	0.8137	0.8548	-0.296
Mof_O 	O 	0.5082	0.5623	0.6355	-0.318
Mof_C 	C 	0.3578	0.7816	0.5527	0.028
Mof_H 	H 	0.359	0.7616	0.4985	0.048
Mof_O 	O 	0.4955	0.6193	0.5067	-0.361
Mof_C 	C 	0.237	0.9284	0.5209	0.307
Mof_C 	C 	0.3015	0.9019	0.6595	0.01
Mof_H 	H 	0.2668	0.9643	0.6761	0.07
Mof_C 	C 	0.3514	0.8723	0.8055	0.293
Mof_C 	C 	0.3019	0.8706	0.5786	-0.064
Mof_C 	C 	0.4749	0.6301	0.582	0.305
Mof_O 	O 	0.3068	0.9597	0.8245	-0.305
Mof_C 	C 	0.4075	0.7485	0.691	0.013
Mof_H 	H 	0.4404	0.7053	0.7285	0.07
Mof_C 	C 	0.4121	0.7224	0.6082	-0.072
Mof_C 	C 	0.3533	0.8394	0.7157	-0.047
Mof_Mn	Mn	0.11009	0.02928	0.43647	0.937
Mof_O 	O 	0.2967	0.9764	0.0399	-0.318
Mof_O 	O 	0.2877	0.1216	0.958	-0.28
Mof_O 	O 	0.1036	0.1863	0.3548	-0.295
Mof_O 	O 	0.9918	0.4377	0.1355	-0.319
Mof_C 	C 	0.1422	0.2184	0.0527	0.017
Mof_H 	H 	0.141	0.2384	0.9985	0.054
Mof_O 	O 	0.0045	0.3807	0.0067	-0.361
Mof_C 	C 	0.263	0.0716	0.0209	0.287
Mof_C 	C 	0.1985	0.0981	0.1595	0.004
Mof_H 	H 	0.2332	0.0357	0.1761	0.07
Mof_C 	C 	0.1486	0.1277	0.3055	0.292
Mof_C 	C 	0.1981	0.1294	0.0786	-0.056
Mof_C 	C 	0.0251	0.3699	0.082	0.304
Mof_O 	O 	0.1932	0.0403	0.3245	-0.305
Mof_C 	C 	0.0925	0.2515	0.191	0.009
Mof_H 	H 	0.0596	0.2947	0.2285	0.071
Mof_C 	C 	0.0879	0.2776	0.1082	-0.067
Mof_C 	C 	0.1467	0.1606	0.2157	-0.044
Mof_Mn	Mn	0.38991	0.52928	0.43647	0.941
Mof_O 	O 	0.2033	0.4764	0.0399	-0.332
Mof_O 	O 	0.2123	0.6216	0.958	-0.293
Mof_O 	O 	0.3964	0.6863	0.3548	-0.295
Mof_O 	O 	0.5082	0.9377	0.1355	-0.315
Mof_C 	C 	0.3578	0.7184	0.0527	0.039
Mof_H 	H 	0.359	0.7384	0.9985	0.041
Mof_O 	O 	0.4955	0.8807	0.0067	-0.357
Mof_C 	C 	0.237	0.5716	0.0209	0.311
Mof_C 	C 	0.3015	0.5981	0.1595	0.013
Mof_H 	H 	0.2668	0.5357	0.1761	0.069
Mof_C 	C 	0.3514	0.6277	0.3055	0.294
Mof_C 	C 	0.3019	0.6294	0.0786	-0.07
Mof_C 	C 	0.4749	0.8699	0.082	0.306
Mof_O 	O 	0.3068	0.5403	0.3245	-0.304
Mof_C 	C 	0.4075	0.7515	0.191	0.016
Mof_H 	H 	0.4404	0.7947	0.2285	0.069
Mof_C 	C 	0.4121	0.7776	0.1082	-0.075
Mof_C 	C 	0.3533	0.6606	0.2157	-0.049
Mof_Mn	Mn	0.11009	0.47072	0.93647	0.94
Mof_O 	O 	0.2967	0.5236	0.5399	-0.331
Mof_O 	O 	0.2877	0.3784	0.458	-0.29
Mof_O 	O 	0.1036	0.3137	0.8548	-0.295
Mof_O 	O 	0.9918	0.0623	0.6355	-0.313
Mof_C 	C 	0.1422	0.2816	0.5527	0.027
Mof_H 	H 	0.141	0.2616	0.4985	0.049
Mof_O 	O 	0.0045	0.1193	0.5067	-0.361
Mof_C 	C 	0.263	0.4284	0.5209	0.305
Mof_C 	C 	0.1985	0.4019	0.6595	0.009
Mof_H 	H 	0.2332	0.4643	0.6761	0.07
Mof_C 	C 	0.1486	0.3723	0.8055	0.293
Mof_C 	C 	0.1981	0.3706	0.5786	-0.063
Mof_C 	C 	0.0251	0.1301	0.582	0.3
Mof_O 	O 	0.1932	0.4597	0.8245	-0.304
Mof_C 	C 	0.0925	0.2485	0.691	0.012
Mof_H 	H 	0.0596	0.2053	0.7285	0.07
Mof_C 	C 	0.0879	0.2224	0.6082	-0.07
Mof_C 	C 	0.1467	0.3394	0.7157	-0.046
Mof_Mn	Mn	0.61009	0.02928	0.06353	0.929
Mof_O 	O 	0.7967	0.9764	0.4601	-0.332
Mof_O 	O 	0.7877	0.1216	0.542	-0.288
Mof_O 	O 	0.6036	0.1863	0.1452	-0.296
Mof_O 	O 	0.4918	0.4377	0.3645	-0.318
Mof_C 	C 	0.6422	0.2184	0.4473	0.028
Mof_H 	H 	0.641	0.2384	0.5015	0.048
Mof_O 	O 	0.5045	0.3807	0.4933	-0.361
Mof_C 	C 	0.763	0.0716	0.4791	0.307
Mof_C 	C 	0.6985	0.0981	0.3405	0.01
Mof_H 	H 	0.7332	0.0357	0.3239	0.07
Mof_C 	C 	0.6486	0.1277	0.1945	0.293
Mof_C 	C 	0.6981	0.1294	0.4214	-0.064
Mof_C 	C 	0.5251	0.3699	0.418	0.305
Mof_O 	O 	0.6932	0.0403	0.1755	-0.305
Mof_C 	C 	0.5925	0.2515	0.309	0.013
Mof_H 	H 	0.5596	0.2947	0.2715	0.07
Mof_C 	C 	0.5879	0.2776	0.3918	-0.072
Mof_C 	C 	0.6467	0.1606	0.2843	-0.047
Mof_Mn	Mn	0.88991	0.97072	0.56353	0.937
Mof_O 	O 	0.7033	0.0236	0.9601	-0.318
Mof_O 	O 	0.7123	0.8784	0.042	-0.28
Mof_O 	O 	0.8964	0.8137	0.6452	-0.295
Mof_O 	O 	0.0082	0.5623	0.8645	-0.319
Mof_C 	C 	0.8578	0.7816	0.9473	0.017
Mof_H 	H 	0.859	0.7616	0.0015	0.054
Mof_O 	O 	0.9955	0.6193	0.9933	-0.361
Mof_C 	C 	0.737	0.9284	0.9791	0.287
Mof_C 	C 	0.8015	0.9019	0.8405	0.004
Mof_H 	H 	0.7668	0.9643	0.8239	0.07
Mof_C 	C 	0.8514	0.8723	0.6945	0.292
Mof_C 	C 	0.8019	0.8706	0.9214	-0.056
Mof_C 	C 	0.9749	0.6301	0.918	0.304
Mof_O 	O 	0.8068	0.9597	0.6755	-0.305
Mof_C 	C 	0.9075	0.7485	0.809	0.009
Mof_H 	H 	0.9404	0.7053	0.7715	0.071
Mof_C 	C 	0.9121	0.7224	0.8918	-0.067
Mof_C 	C 	0.8533	0.8394	0.7843	-0.044
_end
