data_functionalizedCrystal
_audit_creation_method	'EQeq! by Chris Wilmer'
_symmetry_space_group_name_H-M	'P1'
_symmetry_Int_Tables_number	1
_symmetry_cell_setting	triclinic
loop_
_symmetry_equiv_pos_as_xyz
  x,y,z
_cell_length_a	22.3326
_cell_length_b	22.3326
_cell_length_c	22.3326
_cell_angle_alpha	109.471
_cell_angle_beta	109.471
_cell_angle_gamma	109.471
loop_
_atom_site_label
_atom_site_type_symbol
_atom_site_fract_x
_atom_site_fract_y
_atom_site_fract_z
_atom_site_charge
Mof_Cu	Cu	0.90763	0.51319	-0	0.913
Mof_Cu	Cu	0.51319	0.90763	-0	0.913
Mof_Cu	Cu	0.48681	0.48681	0.39444	0.912
Mof_Cu	Cu	0.09237	0.09237	0.60556	0.911
Mof_Cu	Cu	0.39444	0.48681	0.48681	0.912
Mof_Cu	Cu	0.60556	0.09237	0.09237	0.91
Mof_Cu	Cu	7.9554e-17	0.90763	0.51319	0.912
Mof_Cu	Cu	-2.6518e-17	0.51319	0.90763	0.912
Mof_Cu	Cu	0.90763	0	0.51319	0.912
Mof_Cu	Cu	0.51319	-5.3036e-17	0.90763	0.912
Mof_Cu	Cu	0.09237	0.60556	0.09237	0.91
Mof_Cu	Cu	0.48681	0.39444	0.48681	0.911
Mof_Cu	Cu	0.55157	0	0.55157	0.896
Mof_Cu	Cu	0.44843	-2.6518e-17	0.44843	0.895
Mof_Cu	Cu	0.55157	0.55157	-0	0.896
Mof_Cu	Cu	0.44843	0.44843	-0	0.895
Mof_Cu	Cu	1.3259e-17	0.44843	0.44843	0.895
Mof_Cu	Cu	5.3036e-17	0.55157	0.55157	0.896
Mof_H 	H 	0.7448	0.4067	0.8547	0.015
Mof_H 	H 	0.552	0.8901	0.1453	0.007
Mof_H 	H 	0.448	0.5933	0.3381	0.01
Mof_H 	H 	0.2552	0.1099	0.6619	0.01
Mof_H 	H 	0.3381	0.448	0.5933	0.01
Mof_H 	H 	0.6619	0.2552	0.1099	0.01
Mof_H 	H 	0.8547	0.7448	0.4067	0.015
Mof_H 	H 	0.1453	0.552	0.8901	0.007
Mof_H 	H 	0.8901	0.1453	0.552	0.007
Mof_H 	H 	0.4067	0.8547	0.7448	0.015
Mof_H 	H 	0.1099	0.6619	0.2552	0.01
Mof_H 	H 	0.5933	0.3381	0.448	0.01
Mof_H 	H 	0.8901	0.552	0.1453	0.007
Mof_H 	H 	0.4067	0.7448	0.8547	0.015
Mof_H 	H 	0.1099	0.2552	0.6619	0.01
Mof_H 	H 	0.5933	0.448	0.3381	0.01
Mof_H 	H 	0.7448	0.8547	0.4067	0.015
Mof_H 	H 	0.552	0.1453	0.8901	0.007
Mof_H 	H 	0.448	0.3381	0.5933	0.01
Mof_H 	H 	0.2552	0.6619	0.1099	0.01
Mof_H 	H 	0.3381	0.5933	0.448	0.01
Mof_H 	H 	0.6619	0.1099	0.2552	0.01
Mof_H 	H 	0.8547	0.4067	0.7448	0.015
Mof_H 	H 	0.1453	0.8901	0.552	0.007
Mof_H 	H 	0.5286	0.2284	0.5286	0.078
Mof_H 	H 	0.6938	0.2414	0.6938	0.09
Mof_H 	H 	0.7008	0.4278	0.7008	0.095
Mof_H 	H 	0.6998	0	0.4714	0.077
Mof_H 	H 	0.5476	0	0.3062	0.084
Mof_H 	H 	0.727	0	0.2992	0.089
Mof_H 	H 	0.3002	0.7716	0.3002	0.08
Mof_H 	H 	0.4524	0.7586	0.4524	0.09
Mof_H 	H 	0.273	0.5722	0.273	0.09
Mof_H 	H 	0.4714	-5.3036e-17	0.6998	0.077
Mof_H 	H 	0.3062	0	0.5476	0.084
Mof_H 	H 	0.2992	5.3036e-17	0.727	0.089
Mof_H 	H 	0.3002	0.3002	0.7716	0.08
Mof_H 	H 	0.4524	0.4524	0.7586	0.09
Mof_H 	H 	0.273	0.273	0.5722	0.09
Mof_H 	H 	0.6998	0.4714	-0	0.077
Mof_H 	H 	0.5476	0.3062	-0	0.084
Mof_H 	H 	0.727	0.2992	-0	0.089
Mof_H 	H 	0.5286	0.5286	0.2284	0.078
Mof_H 	H 	0.6938	0.6938	0.2414	0.09
Mof_H 	H 	0.7008	0.7008	0.4278	0.095
Mof_H 	H 	0.4714	0.6998	-0	0.077
Mof_H 	H 	0.3062	0.5476	-0	0.084
Mof_H 	H 	0.2992	0.727	-0	0.089
Mof_H 	H 	-2.6518e-17	0.4714	0.6998	0.077
Mof_H 	H 	1.3259e-17	0.3062	0.5476	0.084
Mof_H 	H 	5.3036e-17	0.2992	0.727	0.089
Mof_H 	H 	0.2284	0.5286	0.5286	0.078
Mof_H 	H 	0.2414	0.6938	0.6938	0.09
Mof_H 	H 	0.4278	0.7008	0.7008	0.095
Mof_H 	H 	2.6518e-17	0.6998	0.4714	0.077
Mof_H 	H 	-1.3259e-17	0.5476	0.3062	0.084
Mof_H 	H 	6.6295e-18	0.727	0.2992	0.089
Mof_H 	H 	0.7716	0.3002	0.3002	0.08
Mof_H 	H 	0.7586	0.4524	0.4524	0.09
Mof_H 	H 	0.5722	0.273	0.273	0.09
Mof_H 	H 	2.6518e-17	0.4836	-0	0.253
Mof_H 	H 	0.4836	0	-0	0.253
Mof_H 	H 	0.5164	0.5164	0.5164	0.26
Mof_H 	H 	3.9777e-17	0	0.4836	0.253
Mof_C 	C 	0.78321	0.41387	0.84354	0.113
Mof_C 	C 	0.57033	0.93967	0.15646	0.13
Mof_C 	C 	0.42967	0.58613	0.36934	0.11
Mof_C 	C 	0.21679	0.06033	0.63066	0.108
Mof_C 	C 	0.36934	0.42967	0.58613	0.11
Mof_C 	C 	0.63066	0.21679	0.06033	0.108
Mof_C 	C 	0.84354	0.78321	0.41387	0.113
Mof_C 	C 	0.15646	0.57033	0.93967	0.13
Mof_C 	C 	0.93967	0.15646	0.57033	0.13
Mof_C 	C 	0.41387	0.84354	0.78321	0.113
Mof_C 	C 	0.06033	0.63066	0.21679	0.108
Mof_C 	C 	0.58613	0.36934	0.42967	0.11
Mof_C 	C 	0.93967	0.57033	0.15646	0.13
Mof_C 	C 	0.41387	0.78321	0.84354	0.113
Mof_C 	C 	0.06033	0.21679	0.63066	0.108
Mof_C 	C 	0.58613	0.42967	0.36934	0.11
Mof_C 	C 	0.78321	0.84354	0.41387	0.113
Mof_C 	C 	0.57033	0.15646	0.93967	0.13
Mof_C 	C 	0.42967	0.36934	0.58613	0.11
Mof_C 	C 	0.21679	0.63066	0.06033	0.108
Mof_C 	C 	0.36934	0.58613	0.42967	0.11
Mof_C 	C 	0.63066	0.06033	0.21679	0.108
Mof_C 	C 	0.84354	0.41387	0.78321	0.113
Mof_C 	C 	0.15646	0.93967	0.57033	0.13
Mof_C 	C 	0.5768	0.371	0.5768	0.259
Mof_C 	C 	0.60966	0.33296	0.60966	-0.008
Mof_C 	C 	0.57372	0.25704	0.57372	-0.038
Mof_C 	C 	0.60695	0.2229	0.60695	-0.019
Mof_C 	C 	0.67186	0.26392	0.67186	-0.094
Mof_C 	C 	0.70427	0.33934	0.70427	0.114
Mof_C 	C 	0.67629	0.37578	0.67629	-0.103
Mof_C 	C 	0.56576	0.13912	0.56576	0.323
Mof_C 	C 	0.7942	0	0.4232	0.259
Mof_C 	C 	0.7233	0	0.39034	-0.012
Mof_C 	C 	0.68332	-2.6518e-17	0.42628	-0.038
Mof_C 	C 	0.61595	0	0.39305	-0.023
Mof_C 	C 	0.59206	0	0.32814	-0.093
Mof_C 	C 	0.63507	0	0.29573	0.108
Mof_C 	C 	0.69949	0	0.32371	-0.102
Mof_C 	C 	0.57336	0	0.43424	0.322
Mof_C 	C 	0.2058	0.629	0.2058	0.26
Mof_C 	C 	0.2767	0.66704	0.2767	-0.01
Mof_C 	C 	0.31668	0.74296	0.31668	-0.038
Mof_C 	C 	0.38405	0.7771	0.38405	-0.017
Mof_C 	C 	0.40794	0.73608	0.40794	-0.094
Mof_C 	C 	0.36493	0.66066	0.36493	0.112
Mof_C 	C 	0.30051	0.62422	0.30051	-0.102
Mof_C 	C 	0.42664	0.86088	0.42664	0.321
Mof_C 	C 	0.4232	-5.3036e-17	0.7942	0.259
Mof_C 	C 	0.39034	-5.3036e-17	0.7233	-0.012
Mof_C 	C 	0.42628	0	0.68332	-0.038
Mof_C 	C 	0.39305	0	0.61595	-0.023
Mof_C 	C 	0.32814	0	0.59206	-0.093
Mof_C 	C 	0.29573	5.3036e-17	0.63507	0.108
Mof_C 	C 	0.32371	0	0.69949	-0.102
Mof_C 	C 	0.43424	0	0.57336	0.322
Mof_C 	C 	0.2058	0.2058	0.629	0.26
Mof_C 	C 	0.2767	0.2767	0.66704	-0.01
Mof_C 	C 	0.31668	0.31668	0.74296	-0.038
Mof_C 	C 	0.38405	0.38405	0.7771	-0.017
Mof_C 	C 	0.40794	0.40794	0.73608	-0.094
Mof_C 	C 	0.36493	0.36493	0.66066	0.112
Mof_C 	C 	0.30051	0.30051	0.62422	-0.102
Mof_C 	C 	0.42664	0.42664	0.86088	0.321
Mof_C 	C 	0.7942	0.4232	-0	0.259
Mof_C 	C 	0.7233	0.39034	-0	-0.012
Mof_C 	C 	0.68332	0.42628	-0	-0.038
Mof_C 	C 	0.61595	0.39305	-0	-0.023
Mof_C 	C 	0.59206	0.32814	-0	-0.093
Mof_C 	C 	0.63507	0.29573	-0	0.108
Mof_C 	C 	0.69949	0.32371	-0	-0.102
Mof_C 	C 	0.57336	0.43424	-0	0.322
Mof_C 	C 	0.5768	0.5768	0.371	0.259
Mof_C 	C 	0.60966	0.60966	0.33296	-0.008
Mof_C 	C 	0.57372	0.57372	0.25704	-0.038
Mof_C 	C 	0.60695	0.60695	0.2229	-0.019
Mof_C 	C 	0.67186	0.67186	0.26392	-0.094
Mof_C 	C 	0.70427	0.70427	0.33934	0.114
Mof_C 	C 	0.67629	0.67629	0.37578	-0.103
Mof_C 	C 	0.56576	0.56576	0.13912	0.323
Mof_C 	C 	0.4232	0.7942	-0	0.259
Mof_C 	C 	0.39034	0.7233	-0	-0.012
Mof_C 	C 	0.42628	0.68332	-0	-0.038
Mof_C 	C 	0.39305	0.61595	-0	-0.023
Mof_C 	C 	0.32814	0.59206	-0	-0.093
Mof_C 	C 	0.29573	0.63507	-0	0.108
Mof_C 	C 	0.32371	0.69949	-0	-0.102
Mof_C 	C 	0.43424	0.57336	-0	0.322
Mof_C 	C 	-0	0.4232	0.7942	0.259
Mof_C 	C 	2.6518e-17	0.39034	0.7233	-0.012
Mof_C 	C 	-0	0.42628	0.68332	-0.038
Mof_C 	C 	-1.3259e-17	0.39305	0.61595	-0.023
Mof_C 	C 	6.6295e-17	0.32814	0.59206	-0.093
Mof_C 	C 	6.6295e-17	0.29573	0.63507	0.108
Mof_C 	C 	1.3259e-17	0.32371	0.69949	-0.102
Mof_C 	C 	-0	0.43424	0.57336	0.322
Mof_C 	C 	0.371	0.5768	0.5768	0.259
Mof_C 	C 	0.33296	0.60966	0.60966	-0.008
Mof_C 	C 	0.25704	0.57372	0.57372	-0.038
Mof_C 	C 	0.2229	0.60695	0.60695	-0.019
Mof_C 	C 	0.26392	0.67186	0.67186	-0.094
Mof_C 	C 	0.33934	0.70427	0.70427	0.114
Mof_C 	C 	0.37578	0.67629	0.67629	-0.103
Mof_C 	C 	0.13912	0.56576	0.56576	0.323
Mof_C 	C 	-2.6518e-17	0.7942	0.4232	0.259
Mof_C 	C 	-1.3259e-17	0.7233	0.39034	-0.012
Mof_C 	C 	1.3259e-17	0.68332	0.42628	-0.038
Mof_C 	C 	-0	0.61595	0.39305	-0.023
Mof_C 	C 	6.6295e-17	0.59206	0.32814	-0.093
Mof_C 	C 	3.31475e-17	0.63507	0.29573	0.108
Mof_C 	C 	-6.6295e-18	0.69949	0.32371	-0.102
Mof_C 	C 	-1.3259e-17	0.57336	0.43424	0.322
Mof_C 	C 	0.629	0.2058	0.2058	0.26
Mof_C 	C 	0.66704	0.2767	0.2767	-0.01
Mof_C 	C 	0.74296	0.31668	0.31668	-0.038
Mof_C 	C 	0.7771	0.38405	0.38405	-0.017
Mof_C 	C 	0.73608	0.40794	0.40794	-0.094
Mof_C 	C 	0.66066	0.36493	0.36493	0.112
Mof_C 	C 	0.62422	0.30051	0.30051	-0.102
Mof_C 	C 	0.86088	0.42664	0.42664	0.321
Mof_Se	Se	-0	0.6688	-0	0.573
Mof_Se	Se	0.6688	0	-0	0.573
Mof_Se	Se	0.3312	0.3312	0.3312	0.61
Mof_Se	Se	-2.6518e-17	-5.3036e-17	0.6688	0.573
Mof_N 	N 	0.8538	0.45235	0.89091	-0.178
Mof_N 	N 	0.56144	0.96289	0.10909	-0.181
Mof_N 	N 	0.43856	0.54765	0.40145	-0.186
Mof_N 	N 	0.1462	0.03711	0.59855	-0.193
Mof_N 	N 	0.40145	0.43856	0.54765	-0.186
Mof_N 	N 	0.59855	0.1462	0.03711	-0.193
Mof_N 	N 	0.89091	0.8538	0.45235	-0.178
Mof_N 	N 	0.10909	0.56144	0.96289	-0.181
Mof_N 	N 	0.96289	0.10909	0.56144	-0.181
Mof_N 	N 	0.45235	0.89091	0.8538	-0.178
Mof_N 	N 	0.03711	0.59855	0.1462	-0.193
Mof_N 	N 	0.54765	0.40145	0.43856	-0.186
Mof_N 	N 	0.96289	0.56144	0.10909	-0.181
Mof_N 	N 	0.45235	0.8538	0.89091	-0.178
Mof_N 	N 	0.03711	0.1462	0.59855	-0.193
Mof_N 	N 	0.54765	0.43856	0.40145	-0.186
Mof_N 	N 	0.8538	0.89091	0.45235	-0.178
Mof_N 	N 	0.56144	0.10909	0.96289	-0.181
Mof_N 	N 	0.43856	0.40145	0.54765	-0.186
Mof_N 	N 	0.1462	0.59855	0.03711	-0.193
Mof_N 	N 	0.40145	0.54765	0.43856	-0.186
Mof_N 	N 	0.59855	0.03711	0.1462	-0.193
Mof_N 	N 	0.89091	0.45235	0.8538	-0.178
Mof_N 	N 	0.10909	0.96289	0.56144	-0.181
Mof_N 	N 	0.77532	0.38614	0.77532	-0.147
Mof_N 	N 	0.61082	-1.3259e-17	0.22468	-0.157
Mof_N 	N 	0.38918	0.61386	0.38918	-0.148
Mof_N 	N 	0.22468	0	0.61082	-0.157
Mof_N 	N 	0.38918	0.38918	0.61386	-0.148
Mof_N 	N 	0.61082	0.22468	-0	-0.157
Mof_N 	N 	0.77532	0.77532	0.38614	-0.147
Mof_N 	N 	0.22468	0.61082	-0	-0.157
Mof_N 	N 	-1.3259e-17	0.22468	0.61082	-0.157
Mof_N 	N 	0.38614	0.77532	0.77532	-0.147
Mof_N 	N 	-3.31475e-17	0.61082	0.22468	-0.157
Mof_N 	N 	0.61386	0.38918	0.38918	-0.148
Mof_O 	O 	0.51555	0.33038	0.51555	-0.356
Mof_O 	O 	0.60833	0.44106	0.60833	-0.271
Mof_O 	O 	0.59603	0.10918	0.59603	-0.379
Mof_O 	O 	0.5073	0.10726	0.5073	-0.398
Mof_O 	O 	0.81483	-5.3036e-17	0.48445	-0.358
Mof_O 	O 	0.83273	-2.6518e-17	0.39167	-0.276
Mof_O 	O 	0.51315	0	0.40397	-0.385
Mof_O 	O 	0.59996	0	0.4927	-0.4
Mof_O 	O 	0.18517	0.66962	0.18517	-0.355
Mof_O 	O 	0.16727	0.55894	0.16727	-0.279
Mof_O 	O 	0.48685	0.89082	0.48685	-0.368
Mof_O 	O 	0.40004	0.89274	0.40004	-0.386
Mof_O 	O 	0.48445	0	0.81483	-0.358
Mof_O 	O 	0.39167	5.3036e-17	0.83273	-0.276
Mof_O 	O 	0.40397	0	0.51315	-0.385
Mof_O 	O 	0.4927	0	0.59996	-0.4
Mof_O 	O 	0.18517	0.18517	0.66962	-0.355
Mof_O 	O 	0.16727	0.16727	0.55894	-0.279
Mof_O 	O 	0.48685	0.48685	0.89082	-0.368
Mof_O 	O 	0.40004	0.40004	0.89274	-0.386
Mof_O 	O 	0.81483	0.48445	-0	-0.358
Mof_O 	O 	0.83273	0.39167	-0	-0.276
Mof_O 	O 	0.51315	0.40397	-0	-0.385
Mof_O 	O 	0.59996	0.4927	-0	-0.4
Mof_O 	O 	0.51555	0.51555	0.33038	-0.356
Mof_O 	O 	0.60833	0.60833	0.44106	-0.271
Mof_O 	O 	0.59603	0.59603	0.10918	-0.379
Mof_O 	O 	0.5073	0.5073	0.10726	-0.398
Mof_O 	O 	0.48445	0.81483	-0	-0.358
Mof_O 	O 	0.39167	0.83273	-0	-0.276
Mof_O 	O 	0.40397	0.51315	-0	-0.385
Mof_O 	O 	0.4927	0.59996	-0	-0.4
Mof_O 	O 	2.6518e-17	0.48445	0.81483	-0.358
Mof_O 	O 	-2.6518e-17	0.39167	0.83273	-0.276
Mof_O 	O 	1.3259e-17	0.40397	0.51315	-0.385
Mof_O 	O 	-0	0.4927	0.59996	-0.4
Mof_O 	O 	0.33038	0.51555	0.51555	-0.356
Mof_O 	O 	0.44106	0.60833	0.60833	-0.271
Mof_O 	O 	0.10918	0.59603	0.59603	-0.379
Mof_O 	O 	0.10726	0.5073	0.5073	-0.398
Mof_O 	O 	-2.6518e-17	0.81483	0.48445	-0.358
Mof_O 	O 	1.3259e-17	0.83273	0.39167	-0.276
Mof_O 	O 	1.3259e-17	0.51315	0.40397	-0.385
Mof_O 	O 	3.9777e-17	0.59996	0.4927	-0.4
Mof_O 	O 	0.66962	0.18517	0.18517	-0.355
Mof_O 	O 	0.55894	0.16727	0.16727	-0.279
Mof_O 	O 	0.89082	0.48685	0.48685	-0.368
Mof_O 	O 	0.89274	0.40004	0.40004	-0.386
Mof_O 	O 	2.6518e-17	0.52074	-0	-0.738
Mof_O 	O 	-0	0.74238	-0	-0.211
Mof_O 	O 	0.52074	0	-0	-0.738
Mof_O 	O 	0.74238	0	-0	-0.211
Mof_O 	O 	0.47926	0.47926	0.47926	-0.725
Mof_O 	O 	0.25762	0.25762	0.25762	-0.216
Mof_O 	O 	-1.3259e-17	-5.3036e-17	0.52074	-0.738
Mof_O 	O 	-0	-5.3036e-17	0.74238	-0.211
Mof_O 	O 	0.92724	0.61984	-0	-0.321
Mof_O 	O 	0.61984	0.92724	-0	-0.321
Mof_O 	O 	0.38016	0.38016	0.3074	-0.338
Mof_O 	O 	0.07276	0.07276	0.6926	-0.333
Mof_O 	O 	0.3074	0.38016	0.38016	-0.338
Mof_O 	O 	0.6926	0.07276	0.07276	-0.333
Mof_O 	O 	-3.9777e-17	0.92724	0.61984	-0.321
Mof_O 	O 	-0	0.61984	0.92724	-0.321
Mof_O 	O 	0.92724	0	0.61984	-0.321
Mof_O 	O 	0.61984	-5.3036e-17	0.92724	-0.321
Mof_O 	O 	0.07276	0.6926	0.07276	-0.333
Mof_O 	O 	0.38016	0.3074	0.38016	-0.338
_end
