data_functionalizedCrystal
_audit_creation_method	'EQeq! by Chris Wilmer'
_symmetry_space_group_name_H-M	'P1'
_symmetry_Int_Tables_number	1
_symmetry_cell_setting	triclinic
loop_
_symmetry_equiv_pos_as_xyz
  x,y,z
_cell_length_a	20.4421
_cell_length_b	20.4421
_cell_length_c	20.4421
_cell_angle_alpha	90
_cell_angle_beta	90
_cell_angle_gamma	90
loop_
_atom_site_label
_atom_site_type_symbol
_atom_site_fract_x
_atom_site_fract_y
_atom_site_fract_z
_atom_site_charge
Mof_Zn	Zn	1.60339e-33	2.95511e-33	0.42764	1.125
Mof_Zn	Zn	-3.76422e-33	-5.91022e-33	0.57236	1.128
Mof_Zn	Zn	0.42764	0	-0	1.126
Mof_Zn	Zn	0.57236	0	-0	1.129
Mof_Zn	Zn	2.95511e-33	0.42764	-0	1.126
Mof_Zn	Zn	-5.91022e-33	0.57236	-0	1.129
Mof_Zn	Zn	0.33703	0.33703	0.33703	1.188
Mof_Zn	Zn	0.23769	0.23769	0.23769	1.178
Mof_Zn	Zn	0.66297	0.66297	0.33703	1.19
Mof_Zn	Zn	0.76231	0.76231	0.23769	1.195
Mof_Zn	Zn	0.66297	0.33703	0.66297	1.19
Mof_Zn	Zn	0.76231	0.23769	0.76231	1.195
Mof_Zn	Zn	0.33703	0.66297	0.66297	1.19
Mof_Zn	Zn	0.23769	0.76231	0.76231	1.195
Mof_Zn	Zn	0.33703	0.33703	0.66297	1.189
Mof_Zn	Zn	0.23769	0.23769	0.76231	1.187
Mof_Zn	Zn	0.66297	0.66297	0.66297	1.191
Mof_Zn	Zn	0.76231	0.76231	0.76231	1.203
Mof_Zn	Zn	0.33703	0.66297	0.33703	1.189
Mof_Zn	Zn	0.23769	0.76231	0.23769	1.187
Mof_Zn	Zn	0.66297	0.33703	0.33703	1.189
Mof_Zn	Zn	0.76231	0.23769	0.23769	1.187
Mof_O 	O 	0.2819	0.2819	0.387	-0.603
Mof_O 	O 	0.217	0.217	0.3279	-0.599
Mof_O 	O 	0.06881	0.06881	0.4445	-0.565
Mof_C 	C 	0.2116	0.2116	0.4414	-0.318
Mof_C 	C 	0.239	0.239	0.3798	0.523
Mof_C 	C 	0.1643	0.1643	0.4416	0.202
Mof_H 	H 	0.1483	0.1483	0.4022	-0.051
Mof_O 	O 	0.7181	0.7181	0.387	-0.586
Mof_O 	O 	0.783	0.783	0.3279	-0.553
Mof_O 	O 	0.93119	0.93119	0.4445	-0.413
Mof_C 	C 	0.7884	0.7884	0.4414	-0.258
Mof_C 	C 	0.761	0.761	0.3798	0.511
Mof_C 	C 	0.8357	0.8357	0.4416	0.166
Mof_H 	H 	0.8517	0.8517	0.4022	0.003
Mof_O 	O 	0.7181	0.2819	0.613	-0.593
Mof_O 	O 	0.783	0.217	0.6721	-0.567
Mof_O 	O 	0.93119	0.06881	0.5555	-0.482
Mof_C 	C 	0.7884	0.2116	0.5586	-0.285
Mof_C 	C 	0.761	0.239	0.6202	0.515
Mof_C 	C 	0.8357	0.1643	0.5584	0.182
Mof_H 	H 	0.8517	0.1483	0.5978	-0.018
Mof_O 	O 	0.2819	0.7181	0.613	-0.593
Mof_O 	O 	0.217	0.783	0.6721	-0.567
Mof_O 	O 	0.06881	0.93119	0.5555	-0.482
Mof_C 	C 	0.2116	0.7884	0.5586	-0.285
Mof_C 	C 	0.239	0.761	0.6202	0.515
Mof_C 	C 	0.1643	0.8357	0.5584	0.182
Mof_H 	H 	0.1483	0.8517	0.5978	-0.018
Mof_O 	O 	0.387	0.2819	0.2819	-0.603
Mof_O 	O 	0.3279	0.217	0.217	-0.599
Mof_O 	O 	0.4445	0.06881	0.06881	-0.565
Mof_C 	C 	0.4414	0.2116	0.2116	-0.318
Mof_C 	C 	0.3798	0.239	0.239	0.523
Mof_C 	C 	0.4416	0.1643	0.1643	0.202
Mof_H 	H 	0.4022	0.1483	0.1483	-0.051
Mof_O 	O 	0.387	0.7181	0.7181	-0.586
Mof_O 	O 	0.3279	0.783	0.783	-0.553
Mof_O 	O 	0.4445	0.93119	0.93119	-0.413
Mof_C 	C 	0.4414	0.7884	0.7884	-0.258
Mof_C 	C 	0.3798	0.761	0.761	0.511
Mof_C 	C 	0.4416	0.8357	0.8357	0.166
Mof_H 	H 	0.4022	0.8517	0.8517	0.003
Mof_O 	O 	0.613	0.7181	0.2819	-0.593
Mof_O 	O 	0.6721	0.783	0.217	-0.567
Mof_O 	O 	0.5555	0.93119	0.06881	-0.482
Mof_C 	C 	0.5586	0.7884	0.2116	-0.285
Mof_C 	C 	0.6202	0.761	0.239	0.515
Mof_C 	C 	0.5584	0.8357	0.1643	0.182
Mof_H 	H 	0.5978	0.8517	0.1483	-0.018
Mof_O 	O 	0.613	0.2819	0.7181	-0.593
Mof_O 	O 	0.6721	0.217	0.783	-0.567
Mof_O 	O 	0.5555	0.06881	0.93119	-0.482
Mof_C 	C 	0.5586	0.2116	0.7884	-0.285
Mof_C 	C 	0.6202	0.239	0.761	0.515
Mof_C 	C 	0.5584	0.1643	0.8357	0.182
Mof_H 	H 	0.5978	0.1483	0.8517	-0.018
Mof_O 	O 	0.2819	0.387	0.2819	-0.603
Mof_O 	O 	0.217	0.3279	0.217	-0.599
Mof_O 	O 	0.06881	0.4445	0.06881	-0.565
Mof_C 	C 	0.2116	0.4414	0.2116	-0.318
Mof_C 	C 	0.239	0.3798	0.239	0.523
Mof_C 	C 	0.1643	0.4416	0.1643	0.202
Mof_H 	H 	0.1483	0.4022	0.1483	-0.051
Mof_O 	O 	0.7181	0.387	0.7181	-0.586
Mof_O 	O 	0.783	0.3279	0.783	-0.553
Mof_O 	O 	0.93119	0.4445	0.93119	-0.413
Mof_C 	C 	0.7884	0.4414	0.7884	-0.258
Mof_C 	C 	0.761	0.3798	0.761	0.511
Mof_C 	C 	0.8357	0.4416	0.8357	0.166
Mof_H 	H 	0.8517	0.4022	0.8517	0.003
Mof_O 	O 	0.2819	0.613	0.7181	-0.593
Mof_O 	O 	0.217	0.6721	0.783	-0.567
Mof_O 	O 	0.06881	0.5555	0.93119	-0.482
Mof_C 	C 	0.2116	0.5586	0.7884	-0.285
Mof_C 	C 	0.239	0.6202	0.761	0.515
Mof_C 	C 	0.1643	0.5584	0.8357	0.182
Mof_H 	H 	0.1483	0.5978	0.8517	-0.018
Mof_O 	O 	0.7181	0.613	0.2819	-0.593
Mof_O 	O 	0.783	0.6721	0.217	-0.567
Mof_O 	O 	0.93119	0.5555	0.06881	-0.482
Mof_C 	C 	0.7884	0.5586	0.2116	-0.285
Mof_C 	C 	0.761	0.6202	0.239	0.515
Mof_C 	C 	0.8357	0.5584	0.1643	0.182
Mof_H 	H 	0.8517	0.5978	0.1483	-0.018
Mof_O 	O 	0.2819	0.2819	0.613	-0.602
Mof_O 	O 	0.217	0.217	0.6721	-0.59
Mof_O 	O 	0.06881	0.06881	0.5555	-0.559
Mof_C 	C 	0.2116	0.2116	0.5586	-0.316
Mof_C 	C 	0.239	0.239	0.6202	0.521
Mof_C 	C 	0.1643	0.1643	0.5584	0.201
Mof_H 	H 	0.1483	0.1483	0.5978	-0.046
Mof_O 	O 	0.7181	0.7181	0.613	-0.584
Mof_O 	O 	0.783	0.783	0.6721	-0.546
Mof_O 	O 	0.93119	0.93119	0.5555	-0.408
Mof_C 	C 	0.7884	0.7884	0.5586	-0.256
Mof_C 	C 	0.761	0.761	0.6202	0.509
Mof_C 	C 	0.8357	0.8357	0.5584	0.164
Mof_H 	H 	0.8517	0.8517	0.5978	0.008
Mof_O 	O 	0.2819	0.7181	0.387	-0.594
Mof_O 	O 	0.217	0.783	0.3279	-0.576
Mof_O 	O 	0.06881	0.93119	0.4445	-0.487
Mof_C 	C 	0.2116	0.7884	0.4414	-0.288
Mof_C 	C 	0.239	0.761	0.3798	0.517
Mof_C 	C 	0.1643	0.8357	0.4416	0.183
Mof_H 	H 	0.1483	0.8517	0.4022	-0.023
Mof_O 	O 	0.7181	0.2819	0.387	-0.594
Mof_O 	O 	0.783	0.217	0.3279	-0.576
Mof_O 	O 	0.93119	0.06881	0.4445	-0.487
Mof_C 	C 	0.7884	0.2116	0.4414	-0.288
Mof_C 	C 	0.761	0.239	0.3798	0.517
Mof_C 	C 	0.8357	0.1643	0.4416	0.183
Mof_H 	H 	0.8517	0.1483	0.4022	-0.023
Mof_O 	O 	0.2819	0.387	0.7181	-0.594
Mof_O 	O 	0.217	0.3279	0.783	-0.576
Mof_O 	O 	0.06881	0.4445	0.93119	-0.487
Mof_C 	C 	0.2116	0.4414	0.7884	-0.288
Mof_C 	C 	0.239	0.3798	0.761	0.517
Mof_C 	C 	0.1643	0.4416	0.8357	0.183
Mof_H 	H 	0.1483	0.4022	0.8517	-0.023
Mof_O 	O 	0.7181	0.387	0.2819	-0.594
Mof_O 	O 	0.783	0.3279	0.217	-0.576
Mof_O 	O 	0.93119	0.4445	0.06881	-0.487
Mof_C 	C 	0.7884	0.4414	0.2116	-0.288
Mof_C 	C 	0.761	0.3798	0.239	0.517
Mof_C 	C 	0.8357	0.4416	0.1643	0.183
Mof_H 	H 	0.8517	0.4022	0.1483	-0.023
Mof_O 	O 	0.7181	0.613	0.7181	-0.584
Mof_O 	O 	0.783	0.6721	0.783	-0.546
Mof_O 	O 	0.93119	0.5555	0.93119	-0.408
Mof_C 	C 	0.7884	0.5586	0.7884	-0.256
Mof_C 	C 	0.761	0.6202	0.761	0.509
Mof_C 	C 	0.8357	0.5584	0.8357	0.164
Mof_H 	H 	0.8517	0.5978	0.8517	0.008
Mof_O 	O 	0.2819	0.613	0.2819	-0.602
Mof_O 	O 	0.217	0.6721	0.217	-0.59
Mof_O 	O 	0.06881	0.5555	0.06881	-0.559
Mof_C 	C 	0.2116	0.5586	0.2116	-0.316
Mof_C 	C 	0.239	0.6202	0.239	0.521
Mof_C 	C 	0.1643	0.5584	0.1643	0.201
Mof_H 	H 	0.1483	0.5978	0.1483	-0.046
Mof_O 	O 	0.387	0.2819	0.7181	-0.594
Mof_O 	O 	0.3279	0.217	0.783	-0.576
Mof_O 	O 	0.4445	0.06881	0.93119	-0.487
Mof_C 	C 	0.4414	0.2116	0.7884	-0.288
Mof_C 	C 	0.3798	0.239	0.761	0.517
Mof_C 	C 	0.4416	0.1643	0.8357	0.183
Mof_H 	H 	0.4022	0.1483	0.8517	-0.023
Mof_O 	O 	0.387	0.7181	0.2819	-0.594
Mof_O 	O 	0.3279	0.783	0.217	-0.576
Mof_O 	O 	0.4445	0.93119	0.06881	-0.487
Mof_C 	C 	0.4414	0.7884	0.2116	-0.288
Mof_C 	C 	0.3798	0.761	0.239	0.517
Mof_C 	C 	0.4416	0.8357	0.1643	0.183
Mof_H 	H 	0.4022	0.8517	0.1483	-0.023
Mof_O 	O 	0.613	0.2819	0.2819	-0.602
Mof_O 	O 	0.6721	0.217	0.217	-0.59
Mof_O 	O 	0.5555	0.06881	0.06881	-0.559
Mof_C 	C 	0.5586	0.2116	0.2116	-0.316
Mof_C 	C 	0.6202	0.239	0.239	0.521
Mof_C 	C 	0.5584	0.1643	0.1643	0.201
Mof_H 	H 	0.5978	0.1483	0.1483	-0.046
Mof_O 	O 	0.613	0.7181	0.7181	-0.584
Mof_O 	O 	0.6721	0.783	0.783	-0.546
Mof_O 	O 	0.5555	0.93119	0.93119	-0.408
Mof_C 	C 	0.5586	0.7884	0.7884	-0.256
Mof_C 	C 	0.6202	0.761	0.761	0.509
Mof_C 	C 	0.5584	0.8357	0.8357	0.164
Mof_H 	H 	0.5978	0.8517	0.8517	0.008
Mof_C 	C 	0.2339	0.2339	0.5	0.233
Mof_H 	H 	0.2661	0.2661	0.5	-0.059
Mof_C 	C 	0.1399	0.1399	0.5	-0.269
Mof_C 	C 	0.0874	0.0874	0.5	0.438
Mof_C 	C 	0.7661	0.7661	0.5	0.2
Mof_H 	H 	0.7339	0.7339	0.5	-0.038
Mof_C 	C 	0.8601	0.8601	0.5	-0.184
Mof_C 	C 	0.9126	0.9126	0.5	0.416
Mof_C 	C 	0.7661	0.2339	0.5	0.216
Mof_H 	H 	0.7339	0.2661	0.5	-0.048
Mof_C 	C 	0.8601	0.1399	0.5	-0.226
Mof_C 	C 	0.9126	0.0874	0.5	0.427
Mof_C 	C 	0.2339	0.7661	0.5	0.216
Mof_H 	H 	0.2661	0.7339	0.5	-0.048
Mof_C 	C 	0.1399	0.8601	0.5	-0.226
Mof_C 	C 	0.0874	0.9126	0.5	0.427
Mof_C 	C 	0.5	0.2339	0.2339	0.233
Mof_H 	H 	0.5	0.2661	0.2661	-0.059
Mof_C 	C 	0.5	0.1399	0.1399	-0.269
Mof_C 	C 	0.5	0.0874	0.0874	0.438
Mof_C 	C 	0.5	0.7661	0.7661	0.2
Mof_H 	H 	0.5	0.7339	0.7339	-0.038
Mof_C 	C 	0.5	0.8601	0.8601	-0.184
Mof_C 	C 	0.5	0.9126	0.9126	0.416
Mof_C 	C 	0.5	0.7661	0.2339	0.216
Mof_H 	H 	0.5	0.7339	0.2661	-0.048
Mof_C 	C 	0.5	0.8601	0.1399	-0.226
Mof_C 	C 	0.5	0.9126	0.0874	0.427
Mof_C 	C 	0.5	0.2339	0.7661	0.216
Mof_H 	H 	0.5	0.2661	0.7339	-0.048
Mof_C 	C 	0.5	0.1399	0.8601	-0.226
Mof_C 	C 	0.5	0.0874	0.9126	0.427
Mof_C 	C 	0.2339	0.5	0.2339	0.233
Mof_H 	H 	0.2661	0.5	0.2661	-0.059
Mof_C 	C 	0.1399	0.5	0.1399	-0.269
Mof_C 	C 	0.0874	0.5	0.0874	0.438
Mof_C 	C 	0.7661	0.5	0.7661	0.2
Mof_H 	H 	0.7339	0.5	0.7339	-0.038
Mof_C 	C 	0.8601	0.5	0.8601	-0.184
Mof_C 	C 	0.9126	0.5	0.9126	0.416
Mof_C 	C 	0.2339	0.5	0.7661	0.216
Mof_H 	H 	0.2661	0.5	0.7339	-0.048
Mof_C 	C 	0.1399	0.5	0.8601	-0.226
Mof_C 	C 	0.0874	0.5	0.9126	0.427
Mof_C 	C 	0.7661	0.5	0.2339	0.216
Mof_H 	H 	0.7339	0.5	0.2661	-0.048
Mof_C 	C 	0.8601	0.5	0.1399	-0.226
Mof_C 	C 	0.9126	0.5	0.0874	0.427
_end
