data_functionalizedCrystal
_audit_creation_method	'EQeq! by Chris Wilmer'
_symmetry_space_group_name_H-M	'P1'
_symmetry_Int_Tables_number	1
_symmetry_cell_setting	triclinic
loop_
_symmetry_equiv_pos_as_xyz
  x,y,z
_cell_length_a	29.162
_cell_length_b	21.924
_cell_length_c	14.955
_cell_angle_alpha	90
_cell_angle_beta	103.38
_cell_angle_gamma	90
loop_
_atom_site_label
_atom_site_type_symbol
_atom_site_fract_x
_atom_site_fract_y
_atom_site_fract_z
_atom_site_charge
Mof_Dy	Dy	0.2354	0.75204	0.32745	2.209
Mof_Dy	Dy	0.73402	0.26331	0.90554	2.131
Mof_O 	O 	0.8022	0.2667	0.8417	-0.647
Mof_O 	O 	0.842	0.2294	0.7504	-0.517
Mof_O 	O 	0.2018	0.8268	0.8841	-0.566
Mof_O 	O 	0.2342	0.8237	0.0314	-0.621
Mof_O 	O 	0.2104	0.804	0.4502	-0.637
Mof_O 	O 	0.2422	0.8661	0.558	-0.496
Mof_O 	O 	0.3011	0.7666	0.4492	-0.642
Mof_O 	O 	0.3389	0.7216	0.5768	-0.489
Mof_O 	O 	0.7239	0.3239	0.7132	-0.609
Mof_O 	O 	0.6782	0.3266	0.8141	-0.527
Mof_O 	O 	0.7152	0.3003	0.2736	-0.632
Mof_O 	O 	0.7558	0.3574	0.2002	-0.488
Mof_N 	N 	0.9839	0.1655	0.1354	-0.154
Mof_N 	N 	0.074	0.0287	0.0148	-0.163
Mof_N 	N 	0.0936	0.0507	0.3338	-0.159
Mof_N 	N 	0.0397	0.1089	0.2334	-0.151
Mof_N 	N 	0.0852	0.0354	0.1753	-0.175
Mof_N 	N 	0.0281	0.0943	0.0706	-0.164
Mof_N 	N 	0.4922	0.6726	0.3432	-0.154
Mof_N 	N 	0.5485	0.6148	0.3016	-0.146
Mof_N 	N 	0.6068	0.556	0.264	-0.156
Mof_N 	N 	0.59	0.5409	0.4101	-0.175
Mof_N 	N 	0.5313	0.5998	0.449	-0.174
Mof_N 	N 	0.5697	0.5291	0.5501	-0.178
Mof_C 	C 	0.8391	0.2432	0.83	0.483
Mof_C 	C 	0.8791	0.2248	0.9106	-0.237
Mof_C 	C 	0.9142	0.1843	0.8953	0.183
Mof_H 	H 	0.9129	0.1702	0.8362	-0.02
Mof_C 	C 	0.9489	0.1658	0.9643	-0.267
Mof_H 	H 	0.9723	0.1404	0.9522	0.143
Mof_C 	C 	0.951	0.184	0.054	0.222
Mof_C 	C 	0.9179	0.2258	0.0709	-0.239
Mof_H 	H 	0.9204	0.2412	0.1298	0.133
Mof_C 	C 	0.8806	0.2447	0.9979	0.168
Mof_H 	H 	0.8572	0.2705	0.0091	-0.028
Mof_C 	C 	0.0178	0.1205	0.1438	0.185
Mof_C 	C 	0.0698	0.063	0.244	0.188
Mof_C 	C 	0.062	0.0521	0.0936	0.194
Mof_C 	C 	0.1067	0.9846	0.0111	0.239
Mof_C 	C 	0.144	0.963	0.0814	-0.3
Mof_H 	H 	0.1485	0.9793	0.1401	0.152
Mof_C 	C 	0.1732	0.9195	0.0651	0.236
Mof_H 	H 	0.1957	0.9044	0.1146	-0.045
Mof_C 	C 	0.1718	0.8953	0.9774	-0.319
Mof_C 	C 	0.138	0.9175	0.9084	0.237
Mof_H 	H 	0.136	0.9025	0.8495	-0.033
Mof_C 	C 	0.1063	0.9612	0.9206	-0.274
Mof_H 	H 	0.0843	0.9759	0.8699	0.141
Mof_C 	C 	0.2056	0.8477	0.9671	0.574
Mof_C 	C 	0.1251	0.0054	0.3597	0.21
Mof_C 	C 	0.1576	0.0111	0.4456	-0.227
Mof_H 	H 	0.1586	0.0471	0.4788	0.125
Mof_C 	C 	0.1874	0.9649	0.4803	0.146
Mof_H 	H 	0.2111	0.9717	0.5328	0
Mof_C 	C 	0.1833	0.9063	0.4383	-0.215
Mof_C 	C 	0.1507	0.8986	0.3568	0.159
Mof_H 	H 	0.1488	0.8617	0.3254	-0.01
Mof_C 	C 	0.1205	0.9464	0.3214	-0.231
Mof_H 	H 	0.0962	0.9391	0.2701	0.123
Mof_C 	C 	0.2137	0.8557	0.485	0.487
Mof_C 	C 	0.3369	0.739	0.4985	0.443
Mof_C 	C 	0.3807	0.7265	0.4613	-0.199
Mof_C 	C 	0.4136	0.6888	0.5098	0.126
Mof_H 	H 	0.4114	0.6759	0.5678	0.004
Mof_C 	C 	0.4527	0.668	0.4723	-0.214
Mof_H 	H 	0.4745	0.6399	0.5034	0.128
Mof_C 	C 	0.4559	0.692	0.3882	0.205
Mof_C 	C 	0.4217	0.7297	0.3409	-0.232
Mof_H 	H 	0.4238	0.7426	0.2827	0.129
Mof_C 	C 	0.3841	0.7498	0.3748	0.143
Mof_H 	H 	0.3622	0.7774	0.3424	-0.023
Mof_C 	C 	0.5233	0.6269	0.3672	0.19
Mof_C 	C 	0.5625	0.5567	0.4676	0.21
Mof_C 	C 	0.5809	0.57	0.3302	0.183
Mof_C 	C 	0.6356	0.5067	0.2669	0.216
Mof_C 	C 	0.6301	0.4501	0.3044	-0.236
Mof_H 	H 	0.6052	0.4452	0.3329	0.124
Mof_C 	C 	0.6588	0.4006	0.3024	0.145
Mof_H 	H 	0.6543	0.3643	0.3316	-0.003
Mof_C 	C 	0.6947	0.406	0.2555	-0.205
Mof_C 	C 	0.7001	0.4624	0.214	0.147
Mof_H 	H 	0.7232	0.4665	0.1809	-0.005
Mof_C 	C 	0.6722	0.5107	0.2211	-0.235
Mof_H 	H 	0.6776	0.5476	0.1947	0.127
Mof_C 	C 	0.6007	0.4868	0.5937	0.262
Mof_C 	C 	0.6393	0.4646	0.5646	-0.299
Mof_H 	H 	0.6465	0.4804	0.5118	0.15
Mof_C 	C 	0.667	0.4196	0.6131	0.221
Mof_H 	H 	0.6919	0.4042	0.5909	-0.043
Mof_C 	C 	0.6589	0.3968	0.6937	-0.276
Mof_C 	C 	0.6215	0.4192	0.7224	0.23
Mof_H 	H 	0.6154	0.4041	0.7765	-0.027
Mof_C 	C 	0.5929	0.4624	0.676	-0.294
Mof_H 	H 	0.5676	0.4763	0.6986	0.148
Mof_C 	C 	0.6872	0.3435	0.7417	0.514
Mof_C 	C 	0.722	0.3512	0.2411	0.439
Mof_Dy	Dy	0.7646	0.25204	0.17255	2.21
Mof_Dy	Dy	0.26598	0.76331	0.59446	2.132
Mof_O 	O 	0.1978	0.7667	0.6583	-0.646
Mof_O 	O 	0.158	0.7294	0.7496	-0.516
Mof_O 	O 	0.7982	0.3268	0.6159	-0.566
Mof_O 	O 	0.7658	0.3237	0.4686	-0.621
Mof_O 	O 	0.7896	0.304	0.0498	-0.637
Mof_O 	O 	0.7578	0.3661	0.942	-0.496
Mof_O 	O 	0.6989	0.2666	0.0508	-0.641
Mof_O 	O 	0.6611	0.2216	0.9232	-0.489
Mof_O 	O 	0.2761	0.8239	0.7868	-0.609
Mof_O 	O 	0.3218	0.8266	0.6859	-0.527
Mof_O 	O 	0.2848	0.8003	0.2264	-0.632
Mof_O 	O 	0.2442	0.8574	0.2998	-0.488
Mof_N 	N 	0.0161	0.6655	0.3646	-0.154
Mof_N 	N 	0.926	0.5287	0.4852	-0.163
Mof_N 	N 	0.9064	0.5507	0.1662	-0.159
Mof_N 	N 	0.9603	0.6089	0.2666	-0.151
Mof_N 	N 	0.9148	0.5354	0.3247	-0.175
Mof_N 	N 	0.9719	0.5943	0.4294	-0.164
Mof_N 	N 	0.5078	0.1726	0.1568	-0.154
Mof_N 	N 	0.4515	0.1148	0.1984	-0.146
Mof_N 	N 	0.3932	0.056	0.236	-0.156
Mof_N 	N 	0.41	0.0409	0.0899	-0.175
Mof_N 	N 	0.4687	0.0998	0.051	-0.174
Mof_N 	N 	0.4303	0.0291	0.9499	-0.178
Mof_C 	C 	0.1609	0.7432	0.67	0.483
Mof_C 	C 	0.1209	0.7248	0.5894	-0.237
Mof_C 	C 	0.0858	0.6843	0.6047	0.183
Mof_H 	H 	0.0871	0.6702	0.6638	-0.02
Mof_C 	C 	0.0511	0.6658	0.5357	-0.267
Mof_H 	H 	0.0277	0.6404	0.5478	0.143
Mof_C 	C 	0.049	0.684	0.446	0.222
Mof_C 	C 	0.0821	0.7258	0.4291	-0.24
Mof_H 	H 	0.0796	0.7412	0.3702	0.133
Mof_C 	C 	0.1194	0.7447	0.5021	0.168
Mof_H 	H 	0.1428	0.7705	0.4909	-0.028
Mof_C 	C 	0.9822	0.6205	0.3562	0.185
Mof_C 	C 	0.9302	0.563	0.256	0.187
Mof_C 	C 	0.938	0.5521	0.4064	0.194
Mof_C 	C 	0.8933	0.4846	0.4889	0.24
Mof_C 	C 	0.856	0.463	0.4186	-0.301
Mof_H 	H 	0.8515	0.4793	0.3599	0.152
Mof_C 	C 	0.8268	0.4195	0.4349	0.237
Mof_H 	H 	0.8043	0.4044	0.3854	-0.045
Mof_C 	C 	0.8282	0.3953	0.5226	-0.32
Mof_C 	C 	0.862	0.4175	0.5916	0.238
Mof_H 	H 	0.864	0.4025	0.6505	-0.034
Mof_C 	C 	0.8937	0.4612	0.5794	-0.275
Mof_H 	H 	0.9157	0.4759	0.6301	0.142
Mof_C 	C 	0.7944	0.3477	0.5329	0.574
Mof_C 	C 	0.8749	0.5054	0.1403	0.21
Mof_C 	C 	0.8424	0.5111	0.0544	-0.227
Mof_H 	H 	0.8414	0.5471	0.0212	0.125
Mof_C 	C 	0.8126	0.4649	0.0197	0.146
Mof_H 	H 	0.7889	0.4717	0.9672	0
Mof_C 	C 	0.8167	0.4063	0.0617	-0.215
Mof_C 	C 	0.8493	0.3986	0.1432	0.159
Mof_H 	H 	0.8512	0.3617	0.1746	-0.01
Mof_C 	C 	0.8795	0.4464	0.1786	-0.231
Mof_H 	H 	0.9038	0.4391	0.2299	0.123
Mof_C 	C 	0.7863	0.3557	0.015	0.487
Mof_C 	C 	0.6631	0.239	0.0015	0.443
Mof_C 	C 	0.6193	0.2265	0.0387	-0.198
Mof_C 	C 	0.5864	0.1888	0.9902	0.125
Mof_H 	H 	0.5886	0.1759	0.9322	0.005
Mof_C 	C 	0.5473	0.168	0.0277	-0.213
Mof_H 	H 	0.5255	0.1399	0.9966	0.128
Mof_C 	C 	0.5441	0.192	0.1118	0.205
Mof_C 	C 	0.5783	0.2297	0.1591	-0.231
Mof_H 	H 	0.5762	0.2426	0.2173	0.128
Mof_C 	C 	0.6159	0.2498	0.1252	0.142
Mof_H 	H 	0.6378	0.2774	0.1576	-0.022
Mof_C 	C 	0.4767	0.1269	0.1328	0.19
Mof_C 	C 	0.4375	0.0567	0.0324	0.21
Mof_C 	C 	0.4191	0.07	0.1698	0.183
Mof_C 	C 	0.3644	0.0067	0.2331	0.216
Mof_C 	C 	0.3699	0.9501	0.1956	-0.236
Mof_H 	H 	0.3948	0.9452	0.1671	0.124
Mof_C 	C 	0.3412	0.9006	0.1976	0.145
Mof_H 	H 	0.3457	0.8643	0.1684	-0.003
Mof_C 	C 	0.3053	0.906	0.2445	-0.205
Mof_C 	C 	0.2999	0.9624	0.286	0.147
Mof_H 	H 	0.2768	0.9665	0.3191	-0.004
Mof_C 	C 	0.3278	0.0107	0.2789	-0.234
Mof_H 	H 	0.3224	0.0476	0.3053	0.127
Mof_C 	C 	0.3993	0.9868	0.9063	0.262
Mof_C 	C 	0.3607	0.9646	0.9354	-0.299
Mof_H 	H 	0.3535	0.9804	0.9882	0.15
Mof_C 	C 	0.333	0.9196	0.8869	0.221
Mof_H 	H 	0.3081	0.9042	0.9091	-0.043
Mof_C 	C 	0.3411	0.8968	0.8063	-0.276
Mof_C 	C 	0.3785	0.9192	0.7776	0.23
Mof_H 	H 	0.3846	0.9041	0.7235	-0.027
Mof_C 	C 	0.4071	0.9624	0.824	-0.295
Mof_H 	H 	0.4324	0.9763	0.8014	0.148
Mof_C 	C 	0.3128	0.8435	0.7583	0.514
Mof_C 	C 	0.278	0.8512	0.2589	0.439
Mof_Dy	Dy	0.7646	0.24796	0.67255	2.21
Mof_Dy	Dy	0.26598	0.73669	0.09446	2.132
Mof_O 	O 	0.1978	0.7333	0.1583	-0.646
Mof_O 	O 	0.158	0.7706	0.2496	-0.516
Mof_O 	O 	0.7982	0.1732	0.1159	-0.566
Mof_O 	O 	0.7658	0.1763	0.9686	-0.621
Mof_O 	O 	0.7896	0.196	0.5498	-0.637
Mof_O 	O 	0.7578	0.1339	0.442	-0.496
Mof_O 	O 	0.6989	0.2334	0.5508	-0.642
Mof_O 	O 	0.6611	0.2784	0.4232	-0.489
Mof_O 	O 	0.2761	0.6761	0.2868	-0.609
Mof_O 	O 	0.3218	0.6734	0.1859	-0.527
Mof_O 	O 	0.2848	0.6997	0.7264	-0.632
Mof_O 	O 	0.2442	0.6426	0.7998	-0.488
Mof_N 	N 	0.0161	0.8345	0.8646	-0.154
Mof_N 	N 	0.926	0.9713	0.9852	-0.163
Mof_N 	N 	0.9064	0.9493	0.6662	-0.159
Mof_N 	N 	0.9603	0.8911	0.7666	-0.151
Mof_N 	N 	0.9148	0.9646	0.8247	-0.175
Mof_N 	N 	0.9719	0.9057	0.9294	-0.164
Mof_N 	N 	0.5078	0.3274	0.6568	-0.154
Mof_N 	N 	0.4515	0.3852	0.6984	-0.146
Mof_N 	N 	0.3932	0.444	0.736	-0.156
Mof_N 	N 	0.41	0.4591	0.5899	-0.175
Mof_N 	N 	0.4687	0.4002	0.551	-0.174
Mof_N 	N 	0.4303	0.4709	0.4499	-0.178
Mof_C 	C 	0.1609	0.7568	0.17	0.483
Mof_C 	C 	0.1209	0.7752	0.0894	-0.237
Mof_C 	C 	0.0858	0.8157	0.1047	0.183
Mof_H 	H 	0.0871	0.8298	0.1638	-0.02
Mof_C 	C 	0.0511	0.8342	0.0357	-0.267
Mof_H 	H 	0.0277	0.8596	0.0478	0.143
Mof_C 	C 	0.049	0.816	0.946	0.222
Mof_C 	C 	0.0821	0.7742	0.9291	-0.239
Mof_H 	H 	0.0796	0.7588	0.8702	0.133
Mof_C 	C 	0.1194	0.7553	0.0021	0.168
Mof_H 	H 	0.1428	0.7295	0.9909	-0.028
Mof_C 	C 	0.9822	0.8795	0.8562	0.185
Mof_C 	C 	0.9302	0.937	0.756	0.188
Mof_C 	C 	0.938	0.9479	0.9064	0.194
Mof_C 	C 	0.8933	0.0154	0.9889	0.239
Mof_C 	C 	0.856	0.037	0.9186	-0.3
Mof_H 	H 	0.8515	0.0207	0.8599	0.152
Mof_C 	C 	0.8268	0.0805	0.9349	0.236
Mof_H 	H 	0.8043	0.0956	0.8854	-0.045
Mof_C 	C 	0.8282	0.1047	0.0226	-0.319
Mof_C 	C 	0.862	0.0825	0.0916	0.237
Mof_H 	H 	0.864	0.0975	0.1505	-0.033
Mof_C 	C 	0.8937	0.0388	0.0794	-0.274
Mof_H 	H 	0.9157	0.0241	0.1301	0.141
Mof_C 	C 	0.7944	0.1523	0.0329	0.574
Mof_C 	C 	0.8749	0.9946	0.6403	0.21
Mof_C 	C 	0.8424	0.9889	0.5544	-0.227
Mof_H 	H 	0.8414	0.9529	0.5212	0.125
Mof_C 	C 	0.8126	0.0351	0.5197	0.146
Mof_H 	H 	0.7889	0.0283	0.4672	0
Mof_C 	C 	0.8167	0.0937	0.5617	-0.215
Mof_C 	C 	0.8493	0.1014	0.6432	0.159
Mof_H 	H 	0.8512	0.1383	0.6746	-0.01
Mof_C 	C 	0.8795	0.0536	0.6786	-0.231
Mof_H 	H 	0.9038	0.0609	0.7299	0.123
Mof_C 	C 	0.7863	0.1443	0.515	0.487
Mof_C 	C 	0.6631	0.261	0.5015	0.443
Mof_C 	C 	0.6193	0.2735	0.5387	-0.199
Mof_C 	C 	0.5864	0.3112	0.4902	0.126
Mof_H 	H 	0.5886	0.3241	0.4322	0.004
Mof_C 	C 	0.5473	0.332	0.5277	-0.214
Mof_H 	H 	0.5255	0.3601	0.4966	0.128
Mof_C 	C 	0.5441	0.308	0.6118	0.205
Mof_C 	C 	0.5783	0.2703	0.6591	-0.232
Mof_H 	H 	0.5762	0.2574	0.7173	0.129
Mof_C 	C 	0.6159	0.2502	0.6252	0.143
Mof_H 	H 	0.6378	0.2226	0.6576	-0.023
Mof_C 	C 	0.4767	0.3731	0.6328	0.19
Mof_C 	C 	0.4375	0.4433	0.5324	0.21
Mof_C 	C 	0.4191	0.43	0.6698	0.183
Mof_C 	C 	0.3644	0.4933	0.7331	0.216
Mof_C 	C 	0.3699	0.5499	0.6956	-0.236
Mof_H 	H 	0.3948	0.5548	0.6671	0.124
Mof_C 	C 	0.3412	0.5994	0.6976	0.145
Mof_H 	H 	0.3457	0.6357	0.6684	-0.003
Mof_C 	C 	0.3053	0.594	0.7445	-0.205
Mof_C 	C 	0.2999	0.5376	0.786	0.147
Mof_H 	H 	0.2768	0.5335	0.8191	-0.005
Mof_C 	C 	0.3278	0.4893	0.7789	-0.235
Mof_H 	H 	0.3224	0.4524	0.8053	0.127
Mof_C 	C 	0.3993	0.5132	0.4063	0.262
Mof_C 	C 	0.3607	0.5354	0.4354	-0.299
Mof_H 	H 	0.3535	0.5196	0.4882	0.15
Mof_C 	C 	0.333	0.5804	0.3869	0.221
Mof_H 	H 	0.3081	0.5958	0.4091	-0.043
Mof_C 	C 	0.3411	0.6032	0.3063	-0.276
Mof_C 	C 	0.3785	0.5808	0.2776	0.23
Mof_H 	H 	0.3846	0.5959	0.2235	-0.027
Mof_C 	C 	0.4071	0.5376	0.324	-0.294
Mof_H 	H 	0.4324	0.5237	0.3014	0.148
Mof_C 	C 	0.3128	0.6565	0.2583	0.514
Mof_C 	C 	0.278	0.6488	0.7589	0.439
Mof_Dy	Dy	0.2354	0.74796	0.82745	2.21
Mof_Dy	Dy	0.73402	0.23669	0.40554	2.132
Mof_O 	O 	0.8022	0.2333	0.3417	-0.646
Mof_O 	O 	0.842	0.2706	0.2504	-0.516
Mof_O 	O 	0.2018	0.6732	0.3841	-0.566
Mof_O 	O 	0.2342	0.6763	0.5314	-0.621
Mof_O 	O 	0.2104	0.696	0.9502	-0.637
Mof_O 	O 	0.2422	0.6339	0.058	-0.496
Mof_O 	O 	0.3011	0.7334	0.9492	-0.641
Mof_O 	O 	0.3389	0.7784	0.0768	-0.489
Mof_O 	O 	0.7239	0.1761	0.2132	-0.609
Mof_O 	O 	0.6782	0.1734	0.3141	-0.527
Mof_O 	O 	0.7152	0.1997	0.7736	-0.632
Mof_O 	O 	0.7558	0.1426	0.7002	-0.488
Mof_N 	N 	0.9839	0.3345	0.6354	-0.154
Mof_N 	N 	0.074	0.4713	0.5148	-0.163
Mof_N 	N 	0.0936	0.4493	0.8338	-0.159
Mof_N 	N 	0.0397	0.3911	0.7334	-0.151
Mof_N 	N 	0.0852	0.4646	0.6753	-0.175
Mof_N 	N 	0.0281	0.4057	0.5706	-0.164
Mof_N 	N 	0.4922	0.8274	0.8432	-0.154
Mof_N 	N 	0.5485	0.8852	0.8016	-0.146
Mof_N 	N 	0.6068	0.944	0.764	-0.156
Mof_N 	N 	0.59	0.9591	0.9101	-0.175
Mof_N 	N 	0.5313	0.9002	0.949	-0.174
Mof_N 	N 	0.5697	0.9709	0.0501	-0.178
Mof_C 	C 	0.8391	0.2568	0.33	0.483
Mof_C 	C 	0.8791	0.2752	0.4106	-0.237
Mof_C 	C 	0.9142	0.3157	0.3953	0.183
Mof_H 	H 	0.9129	0.3298	0.3362	-0.02
Mof_C 	C 	0.9489	0.3342	0.4643	-0.267
Mof_H 	H 	0.9723	0.3596	0.4522	0.143
Mof_C 	C 	0.951	0.316	0.554	0.222
Mof_C 	C 	0.9179	0.2742	0.5709	-0.24
Mof_H 	H 	0.9204	0.2588	0.6298	0.133
Mof_C 	C 	0.8806	0.2553	0.4979	0.168
Mof_H 	H 	0.8572	0.2295	0.5091	-0.028
Mof_C 	C 	0.0178	0.3795	0.6438	0.185
Mof_C 	C 	0.0698	0.437	0.744	0.187
Mof_C 	C 	0.062	0.4479	0.5936	0.194
Mof_C 	C 	0.1067	0.5154	0.5111	0.24
Mof_C 	C 	0.144	0.537	0.5814	-0.301
Mof_H 	H 	0.1485	0.5207	0.6401	0.152
Mof_C 	C 	0.1732	0.5805	0.5651	0.237
Mof_H 	H 	0.1957	0.5956	0.6146	-0.045
Mof_C 	C 	0.1718	0.6047	0.4774	-0.32
Mof_C 	C 	0.138	0.5825	0.4084	0.238
Mof_H 	H 	0.136	0.5975	0.3495	-0.034
Mof_C 	C 	0.1063	0.5388	0.4206	-0.275
Mof_H 	H 	0.0843	0.5241	0.3699	0.142
Mof_C 	C 	0.2056	0.6523	0.4671	0.574
Mof_C 	C 	0.1251	0.4946	0.8597	0.21
Mof_C 	C 	0.1576	0.4889	0.9456	-0.227
Mof_H 	H 	0.1586	0.4529	0.9788	0.125
Mof_C 	C 	0.1874	0.5351	0.9803	0.146
Mof_H 	H 	0.2111	0.5283	0.0328	0
Mof_C 	C 	0.1833	0.5937	0.9383	-0.215
Mof_C 	C 	0.1507	0.6014	0.8568	0.159
Mof_H 	H 	0.1488	0.6383	0.8254	-0.01
Mof_C 	C 	0.1205	0.5536	0.8214	-0.231
Mof_H 	H 	0.0962	0.5609	0.7701	0.123
Mof_C 	C 	0.2137	0.6443	0.985	0.487
Mof_C 	C 	0.3369	0.761	0.9985	0.443
Mof_C 	C 	0.3807	0.7735	0.9613	-0.198
Mof_C 	C 	0.4136	0.8112	0.0098	0.125
Mof_H 	H 	0.4114	0.8241	0.0678	0.005
Mof_C 	C 	0.4527	0.832	0.9723	-0.213
Mof_H 	H 	0.4745	0.8601	0.0034	0.128
Mof_C 	C 	0.4559	0.808	0.8882	0.205
Mof_C 	C 	0.4217	0.7703	0.8409	-0.231
Mof_H 	H 	0.4238	0.7574	0.7827	0.128
Mof_C 	C 	0.3841	0.7502	0.8748	0.142
Mof_H 	H 	0.3622	0.7226	0.8424	-0.022
Mof_C 	C 	0.5233	0.8731	0.8672	0.19
Mof_C 	C 	0.5625	0.9433	0.9676	0.21
Mof_C 	C 	0.5809	0.93	0.8302	0.183
Mof_C 	C 	0.6356	0.9933	0.7669	0.216
Mof_C 	C 	0.6301	0.0499	0.8044	-0.236
Mof_H 	H 	0.6052	0.0548	0.8329	0.124
Mof_C 	C 	0.6588	0.0994	0.8024	0.145
Mof_H 	H 	0.6543	0.1357	0.8316	-0.003
Mof_C 	C 	0.6947	0.094	0.7555	-0.205
Mof_C 	C 	0.7001	0.0376	0.714	0.147
Mof_H 	H 	0.7232	0.0335	0.6809	-0.004
Mof_C 	C 	0.6722	0.9893	0.7211	-0.234
Mof_H 	H 	0.6776	0.9524	0.6947	0.127
Mof_C 	C 	0.6007	0.0132	0.0937	0.262
Mof_C 	C 	0.6393	0.0354	0.0646	-0.299
Mof_H 	H 	0.6465	0.0196	0.0118	0.15
Mof_C 	C 	0.667	0.0804	0.1131	0.221
Mof_H 	H 	0.6919	0.0958	0.0909	-0.043
Mof_C 	C 	0.6589	0.1032	0.1937	-0.276
Mof_C 	C 	0.6215	0.0808	0.2224	0.23
Mof_H 	H 	0.6154	0.0959	0.2765	-0.027
Mof_C 	C 	0.5929	0.0376	0.176	-0.295
Mof_H 	H 	0.5676	0.0237	0.1986	0.148
Mof_C 	C 	0.6872	0.1565	0.2417	0.514
Mof_C 	C 	0.722	0.1488	0.7411	0.439
_end
