# CIF file generated by openbabel 3.1.0, see https://openbabel.org
data_I
_chemical_name_common 'image0'
_cell_length_a 21.8529
_cell_length_b 15.5019
_cell_length_c 16.8985
_cell_angle_alpha 90
_cell_angle_beta 90
_cell_angle_gamma 90
_space_group_name_H-M_alt 'P 1'
_space_group_name_Hall 'P 1'
loop_
    _symmetry_equiv_pos_as_xyz
    x,y,z
loop_
    _atom_site_label
    _atom_site_type_symbol
    _atom_site_fract_x
    _atom_site_fract_y
    _atom_site_fract_z
    _atom_site_occupancy
    Ag1      Ag       0.14122    0.29449    0.45340    1.000
    Ag2      Ag       0.14678    0.96680    0.24010    1.000
    N1       N        0.11480    0.23680    0.33050    1.000
    N2       N        0.11060    0.10970    0.25160    1.000
    N3       N        0.23130    0.37320    0.44530    1.000
    N4       N        0.31050    0.43230    0.36670    1.000
    N5       N        0.05420    0.31950    0.52430    1.000
    N6       N        0.05480    0.89530    0.27280    1.000
    C1       C        0.09360    0.28100    0.27070    1.000
    H1       H        0.08660    0.34110    0.27710    1.000
    C2       C        0.08080    0.24340    0.19810    1.000
    H2       H        0.06690    0.27650    0.15430    1.000
    C3       C        0.08940    0.15690    0.19280    1.000
    H3       H        0.07950    0.12890    0.14450    1.000
    C4       C        0.12250    0.15340    0.31840    1.000
    H4       H        0.13820    0.12080    0.36150    1.000
    C5       C        0.26680    0.38130    0.50850    1.000
    H5       H        0.25210    0.36170    0.55830    1.000
    C6       C        0.32430    0.41710    0.50430    1.000
    H6       H        0.34890    0.42530    0.55010    1.000
    C7       C        0.34420    0.44050    0.43010    1.000
    H7       H        0.38420    0.46370    0.42480    1.000
    C8       C        0.25370    0.40100    0.37740    1.000
    H8       H        0.22760    0.39870    0.33250    1.000
    C9       C        0.05420    0.35010    0.59740    1.000
    H9       H        0.09200    0.36140    0.62300    1.000
    C10      C        0.05360    0.81860    0.31000    1.000
    H10      H        0.09140    0.79200    0.32330    1.000
    Ag3      Ag       0.64122    0.79449    0.45340    1.000
    Ag4      Ag       0.64678    0.46680    0.24010    1.000
    N7       N        0.61480    0.73680    0.33050    1.000
    N8       N        0.61060    0.60970    0.25160    1.000
    N9       N        0.73130    0.87320    0.44530    1.000
    N10      N        0.81050    0.93230    0.36670    1.000
    N11      N        0.55420    0.81950    0.52430    1.000
    N12      N        0.55480    0.39530    0.27280    1.000
    C11      C        0.59360    0.78100    0.27070    1.000
    H11      H        0.58660    0.84110    0.27710    1.000
    C12      C        0.58080    0.74340    0.19810    1.000
    H12      H        0.56690    0.77650    0.15430    1.000
    C13      C        0.58940    0.65690    0.19280    1.000
    H13      H        0.57950    0.62890    0.14450    1.000
    C14      C        0.62250    0.65340    0.31840    1.000
    H14      H        0.63820    0.62080    0.36150    1.000
    C15      C        0.76680    0.88130    0.50850    1.000
    H15      H        0.75210    0.86170    0.55830    1.000
    C16      C        0.82430    0.91710    0.50430    1.000
    H16      H        0.84890    0.92530    0.55010    1.000
    C17      C        0.84420    0.94050    0.43010    1.000
    H17      H        0.88420    0.96370    0.42480    1.000
    C18      C        0.75370    0.90100    0.37740    1.000
    H18      H        0.72760    0.89870    0.33250    1.000
    C19      C        0.55420    0.85010    0.59740    1.000
    H19      H        0.59200    0.86140    0.62300    1.000
    C20      C        0.55360    0.31860    0.31000    1.000
    H20      H        0.59140    0.29200    0.32330    1.000
    N13      N        0.80410    0.82470    0.02020    1.000
    N14      N        0.80080    0.91370    0.13610    1.000
    C21      C        0.74440    0.84220    0.00660    1.000
    H21      H        0.72500    0.81830    0.96130    1.000
    C22      C        0.71110    0.89410    0.05710    1.000
    H22      H        0.66910    0.90610    0.04760    1.000
    C23      C        0.74110    0.92810    0.12200    1.000
    H23      H        0.71870    0.96300    0.15800    1.000
    C24      C        0.82820    0.86270    0.08410    1.000
    H24      H        0.87040    0.85170    0.09340    1.000
    N15      N        0.30410    0.32470    0.02020    1.000
    N16      N        0.30080    0.41370    0.13610    1.000
    C25      C        0.24440    0.34220    0.00660    1.000
    H25      H        0.22500    0.31830    0.96130    1.000
    C26      C        0.21110    0.39410    0.05710    1.000
    H26      H        0.16910    0.40610    0.04760    1.000
    C27      C        0.24110    0.42810    0.12200    1.000
    H27      H        0.21870    0.46300    0.15800    1.000
    C28      C        0.32820    0.36270    0.08410    1.000
    H28      H        0.37040    0.35170    0.09340    1.000
    N17      N        0.19590    0.82470    0.02020    1.000
    N18      N        0.19920    0.91370    0.13610    1.000
    C29      C        0.25560    0.84220    0.00660    1.000
    H29      H        0.27500    0.81830    0.96130    1.000
    C30      C        0.28890    0.89410    0.05710    1.000
    H30      H        0.33090    0.90610    0.04760    1.000
    C31      C        0.25890    0.92810    0.12200    1.000
    H31      H        0.28130    0.96300    0.15800    1.000
    C32      C        0.17180    0.86270    0.08410    1.000
    H32      H        0.12960    0.85170    0.09340    1.000
    N19      N        0.69590    0.32470    0.02020    1.000
    N20      N        0.69920    0.41370    0.13610    1.000
    C33      C        0.75560    0.34220    0.00660    1.000
    H33      H        0.77500    0.31830    0.96130    1.000
    C34      C        0.78890    0.39410    0.05710    1.000
    H34      H        0.83090    0.40610    0.04760    1.000
    C35      C        0.75890    0.42810    0.12200    1.000
    H35      H        0.78130    0.46300    0.15800    1.000
    C36      C        0.67180    0.36270    0.08410    1.000
    H36      H        0.62960    0.35170    0.09340    1.000
    Ag5      Ag       0.85878    0.29449    0.45340    1.000
    Ag6      Ag       0.85322    0.96680    0.24010    1.000
    N21      N        0.88520    0.23680    0.33050    1.000
    N22      N        0.88940    0.10970    0.25160    1.000
    N23      N        0.76870    0.37320    0.44530    1.000
    N24      N        0.68950    0.43230    0.36670    1.000
    N25      N        0.94580    0.31950    0.52430    1.000
    N26      N        0.94520    0.89530    0.27280    1.000
    C37      C        0.90640    0.28100    0.27070    1.000
    H37      H        0.91340    0.34110    0.27710    1.000
    C38      C        0.91920    0.24340    0.19810    1.000
    H38      H        0.93310    0.27650    0.15430    1.000
    C39      C        0.91060    0.15690    0.19280    1.000
    H39      H        0.92050    0.12890    0.14450    1.000
    C40      C        0.87750    0.15340    0.31840    1.000
    H40      H        0.86180    0.12080    0.36150    1.000
    C41      C        0.73320    0.38130    0.50850    1.000
    H41      H        0.74790    0.36170    0.55830    1.000
    C42      C        0.67570    0.41710    0.50430    1.000
    H42      H        0.65110    0.42530    0.55010    1.000
    C43      C        0.65580    0.44050    0.43010    1.000
    H43      H        0.61580    0.46370    0.42480    1.000
    C44      C        0.74630    0.40100    0.37740    1.000
    H44      H        0.77240    0.39870    0.33250    1.000
    C45      C        0.94580    0.35010    0.59740    1.000
    H45      H        0.90800    0.36140    0.62300    1.000
    C46      C        0.94640    0.81860    0.31000    1.000
    H46      H        0.90860    0.79200    0.32330    1.000
    Ag7      Ag       0.35878    0.79449    0.45340    1.000
    Ag8      Ag       0.35322    0.46680    0.24010    1.000
    N27      N        0.38520    0.73680    0.33050    1.000
    N28      N        0.38940    0.60970    0.25160    1.000
    N29      N        0.26870    0.87320    0.44530    1.000
    N30      N        0.18950    0.93230    0.36670    1.000
    N31      N        0.44580    0.81950    0.52430    1.000
    N32      N        0.44520    0.39530    0.27280    1.000
    C47      C        0.40640    0.78100    0.27070    1.000
    H47      H        0.41340    0.84110    0.27710    1.000
    C48      C        0.41920    0.74340    0.19810    1.000
    H48      H        0.43310    0.77650    0.15430    1.000
    C49      C        0.41060    0.65690    0.19280    1.000
    H49      H        0.42050    0.62890    0.14450    1.000
    C50      C        0.37750    0.65340    0.31840    1.000
    H50      H        0.36180    0.62080    0.36150    1.000
    C51      C        0.23320    0.88130    0.50850    1.000
    H51      H        0.24790    0.86170    0.55830    1.000
    C52      C        0.17570    0.91710    0.50430    1.000
    H52      H        0.15110    0.92530    0.55010    1.000
    C53      C        0.15580    0.94050    0.43010    1.000
    H53      H        0.11580    0.96370    0.42480    1.000
    C54      C        0.24630    0.90100    0.37740    1.000
    H54      H        0.27240    0.89870    0.33250    1.000
    C55      C        0.44580    0.85010    0.59740    1.000
    H55      H        0.40800    0.86140    0.62300    1.000
    C56      C        0.44640    0.31860    0.31000    1.000
    H56      H        0.40860    0.29200    0.32330    1.000
    C57      C        0.00000    0.36590    0.63720    1.000
    H57      H        0.00000    0.38690    0.69000    1.000
    C58      C        0.00000    0.30540    0.49030    1.000
    H58      H        0.00000    0.28370    0.43780    1.000
    C59      C        0.00000    0.77690    0.32960    1.000
    H59      H        0.00000    0.72240    0.35530    1.000
    C60      C        0.00000    0.93040    0.25970    1.000
    H60      H        0.00000    0.98710    0.23850    1.000
    C61      C        0.50000    0.86590    0.63720    1.000
    H61      H        0.50000    0.88690    0.69000    1.000
    C62      C        0.50000    0.80540    0.49030    1.000
    H62      H        0.50000    0.78370    0.43780    1.000
    C63      C        0.50000    0.27690    0.32960    1.000
    H63      H        0.50000    0.22240    0.35530    1.000
    C64      C        0.50000    0.43040    0.25970    1.000
    H64      H        0.50000    0.48710    0.23850    1.000
    N33      N        0.19590    0.17530    0.52020    1.000
    N34      N        0.19920    0.08630    0.63610    1.000
    C65      C        0.25560    0.15780    0.50660    1.000
    H65      H        0.27500    0.18170    0.46130    1.000
    C66      C        0.28890    0.10590    0.55710    1.000
    H66      H        0.33090    0.09390    0.54760    1.000
    C67      C        0.25890    0.07190    0.62200    1.000
    H67      H        0.28130    0.03700    0.65800    1.000
    C68      C        0.17180    0.13730    0.58410    1.000
    H68      H        0.12960    0.14830    0.59340    1.000
    N35      N        0.69590    0.67530    0.52020    1.000
    N36      N        0.69920    0.58630    0.63610    1.000
    C69      C        0.75560    0.65780    0.50660    1.000
    H69      H        0.77500    0.68170    0.46130    1.000
    C70      C        0.78890    0.60590    0.55710    1.000
    H70      H        0.83090    0.59390    0.54760    1.000
    C71      C        0.75890    0.57190    0.62200    1.000
    H71      H        0.78130    0.53700    0.65800    1.000
    C72      C        0.67180    0.63730    0.58410    1.000
    H72      H        0.62960    0.64830    0.59340    1.000
    Ag9      Ag       0.85878    0.70551    0.95340    1.000
    Ag10     Ag       0.85322    0.03320    0.74010    1.000
    N37      N        0.88520    0.76320    0.83050    1.000
    N38      N        0.88940    0.89030    0.75160    1.000
    N39      N        0.76870    0.62680    0.94530    1.000
    N40      N        0.68950    0.56770    0.86670    1.000
    N41      N        0.94580    0.68050    0.02430    1.000
    N42      N        0.94520    0.10470    0.77280    1.000
    C73      C        0.90640    0.71900    0.77070    1.000
    H73      H        0.91340    0.65890    0.77710    1.000
    C74      C        0.91920    0.75660    0.69810    1.000
    H74      H        0.93310    0.72350    0.65430    1.000
    C75      C        0.91060    0.84310    0.69280    1.000
    H75      H        0.92050    0.87110    0.64450    1.000
    C76      C        0.87750    0.84660    0.81840    1.000
    H76      H        0.86180    0.87920    0.86150    1.000
    C77      C        0.73320    0.61870    0.00850    1.000
    H77      H        0.74790    0.63830    0.05830    1.000
    C78      C        0.67570    0.58290    0.00430    1.000
    H78      H        0.65110    0.57470    0.05010    1.000
    C79      C        0.65580    0.55950    0.93010    1.000
    H79      H        0.61580    0.53630    0.92480    1.000
    C80      C        0.74630    0.59900    0.87740    1.000
    H80      H        0.77240    0.60130    0.83250    1.000
    C81      C        0.94580    0.64990    0.09740    1.000
    H81      H        0.90800    0.63860    0.12300    1.000
    C82      C        0.94640    0.18140    0.81000    1.000
    H82      H        0.90860    0.20800    0.82330    1.000
    Ag11     Ag       0.35878    0.20551    0.95340    1.000
    Ag12     Ag       0.35322    0.53320    0.74010    1.000
    N43      N        0.38520    0.26320    0.83050    1.000
    N44      N        0.38940    0.39030    0.75160    1.000
    N45      N        0.26870    0.12680    0.94530    1.000
    N46      N        0.18950    0.06770    0.86670    1.000
    N47      N        0.44580    0.18050    0.02430    1.000
    N48      N        0.44520    0.60470    0.77280    1.000
    C83      C        0.40640    0.21900    0.77070    1.000
    H83      H        0.41340    0.15890    0.77710    1.000
    C84      C        0.41920    0.25660    0.69810    1.000
    H84      H        0.43310    0.22350    0.65430    1.000
    C85      C        0.41060    0.34310    0.69280    1.000
    H85      H        0.42050    0.37110    0.64450    1.000
    C86      C        0.37750    0.34660    0.81840    1.000
    H86      H        0.36180    0.37920    0.86150    1.000
    C87      C        0.23320    0.11870    0.00850    1.000
    H87      H        0.24790    0.13830    0.05830    1.000
    C88      C        0.17570    0.08290    0.00430    1.000
    H88      H        0.15110    0.07470    0.05010    1.000
    C89      C        0.15580    0.05950    0.93010    1.000
    H89      H        0.11580    0.03630    0.92480    1.000
    C90      C        0.24630    0.09900    0.87740    1.000
    H90      H        0.27240    0.10130    0.83250    1.000
    C91      C        0.44580    0.14990    0.09740    1.000
    H91      H        0.40800    0.13860    0.12300    1.000
    C92      C        0.44640    0.68140    0.81000    1.000
    H92      H        0.40860    0.70800    0.82330    1.000
    Ag13     Ag       0.14122    0.70551    0.95340    1.000
    Ag14     Ag       0.14678    0.03320    0.74010    1.000
    N49      N        0.11480    0.76320    0.83050    1.000
    N50      N        0.11060    0.89030    0.75160    1.000
    N51      N        0.23130    0.62680    0.94530    1.000
    N52      N        0.31050    0.56770    0.86670    1.000
    N53      N        0.05420    0.68050    0.02430    1.000
    N54      N        0.05480    0.10470    0.77280    1.000
    C93      C        0.09360    0.71900    0.77070    1.000
    H93      H        0.08660    0.65890    0.77710    1.000
    C94      C        0.08080    0.75660    0.69810    1.000
    H94      H        0.06690    0.72350    0.65430    1.000
    C95      C        0.08940    0.84310    0.69280    1.000
    H95      H        0.07950    0.87110    0.64450    1.000
    C96      C        0.12250    0.84660    0.81840    1.000
    H96      H        0.13820    0.87920    0.86150    1.000
    C97      C        0.26680    0.61870    0.00850    1.000
    H97      H        0.25210    0.63830    0.05830    1.000
    C98      C        0.32430    0.58290    0.00430    1.000
    H98      H        0.34890    0.57470    0.05010    1.000
    C99      C        0.34420    0.55950    0.93010    1.000
    H99      H        0.38420    0.53630    0.92480    1.000
    C100     C        0.25370    0.59900    0.87740    1.000
    H100     H        0.22760    0.60130    0.83250    1.000
    C101     C        0.05420    0.64990    0.09740    1.000
    H101     H        0.09200    0.63860    0.12300    1.000
    C102     C        0.05360    0.18140    0.81000    1.000
    H102     H        0.09140    0.20800    0.82330    1.000
    Ag15     Ag       0.64122    0.20551    0.95340    1.000
    Ag16     Ag       0.64678    0.53320    0.74010    1.000
    N55      N        0.61480    0.26320    0.83050    1.000
    N56      N        0.61060    0.39030    0.75160    1.000
    N57      N        0.73130    0.12680    0.94530    1.000
    N58      N        0.81050    0.06770    0.86670    1.000
    N59      N        0.55420    0.18050    0.02430    1.000
    N60      N        0.55480    0.60470    0.77280    1.000
    C103     C        0.59360    0.21900    0.77070    1.000
    H103     H        0.58660    0.15890    0.77710    1.000
    C104     C        0.58080    0.25660    0.69810    1.000
    H104     H        0.56690    0.22350    0.65430    1.000
    C105     C        0.58940    0.34310    0.69280    1.000
    H105     H        0.57950    0.37110    0.64450    1.000
    C106     C        0.62250    0.34660    0.81840    1.000
    H106     H        0.63820    0.37920    0.86150    1.000
    C107     C        0.76680    0.11870    0.00850    1.000
    H107     H        0.75210    0.13830    0.05830    1.000
    C108     C        0.82430    0.08290    0.00430    1.000
    H108     H        0.84890    0.07470    0.05010    1.000
    C109     C        0.84420    0.05950    0.93010    1.000
    H109     H        0.88420    0.03630    0.92480    1.000
    C110     C        0.75370    0.09900    0.87740    1.000
    H110     H        0.72760    0.10130    0.83250    1.000
    C111     C        0.55420    0.14990    0.09740    1.000
    H111     H        0.59200    0.13860    0.12300    1.000
    C112     C        0.55360    0.68140    0.81000    1.000
    H112     H        0.59140    0.70800    0.82330    1.000
    N61      N        0.80410    0.17530    0.52020    1.000
    N62      N        0.80080    0.08630    0.63610    1.000
    C113     C        0.74440    0.15780    0.50660    1.000
    H113     H        0.72500    0.18170    0.46130    1.000
    C114     C        0.71110    0.10590    0.55710    1.000
    H114     H        0.66910    0.09390    0.54760    1.000
    C115     C        0.74110    0.07190    0.62200    1.000
    H115     H        0.71870    0.03700    0.65800    1.000
    C116     C        0.82820    0.13730    0.58410    1.000
    H116     H        0.87040    0.14830    0.59340    1.000
    N63      N        0.30410    0.67530    0.52020    1.000
    N64      N        0.30080    0.58630    0.63610    1.000
    C117     C        0.24440    0.65780    0.50660    1.000
    H117     H        0.22500    0.68170    0.46130    1.000
    C118     C        0.21110    0.60590    0.55710    1.000
    H118     H        0.16910    0.59390    0.54760    1.000
    C119     C        0.24110    0.57190    0.62200    1.000
    H119     H        0.21870    0.53700    0.65800    1.000
    C120     C        0.32820    0.63730    0.58410    1.000
    H120     H        0.37040    0.64830    0.59340    1.000
    C121     C        0.00000    0.63410    0.13720    1.000
    H121     H        0.00000    0.61310    0.19000    1.000
    C122     C        0.00000    0.69460    0.99030    1.000
    H122     H        0.00000    0.71630    0.93780    1.000
    C123     C        0.00000    0.22310    0.82960    1.000
    H123     H        0.00000    0.27760    0.85530    1.000
    C124     C        0.00000    0.06960    0.75970    1.000
    H124     H        0.00000    0.01290    0.73850    1.000
    C125     C        0.50000    0.13410    0.13720    1.000
    H125     H        0.50000    0.11310    0.19000    1.000
    C126     C        0.50000    0.19460    0.99030    1.000
    H126     H        0.50000    0.21630    0.93780    1.000
    C127     C        0.50000    0.72310    0.82960    1.000
    H127     H        0.50000    0.77760    0.85530    1.000
    C128     C        0.50000    0.56960    0.75970    1.000
    H128     H        0.50000    0.51290    0.73850    1.000
