data_functionalizedCrystal
_audit_creation_method	'EQeq! by Chris Wilmer'
_symmetry_space_group_name_H-M	'P1'
_symmetry_Int_Tables_number	1
_symmetry_cell_setting	triclinic
loop_
_symmetry_equiv_pos_as_xyz
  x,y,z
_cell_length_a	15.418
_cell_length_b	34.135
_cell_length_c	10.1886
_cell_angle_alpha	90
_cell_angle_beta	105.446
_cell_angle_gamma	90
loop_
_atom_site_label
_atom_site_type_symbol
_atom_site_fract_x
_atom_site_fract_y
_atom_site_fract_z
_atom_site_charge
Mof_Cu	Cu	0.08564	0.78123	0.31863	0.926
Mof_Cu	Cu	0.9389	0.7237	0.33662	0.92
Mof_Cu	Cu	0.01653	0.77986	0.58449	0.921
Mof_O 	O 	0.0497	0.77368	0.7776	-0.749
Mof_H 	H 	0.0894	0.7901	0.8176	0.278
Mof_O 	O 	0.9771	0.6647	0.1052	-0.401
Mof_O 	O 	0.9138	0.66874	0.2785	-0.394
Mof_O 	O 	0.1388	0.76263	0.5674	-0.466
Mof_O 	O 	0.1894	0.72334	0.7483	-0.413
Mof_O 	O 	0.9779	0.77855	0.3885	-0.732
Mof_H 	H 	0.9383	0.7957	0.3543	0.288
Mof_O 	O 	0.4419	0.638	0.697	-0.043
Mof_O 	O 	0.5502	0.6626	0.706	-0.026
Mof_O 	O 	0.4491	0.6818	0.3632	-0.073
Mof_O 	O 	0.57	0.6431	0.395	-0.035
Mof_O 	O 	0.7873	0.497	0.31	-0.042
Mof_O 	O 	0.731	0.5507	0.31	-0.056
Mof_O 	O 	0.102	0.4422	0.247	-0.082
Mof_O 	O 	0.076	0.5012	0.257	-0.073
Mof_O 	O 	0.8308	0.72585	0.3971	-0.402
Mof_O 	O 	0.8812	0.75969	0.5911	-0.438
Mof_O 	O 	0.772	0.3471	0.0371	-0.261
Mof_O 	O 	0.9078	0.33674	0.1628	-0.417
Mof_C 	C 	0.9396	0.65066	0.1871	0.397
Mof_C 	C 	0.9253	0.6073	0.1783	-0.136
Mof_C 	C 	0.9793	0.5845	0.121	0.011
Mof_C 	C 	0.9681	0.5446	0.117	0.032
Mof_C 	C 	0.9005	0.526	0.1575	0.044
Mof_C 	C 	0.8556	0.5483	0.232	0.107
Mof_C 	C 	0.861	0.5898	0.231	-0.015
Mof_C 	C 	0.8886	0.4828	0.1431	-0.04
Mof_C 	C 	0.95	0.4573	0.2058	0.121
Mof_C 	C 	0.9392	0.4168	0.1891	-0.094
Mof_H 	H 	0.9854	0.4001	0.233	0.104
Mof_C 	C 	0.8628	0.4022	0.1102	0.005
Mof_C 	C 	0.7973	0.4268	0.0394	-0.092
Mof_H 	H 	0.7446	0.417	0.9816	0.117
Mof_C 	C 	0.8111	0.4673	0.0554	0.126
Mof_C 	C 	0.8467	0.3577	0.1011	0.355
Mof_C 	C 	0.1973	0.742	0.6462	0.364
Mof_C 	C 	0.2887	0.7386	0.6189	-0.063
Mof_C 	C 	0.3437	0.7079	0.6727	-0.053
Mof_H 	H 	0.323	0.6887	0.7214	0.094
Mof_C 	C 	0.4283	0.7051	0.6562	0.084
Mof_C 	C 	0.4617	0.7335	0.58	0.024
Mof_C 	C 	0.405	0.7639	0.5281	-0.059
Mof_H 	H 	0.4248	0.7831	0.4784	0.086
Mof_C 	C 	0.3191	0.7673	0.5462	0.004
Mof_H 	H 	0.2827	0.7885	0.5102	0.068
Mof_C 	C 	0.5547	0.7332	0.5593	0.028
Mof_C 	C 	0.6132	0.7633	0.6185	-0.068
Mof_H 	H 	0.5936	0.7822	0.67	0.088
Mof_C 	C 	0.6984	0.766	0.6033	0.017
Mof_H 	H 	0.7362	0.7861	0.6458	0.054
Mof_C 	C 	0.729	0.7387	0.5243	-0.068
Mof_C 	C 	0.6716	0.7093	0.4621	-0.045
Mof_H 	H 	0.6903	0.691	0.4076	0.091
Mof_C 	C 	0.5873	0.7069	0.4804	0.077
Mof_C 	C 	0.822	0.74153	0.5057	0.358
Mof_N 	N 	0.7884	0.5312	0.291	-0.004
Mof_N 	N 	0.485	0.6739	0.7221	0.007
Mof_N 	N 	0.5293	0.6762	0.407	0.008
Mof_N 	N 	0.0472	0.4675	0.263	-0.008
Mof_O 	O 	0.4664	0.6548	0.801	-0.059
Mof_O 	O 	0.5643	0.6832	0.7804	-0.076
Mof_O 	O 	0.4768	0.6584	0.459	-0.038
Mof_O 	O 	0.5467	0.6611	0.3068	-0.065
Mof_O 	O 	0.846	0.4974	0.385	-0.04
Mof_O 	O 	0.924	0.5379	0.51	-0.065
Mof_O 	O 	0.692	0.476	0.843	-0.057
Mof_O 	O 	0.728	0.5192	0.986	-0.066
Mof_C 	C 	0.9248	0.5879	0.0592	0.074
Mof_C 	C 	0.9151	0.5476	0.0483	-0.01
Mof_C 	C 	0.9072	0.5452	0.278	-0.058
Mof_C 	C 	0.9109	0.5866	0.283	0.108
Mof_N 	N 	0.877	0.5287	0.394	0.009
Mof_N 	N 	0.743	0.4865	0.95	-0.017
Mof_Cu	Cu	0.91436	0.28123	0.18137	0.927
Mof_Cu	Cu	0.0611	0.2237	0.16338	0.921
Mof_Cu	Cu	0.98347	0.27986	0.91551	0.922
Mof_O 	O 	0.9503	0.27368	0.7224	-0.749
Mof_H 	H 	0.9106	0.2901	0.6824	0.279
Mof_O 	O 	0.0229	0.1647	0.3948	-0.399
Mof_O 	O 	0.0862	0.16874	0.2215	-0.393
Mof_O 	O 	0.8612	0.26263	0.9326	-0.467
Mof_O 	O 	0.8106	0.22334	0.7517	-0.413
Mof_O 	O 	0.0221	0.27855	0.1115	-0.731
Mof_H 	H 	0.0617	0.2957	0.1457	0.288
Mof_O 	O 	0.5581	0.138	0.803	-0.044
Mof_O 	O 	0.4498	0.1626	0.794	-0.026
Mof_O 	O 	0.5509	0.1818	0.1368	-0.073
Mof_O 	O 	0.43	0.1431	0.105	-0.035
Mof_O 	O 	0.2127	0.997	0.19	-0.042
Mof_O 	O 	0.269	0.0507	0.19	-0.056
Mof_O 	O 	0.898	0.9422	0.253	-0.082
Mof_O 	O 	0.924	0.0012	0.243	-0.073
Mof_O 	O 	0.1692	0.22585	0.1029	-0.401
Mof_O 	O 	0.1188	0.25969	0.9089	-0.438
Mof_O 	O 	0.228	0.8471	0.4629	-0.262
Mof_O 	O 	0.0922	0.83674	0.3372	-0.417
Mof_C 	C 	0.0604	0.15066	0.3129	0.397
Mof_C 	C 	0.0747	0.1073	0.3217	-0.136
Mof_C 	C 	0.0207	0.0845	0.379	0.011
Mof_C 	C 	0.0319	0.0446	0.383	0.032
Mof_C 	C 	0.0995	0.026	0.3425	0.044
Mof_C 	C 	0.1444	0.0483	0.268	0.108
Mof_C 	C 	0.139	0.0898	0.269	-0.015
Mof_C 	C 	0.1114	0.9828	0.3569	-0.041
Mof_C 	C 	0.05	0.9573	0.2942	0.12
Mof_C 	C 	0.0608	0.9168	0.3109	-0.094
Mof_H 	H 	0.0146	0.9001	0.267	0.103
Mof_C 	C 	0.1372	0.9022	0.3898	0.006
Mof_C 	C 	0.2027	0.9268	0.4606	-0.095
Mof_H 	H 	0.2554	0.917	0.5184	0.12
Mof_C 	C 	0.1889	0.9673	0.4446	0.126
Mof_C 	C 	0.1533	0.8577	0.3989	0.355
Mof_C 	C 	0.8027	0.242	0.8538	0.365
Mof_C 	C 	0.7113	0.2386	0.8811	-0.066
Mof_C 	C 	0.6563	0.2079	0.8273	-0.051
Mof_H 	H 	0.677	0.1887	0.7786	0.093
Mof_C 	C 	0.5717	0.2051	0.8438	0.082
Mof_C 	C 	0.5383	0.2335	0.92	0.028
Mof_C 	C 	0.595	0.2639	0.9719	-0.067
Mof_H 	H 	0.5752	0.2831	0.0216	0.091
Mof_C 	C 	0.6809	0.2673	0.9538	0.009
Mof_H 	H 	0.7173	0.2885	0.9898	0.066
Mof_C 	C 	0.4453	0.2332	0.9407	0.024
Mof_C 	C 	0.3868	0.2633	0.8815	-0.067
Mof_H 	H 	0.4064	0.2822	0.83	0.087
Mof_C 	C 	0.3016	0.266	0.8967	0.016
Mof_H 	H 	0.2638	0.2861	0.8542	0.054
Mof_C 	C 	0.271	0.2387	0.9757	-0.069
Mof_C 	C 	0.3284	0.2093	0.0379	-0.044
Mof_H 	H 	0.3097	0.191	0.0924	0.091
Mof_C 	C 	0.4127	0.2069	0.0196	0.08
Mof_C 	C 	0.178	0.24153	0.9943	0.356
Mof_N 	N 	0.2116	0.0312	0.209	-0.003
Mof_N 	N 	0.515	0.1739	0.7779	0.008
Mof_N 	N 	0.4707	0.1762	0.093	0.007
Mof_N 	N 	0.9528	0.9675	0.237	-0.007
Mof_O 	O 	0.5336	0.1548	0.699	-0.059
Mof_O 	O 	0.4357	0.1832	0.7196	-0.077
Mof_O 	O 	0.5232	0.1584	0.041	-0.038
Mof_O 	O 	0.4533	0.1611	0.1932	-0.065
Mof_O 	O 	0.154	0.9974	0.115	-0.04
Mof_O 	O 	0.076	0.0379	0.99	-0.065
Mof_O 	O 	0.308	0.976	0.657	-0.057
Mof_O 	O 	0.272	0.0192	0.514	-0.066
Mof_C 	C 	0.0752	0.0879	0.4408	0.075
Mof_C 	C 	0.0849	0.0476	0.4517	-0.01
Mof_C 	C 	0.0928	0.0452	0.222	-0.058
Mof_C 	C 	0.0891	0.0866	0.217	0.108
Mof_N 	N 	0.123	0.0287	0.106	0.01
Mof_N 	N 	0.257	0.9865	0.55	-0.017
Mof_Cu	Cu	0.91436	0.21877	0.68137	0.927
Mof_Cu	Cu	0.0611	0.2763	0.66338	0.921
Mof_Cu	Cu	0.98347	0.22014	0.41551	0.922
Mof_O 	O 	0.9503	0.22632	0.2224	-0.748
Mof_H 	H 	0.9106	0.2099	0.1824	0.279
Mof_O 	O 	0.0229	0.3353	0.8948	-0.4
Mof_O 	O 	0.0862	0.33126	0.7215	-0.394
Mof_O 	O 	0.8612	0.23737	0.4326	-0.466
Mof_O 	O 	0.8106	0.27666	0.2517	-0.413
Mof_O 	O 	0.0221	0.22145	0.6115	-0.732
Mof_H 	H 	0.0617	0.2043	0.6457	0.288
Mof_O 	O 	0.5581	0.362	0.303	-0.043
Mof_O 	O 	0.4498	0.3374	0.294	-0.026
Mof_O 	O 	0.5509	0.3182	0.6368	-0.073
Mof_O 	O 	0.43	0.3569	0.605	-0.035
Mof_O 	O 	0.2127	0.503	0.69	-0.042
Mof_O 	O 	0.269	0.4493	0.69	-0.056
Mof_O 	O 	0.898	0.5578	0.753	-0.082
Mof_O 	O 	0.924	0.4988	0.743	-0.073
Mof_O 	O 	0.1692	0.27415	0.6029	-0.402
Mof_O 	O 	0.1188	0.24031	0.4089	-0.438
Mof_O 	O 	0.228	0.6529	0.9629	-0.261
Mof_O 	O 	0.0922	0.66326	0.8372	-0.417
Mof_C 	C 	0.0604	0.34934	0.8129	0.397
Mof_C 	C 	0.0747	0.3927	0.8217	-0.136
Mof_C 	C 	0.0207	0.4155	0.879	0.011
Mof_C 	C 	0.0319	0.4554	0.883	0.032
Mof_C 	C 	0.0995	0.474	0.8425	0.044
Mof_C 	C 	0.1444	0.4517	0.768	0.107
Mof_C 	C 	0.139	0.4102	0.769	-0.015
Mof_C 	C 	0.1114	0.5172	0.8569	-0.04
Mof_C 	C 	0.05	0.5427	0.7942	0.121
Mof_C 	C 	0.0608	0.5832	0.8109	-0.094
Mof_H 	H 	0.0146	0.5999	0.767	0.104
Mof_C 	C 	0.1372	0.5978	0.8898	0.005
Mof_C 	C 	0.2027	0.5732	0.9606	-0.092
Mof_H 	H 	0.2554	0.583	0.0184	0.117
Mof_C 	C 	0.1889	0.5327	0.9446	0.126
Mof_C 	C 	0.1533	0.6423	0.8989	0.355
Mof_C 	C 	0.8027	0.258	0.3538	0.364
Mof_C 	C 	0.7113	0.2614	0.3811	-0.063
Mof_C 	C 	0.6563	0.2921	0.3273	-0.053
Mof_H 	H 	0.677	0.3113	0.2786	0.094
Mof_C 	C 	0.5717	0.2949	0.3438	0.084
Mof_C 	C 	0.5383	0.2665	0.42	0.024
Mof_C 	C 	0.595	0.2361	0.4719	-0.059
Mof_H 	H 	0.5752	0.2169	0.5216	0.086
Mof_C 	C 	0.6809	0.2327	0.4538	0.004
Mof_H 	H 	0.7173	0.2115	0.4898	0.068
Mof_C 	C 	0.4453	0.2668	0.4407	0.028
Mof_C 	C 	0.3868	0.2367	0.3815	-0.068
Mof_H 	H 	0.4064	0.2178	0.33	0.088
Mof_C 	C 	0.3016	0.234	0.3967	0.017
Mof_H 	H 	0.2638	0.2139	0.3542	0.054
Mof_C 	C 	0.271	0.2613	0.4757	-0.068
Mof_C 	C 	0.3284	0.2907	0.5379	-0.045
Mof_H 	H 	0.3097	0.309	0.5924	0.091
Mof_C 	C 	0.4127	0.2931	0.5196	0.077
Mof_C 	C 	0.178	0.25847	0.4943	0.358
Mof_N 	N 	0.2116	0.4688	0.709	-0.004
Mof_N 	N 	0.515	0.3261	0.2779	0.007
Mof_N 	N 	0.4707	0.3238	0.593	0.008
Mof_N 	N 	0.9528	0.5325	0.737	-0.008
Mof_O 	O 	0.5336	0.3452	0.199	-0.059
Mof_O 	O 	0.4357	0.3168	0.2196	-0.076
Mof_O 	O 	0.5232	0.3416	0.541	-0.038
Mof_O 	O 	0.4533	0.3389	0.6932	-0.065
Mof_O 	O 	0.154	0.5026	0.615	-0.04
Mof_O 	O 	0.076	0.4621	0.49	-0.065
Mof_O 	O 	0.308	0.524	0.157	-0.057
Mof_O 	O 	0.272	0.4808	0.014	-0.066
Mof_C 	C 	0.0752	0.4121	0.9408	0.074
Mof_C 	C 	0.0849	0.4524	0.9517	-0.01
Mof_C 	C 	0.0928	0.4548	0.722	-0.058
Mof_C 	C 	0.0891	0.4134	0.717	0.108
Mof_N 	N 	0.123	0.4713	0.606	0.009
Mof_N 	N 	0.257	0.5135	0.05	-0.017
Mof_Cu	Cu	0.08564	0.71877	0.81863	0.927
Mof_Cu	Cu	0.9389	0.7763	0.83662	0.921
Mof_Cu	Cu	0.01653	0.72014	0.08449	0.922
Mof_O 	O 	0.0497	0.72632	0.2776	-0.749
Mof_H 	H 	0.0894	0.7099	0.3176	0.279
Mof_O 	O 	0.9771	0.8353	0.6052	-0.399
Mof_O 	O 	0.9138	0.83126	0.7785	-0.393
Mof_O 	O 	0.1388	0.73737	0.0674	-0.467
Mof_O 	O 	0.1894	0.77666	0.2483	-0.413
Mof_O 	O 	0.9779	0.72145	0.8885	-0.731
Mof_H 	H 	0.9383	0.7043	0.8543	0.288
Mof_O 	O 	0.4419	0.862	0.197	-0.044
Mof_O 	O 	0.5502	0.8374	0.206	-0.026
Mof_O 	O 	0.4491	0.8182	0.8632	-0.073
Mof_O 	O 	0.57	0.8569	0.895	-0.035
Mof_O 	O 	0.7873	0.003	0.81	-0.042
Mof_O 	O 	0.731	0.9493	0.81	-0.056
Mof_O 	O 	0.102	0.0578	0.747	-0.082
Mof_O 	O 	0.076	0.9988	0.757	-0.073
Mof_O 	O 	0.8308	0.77415	0.8971	-0.401
Mof_O 	O 	0.8812	0.74031	0.0911	-0.438
Mof_O 	O 	0.772	0.1529	0.5371	-0.262
Mof_O 	O 	0.9078	0.16326	0.6628	-0.417
Mof_C 	C 	0.9396	0.84934	0.6871	0.397
Mof_C 	C 	0.9253	0.8927	0.6783	-0.136
Mof_C 	C 	0.9793	0.9155	0.621	0.011
Mof_C 	C 	0.9681	0.9554	0.617	0.032
Mof_C 	C 	0.9005	0.974	0.6575	0.044
Mof_C 	C 	0.8556	0.9517	0.732	0.108
Mof_C 	C 	0.861	0.9102	0.731	-0.015
Mof_C 	C 	0.8886	0.0172	0.6431	-0.041
Mof_C 	C 	0.95	0.0427	0.7058	0.12
Mof_C 	C 	0.9392	0.0832	0.6891	-0.094
Mof_H 	H 	0.9854	0.0999	0.733	0.103
Mof_C 	C 	0.8628	0.0978	0.6102	0.006
Mof_C 	C 	0.7973	0.0732	0.5394	-0.095
Mof_H 	H 	0.7446	0.083	0.4816	0.12
Mof_C 	C 	0.8111	0.0327	0.5554	0.126
Mof_C 	C 	0.8467	0.1423	0.6011	0.355
Mof_C 	C 	0.1973	0.758	0.1462	0.365
Mof_C 	C 	0.2887	0.7614	0.1189	-0.066
Mof_C 	C 	0.3437	0.7921	0.1727	-0.051
Mof_H 	H 	0.323	0.8113	0.2214	0.093
Mof_C 	C 	0.4283	0.7949	0.1562	0.082
Mof_C 	C 	0.4617	0.7665	0.08	0.028
Mof_C 	C 	0.405	0.7361	0.0281	-0.067
Mof_H 	H 	0.4248	0.7169	0.9784	0.091
Mof_C 	C 	0.3191	0.7327	0.0462	0.009
Mof_H 	H 	0.2827	0.7115	0.0102	0.066
Mof_C 	C 	0.5547	0.7668	0.0593	0.024
Mof_C 	C 	0.6132	0.7367	0.1185	-0.067
Mof_H 	H 	0.5936	0.7178	0.17	0.087
Mof_C 	C 	0.6984	0.734	0.1033	0.016
Mof_H 	H 	0.7362	0.7139	0.1458	0.054
Mof_C 	C 	0.729	0.7613	0.0243	-0.069
Mof_C 	C 	0.6716	0.7907	0.9621	-0.044
Mof_H 	H 	0.6903	0.809	0.9076	0.091
Mof_C 	C 	0.5873	0.7931	0.9804	0.08
Mof_C 	C 	0.822	0.75847	0.0057	0.356
Mof_N 	N 	0.7884	0.9688	0.791	-0.003
Mof_N 	N 	0.485	0.8261	0.2221	0.008
Mof_N 	N 	0.5293	0.8238	0.907	0.007
Mof_N 	N 	0.0472	0.0325	0.763	-0.007
Mof_O 	O 	0.4664	0.8452	0.301	-0.059
Mof_O 	O 	0.5643	0.8168	0.2804	-0.077
Mof_O 	O 	0.4768	0.8416	0.959	-0.038
Mof_O 	O 	0.5467	0.8389	0.8068	-0.065
Mof_O 	O 	0.846	0.0026	0.885	-0.04
Mof_O 	O 	0.924	0.9621	0.01	-0.065
Mof_O 	O 	0.692	0.024	0.343	-0.057
Mof_O 	O 	0.728	0.9808	0.486	-0.066
Mof_C 	C 	0.9248	0.9121	0.5592	0.075
Mof_C 	C 	0.9151	0.9524	0.5483	-0.01
Mof_C 	C 	0.9072	0.9548	0.778	-0.058
Mof_C 	C 	0.9109	0.9134	0.783	0.108
Mof_N 	N 	0.877	0.9713	0.894	0.01
Mof_N 	N 	0.743	0.0135	0.45	-0.017
_end
