# CIF file generated by openbabel 3.1.0, see https://openbabel.org
data_I
_chemical_name_common 'image0'
_cell_length_a 10.9696
_cell_length_b 23.0792
_cell_length_c 23.3276
_cell_angle_alpha 90
_cell_angle_beta 90
_cell_angle_gamma 90
_space_group_name_H-M_alt 'P 1'
_space_group_name_Hall 'P 1'
loop_
    _symmetry_equiv_pos_as_xyz
    x,y,z
loop_
    _atom_site_label
    _atom_site_type_symbol
    _atom_site_fract_x
    _atom_site_fract_y
    _atom_site_fract_z
    _atom_site_occupancy
    S1       S        0.25941    0.93063    0.43014    1.000
    C1       C        0.27410    0.82323    0.54215    1.000
    C2       C        0.27710    0.04318    0.32250    1.000
    N1       N        0.27710    0.70682    0.42750    1.000
    S2       S        0.25941    0.43063    0.93014    1.000
    C3       C        0.27410    0.32323    0.04215    1.000
    C4       C        0.27710    0.54318    0.82250    1.000
    N2       N        0.27710    0.20682    0.92750    1.000
    S3       S        0.75941    0.93063    0.93014    1.000
    C5       C        0.77410    0.82323    0.04215    1.000
    C6       C        0.77710    0.04318    0.82250    1.000
    N3       N        0.77710    0.70682    0.92750    1.000
    S4       S        0.75941    0.43063    0.43014    1.000
    C7       C        0.77410    0.32323    0.54215    1.000
    C8       C        0.77710    0.54318    0.32250    1.000
    N4       N        0.77710    0.20682    0.42750    1.000
    S5       S        0.49059    0.81937    0.43014    1.000
    C9       C        0.47590    0.92677    0.54215    1.000
    C10      C        0.47290    0.70682    0.32250    1.000
    N5       N        0.47290    0.04318    0.42750    1.000
    S6       S        0.49059    0.31937    0.93014    1.000
    C11      C        0.47590    0.42677    0.04215    1.000
    C12      C        0.47290    0.20682    0.82250    1.000
    N6       N        0.47290    0.54318    0.92750    1.000
    S7       S        0.99059    0.81937    0.93014    1.000
    C13      C        0.97590    0.92677    0.04215    1.000
    C14      C        0.97290    0.70682    0.82250    1.000
    N7       N        0.97290    0.04318    0.92750    1.000
    S8       S        0.99059    0.31937    0.43014    1.000
    C15      C        0.97590    0.42677    0.54215    1.000
    C16      C        0.97290    0.20682    0.32250    1.000
    N8       N        0.97290    0.54318    0.42750    1.000
    S9       S        0.49059    0.93063    0.31986    1.000
    C17      C        0.47590    0.82323    0.20785    1.000
    S10      S        0.49059    0.43063    0.81986    1.000
    C18      C        0.47590    0.32323    0.70785    1.000
    S11      S        0.99059    0.93063    0.81986    1.000
    C19      C        0.97590    0.82323    0.70785    1.000
    S12      S        0.99059    0.43063    0.31986    1.000
    C20      C        0.97590    0.32323    0.20785    1.000
    S13      S        0.25941    0.81937    0.31986    1.000
    C21      C        0.27410    0.92677    0.20785    1.000
    S14      S        0.25941    0.31937    0.81986    1.000
    C22      C        0.27410    0.42677    0.70785    1.000
    S15      S        0.75941    0.81937    0.81986    1.000
    C23      C        0.77410    0.92677    0.70785    1.000
    S16      S        0.75941    0.31937    0.31986    1.000
    C24      C        0.77410    0.42677    0.20785    1.000
    S17      S        0.74059    0.06937    0.56986    1.000
    C25      C        0.72590    0.17677    0.45785    1.000
    C26      C        0.72290    0.95682    0.67750    1.000
    N9       N        0.72290    0.29318    0.57250    1.000
    S18      S        0.74059    0.56937    0.06986    1.000
    C27      C        0.72590    0.67677    0.95785    1.000
    C28      C        0.72290    0.45682    0.17750    1.000
    N10      N        0.72290    0.79318    0.07250    1.000
    S19      S        0.24059    0.06937    0.06986    1.000
    C29      C        0.22590    0.17677    0.95785    1.000
    C30      C        0.22290    0.95682    0.17750    1.000
    N11      N        0.22290    0.29318    0.07250    1.000
    S20      S        0.24059    0.56937    0.56986    1.000
    C31      C        0.22590    0.67677    0.45785    1.000
    C32      C        0.22290    0.45682    0.67750    1.000
    N12      N        0.22290    0.79318    0.57250    1.000
    S21      S        0.50941    0.18063    0.56986    1.000
    C33      C        0.52410    0.07323    0.45785    1.000
    C34      C        0.52710    0.29318    0.67750    1.000
    N13      N        0.52710    0.95682    0.57250    1.000
    S22      S        0.50941    0.68063    0.06986    1.000
    C35      C        0.52410    0.57323    0.95785    1.000
    C36      C        0.52710    0.79318    0.17750    1.000
    N14      N        0.52710    0.45682    0.07250    1.000
    S23      S        0.00941    0.18063    0.06986    1.000
    C37      C        0.02410    0.07323    0.95785    1.000
    C38      C        0.02710    0.29318    0.17750    1.000
    N15      N        0.02710    0.95682    0.07250    1.000
    S24      S        0.00941    0.68063    0.56986    1.000
    C39      C        0.02410    0.57323    0.45785    1.000
    C40      C        0.02710    0.79318    0.67750    1.000
    N16      N        0.02710    0.45682    0.57250    1.000
    S25      S        0.50941    0.06937    0.68014    1.000
    C41      C        0.52410    0.17677    0.79215    1.000
    S26      S        0.50941    0.56937    0.18014    1.000
    C42      C        0.52410    0.67677    0.29215    1.000
    S27      S        0.00941    0.06937    0.18014    1.000
    C43      C        0.02410    0.17677    0.29215    1.000
    S28      S        0.00941    0.56937    0.68014    1.000
    C44      C        0.02410    0.67677    0.79215    1.000
    S29      S        0.74059    0.18063    0.68014    1.000
    C45      C        0.72590    0.07323    0.79215    1.000
    S30      S        0.74059    0.68063    0.18014    1.000
    C46      C        0.72590    0.57323    0.29215    1.000
    S31      S        0.24059    0.18063    0.18014    1.000
    C47      C        0.22590    0.07323    0.29215    1.000
    S32      S        0.24059    0.68063    0.68014    1.000
    C48      C        0.22590    0.57323    0.79215    1.000
    Mo1      Mo       0.37500    0.87500    0.37500    1.000
    Mo2      Mo       0.37500    0.37500    0.87500    1.000
    Mo3      Mo       0.87500    0.87500    0.87500    1.000
    Mo4      Mo       0.87500    0.37500    0.37500    1.000
    Mo5      Mo       0.62500    0.12500    0.62500    1.000
    Mo6      Mo       0.62500    0.62500    0.12500    1.000
    Mo7      Mo       0.12500    0.12500    0.12500    1.000
    Mo8      Mo       0.12500    0.62500    0.62500    1.000
    Cu1      Cu       0.37500    0.87500    0.49411    1.000
    Cu2      Cu       0.37500    0.37500    0.99411    1.000
    Cu3      Cu       0.87500    0.87500    0.99411    1.000
    Cu4      Cu       0.87500    0.37500    0.49411    1.000
    Cu5      Cu       0.37500    0.87500    0.25589    1.000
    Cu6      Cu       0.37500    0.37500    0.75589    1.000
    Cu7      Cu       0.87500    0.87500    0.75589    1.000
    Cu8      Cu       0.87500    0.37500    0.25589    1.000
    Cu9      Cu       0.62500    0.12500    0.50589    1.000
    Cu10     Cu       0.62500    0.62500    0.00589    1.000
    Cu11     Cu       0.12500    0.12500    0.00589    1.000
    Cu12     Cu       0.12500    0.62500    0.50589    1.000
    Cu13     Cu       0.62500    0.12500    0.74411    1.000
    Cu14     Cu       0.62500    0.62500    0.24411    1.000
    Cu15     Cu       0.12500    0.12500    0.24411    1.000
    Cu16     Cu       0.12500    0.62500    0.74411    1.000
    Cu17     Cu       0.37500    0.99421    0.37500    1.000
    Cu18     Cu       0.37500    0.49421    0.87500    1.000
    Cu19     Cu       0.87500    0.99421    0.87500    1.000
    Cu20     Cu       0.87500    0.49421    0.37500    1.000
    Cu21     Cu       0.37500    0.75579    0.37500    1.000
    Cu22     Cu       0.37500    0.25579    0.87500    1.000
    Cu23     Cu       0.87500    0.75579    0.87500    1.000
    Cu24     Cu       0.87500    0.25579    0.37500    1.000
    Cu25     Cu       0.62500    0.00579    0.62500    1.000
    Cu26     Cu       0.62500    0.50579    0.12500    1.000
    Cu27     Cu       0.12500    0.00579    0.12500    1.000
    Cu28     Cu       0.12500    0.50579    0.62500    1.000
    Cu29     Cu       0.62500    0.24421    0.62500    1.000
    Cu30     Cu       0.62500    0.74421    0.12500    1.000
    Cu31     Cu       0.12500    0.24421    0.12500    1.000
    Cu32     Cu       0.12500    0.74421    0.62500    1.000
