# CIF file generated by openbabel 3.1.0, see https://openbabel.org
data_I
_chemical_name_common 'image0'
_cell_length_a 25.8033
_cell_length_b 8.6742
_cell_length_c 8.4557
_cell_angle_alpha 90
_cell_angle_beta 90
_cell_angle_gamma 90
_space_group_name_H-M_alt 'P 1'
_space_group_name_Hall 'P 1'
loop_
    _symmetry_equiv_pos_as_xyz
    x,y,z
loop_
    _atom_site_label
    _atom_site_type_symbol
    _atom_site_fract_x
    _atom_site_fract_y
    _atom_site_fract_z
    _atom_site_occupancy
    Zn1      Zn       0.68745    0.72502    0.38022    1.000
    P1       P        0.76672    0.94168    0.18056    1.000
    H1       H        0.75100    0.00700    0.07200    1.000
    P2       P        0.56185    0.80857    0.35500    1.000
    H2       H        0.55200    0.70800    0.27300    1.000
    O1       O        0.72169    0.89610    0.28110    1.000
    O2       O        0.80779    0.03200    0.27060    1.000
    O3       O        0.79259    0.80230    0.10300    1.000
    O4       O        0.61533    0.78290    0.41700    1.000
    O5       O        0.55962    0.94280    0.23820    1.000
    O6       O        0.52212    0.82360    0.48760    1.000
    Zn2      Zn       0.18745    0.22502    0.88022    1.000
    P3       P        0.26672    0.44168    0.68056    1.000
    H3       H        0.25100    0.50700    0.57200    1.000
    P4       P        0.06185    0.30857    0.85500    1.000
    H4       H        0.05200    0.20800    0.77300    1.000
    O7       O        0.22169    0.39610    0.78110    1.000
    O8       O        0.30779    0.53200    0.77060    1.000
    O9       O        0.29259    0.30230    0.60300    1.000
    O10      O        0.11533    0.28290    0.91700    1.000
    O11      O        0.05962    0.44280    0.73820    1.000
    O12      O        0.02212    0.32360    0.98760    1.000
    Zn3      Zn       0.31255    0.27498    0.38022    1.000
    P5       P        0.23328    0.05832    0.18056    1.000
    H5       H        0.24900    0.99300    0.07200    1.000
    P6       P        0.43815    0.19143    0.35500    1.000
    H6       H        0.44800    0.29200    0.27300    1.000
    O13      O        0.27831    0.10390    0.28110    1.000
    O14      O        0.19221    0.96800    0.27060    1.000
    O15      O        0.20741    0.19770    0.10300    1.000
    O16      O        0.38467    0.21710    0.41700    1.000
    O17      O        0.44038    0.05720    0.23820    1.000
    O18      O        0.47788    0.17640    0.48760    1.000
    Zn4      Zn       0.81255    0.77498    0.88022    1.000
    P7       P        0.73328    0.55832    0.68056    1.000
    H7       H        0.74900    0.49300    0.57200    1.000
    P8       P        0.93815    0.69143    0.85500    1.000
    H8       H        0.94800    0.79200    0.77300    1.000
    O19      O        0.77831    0.60390    0.78110    1.000
    O20      O        0.69221    0.46800    0.77060    1.000
    O21      O        0.70741    0.69770    0.60300    1.000
    O22      O        0.88467    0.71710    0.91700    1.000
    O23      O        0.94038    0.55720    0.73820    1.000
    O24      O        0.97788    0.67640    0.98760    1.000
    Zn5      Zn       0.18745    0.77498    0.38022    1.000
    P9       P        0.26672    0.55832    0.18056    1.000
    H9       H        0.25100    0.49300    0.07200    1.000
    P10      P        0.06185    0.69143    0.35500    1.000
    H10      H        0.05200    0.79200    0.27300    1.000
    O25      O        0.22169    0.60390    0.28110    1.000
    O26      O        0.30779    0.46800    0.27060    1.000
    O27      O        0.29259    0.69770    0.10300    1.000
    O28      O        0.11533    0.71710    0.41700    1.000
    O29      O        0.05962    0.55720    0.23820    1.000
    O30      O        0.02212    0.67640    0.48760    1.000
    Zn6      Zn       0.68745    0.27498    0.88022    1.000
    P11      P        0.76672    0.05832    0.68056    1.000
    H11      H        0.75100    0.99300    0.57200    1.000
    P12      P        0.56185    0.19143    0.85500    1.000
    H12      H        0.55200    0.29200    0.77300    1.000
    O31      O        0.72169    0.10390    0.78110    1.000
    O32      O        0.80779    0.96800    0.77060    1.000
    O33      O        0.79259    0.19770    0.60300    1.000
    O34      O        0.61533    0.21710    0.91700    1.000
    O35      O        0.55962    0.05720    0.73820    1.000
    O36      O        0.52212    0.17640    0.98760    1.000
    Zn7      Zn       0.81255    0.22502    0.38022    1.000
    P13      P        0.73328    0.44168    0.18056    1.000
    H13      H        0.74900    0.50700    0.07200    1.000
    P14      P        0.93815    0.30857    0.35500    1.000
    H14      H        0.94800    0.20800    0.27300    1.000
    O37      O        0.77831    0.39610    0.28110    1.000
    O38      O        0.69221    0.53200    0.27060    1.000
    O39      O        0.70741    0.30230    0.10300    1.000
    O40      O        0.88467    0.28290    0.41700    1.000
    O41      O        0.94038    0.44280    0.23820    1.000
    O42      O        0.97788    0.32360    0.48760    1.000
    Zn8      Zn       0.31255    0.72502    0.88022    1.000
    P15      P        0.23328    0.94168    0.68056    1.000
    H15      H        0.24900    0.00700    0.57200    1.000
    P16      P        0.43815    0.80857    0.85500    1.000
    H16      H        0.44800    0.70800    0.77300    1.000
    O43      O        0.27831    0.89610    0.78110    1.000
    O44      O        0.19221    0.03200    0.77060    1.000
    O45      O        0.20741    0.80230    0.60300    1.000
    O46      O        0.38467    0.78290    0.91700    1.000
    O47      O        0.44038    0.94280    0.73820    1.000
    O48      O        0.47788    0.82360    0.98760    1.000
    Zn9      Zn       0.50000    0.00000    0.10714    1.000
    Zn10     Zn       0.00000    0.50000    0.60714    1.000
    Zn11     Zn       0.00000    0.50000    0.10714    1.000
    Zn12     Zn       0.50000    0.00000    0.60714    1.000
