# CIF file generated by openbabel 3.1.0, see https://openbabel.org
data_I
_chemical_name_common 'image0'
_cell_length_a 7.116
_cell_length_b 13.987
_cell_length_c 14.916
_cell_angle_alpha 90
_cell_angle_beta 101.599
_cell_angle_gamma 90
_space_group_name_H-M_alt 'P 1'
_space_group_name_Hall 'P 1'
loop_
    _symmetry_equiv_pos_as_xyz
    x,y,z
loop_
    _atom_site_label
    _atom_site_type_symbol
    _atom_site_fract_x
    _atom_site_fract_y
    _atom_site_fract_z
    _atom_site_occupancy
    Mn1      Mn       0.23350    0.56536    0.03251    1.000
    O1       O        0.79120    0.95547    0.37491    1.000
    O2       O        0.78200    0.53735    0.07534    1.000
    O3       O        0.03150    0.85750    0.43840    1.000
    O4       O        0.51060    0.61846    0.02513    1.000
    C1       C        0.74180    0.78140    0.12910    1.000
    C2       C        0.74010    0.68250    0.14940    1.000
    C3       C        0.84570    0.81580    0.29370    1.000
    C4       C        0.85440    0.71910    0.30990    1.000
    H1       H        0.89640    0.69720    0.36940    1.000
    C5       C        0.67230    0.60760    0.07770    1.000
    C6       C        0.79290    0.84930    0.20140    1.000
    C7       C        0.70110    0.81490    0.03700    1.000
    H2       H        0.66930    0.77140    0.98920    1.000
    C8       C        0.80150    0.65230    0.23880    1.000
    H3       H        0.80790    0.58730    0.25200    1.000
    C9       C        0.79900    0.94800    0.17850    1.000
    H4       H        0.83100    0.99340    0.22460    1.000
    C10      C        0.89320    0.88250    0.37490    1.000
    C11      C        0.70830    0.90980    0.01820    1.000
    H5       H        0.67970    0.93040    0.95770    1.000
    C12      C        0.75770    0.97630    0.08810    1.000
    H6       H        0.76290    0.04090    0.07370    1.000
    Mn2      Mn       0.76650    0.06536    0.46749    1.000
    O5       O        0.20880    0.45547    0.12509    1.000
    O6       O        0.21800    0.03735    0.42466    1.000
    O7       O        0.96850    0.35750    0.06160    1.000
    O8       O        0.48940    0.11846    0.47487    1.000
    C13      C        0.25820    0.28140    0.37090    1.000
    C14      C        0.25990    0.18250    0.35060    1.000
    C15      C        0.15430    0.31580    0.20630    1.000
    C16      C        0.14560    0.21910    0.19010    1.000
    H7       H        0.10360    0.19720    0.13060    1.000
    C17      C        0.32770    0.10760    0.42230    1.000
    C18      C        0.20710    0.34930    0.29860    1.000
    C19      C        0.29890    0.31490    0.46300    1.000
    H8       H        0.33070    0.27140    0.51080    1.000
    C20      C        0.19850    0.15230    0.26120    1.000
    H9       H        0.19210    0.08730    0.24800    1.000
    C21      C        0.20100    0.44800    0.32150    1.000
    H10      H        0.16900    0.49340    0.27540    1.000
    C22      C        0.10680    0.38250    0.12510    1.000
    C23      C        0.29170    0.40980    0.48180    1.000
    H11      H        0.32030    0.43040    0.54230    1.000
    C24      C        0.24230    0.47630    0.41190    1.000
    H12      H        0.23710    0.54090    0.42630    1.000
    Mn3      Mn       0.76650    0.43464    0.96749    1.000
    O9       O        0.20880    0.04453    0.62509    1.000
    O10      O        0.21800    0.46265    0.92466    1.000
    O11      O        0.96850    0.14250    0.56160    1.000
    O12      O        0.48940    0.38154    0.97487    1.000
    C25      C        0.25820    0.21860    0.87090    1.000
    C26      C        0.25990    0.31750    0.85060    1.000
    C27      C        0.15430    0.18420    0.70630    1.000
    C28      C        0.14560    0.28090    0.69010    1.000
    H13      H        0.10360    0.30280    0.63060    1.000
    C29      C        0.32770    0.39240    0.92230    1.000
    C30      C        0.20710    0.15070    0.79860    1.000
    C31      C        0.29890    0.18510    0.96300    1.000
    H14      H        0.33070    0.22860    0.01080    1.000
    C32      C        0.19850    0.34770    0.76120    1.000
    H15      H        0.19210    0.41270    0.74800    1.000
    C33      C        0.20100    0.05200    0.82150    1.000
    H16      H        0.16900    0.00660    0.77540    1.000
    C34      C        0.10680    0.11750    0.62510    1.000
    C35      C        0.29170    0.09020    0.98180    1.000
    H17      H        0.32030    0.06960    0.04230    1.000
    C36      C        0.24230    0.02370    0.91190    1.000
    H18      H        0.23710    0.95910    0.92630    1.000
    Mn4      Mn       0.23350    0.93464    0.53251    1.000
    O13      O        0.79120    0.54453    0.87491    1.000
    O14      O        0.78200    0.96265    0.57534    1.000
    O15      O        0.03150    0.64250    0.93840    1.000
    O16      O        0.51060    0.88154    0.52513    1.000
    C37      C        0.74180    0.71860    0.62910    1.000
    C38      C        0.74010    0.81750    0.64940    1.000
    C39      C        0.84570    0.68420    0.79370    1.000
    C40      C        0.85440    0.78090    0.80990    1.000
    H19      H        0.89640    0.80280    0.86940    1.000
    C41      C        0.67230    0.89240    0.57770    1.000
    C42      C        0.79290    0.65070    0.70140    1.000
    C43      C        0.70110    0.68510    0.53700    1.000
    H20      H        0.66930    0.72860    0.48920    1.000
    C44      C        0.80150    0.84770    0.73880    1.000
    H21      H        0.80790    0.91270    0.75200    1.000
    C45      C        0.79900    0.55200    0.67850    1.000
    H22      H        0.83100    0.50660    0.72460    1.000
    C46      C        0.89320    0.61750    0.87490    1.000
    C47      C        0.70830    0.59020    0.51820    1.000
    H23      H        0.67970    0.56960    0.45770    1.000
    C48      C        0.75770    0.52370    0.58810    1.000
    H24      H        0.76290    0.45910    0.57370    1.000
