data_functionalizedCrystal
_audit_creation_method	'EQeq! by Chris Wilmer'
_symmetry_space_group_name_H-M	'P1'
_symmetry_Int_Tables_number	1
_symmetry_cell_setting	triclinic
loop_
_symmetry_equiv_pos_as_xyz
  x,y,z
_cell_length_a	14.907
_cell_length_b	18.432
_cell_length_c	33.284
_cell_angle_alpha	97.89
_cell_angle_beta	90
_cell_angle_gamma	90
loop_
_atom_site_label
_atom_site_type_symbol
_atom_site_fract_x
_atom_site_fract_y
_atom_site_fract_z
_atom_site_charge
Mof_Cu	Cu	0.05247	0.48059	0.6129	0.865
Mof_Cu	Cu	0.13861	0.31622	0.62394	0.801
Mof_Cu	Cu	0.7444	0.04798	0.77338	0.874
Mof_Cu	Cu	0.3031	0.94814	0.62883	0.869
Mof_Cu	Cu	0.96591	0.77062	0.79261	0.853
Mof_Cu	Cu	0.21165	0.79529	0.65805	0.883
Mof_Cu	Cu	0.26234	0.47138	0.64984	0.861
Mof_Cu	Cu	0.8094	0.25487	0.5204	0.763
Mof_Cu	Cu	0.55247	0.51941	0.8871	0.866
Mof_Cu	Cu	0.63861	0.68378	0.87606	0.801
Mof_Cu	Cu	0.2444	0.95202	0.72662	0.875
Mof_Cu	Cu	0.8031	0.05186	0.87117	0.87
Mof_Cu	Cu	0.46591	0.22938	0.70739	0.854
Mof_Cu	Cu	0.71165	0.20471	0.84195	0.884
Mof_Cu	Cu	0.76234	0.52862	0.85016	0.861
Mof_Cu	Cu	0.3094	0.74513	0.9796	0.763
Mof_Cu	Cu	0.94753	0.51941	0.3871	0.866
Mof_Cu	Cu	0.86139	0.68378	0.37606	0.802
Mof_Cu	Cu	0.2556	0.95202	0.22662	0.875
Mof_Cu	Cu	0.6969	0.05186	0.37117	0.87
Mof_Cu	Cu	0.03409	0.22938	0.20739	0.854
Mof_Cu	Cu	0.78835	0.20471	0.34195	0.884
Mof_Cu	Cu	0.73766	0.52862	0.35016	0.861
Mof_Cu	Cu	0.1906	0.74513	0.4796	0.763
Mof_Cu	Cu	0.44753	0.48059	0.1129	0.866
Mof_Cu	Cu	0.36139	0.31622	0.12394	0.801
Mof_Cu	Cu	0.7556	0.04798	0.27338	0.875
Mof_Cu	Cu	0.1969	0.94814	0.12883	0.87
Mof_Cu	Cu	0.53409	0.77062	0.29261	0.854
Mof_Cu	Cu	0.28835	0.79529	0.15805	0.884
Mof_Cu	Cu	0.23766	0.47138	0.14984	0.861
Mof_Cu	Cu	0.6906	0.25487	0.0204	0.763
Mof_P 	P 	0.7373	0.834	0.5784	0.566
Mof_P 	P 	0.6617	0.6649	0.63199	0.555
Mof_P 	P 	0.2373	0.166	0.9216	0.566
Mof_P 	P 	0.1617	0.3351	0.86801	0.555
Mof_P 	P 	0.2627	0.166	0.4216	0.566
Mof_P 	P 	0.3383	0.3351	0.36801	0.555
Mof_P 	P 	0.7627	0.834	0.0784	0.566
Mof_P 	P 	0.8383	0.6649	0.13199	0.555
Mof_H 	H 	0.0613	0.6632	0.6197	-0.017
Mof_H 	H 	0.9057	0.9	0.8564	-0.045
Mof_H 	H 	0.8706	0.4108	0.5704	-0.048
Mof_H 	H 	0.2693	0.2142	0.6672	-0.06
Mof_H 	H 	0.8481	0.8908	0.7439	-0.023
Mof_H 	H 	0.5788	0.2764	0.7849	-0.01
Mof_H 	H 	0.2952	0.6447	0.6673	-0.019
Mof_H 	H 	0.5943	0.0928	0.7116	-0.013
Mof_H 	H 	0.8105	0.2865	0.4304	-0.069
Mof_H 	H 	0.9875	0.2213	0.569	-0.084
Mof_H 	H 	0.6974	0.1182	0.4667	-0.07
Mof_H 	H 	0.4246	0.3831	0.686	-0.029
Mof_H 	H 	0.5613	0.3368	0.8803	-0.017
Mof_H 	H 	0.4057	0.1	0.6436	-0.045
Mof_H 	H 	0.3706	0.5892	0.9296	-0.048
Mof_H 	H 	0.7693	0.7858	0.8328	-0.06
Mof_H 	H 	0.3481	0.1092	0.7561	-0.023
Mof_H 	H 	0.0788	0.7236	0.7151	-0.01
Mof_H 	H 	0.7952	0.3553	0.8327	-0.019
Mof_H 	H 	0.0943	0.9072	0.7884	-0.014
Mof_H 	H 	0.3105	0.7135	0.0696	-0.069
Mof_H 	H 	0.4875	0.7787	0.931	-0.084
Mof_H 	H 	0.1974	0.8818	0.0333	-0.07
Mof_H 	H 	0.9246	0.6169	0.814	-0.029
Mof_H 	H 	0.9387	0.3368	0.3803	-0.017
Mof_H 	H 	0.0943	0.1	0.1436	-0.045
Mof_H 	H 	0.1294	0.5892	0.4296	-0.048
Mof_H 	H 	0.7307	0.7858	0.3328	-0.06
Mof_H 	H 	0.1519	0.1092	0.2561	-0.023
Mof_H 	H 	0.4212	0.7236	0.2151	-0.01
Mof_H 	H 	0.7048	0.3553	0.3327	-0.019
Mof_H 	H 	0.4057	0.9072	0.2884	-0.013
Mof_H 	H 	0.1895	0.7135	0.5696	-0.069
Mof_H 	H 	0.0125	0.7787	0.431	-0.084
Mof_H 	H 	0.3026	0.8818	0.5333	-0.07
Mof_H 	H 	0.5754	0.6169	0.314	-0.029
Mof_H 	H 	0.4387	0.6632	0.1197	-0.017
Mof_H 	H 	0.5943	0.9	0.3564	-0.045
Mof_H 	H 	0.6294	0.4108	0.0704	-0.048
Mof_H 	H 	0.2307	0.2142	0.1672	-0.06
Mof_H 	H 	0.6519	0.8908	0.2439	-0.023
Mof_H 	H 	0.9212	0.2764	0.2849	-0.01
Mof_H 	H 	0.2048	0.6447	0.1673	-0.019
Mof_H 	H 	0.9057	0.0928	0.2116	-0.014
Mof_H 	H 	0.6895	0.2865	0.9304	-0.069
Mof_H 	H 	0.5125	0.2213	0.069	-0.084
Mof_H 	H 	0.8026	0.1182	0.9667	-0.07
Mof_H 	H 	0.0754	0.3831	0.186	-0.029
Mof_W 	W 	0.86075	0.89803	0.4996	0.958
Mof_W 	W 	0.66606	0.58122	0.72264	1.006
Mof_W 	W 	0.84403	0.00597	0.59024	0.977
Mof_W 	W 	0.48509	0.55616	0.65974	1.27
Mof_W 	W 	0.94147	0.74706	0.55248	1.032
Mof_W 	W 	0.68226	0.47296	0.63113	0.972
Mof_W 	W 	0.92768	0.85336	0.64219	1.053
Mof_W 	W 	0.53478	0.91615	0.61055	1.31
Mof_W 	W 	0.74411	0.71679	0.48601	0.966
Mof_W 	W 	0.86755	0.58924	0.60376	1.298
Mof_W 	W 	0.6625	0.97966	0.52777	0.984
Mof_W 	W 	0.71132	0.94094	0.67259	1.315
Mof_W 	W 	0.46574	0.75757	0.66219	1.333
Mof_W 	W 	0.85531	0.6941	0.69394	1.335
Mof_W 	W 	0.54995	0.7987	0.51366	1.013
Mof_W 	W 	0.64172	0.78187	0.7246	1.026
Mof_W 	W 	0.48128	0.64011	0.56433	1.047
Mof_W 	W 	0.67395	0.55802	0.53716	1.002
Mof_W 	W 	0.36075	0.10197	0.0004	0.956
Mof_W 	W 	0.16606	0.41878	0.77736	1.006
Mof_W 	W 	0.34403	0.99403	0.90976	0.977
Mof_W 	W 	0.98509	0.44384	0.84026	1.268
Mof_W 	W 	0.44147	0.25294	0.94752	1.032
Mof_W 	W 	0.18226	0.52704	0.86887	0.972
Mof_W 	W 	0.42768	0.14664	0.85781	1.053
Mof_W 	W 	0.03478	0.08385	0.88945	1.315
Mof_W 	W 	0.24411	0.28321	0.01399	0.964
Mof_W 	W 	0.36755	0.41076	0.89624	1.298
Mof_W 	W 	0.1625	0.02034	0.97223	0.986
Mof_W 	W 	0.21132	0.05906	0.82741	1.316
Mof_W 	W 	0.96574	0.24243	0.83781	1.33
Mof_W 	W 	0.35531	0.3059	0.80606	1.335
Mof_W 	W 	0.04995	0.2013	0.98634	1.015
Mof_W 	W 	0.14172	0.21813	0.7754	1.027
Mof_W 	W 	0.98128	0.35989	0.93567	1.044
Mof_W 	W 	0.17395	0.44198	0.96284	1.002
Mof_W 	W 	0.13925	0.10197	0.5004	0.958
Mof_W 	W 	0.33394	0.41878	0.27736	1.006
Mof_W 	W 	0.15597	0.99403	0.40976	0.977
Mof_W 	W 	0.51491	0.44384	0.34026	1.27
Mof_W 	W 	0.05853	0.25294	0.44752	1.032
Mof_W 	W 	0.31774	0.52704	0.36887	0.972
Mof_W 	W 	0.07232	0.14664	0.35781	1.053
Mof_W 	W 	0.46522	0.08385	0.38945	1.31
Mof_W 	W 	0.25589	0.28321	0.51399	0.966
Mof_W 	W 	0.13245	0.41076	0.39624	1.298
Mof_W 	W 	0.3375	0.02034	0.47223	0.984
Mof_W 	W 	0.28868	0.05906	0.32741	1.315
Mof_W 	W 	0.53426	0.24243	0.33781	1.333
Mof_W 	W 	0.14469	0.3059	0.30606	1.335
Mof_W 	W 	0.45005	0.2013	0.48634	1.013
Mof_W 	W 	0.35828	0.21813	0.2754	1.026
Mof_W 	W 	0.51872	0.35989	0.43567	1.047
Mof_W 	W 	0.32605	0.44198	0.46284	1.002
Mof_W 	W 	0.63925	0.89803	0.9996	0.956
Mof_W 	W 	0.83394	0.58122	0.22264	1.006
Mof_W 	W 	0.65597	0.00597	0.09024	0.977
Mof_W 	W 	0.01491	0.55616	0.15974	1.268
Mof_W 	W 	0.55853	0.74706	0.05248	1.032
Mof_W 	W 	0.81774	0.47296	0.13113	0.972
Mof_W 	W 	0.57232	0.85336	0.14219	1.053
Mof_W 	W 	0.96522	0.91615	0.11055	1.315
Mof_W 	W 	0.75589	0.71679	0.98601	0.964
Mof_W 	W 	0.63245	0.58924	0.10376	1.298
Mof_W 	W 	0.8375	0.97966	0.02777	0.986
Mof_W 	W 	0.78868	0.94094	0.17259	1.316
Mof_W 	W 	0.03426	0.75757	0.16219	1.33
Mof_W 	W 	0.64469	0.6941	0.19394	1.335
Mof_W 	W 	0.95005	0.7987	0.01366	1.015
Mof_W 	W 	0.85828	0.78187	0.2246	1.027
Mof_W 	W 	0.01872	0.64011	0.06433	1.044
Mof_W 	W 	0.82605	0.55802	0.03716	1.002
Mof_C 	C 	0.1113	0.6434	0.6308	0.102
Mof_C 	C 	0.883	0.9104	0.8319	0.106
Mof_C 	C 	0.9109	0.3744	0.5752	0.077
Mof_C 	C 	0.2931	0.2608	0.6672	0.077
Mof_C 	C 	0.8501	0.9061	0.7717	0.101
Mof_C 	C 	0.5972	0.2302	0.7729	0.082
Mof_C 	C 	0.2384	0.634	0.6566	0.108
Mof_C 	C 	0.6046	0.1301	0.7329	0.08
Mof_C 	C 	0.7821	0.2418	0.431	0.089
Mof_C 	C 	0.9739	0.2709	0.5741	0.073
Mof_C 	C 	0.7211	0.151	0.4506	0.104
Mof_C 	C 	0.3765	0.3528	0.6775	0.106
Mof_C 	C 	0.6113	0.3566	0.8692	0.102
Mof_C 	C 	0.383	0.0896	0.6681	0.106
Mof_C 	C 	0.4109	0.6256	0.9248	0.077
Mof_C 	C 	0.7931	0.7392	0.8328	0.077
Mof_C 	C 	0.3501	0.0939	0.7283	0.101
Mof_C 	C 	0.0972	0.7698	0.7271	0.082
Mof_C 	C 	0.7384	0.366	0.8434	0.107
Mof_C 	C 	0.1046	0.8699	0.7671	0.08
Mof_C 	C 	0.2821	0.7582	0.069	0.089
Mof_C 	C 	0.4739	0.7291	0.9259	0.074
Mof_C 	C 	0.2211	0.849	0.0494	0.104
Mof_C 	C 	0.8765	0.6472	0.8225	0.106
Mof_C 	C 	0.8887	0.3566	0.3692	0.102
Mof_C 	C 	0.117	0.0896	0.1681	0.106
Mof_C 	C 	0.0891	0.6256	0.4248	0.077
Mof_C 	C 	0.7069	0.7392	0.3328	0.077
Mof_C 	C 	0.1499	0.0939	0.2283	0.101
Mof_C 	C 	0.4028	0.7698	0.2271	0.082
Mof_C 	C 	0.7616	0.366	0.3434	0.108
Mof_C 	C 	0.3954	0.8699	0.2671	0.08
Mof_C 	C 	0.2179	0.7582	0.569	0.089
Mof_C 	C 	0.0261	0.7291	0.4259	0.073
Mof_C 	C 	0.2789	0.849	0.5494	0.104
Mof_C 	C 	0.6235	0.6472	0.3225	0.106
Mof_C 	C 	0.3887	0.6434	0.1308	0.102
Mof_C 	C 	0.617	0.9104	0.3319	0.106
Mof_C 	C 	0.5891	0.3744	0.0752	0.077
Mof_C 	C 	0.2069	0.2608	0.1672	0.077
Mof_C 	C 	0.6499	0.9061	0.2717	0.101
Mof_C 	C 	0.9028	0.2302	0.2729	0.082
Mof_C 	C 	0.2616	0.634	0.1566	0.107
Mof_C 	C 	0.8954	0.1301	0.2329	0.08
Mof_C 	C 	0.7179	0.2418	0.931	0.089
Mof_C 	C 	0.5261	0.2709	0.0741	0.074
Mof_C 	C 	0.7789	0.151	0.9506	0.104
Mof_C 	C 	0.1235	0.3528	0.1775	0.106
Mof_N 	N 	0.8363	0.9701	0.8278	-0.214
Mof_N 	N 	0.1227	0.5744	0.6314	-0.216
Mof_N 	N 	0.6646	0.1267	0.7621	-0.211
Mof_N 	N 	0.8931	0.8686	0.7981	-0.248
Mof_N 	N 	0.6606	0.1928	0.7877	-0.216
Mof_N 	N 	0.2083	0.5678	0.6482	-0.23
Mof_N 	N 	0.3741	0.2834	0.6814	-0.261
Mof_N 	N 	0.2527	0.3161	0.6531	-0.242
Mof_N 	N 	0.0266	0.3205	0.5946	-0.254
Mof_N 	N 	0.7588	0.2158	0.4659	-0.295
Mof_N 	N 	0.7214	0.1393	0.4118	-0.217
Mof_N 	N 	0.7611	0.1985	0.3995	-0.214
Mof_N 	N 	0.8983	0.3006	0.5614	-0.29
Mof_N 	N 	0.304	0.3761	0.6602	-0.227
Mof_N 	N 	0.1816	0.6847	0.6486	-0.24
Mof_N 	N 	0.984	0.3871	0.595	-0.217
Mof_N 	N 	0.5605	0.1942	0.7379	-0.259
Mof_N 	N 	0.8119	0.9658	0.7892	-0.224
Mof_N 	N 	0.3363	0.0299	0.6722	-0.213
Mof_N 	N 	0.6227	0.4256	0.8686	-0.216
Mof_N 	N 	0.1646	0.8733	0.7379	-0.211
Mof_N 	N 	0.3931	0.1314	0.7019	-0.248
Mof_N 	N 	0.1606	0.8072	0.7123	-0.216
Mof_N 	N 	0.7083	0.4322	0.8518	-0.23
Mof_N 	N 	0.8741	0.7166	0.8186	-0.261
Mof_N 	N 	0.7527	0.6839	0.8469	-0.242
Mof_N 	N 	0.5266	0.6795	0.9054	-0.255
Mof_N 	N 	0.2588	0.7842	0.0341	-0.295
Mof_N 	N 	0.2214	0.8607	0.0882	-0.217
Mof_N 	N 	0.2611	0.8015	0.1005	-0.214
Mof_N 	N 	0.3983	0.6994	0.9386	-0.29
Mof_N 	N 	0.804	0.6239	0.8398	-0.227
Mof_N 	N 	0.6816	0.3153	0.8514	-0.24
Mof_N 	N 	0.484	0.6129	0.905	-0.216
Mof_N 	N 	0.0605	0.8058	0.7621	-0.259
Mof_N 	N 	0.3119	0.0342	0.7108	-0.224
Mof_N 	N 	0.1637	0.0299	0.1722	-0.214
Mof_N 	N 	0.8773	0.4256	0.3686	-0.216
Mof_N 	N 	0.3354	0.8733	0.2379	-0.211
Mof_N 	N 	0.1069	0.1314	0.2019	-0.248
Mof_N 	N 	0.3394	0.8072	0.2123	-0.216
Mof_N 	N 	0.7917	0.4322	0.3518	-0.23
Mof_N 	N 	0.6259	0.7166	0.3186	-0.261
Mof_N 	N 	0.7473	0.6839	0.3469	-0.242
Mof_N 	N 	0.9734	0.6795	0.4054	-0.254
Mof_N 	N 	0.2412	0.7842	0.5341	-0.295
Mof_N 	N 	0.2786	0.8607	0.5882	-0.217
Mof_N 	N 	0.2389	0.8015	0.6005	-0.214
Mof_N 	N 	0.1017	0.6994	0.4386	-0.29
Mof_N 	N 	0.696	0.6239	0.3398	-0.227
Mof_N 	N 	0.8184	0.3153	0.3514	-0.24
Mof_N 	N 	0.016	0.6129	0.405	-0.217
Mof_N 	N 	0.4395	0.8058	0.2621	-0.259
Mof_N 	N 	0.1881	0.0342	0.2108	-0.224
Mof_N 	N 	0.6637	0.9701	0.3278	-0.213
Mof_N 	N 	0.3773	0.5744	0.1314	-0.216
Mof_N 	N 	0.8354	0.1267	0.2621	-0.211
Mof_N 	N 	0.6069	0.8686	0.2981	-0.248
Mof_N 	N 	0.8394	0.1928	0.2877	-0.216
Mof_N 	N 	0.2917	0.5678	0.1482	-0.23
Mof_N 	N 	0.1259	0.2834	0.1814	-0.261
Mof_N 	N 	0.2473	0.3161	0.1531	-0.242
Mof_N 	N 	0.4734	0.3205	0.0946	-0.255
Mof_N 	N 	0.7412	0.2158	0.9659	-0.295
Mof_N 	N 	0.7786	0.1393	0.9118	-0.217
Mof_N 	N 	0.7389	0.1985	0.8995	-0.214
Mof_N 	N 	0.6017	0.3006	0.0614	-0.29
Mof_N 	N 	0.196	0.3761	0.1602	-0.227
Mof_N 	N 	0.3184	0.6847	0.1486	-0.24
Mof_N 	N 	0.516	0.3871	0.095	-0.216
Mof_N 	N 	0.9395	0.1942	0.2379	-0.259
Mof_N 	N 	0.6881	0.9658	0.2892	-0.224
Mof_O 	O 	0.7372	0.0963	0.8319	-0.573
Mof_O 	O 	0.1399	0.426	0.6414	-0.596
Mof_O 	O 	0.9167	0.9363	0.6117	-0.458
Mof_O 	O 	0.4612	0.6569	0.6753	-0.475
Mof_O 	O 	0.7797	0.6178	0.7118	-0.465
Mof_O 	O 	0.6953	0.4918	0.6909	-0.441
Mof_O 	O 	0.6161	0.7324	0.6563	-0.366
Mof_O 	O 	0.7661	0.6696	0.6351	-0.378
Mof_O 	O 	0.4597	0.7149	0.6078	-0.495
Mof_O 	O 	0.7653	0.9018	0.5584	-0.373
Mof_O 	O 	0.4321	0.9623	0.6102	-0.522
Mof_O 	O 	0.5414	0.5557	0.7123	-0.447
Mof_O 	O 	0.9291	0.7007	0.7336	-0.503
Mof_O 	O 	0.7307	0.0041	0.7159	-0.54
Mof_O 	O 	0.4988	0.8473	0.6457	-0.502
Mof_O 	O 	0.6752	0.8631	0.6133	-0.383
Mof_O 	O 	0.5961	0.9749	0.5755	-0.475
Mof_O 	O 	0.696	0.6361	0.5063	-0.462
Mof_O 	O 	0.6599	0.8694	0.7	-0.477
Mof_O 	O 	0.9137	0.6209	0.6586	-0.488
Mof_O 	O 	0.9081	0.7669	0.6648	-0.47
Mof_O 	O 	0.7956	0.5171	0.627	-0.471
Mof_O 	O 	0.9311	0.8336	0.5289	-0.464
Mof_O 	O 	0.5954	0.9716	0.6569	-0.475
Mof_O 	O 	0.8519	0.7079	0.5174	-0.467
Mof_O 	O 	0.5202	0.7082	0.5312	-0.467
Mof_O 	O 	0.7657	0.76	0.7129	-0.495
Mof_O 	O 	0.7916	0.5758	0.5597	-0.494
Mof_O 	O 	0.5463	0.5664	0.5316	-0.46
Mof_O 	O 	0.9948	0.8038	0.5992	-0.478
Mof_O 	O 	0.824	0.802	0.5944	-0.331
Mof_O 	O 	0.628	0.6817	0.7337	-0.461
Mof_O 	O 	0.7606	0.9597	0.4893	-0.45
Mof_O 	O 	0.9178	0.6724	0.5853	-0.469
Mof_O 	O 	0.7488	0.0435	0.5598	-0.46
Mof_O 	O 	0.5161	0.7892	0.7153	-0.471
Mof_O 	O 	0.655	0.4963	0.5795	-0.466
Mof_O 	O 	0.5542	0.4707	0.6416	-0.468
Mof_O 	O 	0.629	0.6517	0.5883	-0.342
Mof_O 	O 	0.8227	0.8906	0.6691	-0.481
Mof_O 	O 	0.902	0.9782	0.5384	-0.451
Mof_O 	O 	0.689	0.7795	0.5463	-0.328
Mof_O 	O 	0.6273	0.7493	0.4733	-0.464
Mof_O 	O 	0.7638	0.9972	0.6327	-0.467
Mof_O 	O 	0.5163	0.8464	0.5656	-0.494
Mof_O 	O 	0.959	0.5309	0.5872	-0.54
Mof_O 	O 	0.3798	0.5171	0.6683	-0.523
Mof_O 	O 	0.4727	0.5746	0.6053	-0.483
Mof_O 	O 	0.6092	0.8911	0.5068	-0.462
Mof_O 	O 	0.3545	0.7774	0.6734	-0.507
Mof_O 	O 	0.6335	0.5958	0.653	-0.393
Mof_O 	O 	0.7934	0.8142	0.4811	-0.463
Mof_O 	O 	0.2372	0.9037	0.6681	-0.573
Mof_O 	O 	0.6399	0.574	0.8586	-0.597
Mof_O 	O 	0.4167	0.0637	0.8883	-0.459
Mof_O 	O 	0.9612	0.3431	0.8247	-0.475
Mof_O 	O 	0.2797	0.3822	0.7882	-0.465
Mof_O 	O 	0.1953	0.5082	0.8091	-0.441
Mof_O 	O 	0.1161	0.2676	0.8437	-0.365
Mof_O 	O 	0.2661	0.3304	0.8649	-0.378
Mof_O 	O 	0.9597	0.2851	0.8922	-0.496
Mof_O 	O 	0.2653	0.0982	0.9416	-0.373
Mof_O 	O 	0.9321	0.0377	0.8898	-0.524
Mof_O 	O 	0.0414	0.4443	0.7877	-0.446
Mof_O 	O 	0.4291	0.2993	0.7664	-0.503
Mof_O 	O 	0.2307	0.9959	0.7841	-0.541
Mof_O 	O 	0.9988	0.1527	0.8543	-0.504
Mof_O 	O 	0.1752	0.1369	0.8867	-0.384
Mof_O 	O 	0.0961	0.0251	0.9245	-0.475
Mof_O 	O 	0.196	0.3639	0.9937	-0.461
Mof_O 	O 	0.1599	0.1306	0.8	-0.477
Mof_O 	O 	0.4137	0.3791	0.8414	-0.487
Mof_O 	O 	0.4081	0.2331	0.8352	-0.47
Mof_O 	O 	0.2956	0.4829	0.873	-0.471
Mof_O 	O 	0.4311	0.1664	0.9711	-0.464
Mof_O 	O 	0.0954	0.0284	0.8431	-0.474
Mof_O 	O 	0.3519	0.2921	0.9826	-0.466
Mof_O 	O 	0.0202	0.2918	0.9688	-0.466
Mof_O 	O 	0.2657	0.24	0.7871	-0.495
Mof_O 	O 	0.2916	0.4242	0.9403	-0.494
Mof_O 	O 	0.0463	0.4336	0.9684	-0.459
Mof_O 	O 	0.4948	0.1962	0.9008	-0.479
Mof_O 	O 	0.324	0.198	0.9056	-0.331
Mof_O 	O 	0.128	0.3183	0.7663	-0.461
Mof_O 	O 	0.2606	0.0403	0.0107	-0.451
Mof_O 	O 	0.4178	0.3276	0.9147	-0.469
Mof_O 	O 	0.2488	0.9565	0.9402	-0.461
Mof_O 	O 	0.0161	0.2108	0.7847	-0.469
Mof_O 	O 	0.155	0.5037	0.9205	-0.466
Mof_O 	O 	0.0542	0.5293	0.8584	-0.467
Mof_O 	O 	0.129	0.3483	0.9117	-0.342
Mof_O 	O 	0.3227	0.1094	0.8309	-0.481
Mof_O 	O 	0.402	0.0218	0.9616	-0.451
Mof_O 	O 	0.189	0.2205	0.9537	-0.327
Mof_O 	O 	0.1273	0.2507	0.0267	-0.464
Mof_O 	O 	0.2638	0.0028	0.8673	-0.467
Mof_O 	O 	0.0163	0.1536	0.9344	-0.494
Mof_O 	O 	0.459	0.4691	0.9128	-0.539
Mof_O 	O 	0.8798	0.4829	0.8317	-0.522
Mof_O 	O 	0.9727	0.4254	0.8947	-0.483
Mof_O 	O 	0.1092	0.1089	0.9932	-0.462
Mof_O 	O 	0.8545	0.2226	0.8266	-0.507
Mof_O 	O 	0.1335	0.4042	0.847	-0.393
Mof_O 	O 	0.2934	0.1858	0.0189	-0.464
Mof_O 	O 	0.2628	0.9037	0.1681	-0.573
Mof_O 	O 	0.8601	0.574	0.3586	-0.596
Mof_O 	O 	0.0833	0.0637	0.3883	-0.458
Mof_O 	O 	0.5388	0.3431	0.3247	-0.475
Mof_O 	O 	0.2203	0.3822	0.2882	-0.465
Mof_O 	O 	0.3047	0.5082	0.3091	-0.441
Mof_O 	O 	0.3839	0.2676	0.3437	-0.366
Mof_O 	O 	0.2339	0.3304	0.3649	-0.378
Mof_O 	O 	0.5403	0.2851	0.3922	-0.495
Mof_O 	O 	0.2347	0.0982	0.4416	-0.373
Mof_O 	O 	0.5679	0.0377	0.3898	-0.522
Mof_O 	O 	0.4586	0.4443	0.2877	-0.447
Mof_O 	O 	0.0709	0.2993	0.2664	-0.503
Mof_O 	O 	0.2693	0.9959	0.2841	-0.54
Mof_O 	O 	0.5012	0.1527	0.3543	-0.502
Mof_O 	O 	0.3248	0.1369	0.3867	-0.383
Mof_O 	O 	0.4039	0.0251	0.4245	-0.475
Mof_O 	O 	0.304	0.3639	0.4937	-0.462
Mof_O 	O 	0.3401	0.1306	0.3	-0.477
Mof_O 	O 	0.0863	0.3791	0.3414	-0.488
Mof_O 	O 	0.0919	0.2331	0.3352	-0.47
Mof_O 	O 	0.2044	0.4829	0.373	-0.471
Mof_O 	O 	0.0689	0.1664	0.4711	-0.464
Mof_O 	O 	0.4046	0.0284	0.3431	-0.475
Mof_O 	O 	0.1481	0.2921	0.4826	-0.467
Mof_O 	O 	0.4798	0.2918	0.4688	-0.467
Mof_O 	O 	0.2343	0.24	0.2871	-0.495
Mof_O 	O 	0.2084	0.4242	0.4403	-0.494
Mof_O 	O 	0.4537	0.4336	0.4684	-0.46
Mof_O 	O 	0.0052	0.1962	0.4008	-0.478
Mof_O 	O 	0.176	0.198	0.4056	-0.331
Mof_O 	O 	0.372	0.3183	0.2663	-0.461
Mof_O 	O 	0.2394	0.0403	0.5107	-0.45
Mof_O 	O 	0.0822	0.3276	0.4147	-0.469
Mof_O 	O 	0.2512	0.9565	0.4402	-0.46
Mof_O 	O 	0.4839	0.2108	0.2847	-0.471
Mof_O 	O 	0.345	0.5037	0.4205	-0.466
Mof_O 	O 	0.4458	0.5293	0.3584	-0.468
Mof_O 	O 	0.371	0.3483	0.4117	-0.342
Mof_O 	O 	0.1773	0.1094	0.3309	-0.481
Mof_O 	O 	0.098	0.0218	0.4616	-0.451
Mof_O 	O 	0.311	0.2205	0.4537	-0.328
Mof_O 	O 	0.3727	0.2507	0.5267	-0.464
Mof_O 	O 	0.2362	0.0028	0.3673	-0.467
Mof_O 	O 	0.4837	0.1536	0.4344	-0.494
Mof_O 	O 	0.041	0.4691	0.4128	-0.54
Mof_O 	O 	0.6202	0.4829	0.3317	-0.523
Mof_O 	O 	0.5273	0.4254	0.3947	-0.483
Mof_O 	O 	0.3908	0.1089	0.4932	-0.462
Mof_O 	O 	0.6455	0.2226	0.3266	-0.507
Mof_O 	O 	0.3665	0.4042	0.347	-0.393
Mof_O 	O 	0.2066	0.1858	0.5189	-0.463
Mof_O 	O 	0.7628	0.0963	0.3319	-0.573
Mof_O 	O 	0.3601	0.426	0.1414	-0.597
Mof_O 	O 	0.5833	0.9363	0.1117	-0.459
Mof_O 	O 	0.0388	0.6569	0.1753	-0.475
Mof_O 	O 	0.7203	0.6178	0.2118	-0.465
Mof_O 	O 	0.8047	0.4918	0.1909	-0.441
Mof_O 	O 	0.8839	0.7324	0.1563	-0.365
Mof_O 	O 	0.7339	0.6696	0.1351	-0.378
Mof_O 	O 	0.0403	0.7149	0.1078	-0.496
Mof_O 	O 	0.7347	0.9018	0.0584	-0.373
Mof_O 	O 	0.0679	0.9623	0.1102	-0.524
Mof_O 	O 	0.9586	0.5557	0.2123	-0.446
Mof_O 	O 	0.5709	0.7007	0.2336	-0.503
Mof_O 	O 	0.7693	0.0041	0.2159	-0.541
Mof_O 	O 	0.0012	0.8473	0.1457	-0.504
Mof_O 	O 	0.8248	0.8631	0.1133	-0.384
Mof_O 	O 	0.9039	0.9749	0.0755	-0.475
Mof_O 	O 	0.804	0.6361	0.0063	-0.461
Mof_O 	O 	0.8401	0.8694	0.2	-0.477
Mof_O 	O 	0.5863	0.6209	0.1586	-0.487
Mof_O 	O 	0.5919	0.7669	0.1648	-0.47
Mof_O 	O 	0.7044	0.5171	0.127	-0.471
Mof_O 	O 	0.5689	0.8336	0.0289	-0.464
Mof_O 	O 	0.9046	0.9716	0.1569	-0.474
Mof_O 	O 	0.6481	0.7079	0.0174	-0.466
Mof_O 	O 	0.9798	0.7082	0.0312	-0.466
Mof_O 	O 	0.7343	0.76	0.2129	-0.495
Mof_O 	O 	0.7084	0.5758	0.0597	-0.494
Mof_O 	O 	0.9537	0.5664	0.0316	-0.459
Mof_O 	O 	0.5052	0.8038	0.0992	-0.479
Mof_O 	O 	0.676	0.802	0.0944	-0.331
Mof_O 	O 	0.872	0.6817	0.2337	-0.461
Mof_O 	O 	0.7394	0.9597	0.9893	-0.451
Mof_O 	O 	0.5822	0.6724	0.0853	-0.469
Mof_O 	O 	0.7512	0.0435	0.0598	-0.461
Mof_O 	O 	0.9839	0.7892	0.2153	-0.469
Mof_O 	O 	0.845	0.4963	0.0795	-0.466
Mof_O 	O 	0.9458	0.4707	0.1416	-0.467
Mof_O 	O 	0.871	0.6517	0.0883	-0.342
Mof_O 	O 	0.6773	0.8906	0.1691	-0.481
Mof_O 	O 	0.598	0.9782	0.0384	-0.451
Mof_O 	O 	0.811	0.7795	0.0463	-0.327
Mof_O 	O 	0.8727	0.7493	0.9733	-0.464
Mof_O 	O 	0.7362	0.9972	0.1327	-0.467
Mof_O 	O 	0.9837	0.8464	0.0656	-0.494
Mof_O 	O 	0.541	0.5309	0.0872	-0.539
Mof_O 	O 	0.1202	0.5171	0.1683	-0.522
Mof_O 	O 	0.0273	0.5746	0.1053	-0.483
Mof_O 	O 	0.8908	0.8911	0.0068	-0.462
Mof_O 	O 	0.1455	0.7774	0.1734	-0.507
Mof_O 	O 	0.8665	0.5958	0.153	-0.393
Mof_O 	O 	0.7066	0.8142	0.9811	-0.464
_end
