data_functionalizedCrystal
_audit_creation_method	'EQeq! by Chris Wilmer'
_symmetry_space_group_name_H-M	'P1'
_symmetry_Int_Tables_number	1
_symmetry_cell_setting	triclinic
loop_
_symmetry_equiv_pos_as_xyz
  x,y,z
_cell_length_a	11.452
_cell_length_b	15.829
_cell_length_c	12.685
_cell_angle_alpha	90
_cell_angle_beta	90
_cell_angle_gamma	90
loop_
_atom_site_label
_atom_site_type_symbol
_atom_site_fract_x
_atom_site_fract_y
_atom_site_fract_z
_atom_site_charge
Mof_Eu	Eu	0.75	0.92234	0.47706	2.521
Mof_Eu	Eu	0.75	0.92558	0.97728	2.281
Mof_Eu	Eu	0.25	0.57766	0.97706	2.529
Mof_Eu	Eu	0.25	0.57442	0.47728	2.3
Mof_Eu	Eu	0.25	0.07766	0.52294	2.522
Mof_Eu	Eu	0.25	0.07442	0.02272	2.282
Mof_Eu	Eu	0.75	0.42234	0.02294	2.53
Mof_Eu	Eu	0.75	0.42558	0.52272	2.301
Mof_Sr	Sr	0.75	0.67211	0.62894	1.348
Mof_Sr	Sr	0.25	0.82789	0.12894	1.359
Mof_Sr	Sr	0.25	0.32789	0.37106	1.348
Mof_Sr	Sr	0.75	0.17211	0.87106	1.359
Mof_H 	H 	0.6894	0.7522	0.4095	0.374
Mof_H 	H 	0.3106	0.7478	0.9095	0.375
Mof_H 	H 	0.1894	0.2478	0.5905	0.374
Mof_H 	H 	0.8106	0.2522	0.0905	0.375
Mof_H 	H 	0.3106	0.2478	0.5905	0.374
Mof_H 	H 	0.6894	0.2522	0.0905	0.375
Mof_H 	H 	0.8106	0.7522	0.4095	0.374
Mof_H 	H 	0.1894	0.7478	0.9095	0.375
Mof_C 	C 	0.9769	0.0423	0.4771	0.3
Mof_C 	C 	0.9752	0.0425	0.0197	0.281
Mof_C 	C 	0.6832	0.9069	0.2262	0.259
Mof_C 	C 	0.0231	0.4577	0.9771	0.294
Mof_C 	C 	0.0248	0.4575	0.5197	0.275
Mof_C 	C 	0.3168	0.5931	0.7262	0.259
Mof_C 	C 	0.4769	0.9577	0.5229	0.294
Mof_C 	C 	0.4752	0.9575	0.9803	0.275
Mof_C 	C 	0.1832	0.0931	0.7738	0.259
Mof_C 	C 	0.5231	0.5423	0.0229	0.295
Mof_C 	C 	0.5248	0.5425	0.4803	0.276
Mof_C 	C 	0.8168	0.4069	0.2738	0.259
Mof_C 	C 	0.0231	0.9577	0.5229	0.3
Mof_C 	C 	0.0248	0.9575	0.9803	0.281
Mof_C 	C 	0.3168	0.0931	0.7738	0.259
Mof_C 	C 	0.9769	0.5423	0.0229	0.294
Mof_C 	C 	0.9752	0.5425	0.4803	0.275
Mof_C 	C 	0.6832	0.4069	0.2738	0.259
Mof_C 	C 	0.5231	0.0423	0.4771	0.294
Mof_C 	C 	0.5248	0.0425	0.0197	0.275
Mof_C 	C 	0.8168	0.9069	0.2262	0.259
Mof_C 	C 	0.4769	0.4577	0.9771	0.295
Mof_C 	C 	0.4752	0.4575	0.5197	0.276
Mof_C 	C 	0.1832	0.5931	0.7262	0.259
Mof_C 	C 	0.75	0.8754	0.7304	0.31
Mof_C 	C 	0.75	0.9729	0.7269	0.283
Mof_C 	C 	0.25	0.6246	0.2304	0.306
Mof_C 	C 	0.25	0.5271	0.2269	0.302
Mof_C 	C 	0.25	0.1246	0.2696	0.31
Mof_C 	C 	0.25	0.0271	0.2731	0.283
Mof_C 	C 	0.75	0.3754	0.7696	0.306
Mof_C 	C 	0.75	0.4729	0.7731	0.302
Mof_O 	O 	0.8733	0.0458	0.4536	-0.479
Mof_O 	O 	0.8682	0.055	0.0036	-0.525
Mof_O 	O 	0.6344	0.9047	0.1382	-0.486
Mof_O 	O 	0.6336	0.907	0.3146	-0.484
Mof_O 	O 	0.0504	0.1013	0.469	-0.508
Mof_O 	O 	0.0447	0.0918	0.0651	-0.498
Mof_O 	O 	0.1267	0.4542	0.9536	-0.478
Mof_O 	O 	0.1318	0.445	0.5036	-0.525
Mof_O 	O 	0.3656	0.5953	0.6382	-0.491
Mof_O 	O 	0.3664	0.593	0.8146	-0.486
Mof_O 	O 	0.9496	0.3987	0.969	-0.501
Mof_O 	O 	0.9553	0.4082	0.5651	-0.491
Mof_O 	O 	0.3733	0.9542	0.5464	-0.478
Mof_O 	O 	0.3682	0.945	0.9964	-0.525
Mof_O 	O 	0.1344	0.0953	0.8618	-0.488
Mof_O 	O 	0.1336	0.093	0.6854	-0.486
Mof_O 	O 	0.5504	0.8987	0.531	-0.502
Mof_O 	O 	0.5447	0.9082	0.9349	-0.491
Mof_O 	O 	0.6267	0.5458	0.0464	-0.478
Mof_O 	O 	0.6318	0.555	0.4964	-0.525
Mof_O 	O 	0.8656	0.4047	0.3618	-0.491
Mof_O 	O 	0.8664	0.407	0.1854	-0.486
Mof_O 	O 	0.4496	0.6013	0.031	-0.501
Mof_O 	O 	0.4553	0.5918	0.4349	-0.492
Mof_O 	O 	0.1267	0.9542	0.5464	-0.479
Mof_O 	O 	0.1318	0.945	0.9964	-0.525
Mof_O 	O 	0.3656	0.0953	0.8618	-0.486
Mof_O 	O 	0.3664	0.093	0.6854	-0.484
Mof_O 	O 	0.9496	0.8987	0.531	-0.508
Mof_O 	O 	0.9553	0.9082	0.9349	-0.498
Mof_O 	O 	0.8733	0.5458	0.0464	-0.478
Mof_O 	O 	0.8682	0.555	0.4964	-0.525
Mof_O 	O 	0.6344	0.4047	0.3618	-0.491
Mof_O 	O 	0.6336	0.407	0.1854	-0.486
Mof_O 	O 	0.0504	0.6013	0.031	-0.501
Mof_O 	O 	0.0447	0.5918	0.4349	-0.491
Mof_O 	O 	0.6267	0.0458	0.4536	-0.478
Mof_O 	O 	0.6318	0.055	0.0036	-0.525
Mof_O 	O 	0.8656	0.9047	0.1382	-0.488
Mof_O 	O 	0.8664	0.907	0.3146	-0.486
Mof_O 	O 	0.4496	0.1013	0.469	-0.502
Mof_O 	O 	0.4553	0.0918	0.0651	-0.491
Mof_O 	O 	0.3733	0.4542	0.9536	-0.478
Mof_O 	O 	0.3682	0.445	0.5036	-0.525
Mof_O 	O 	0.1344	0.5953	0.6382	-0.491
Mof_O 	O 	0.1336	0.593	0.8146	-0.486
Mof_O 	O 	0.5504	0.3987	0.969	-0.501
Mof_O 	O 	0.5447	0.4082	0.5651	-0.492
Mof_O 	O 	0.75	0.8383	0.6423	-0.582
Mof_O 	O 	0.75	0.0079	0.6399	-0.485
Mof_O 	O 	0.75	0.8418	0.8179	-0.546
Mof_O 	O 	0.75	0.0089	0.8144	-0.56
Mof_O 	O 	0.75	0.7646	0.4432	-1.049
Mof_O 	O 	0.25	0.6617	0.1423	-0.58
Mof_O 	O 	0.25	0.4921	0.1399	-0.496
Mof_O 	O 	0.25	0.6582	0.3179	-0.546
Mof_O 	O 	0.25	0.4911	0.3144	-0.574
Mof_O 	O 	0.25	0.7354	0.9432	-1.052
Mof_O 	O 	0.25	0.1617	0.3577	-0.582
Mof_O 	O 	0.25	0.9921	0.3601	-0.485
Mof_O 	O 	0.25	0.1582	0.1821	-0.546
Mof_O 	O 	0.25	0.9911	0.1856	-0.56
Mof_O 	O 	0.25	0.2354	0.5568	-1.049
Mof_O 	O 	0.75	0.3383	0.8577	-0.58
Mof_O 	O 	0.75	0.5079	0.8601	-0.496
Mof_O 	O 	0.75	0.3418	0.6821	-0.546
Mof_O 	O 	0.75	0.5089	0.6856	-0.574
Mof_O 	O 	0.75	0.2646	0.0568	-1.052
_end
