# CIF file generated by openbabel 3.1.0, see https://openbabel.org
data_I
_chemical_name_common 'image0'
_cell_length_a 24.5711
_cell_length_b 13.2963
_cell_length_c 14.7313
_cell_angle_alpha 90
_cell_angle_beta 96.735
_cell_angle_gamma 90
_space_group_name_H-M_alt 'P 1'
_space_group_name_Hall 'P 1'
loop_
    _symmetry_equiv_pos_as_xyz
    x,y,z
loop_
    _atom_site_label
    _atom_site_type_symbol
    _atom_site_fract_x
    _atom_site_fract_y
    _atom_site_fract_z
    _atom_site_occupancy
    Eu1      Eu       0.32877    0.79250    0.03020    1.000
    O1       O        0.30450    0.73430    0.87940    1.000
    O2       O        0.22569    0.64930    0.85390    1.000
    O3       O        0.20160    0.43960    0.56240    1.000
    O4       O        0.27490    0.35300    0.54240    1.000
    O5       O        0.60060    0.66600    0.50070    1.000
    O6       O        0.58690    0.81970    0.54380    1.000
    C1       C        0.27310    0.67240    0.83650    1.000
    C2       C        0.29510    0.62140    0.75620    1.000
    C3       C        0.26420    0.55190    0.70240    1.000
    H1       H        0.22840    0.53840    0.71330    1.000
    C4       C        0.28620    0.50240    0.63270    1.000
    C5       C        0.25200    0.42640    0.57680    1.000
    C6       C        0.33920    0.52400    0.61510    1.000
    H2       H        0.35450    0.48780    0.57040    1.000
    C7       C        0.37000    0.59910    0.66340    1.000
    C8       C        0.34700    0.64490    0.73640    1.000
    H3       H        0.36750    0.69220    0.77230    1.000
    C9       C        0.42400    0.63110    0.63870    1.000
    C10      C        0.45990    0.56350    0.60590    1.000
    H4       H        0.45070    0.49570    0.60230    1.000
    C11      C        0.50890    0.59440    0.57840    1.000
    H5       H        0.53260    0.54700    0.55840    1.000
    C12      C        0.52320    0.69570    0.58000    1.000
    C13      C        0.57370    0.72810    0.53900    1.000
    C14      C        0.48850    0.76200    0.61530    1.000
    H6       H        0.49800    0.82970    0.61940    1.000
    C15      C        0.44020    0.73140    0.64470    1.000
    H7       H        0.41790    0.77840    0.66910    1.000
    Eu2      Eu       0.82877    0.29250    0.03020    1.000
    O7       O        0.80450    0.23430    0.87940    1.000
    O8       O        0.72569    0.14930    0.85390    1.000
    O9       O        0.70160    0.93960    0.56240    1.000
    O10      O        0.77490    0.85300    0.54240    1.000
    O11      O        0.10060    0.16600    0.50070    1.000
    O12      O        0.08690    0.31970    0.54380    1.000
    C16      C        0.77310    0.17240    0.83650    1.000
    C17      C        0.79510    0.12140    0.75620    1.000
    C18      C        0.76420    0.05190    0.70240    1.000
    H8       H        0.72840    0.03840    0.71330    1.000
    C19      C        0.78620    0.00240    0.63270    1.000
    C20      C        0.75200    0.92640    0.57680    1.000
    C21      C        0.83920    0.02400    0.61510    1.000
    H9       H        0.85450    0.98780    0.57040    1.000
    C22      C        0.87000    0.09910    0.66340    1.000
    C23      C        0.84700    0.14490    0.73640    1.000
    H10      H        0.86750    0.19220    0.77230    1.000
    C24      C        0.92400    0.13110    0.63870    1.000
    C25      C        0.95990    0.06350    0.60590    1.000
    H11      H        0.95070    0.99570    0.60230    1.000
    C26      C        0.00890    0.09440    0.57840    1.000
    H12      H        0.03260    0.04700    0.55840    1.000
    C27      C        0.02320    0.19570    0.58000    1.000
    C28      C        0.07370    0.22810    0.53900    1.000
    C29      C        0.98850    0.26200    0.61530    1.000
    H13      H        0.99800    0.32970    0.61940    1.000
    C30      C        0.94020    0.23140    0.64470    1.000
    H14      H        0.91790    0.27840    0.66910    1.000
    Eu3      Eu       0.67123    0.79250    0.46980    1.000
    O13      O        0.69550    0.73430    0.62060    1.000
    O14      O        0.77431    0.64930    0.64610    1.000
    O15      O        0.79840    0.43960    0.93760    1.000
    O16      O        0.72510    0.35300    0.95760    1.000
    O17      O        0.39940    0.66600    0.99930    1.000
    O18      O        0.41310    0.81970    0.95620    1.000
    C31      C        0.72690    0.67240    0.66350    1.000
    C32      C        0.70490    0.62140    0.74380    1.000
    C33      C        0.73580    0.55190    0.79760    1.000
    H15      H        0.77160    0.53840    0.78670    1.000
    C34      C        0.71380    0.50240    0.86730    1.000
    C35      C        0.74800    0.42640    0.92320    1.000
    C36      C        0.66080    0.52400    0.88490    1.000
    H16      H        0.64550    0.48780    0.92960    1.000
    C37      C        0.63000    0.59910    0.83660    1.000
    C38      C        0.65300    0.64490    0.76360    1.000
    H17      H        0.63250    0.69220    0.72770    1.000
    C39      C        0.57600    0.63110    0.86130    1.000
    C40      C        0.54010    0.56350    0.89410    1.000
    H18      H        0.54930    0.49570    0.89770    1.000
    C41      C        0.49110    0.59440    0.92160    1.000
    H19      H        0.46740    0.54700    0.94160    1.000
    C42      C        0.47680    0.69570    0.92000    1.000
    C43      C        0.42630    0.72810    0.96100    1.000
    C44      C        0.51150    0.76200    0.88470    1.000
    H20      H        0.50200    0.82970    0.88060    1.000
    C45      C        0.55980    0.73140    0.85530    1.000
    H21      H        0.58210    0.77840    0.83090    1.000
    Eu4      Eu       0.17123    0.29250    0.46980    1.000
    O19      O        0.19550    0.23430    0.62060    1.000
    O20      O        0.27431    0.14930    0.64610    1.000
    O21      O        0.29840    0.93960    0.93760    1.000
    O22      O        0.22510    0.85300    0.95760    1.000
    O23      O        0.89940    0.16600    0.99930    1.000
    O24      O        0.91310    0.31970    0.95620    1.000
    C46      C        0.22690    0.17240    0.66350    1.000
    C47      C        0.20490    0.12140    0.74380    1.000
    C48      C        0.23580    0.05190    0.79760    1.000
    H22      H        0.27160    0.03840    0.78670    1.000
    C49      C        0.21380    0.00240    0.86730    1.000
    C50      C        0.24800    0.92640    0.92320    1.000
    C51      C        0.16080    0.02400    0.88490    1.000
    H23      H        0.14550    0.98780    0.92960    1.000
    C52      C        0.13000    0.09910    0.83660    1.000
    C53      C        0.15300    0.14490    0.76360    1.000
    H24      H        0.13250    0.19220    0.72770    1.000
    C54      C        0.07600    0.13110    0.86130    1.000
    C55      C        0.04010    0.06350    0.89410    1.000
    H25      H        0.04930    0.99570    0.89770    1.000
    C56      C        0.99110    0.09440    0.92160    1.000
    H26      H        0.96740    0.04700    0.94160    1.000
    C57      C        0.97680    0.19570    0.92000    1.000
    C58      C        0.92630    0.22810    0.96100    1.000
    C59      C        0.01150    0.26200    0.88470    1.000
    H27      H        0.00200    0.32970    0.88060    1.000
    C60      C        0.05980    0.23140    0.85530    1.000
    H28      H        0.08210    0.27840    0.83090    1.000
    Eu5      Eu       0.67123    0.20750    0.96980    1.000
    O25      O        0.69550    0.26570    0.12060    1.000
    O26      O        0.77431    0.35070    0.14610    1.000
    O27      O        0.79840    0.56040    0.43760    1.000
    O28      O        0.72510    0.64700    0.45760    1.000
    O29      O        0.39940    0.33400    0.49930    1.000
    O30      O        0.41310    0.18030    0.45620    1.000
    C61      C        0.72690    0.32760    0.16350    1.000
    C62      C        0.70490    0.37860    0.24380    1.000
    C63      C        0.73580    0.44810    0.29760    1.000
    H29      H        0.77160    0.46160    0.28670    1.000
    C64      C        0.71380    0.49760    0.36730    1.000
    C65      C        0.74800    0.57360    0.42320    1.000
    C66      C        0.66080    0.47600    0.38490    1.000
    H30      H        0.64550    0.51220    0.42960    1.000
    C67      C        0.63000    0.40090    0.33660    1.000
    C68      C        0.65300    0.35510    0.26360    1.000
    H31      H        0.63250    0.30780    0.22770    1.000
    C69      C        0.57600    0.36890    0.36130    1.000
    C70      C        0.54010    0.43650    0.39410    1.000
    H32      H        0.54930    0.50430    0.39770    1.000
    C71      C        0.49110    0.40560    0.42160    1.000
    H33      H        0.46740    0.45300    0.44160    1.000
    C72      C        0.47680    0.30430    0.42000    1.000
    C73      C        0.42630    0.27190    0.46100    1.000
    C74      C        0.51150    0.23800    0.38470    1.000
    H34      H        0.50200    0.17030    0.38060    1.000
    C75      C        0.55980    0.26860    0.35530    1.000
    H35      H        0.58210    0.22160    0.33090    1.000
    Eu6      Eu       0.17123    0.70750    0.96980    1.000
    O31      O        0.19550    0.76570    0.12060    1.000
    O32      O        0.27431    0.85070    0.14610    1.000
    O33      O        0.29840    0.06040    0.43760    1.000
    O34      O        0.22510    0.14700    0.45760    1.000
    O35      O        0.89940    0.83400    0.49930    1.000
    O36      O        0.91310    0.68030    0.45620    1.000
    C76      C        0.22690    0.82760    0.16350    1.000
    C77      C        0.20490    0.87860    0.24380    1.000
    C78      C        0.23580    0.94810    0.29760    1.000
    H36      H        0.27160    0.96160    0.28670    1.000
    C79      C        0.21380    0.99760    0.36730    1.000
    C80      C        0.24800    0.07360    0.42320    1.000
    C81      C        0.16080    0.97600    0.38490    1.000
    H37      H        0.14550    0.01220    0.42960    1.000
    C82      C        0.13000    0.90090    0.33660    1.000
    C83      C        0.15300    0.85510    0.26360    1.000
    H38      H        0.13250    0.80780    0.22770    1.000
    C84      C        0.07600    0.86890    0.36130    1.000
    C85      C        0.04010    0.93650    0.39410    1.000
    H39      H        0.04930    0.00430    0.39770    1.000
    C86      C        0.99110    0.90560    0.42160    1.000
    H40      H        0.96740    0.95300    0.44160    1.000
    C87      C        0.97680    0.80430    0.42000    1.000
    C88      C        0.92630    0.77190    0.46100    1.000
    C89      C        0.01150    0.73800    0.38470    1.000
    H41      H        0.00200    0.67030    0.38060    1.000
    C90      C        0.05980    0.76860    0.35530    1.000
    H42      H        0.08210    0.72160    0.33090    1.000
    Eu7      Eu       0.32877    0.20750    0.53020    1.000
    O37      O        0.30450    0.26570    0.37940    1.000
    O38      O        0.22569    0.35070    0.35390    1.000
    O39      O        0.20160    0.56040    0.06240    1.000
    O40      O        0.27490    0.64700    0.04240    1.000
    O41      O        0.60060    0.33400    0.00070    1.000
    O42      O        0.58690    0.18030    0.04380    1.000
    C91      C        0.27310    0.32760    0.33650    1.000
    C92      C        0.29510    0.37860    0.25620    1.000
    C93      C        0.26420    0.44810    0.20240    1.000
    H43      H        0.22840    0.46160    0.21330    1.000
    C94      C        0.28620    0.49760    0.13270    1.000
    C95      C        0.25200    0.57360    0.07680    1.000
    C96      C        0.33920    0.47600    0.11510    1.000
    H44      H        0.35450    0.51220    0.07040    1.000
    C97      C        0.37000    0.40090    0.16340    1.000
    C98      C        0.34700    0.35510    0.23640    1.000
    H45      H        0.36750    0.30780    0.27230    1.000
    C99      C        0.42400    0.36890    0.13870    1.000
    C100     C        0.45990    0.43650    0.10590    1.000
    H46      H        0.45070    0.50430    0.10230    1.000
    C101     C        0.50890    0.40560    0.07840    1.000
    H47      H        0.53260    0.45300    0.05840    1.000
    C102     C        0.52320    0.30430    0.08000    1.000
    C103     C        0.57370    0.27190    0.03900    1.000
    C104     C        0.48850    0.23800    0.11530    1.000
    H48      H        0.49800    0.17030    0.11940    1.000
    C105     C        0.44020    0.26860    0.14470    1.000
    H49      H        0.41790    0.22160    0.16910    1.000
    Eu8      Eu       0.82877    0.70750    0.53020    1.000
    O43      O        0.80450    0.76570    0.37940    1.000
    O44      O        0.72569    0.85070    0.35390    1.000
    O45      O        0.70160    0.06040    0.06240    1.000
    O46      O        0.77490    0.14700    0.04240    1.000
    O47      O        0.10060    0.83400    0.00070    1.000
    O48      O        0.08690    0.68030    0.04380    1.000
    C106     C        0.77310    0.82760    0.33650    1.000
    C107     C        0.79510    0.87860    0.25620    1.000
    C108     C        0.76420    0.94810    0.20240    1.000
    H50      H        0.72840    0.96160    0.21330    1.000
    C109     C        0.78620    0.99760    0.13270    1.000
    C110     C        0.75200    0.07360    0.07680    1.000
    C111     C        0.83920    0.97600    0.11510    1.000
    H51      H        0.85450    0.01220    0.07040    1.000
    C112     C        0.87000    0.90090    0.16340    1.000
    C113     C        0.84700    0.85510    0.23640    1.000
    H52      H        0.86750    0.80780    0.27230    1.000
    C114     C        0.92400    0.86890    0.13870    1.000
    C115     C        0.95990    0.93650    0.10590    1.000
    H53      H        0.95070    0.00430    0.10230    1.000
    C116     C        0.00890    0.90560    0.07840    1.000
    H54      H        0.03260    0.95300    0.05840    1.000
    C117     C        0.02320    0.80430    0.08000    1.000
    C118     C        0.07370    0.77190    0.03900    1.000
    C119     C        0.98850    0.73800    0.11530    1.000
    H55      H        0.99800    0.67030    0.11940    1.000
    C120     C        0.94020    0.76860    0.14470    1.000
    H56      H        0.91790    0.72160    0.16910    1.000
