data_functionalizedCrystal
_audit_creation_method	'EQeq! by Chris Wilmer'
_symmetry_space_group_name_H-M	'P1'
_symmetry_Int_Tables_number	1
_symmetry_cell_setting	triclinic
loop_
_symmetry_equiv_pos_as_xyz
  x,y,z
_cell_length_a	11.338
_cell_length_b	11.446
_cell_length_c	22.42
_cell_angle_alpha	102.25
_cell_angle_beta	99.247
_cell_angle_gamma	103.524
loop_
_atom_site_label
_atom_site_type_symbol
_atom_site_fract_x
_atom_site_fract_y
_atom_site_fract_z
_atom_site_charge
Mof_Eu	Eu	0.20686	0.56639	0.53353	2.125
Mof_Eu	Eu	0.94883	0.28827	0.97481	2.028
Mof_Eu	Eu	0.79314	0.43361	0.46647	2.123
Mof_Eu	Eu	0.05117	0.71173	0.02519	2.04
Mof_B 	B 	0.065	0.634	0.309	0.078
Mof_B 	B 	0.162	0.535	0.299	0.365
Mof_B 	B 	0.104	0.391	0.2807	0.253
Mof_B 	B 	0.94	0.362	0.2631	0.218
Mof_B 	B 	0.914	0.519	0.286	0.485
Mof_B 	B 	0.963	0.599	0.2315	0.199
Mof_B 	B 	0.13	0.641	0.247	0.326
Mof_B 	B 	0.161	0.481	0.2249	0.123
Mof_B 	B 	0.014	0.36	0.197	0.346
Mof_B 	B 	0.9	0.445	0.2043	0.17
Mof_B 	B 	0.593	0.866	0.701	0.34
Mof_B 	B 	0.478	0.935	0.738	0.239
Mof_B 	B 	0.409	0.839	0.777	0.165
Mof_B 	B 	0.48	0.722	0.78	0.179
Mof_B 	B 	0.59	0.715	0.736	0.365
Mof_B 	B 	0.636	0.01	0.782	0.235
Mof_B 	B 	0.519	0.975	0.8199	0.159
Mof_B 	B 	0.517	0.843	0.8416	0.392
Mof_B 	B 	0.631	0.77	0.812	0.067
Mof_B 	B 	0.712	0.875	0.776	0.297
Mof_B 	B 	0.123	0.973	0.5431	0.271
Mof_B 	B 	0.103	0.947	0.4663	0.176
Mof_B 	B 	0.942	0.899	0.4278	0.209
Mof_B 	B 	0.86	0.904	0.4841	0.322
Mof_B 	B 	0.963	0.958	0.565	0.308
Mof_B 	B 	0.619	0.588	0.066	0.259
Mof_B 	B 	0.6022	0.6198	0.9833	0.417
Mof_B 	B 	0.537	0.502	0.9321	-0.014
Mof_B 	B 	0.518	0.369	0.954	0.402
Mof_B 	B 	0.559	0.412	0.0438	0.276
Mof_B 	B 	0.935	0.366	0.691	0.073
Mof_B 	B 	0.838	0.465	0.701	0.371
Mof_B 	B 	0.896	0.609	0.7193	0.25
Mof_B 	B 	0.06	0.638	0.7369	0.219
Mof_B 	B 	0.086	0.481	0.714	0.489
Mof_B 	B 	0.037	0.401	0.7685	0.2
Mof_B 	B 	0.87	0.359	0.753	0.326
Mof_B 	B 	0.839	0.519	0.7751	0.117
Mof_B 	B 	0.986	0.64	0.803	0.352
Mof_B 	B 	0.1	0.555	0.7957	0.165
Mof_B 	B 	0.407	0.134	0.299	0.292
Mof_B 	B 	0.522	0.065	0.262	0.135
Mof_B 	B 	0.591	0.161	0.223	0.403
Mof_B 	B 	0.52	0.278	0.22	-0.145
Mof_B 	B 	0.41	0.285	0.264	0.505
Mof_B 	B 	0.364	0.99	0.218	0.539
Mof_B 	B 	0.481	0.025	0.1801	-0.16
Mof_B 	B 	0.483	0.157	0.1584	0.58
Mof_B 	B 	0.369	0.23	0.188	0.171
Mof_B 	B 	0.288	0.125	0.224	0.138
Mof_B 	B 	0.877	0.027	0.4569	0.252
Mof_B 	B 	0.897	0.053	0.5337	0.094
Mof_B 	B 	0.058	0.101	0.5722	0.201
Mof_B 	B 	0.14	0.096	0.5159	0.256
Mof_B 	B 	0.037	0.042	0.435	0.251
Mof_B 	B 	0.381	0.412	0.934	0.257
Mof_B 	B 	0.3978	0.3802	0.0167	0.426
Mof_B 	B 	0.463	0.498	0.0679	-0.028
Mof_B 	B 	0.482	0.631	0.046	0.412
Mof_B 	B 	0.441	0.588	0.9562	0.271
Mof_H 	H 	0.0899	0.7222	0.3455	-0.098
Mof_H 	H 	0.2528	0.5563	0.3311	-0.177
Mof_H 	H 	0.1497	0.3276	0.2995	-0.151
Mof_H 	H 	0.8797	0.2763	0.2681	-0.125
Mof_H 	H 	0.8369	0.5336	0.3076	-0.203
Mof_H 	H 	0.9122	0.661	0.2151	-0.129
Mof_H 	H 	0.1875	0.7304	0.2435	-0.157
Mof_H 	H 	0.2423	0.4737	0.2052	-0.109
Mof_H 	H 	0.0012	0.2742	0.1608	-0.189
Mof_H 	H 	0.8094	0.4113	0.1706	-0.125
Mof_H 	H 	0.6137	0.8739	0.6553	-0.185
Mof_H 	H 	0.4256	0.9844	0.7121	-0.131
Mof_H 	H 	0.3085	0.8246	0.7743	-0.115
Mof_H 	H 	0.4215	0.6344	0.7848	-0.125
Mof_H 	H 	0.6072	0.6274	0.713	-0.176
Mof_H 	H 	0.6858	0.1079	0.7872	-0.124
Mof_H 	H 	0.4938	0.0516	0.849	-0.118
Mof_H 	H 	0.4908	0.8364	0.8862	-0.179
Mof_H 	H 	0.6808	0.7147	0.8359	-0.09
Mof_H 	H 	0.811	0.8934	0.7756	-0.17
Mof_H 	H 	0.2031	0.9495	0.5678	-0.137
Mof_H 	H 	0.171	0.9105	0.4436	-0.124
Mof_H 	H 	0.9051	0.8334	0.3813	-0.131
Mof_H 	H 	0.769	0.8347	0.4709	-0.168
Mof_H 	H 	0.9389	0.9327	0.6072	-0.163
Mof_H 	H 	0.6934	0.648	0.1059	-0.155
Mof_H 	H 	0.6681	0.693	0.9709	-0.193
Mof_H 	H 	0.5613	0.5041	0.8867	-0.071
Mof_H 	H 	0.5311	0.2869	0.923	-0.179
Mof_H 	H 	0.5971	0.352	0.0692	-0.151
Mof_H 	H 	0.9101	0.2778	0.6545	-0.098
Mof_H 	H 	0.7472	0.4437	0.6689	-0.18
Mof_H 	H 	0.8503	0.6724	0.7005	-0.149
Mof_H 	H 	0.1203	0.7237	0.7319	-0.126
Mof_H 	H 	0.1631	0.4664	0.6924	-0.204
Mof_H 	H 	0.0878	0.339	0.7849	-0.131
Mof_H 	H 	0.8125	0.2696	0.7565	-0.16
Mof_H 	H 	0.7577	0.5263	0.7948	-0.108
Mof_H 	H 	0.9988	0.7258	0.8392	-0.189
Mof_H 	H 	0.1906	0.5887	0.8294	-0.122
Mof_H 	H 	0.3863	0.1261	0.3447	-0.175
Mof_H 	H 	0.5744	0.0156	0.2879	-0.106
Mof_H 	H 	0.6915	0.1754	0.2257	-0.186
Mof_H 	H 	0.5785	0.3656	0.2152	-0.033
Mof_H 	H 	0.3928	0.3726	0.287	-0.217
Mof_H 	H 	0.3142	0.8921	0.2128	-0.209
Mof_H 	H 	0.5062	0.9484	0.151	-0.015
Mof_H 	H 	0.5092	0.1636	0.1138	-0.237
Mof_H 	H 	0.3192	0.2853	0.1641	-0.121
Mof_H 	H 	0.189	0.1066	0.2244	-0.13
Mof_H 	H 	0.7969	0.0505	0.4322	-0.135
Mof_H 	H 	0.829	0.0895	0.5564	-0.105
Mof_H 	H 	0.0949	0.1666	0.6187	-0.132
Mof_H 	H 	0.231	0.1653	0.5291	-0.152
Mof_H 	H 	0.0611	0.0673	0.3928	-0.151
Mof_H 	H 	0.3066	0.352	0.8941	-0.155
Mof_H 	H 	0.3319	0.307	0.0291	-0.196
Mof_H 	H 	0.4387	0.4959	0.1133	-0.067
Mof_H 	H 	0.4689	0.7131	0.077	-0.182
Mof_H 	H 	0.4029	0.648	0.9308	-0.149
Mof_C 	C 	0.034	0.484	0.3198	-0.689
Mof_C 	C 	0.031	0.507	0.1862	-0.605
Mof_C 	C 	0.047	0.483	0.394	0.681
Mof_C 	C 	0.026	0.516	0.1158	0.666
Mof_C 	C 	0.472	0.774	0.7139	-0.602
Mof_C 	C 	0.656	0.93	0.8395	-0.588
Mof_C 	C 	0.369	0.705	0.6534	0.41
Mof_C 	C 	0.743	0	0.8965	0.462
Mof_C 	C 	0.991	0.862	0.4996	-0.644
Mof_C 	C 	0.993	0.729	0.5007	0.692
Mof_C 	C 	0.63	0.492	0.997	-0.665
Mof_C 	C 	0.768	0.484	0.9943	0.597
Mof_C 	C 	0.966	0.516	0.6802	-0.689
Mof_C 	C 	0.969	0.493	0.8138	-0.604
Mof_C 	C 	0.953	0.517	0.606	0.682
Mof_C 	C 	0.974	0.484	0.8842	0.666
Mof_C 	C 	0.528	0.226	0.2861	-0.576
Mof_C 	C 	0.344	0.07	0.1605	-0.643
Mof_C 	C 	0.631	0.295	0.3466	0.401
Mof_C 	C 	0.257	0	0.1035	0.502
Mof_C 	C 	0.009	0.138	0.5004	-0.595
Mof_C 	C 	0.007	0.271	0.4993	0.677
Mof_C 	C 	0.37	0.508	0.003	-0.665
Mof_C 	C 	0.232	0.516	0.0057	0.597
Mof_O 	O 	0.1485	0.5091	0.4248	-0.7
Mof_O 	O 	0.94	0.449	0.4036	-0.625
Mof_O 	O 	0.988	0.413	0.0782	-0.647
Mof_O 	O 	0.056	0.62	0.1102	-0.638
Mof_O 	O 	0.366	0.5835	0.6306	-0.493
Mof_O 	O 	0.304	0.7539	0.6258	-0.509
Mof_O 	O 	0.775	0.957	0.9412	-0.408
Mof_O 	O 	0.791	0.121	0.9001	-0.541
Mof_O 	O 	0.0928	0.7034	0.5084	-0.646
Mof_O 	O 	0.8915	0.6501	0.4841	-0.643
Mof_O 	O 	0.7781	0.376	0.9812	-0.585
Mof_O 	O 	0.8508	0.588	0.0102	-0.634
Mof_O 	O 	0.8515	0.4909	0.5752	-0.7
Mof_O 	O 	0.06	0.551	0.5964	-0.626
Mof_O 	O 	0.012	0.587	0.9218	-0.648
Mof_O 	O 	0.944	0.38	0.8898	-0.638
Mof_O 	O 	0.634	0.4165	0.3694	-0.49
Mof_O 	O 	0.696	0.2461	0.3742	-0.508
Mof_O 	O 	0.225	0.043	0.0588	-0.432
Mof_O 	O 	0.209	0.879	0.0999	-0.545
Mof_O 	O 	0.9072	0.2966	0.4916	-0.641
Mof_O 	O 	0.1085	0.3499	0.5159	-0.639
Mof_O 	O 	0.2219	0.624	0.0188	-0.585
Mof_O 	O 	0.1492	0.412	0.9898	-0.634
_end
