data_functionalizedCrystal
_audit_creation_method	'EQeq! by Chris Wilmer'
_symmetry_space_group_name_H-M	'P1'
_symmetry_Int_Tables_number	1
_symmetry_cell_setting	triclinic
loop_
_symmetry_equiv_pos_as_xyz
  x,y,z
_cell_length_a	27.805
_cell_length_b	9.381
_cell_length_c	24.923
_cell_angle_alpha	90
_cell_angle_beta	114.715
_cell_angle_gamma	90
loop_
_atom_site_label
_atom_site_type_symbol
_atom_site_fract_x
_atom_site_fract_y
_atom_site_fract_z
_atom_site_charge
Mof_Co	Co	0.73297	0.64693	0.53005	1.155
Mof_N 	N 	0.6326	0.332	0.5358	-0.056
Mof_N 	N 	0.69688	0.4744	0.54612	-0.233
Mof_O 	O 	0.66563	0.7641	0.4858	-0.452
Mof_O 	O 	0.6919	0.9286	0.43853	-0.44
Mof_O 	O 	0.27852	0.569	0.0518	-0.458
Mof_O 	O 	0.25209	0.7263	0.10108	-0.441
Mof_C 	C 	0.65781	0.8697	0.4527	0.374
Mof_C 	C 	0.60306	0.9342	0.4281	-0.124
Mof_C 	C 	0.56357	0.8681	0.4384	0.042
Mof_H 	H 	0.5706	0.7822	0.4588	0.029
Mof_C 	C 	0.51369	0.9271	0.4187	-0.117
Mof_H 	H 	0.4874	0.8797	0.4256	0.067
Mof_C 	C 	0.50216	0.0571	0.38876	0.047
Mof_C 	C 	0.54179	0.1205	0.3765	-0.119
Mof_H 	H 	0.5349	0.205	0.3551	0.069
Mof_C 	C 	0.59147	0.0581	0.3961	0.049
Mof_H 	H 	0.6174	0.1013	0.3874	0.025
Mof_C 	C 	0.27445	0.612	0.0974	0.377
Mof_C 	C 	0.30008	0.5222	0.1518	-0.132
Mof_C 	C 	0.3318	0.4089	0.1531	0.056
Mof_H 	H 	0.3361	0.385	0.1192	0.024
Mof_C 	C 	0.3572	0.3303	0.2035	-0.126
Mof_H 	H 	0.3792	0.2556	0.2034	0.073
Mof_C 	C 	0.35082	0.3602	0.2549	0.057
Mof_C 	C 	0.3194	0.4754	0.2531	-0.126
Mof_H 	H 	0.3154	0.5006	0.2871	0.075
Mof_C 	C 	0.2937	0.5542	0.2025	0.057
Mof_H 	H 	0.2719	0.6294	0.2024	0.024
Mof_C 	C 	0.4502	0.1256	0.3733	0.029
Mof_C 	C 	0.42576	0.2081	0.3232	-0.098
Mof_H 	H 	0.4424	0.22	0.298	0.063
Mof_C 	C 	0.37722	0.2739	0.3093	0.027
Mof_C 	C 	0.35308	0.2563	0.348	-0.09
Mof_H 	H 	0.3207	0.2999	0.3398	0.066
Mof_C 	C 	0.37682	0.1745	0.3982	0.009
Mof_H 	H 	0.3603	0.1624	0.4236	0.036
Mof_C 	C 	0.42519	0.1105	0.4109	-0.091
Mof_H 	H 	0.4412	0.0565	0.4451	0.059
Mof_C 	C 	0.6471	0.4652	0.536	0.091
Mof_H 	H 	0.6247	0.543	0.5297	0.004
Mof_C 	C 	0.7129	0.3334	0.5479	0.019
Mof_H 	H 	0.7458	0.3044	0.5504	0.023
Mof_C 	C 	0.6738	0.2448	0.5456	-0.042
Mof_H 	H 	0.6751	0.1462	0.5498	0.046
Mof_C 	C 	0.5808	0.2788	0.5322	-0.127
Mof_H 	H 	0.5859	0.2394	0.5702	0.07
Mof_H 	H 	0.5684	0.2026	0.5033	0.073
Mof_C 	C 	0.5388	0.3938	0.5153	0.061
Mof_C 	C 	0.511	0.4332	0.4575	-0.069
Mof_H 	H 	0.5178	0.3886	0.4281	0.059
Mof_C 	C 	0.5272	0.4614	0.5575	-0.071
Mof_H 	H 	0.5453	0.4355	0.597	0.057
Mof_N 	N 	0.632	0.336	0.5536	-0.047
Mof_C 	C 	0.7178	0.367	0.5819	-0.007
Mof_H 	H 	0.7539	0.3554	0.6043	0.026
Mof_C 	C 	0.6818	0.279	0.5825	0.011
Mof_H 	H 	0.6889	0.1894	0.6002	0.026
Mof_Co	Co	0.23297	0.14693	0.53005	1.156
Mof_N 	N 	0.1326	0.832	0.5358	-0.055
Mof_N 	N 	0.19688	0.9744	0.54612	-0.232
Mof_O 	O 	0.16563	0.2641	0.4858	-0.451
Mof_O 	O 	0.1919	0.4286	0.43853	-0.438
Mof_O 	O 	0.77852	0.069	0.0518	-0.456
Mof_O 	O 	0.75209	0.2263	0.10108	-0.44
Mof_C 	C 	0.15781	0.3697	0.4527	0.375
Mof_C 	C 	0.10306	0.4342	0.4281	-0.123
Mof_C 	C 	0.06357	0.3681	0.4384	0.043
Mof_H 	H 	0.0706	0.2822	0.4588	0.029
Mof_C 	C 	0.01369	0.4271	0.4187	-0.117
Mof_H 	H 	0.9874	0.3797	0.4256	0.067
Mof_C 	C 	0.00216	0.5571	0.38876	0.046
Mof_C 	C 	0.04179	0.6205	0.3765	-0.119
Mof_H 	H 	0.0349	0.705	0.3551	0.069
Mof_C 	C 	0.09147	0.5581	0.3961	0.049
Mof_H 	H 	0.1174	0.6013	0.3874	0.025
Mof_C 	C 	0.77445	0.112	0.0974	0.377
Mof_C 	C 	0.80008	0.0222	0.1518	-0.132
Mof_C 	C 	0.8318	0.9089	0.1531	0.056
Mof_H 	H 	0.8361	0.885	0.1192	0.024
Mof_C 	C 	0.8572	0.8303	0.2035	-0.126
Mof_H 	H 	0.8792	0.7556	0.2034	0.073
Mof_C 	C 	0.85082	0.8602	0.2549	0.057
Mof_C 	C 	0.8194	0.9754	0.2531	-0.127
Mof_H 	H 	0.8154	0.0006	0.2871	0.075
Mof_C 	C 	0.7937	0.0542	0.2025	0.057
Mof_H 	H 	0.7719	0.1294	0.2024	0.024
Mof_C 	C 	0.9502	0.6256	0.3733	0.029
Mof_C 	C 	0.92576	0.7081	0.3232	-0.098
Mof_H 	H 	0.9424	0.72	0.298	0.063
Mof_C 	C 	0.87722	0.7739	0.3093	0.027
Mof_C 	C 	0.85308	0.7563	0.348	-0.09
Mof_H 	H 	0.8207	0.7999	0.3398	0.066
Mof_C 	C 	0.87682	0.6745	0.3982	0.009
Mof_H 	H 	0.8603	0.6624	0.4236	0.036
Mof_C 	C 	0.92519	0.6105	0.4109	-0.091
Mof_H 	H 	0.9412	0.5565	0.4451	0.059
Mof_C 	C 	0.1471	0.9652	0.536	0.091
Mof_H 	H 	0.1247	0.043	0.5297	0.004
Mof_C 	C 	0.2129	0.8334	0.5479	0.018
Mof_H 	H 	0.2458	0.8044	0.5504	0.023
Mof_C 	C 	0.1738	0.7448	0.5456	-0.042
Mof_H 	H 	0.1751	0.6462	0.5498	0.046
Mof_C 	C 	0.0808	0.7788	0.5322	-0.127
Mof_H 	H 	0.0859	0.7394	0.5702	0.07
Mof_H 	H 	0.0684	0.7026	0.5033	0.073
Mof_C 	C 	0.0388	0.8938	0.5153	0.061
Mof_C 	C 	0.011	0.9332	0.4575	-0.069
Mof_H 	H 	0.0178	0.8886	0.4281	0.059
Mof_C 	C 	0.0272	0.9614	0.5575	-0.071
Mof_H 	H 	0.0453	0.9355	0.597	0.057
Mof_N 	N 	0.132	0.836	0.5536	-0.047
Mof_C 	C 	0.2178	0.867	0.5819	-0.007
Mof_H 	H 	0.2539	0.8554	0.6043	0.026
Mof_C 	C 	0.1818	0.779	0.5825	0.011
Mof_H 	H 	0.1889	0.6894	0.6002	0.026
Mof_Co	Co	0.26703	0.64693	0.96995	1.156
Mof_N 	N 	0.3674	0.332	0.9642	-0.055
Mof_N 	N 	0.30312	0.4744	0.95388	-0.232
Mof_O 	O 	0.33437	0.7641	0.0142	-0.451
Mof_O 	O 	0.3081	0.9286	0.06147	-0.439
Mof_O 	O 	0.72148	0.569	0.4482	-0.456
Mof_O 	O 	0.74791	0.7263	0.39892	-0.44
Mof_C 	C 	0.34219	0.8697	0.0473	0.376
Mof_C 	C 	0.39694	0.9342	0.0719	-0.124
Mof_C 	C 	0.43643	0.8681	0.0616	0.044
Mof_H 	H 	0.4294	0.7822	0.0412	0.029
Mof_C 	C 	0.48631	0.9271	0.0813	-0.118
Mof_H 	H 	0.5126	0.8797	0.0744	0.067
Mof_C 	C 	0.49784	0.0571	0.11124	0.048
Mof_C 	C 	0.45821	0.1205	0.1235	-0.12
Mof_H 	H 	0.4651	0.205	0.1449	0.069
Mof_C 	C 	0.40853	0.0581	0.1039	0.05
Mof_H 	H 	0.3826	0.1013	0.1126	0.025
Mof_C 	C 	0.72555	0.612	0.4026	0.377
Mof_C 	C 	0.69992	0.5222	0.3482	-0.132
Mof_C 	C 	0.6682	0.4089	0.3469	0.056
Mof_H 	H 	0.6639	0.385	0.3808	0.024
Mof_C 	C 	0.6428	0.3303	0.2965	-0.126
Mof_H 	H 	0.6208	0.2556	0.2966	0.073
Mof_C 	C 	0.64918	0.3602	0.2451	0.058
Mof_C 	C 	0.6806	0.4754	0.2469	-0.126
Mof_H 	H 	0.6846	0.5006	0.2129	0.075
Mof_C 	C 	0.7063	0.5542	0.2975	0.057
Mof_H 	H 	0.7281	0.6294	0.2976	0.024
Mof_C 	C 	0.5498	0.1256	0.1267	0.029
Mof_C 	C 	0.57424	0.2081	0.1768	-0.097
Mof_H 	H 	0.5576	0.22	0.202	0.062
Mof_C 	C 	0.62278	0.2739	0.1907	0.027
Mof_C 	C 	0.64692	0.2563	0.152	-0.089
Mof_H 	H 	0.6793	0.2999	0.1602	0.066
Mof_C 	C 	0.62318	0.1745	0.1018	0.009
Mof_H 	H 	0.6397	0.1624	0.0764	0.036
Mof_C 	C 	0.57481	0.1105	0.0891	-0.091
Mof_H 	H 	0.5588	0.0565	0.0549	0.059
Mof_C 	C 	0.3529	0.4652	0.964	0.091
Mof_H 	H 	0.3753	0.543	0.9703	0.004
Mof_C 	C 	0.2871	0.3334	0.9521	0.019
Mof_H 	H 	0.2542	0.3044	0.9496	0.023
Mof_C 	C 	0.3262	0.2448	0.9544	-0.042
Mof_H 	H 	0.3249	0.1462	0.9502	0.046
Mof_C 	C 	0.4192	0.2788	0.9678	-0.127
Mof_H 	H 	0.4141	0.2394	0.9298	0.07
Mof_H 	H 	0.4316	0.2026	0.9967	0.073
Mof_C 	C 	0.4612	0.3938	0.9847	0.061
Mof_C 	C 	0.489	0.4332	0.0425	-0.069
Mof_H 	H 	0.4822	0.3886	0.0719	0.059
Mof_C 	C 	0.4728	0.4614	0.9425	-0.071
Mof_H 	H 	0.4547	0.4355	0.903	0.057
Mof_N 	N 	0.368	0.336	0.9464	-0.047
Mof_C 	C 	0.2822	0.367	0.9181	-0.007
Mof_H 	H 	0.2461	0.3554	0.8957	0.026
Mof_C 	C 	0.3182	0.279	0.9175	0.011
Mof_H 	H 	0.3111	0.1894	0.8998	0.026
Mof_Co	Co	0.76703	0.14693	0.96995	1.155
Mof_N 	N 	0.8674	0.832	0.9642	-0.054
Mof_N 	N 	0.80312	0.9744	0.95388	-0.232
Mof_O 	O 	0.83437	0.2641	0.0142	-0.45
Mof_O 	O 	0.8081	0.4286	0.06147	-0.438
Mof_O 	O 	0.22148	0.069	0.4482	-0.457
Mof_O 	O 	0.24791	0.2263	0.39892	-0.44
Mof_C 	C 	0.84219	0.3697	0.0473	0.375
Mof_C 	C 	0.89694	0.4342	0.0719	-0.122
Mof_C 	C 	0.93643	0.3681	0.0616	0.042
Mof_H 	H 	0.9294	0.2822	0.0412	0.03
Mof_C 	C 	0.98631	0.4271	0.0813	-0.115
Mof_H 	H 	0.0126	0.3797	0.0744	0.066
Mof_C 	C 	0.99784	0.5571	0.11124	0.047
Mof_C 	C 	0.95821	0.6205	0.1235	-0.119
Mof_H 	H 	0.9651	0.705	0.1449	0.069
Mof_C 	C 	0.90853	0.5581	0.1039	0.048
Mof_H 	H 	0.8826	0.6013	0.1126	0.025
Mof_C 	C 	0.22555	0.112	0.4026	0.377
Mof_C 	C 	0.19992	0.0222	0.3482	-0.132
Mof_C 	C 	0.1682	0.9089	0.3469	0.057
Mof_H 	H 	0.1639	0.885	0.3808	0.024
Mof_C 	C 	0.1428	0.8303	0.2965	-0.126
Mof_H 	H 	0.1208	0.7556	0.2966	0.073
Mof_C 	C 	0.14918	0.8602	0.2451	0.058
Mof_C 	C 	0.1806	0.9754	0.2469	-0.127
Mof_H 	H 	0.1846	0.0006	0.2129	0.075
Mof_C 	C 	0.2063	0.0542	0.2975	0.057
Mof_H 	H 	0.2281	0.1294	0.2976	0.024
Mof_C 	C 	0.0498	0.6256	0.1267	0.029
Mof_C 	C 	0.07424	0.7081	0.1768	-0.097
Mof_H 	H 	0.0576	0.72	0.202	0.062
Mof_C 	C 	0.12278	0.7739	0.1907	0.027
Mof_C 	C 	0.14692	0.7563	0.152	-0.089
Mof_H 	H 	0.1793	0.7999	0.1602	0.066
Mof_C 	C 	0.12318	0.6745	0.1018	0.009
Mof_H 	H 	0.1397	0.6624	0.0764	0.036
Mof_C 	C 	0.07481	0.6105	0.0891	-0.091
Mof_H 	H 	0.0588	0.5565	0.0549	0.059
Mof_C 	C 	0.8529	0.9652	0.964	0.092
Mof_H 	H 	0.8753	0.043	0.9703	0.004
Mof_C 	C 	0.7871	0.8334	0.9521	0.018
Mof_H 	H 	0.7542	0.8044	0.9496	0.023
Mof_C 	C 	0.8262	0.7448	0.9544	-0.042
Mof_H 	H 	0.8249	0.6462	0.9502	0.046
Mof_C 	C 	0.9192	0.7788	0.9678	-0.126
Mof_H 	H 	0.9141	0.7394	0.9298	0.07
Mof_H 	H 	0.9316	0.7026	0.9967	0.073
Mof_C 	C 	0.9612	0.8938	0.9847	0.061
Mof_C 	C 	0.989	0.9332	0.0425	-0.069
Mof_H 	H 	0.9822	0.8886	0.0719	0.059
Mof_C 	C 	0.9728	0.9614	0.9425	-0.071
Mof_H 	H 	0.9547	0.9355	0.903	0.057
Mof_N 	N 	0.868	0.836	0.9464	-0.048
Mof_C 	C 	0.7822	0.867	0.9181	-0.006
Mof_H 	H 	0.7461	0.8554	0.8957	0.026
Mof_C 	C 	0.8182	0.779	0.9175	0.011
Mof_H 	H 	0.8111	0.6894	0.8998	0.026
Mof_Co	Co	0.26703	0.35307	0.46995	1.156
Mof_N 	N 	0.3674	0.668	0.4642	-0.055
Mof_N 	N 	0.30312	0.5256	0.45388	-0.232
Mof_O 	O 	0.33437	0.2359	0.5142	-0.451
Mof_O 	O 	0.3081	0.0714	0.56147	-0.439
Mof_O 	O 	0.72148	0.431	0.9482	-0.457
Mof_O 	O 	0.74791	0.2737	0.89892	-0.44
Mof_C 	C 	0.34219	0.1303	0.5473	0.375
Mof_C 	C 	0.39694	0.0658	0.5719	-0.123
Mof_C 	C 	0.43643	0.1319	0.5616	0.043
Mof_H 	H 	0.4294	0.2178	0.5412	0.029
Mof_C 	C 	0.48631	0.0729	0.5813	-0.117
Mof_H 	H 	0.5126	0.1203	0.5744	0.067
Mof_C 	C 	0.49784	0.9429	0.61124	0.047
Mof_C 	C 	0.45821	0.8795	0.6235	-0.119
Mof_H 	H 	0.4651	0.795	0.6449	0.069
Mof_C 	C 	0.40853	0.9419	0.6039	0.049
Mof_H 	H 	0.3826	0.8987	0.6126	0.025
Mof_C 	C 	0.72555	0.388	0.9026	0.377
Mof_C 	C 	0.69992	0.4778	0.8482	-0.132
Mof_C 	C 	0.6682	0.5911	0.8469	0.056
Mof_H 	H 	0.6639	0.615	0.8808	0.024
Mof_C 	C 	0.6428	0.6697	0.7965	-0.126
Mof_H 	H 	0.6208	0.7444	0.7966	0.073
Mof_C 	C 	0.64918	0.6398	0.7451	0.057
Mof_C 	C 	0.6806	0.5246	0.7469	-0.126
Mof_H 	H 	0.6846	0.4994	0.7129	0.075
Mof_C 	C 	0.7063	0.4458	0.7975	0.057
Mof_H 	H 	0.7281	0.3706	0.7976	0.024
Mof_C 	C 	0.5498	0.8744	0.6267	0.029
Mof_C 	C 	0.57424	0.7919	0.6768	-0.098
Mof_H 	H 	0.5576	0.78	0.702	0.063
Mof_C 	C 	0.62278	0.7261	0.6907	0.027
Mof_C 	C 	0.64692	0.7437	0.652	-0.09
Mof_H 	H 	0.6793	0.7001	0.6602	0.066
Mof_C 	C 	0.62318	0.8255	0.6018	0.009
Mof_H 	H 	0.6397	0.8376	0.5764	0.036
Mof_C 	C 	0.57481	0.8895	0.5891	-0.091
Mof_H 	H 	0.5588	0.9435	0.5549	0.059
Mof_C 	C 	0.3529	0.5348	0.464	0.091
Mof_H 	H 	0.3753	0.457	0.4703	0.004
Mof_C 	C 	0.2871	0.6666	0.4521	0.019
Mof_H 	H 	0.2542	0.6956	0.4496	0.023
Mof_C 	C 	0.3262	0.7552	0.4544	-0.042
Mof_H 	H 	0.3249	0.8538	0.4502	0.046
Mof_C 	C 	0.4192	0.7212	0.4678	-0.127
Mof_H 	H 	0.4141	0.7606	0.4298	0.07
Mof_H 	H 	0.4316	0.7974	0.4967	0.073
Mof_C 	C 	0.4612	0.6062	0.4847	0.061
Mof_C 	C 	0.489	0.5668	0.5425	-0.069
Mof_H 	H 	0.4822	0.6114	0.5719	0.059
Mof_C 	C 	0.4728	0.5386	0.4425	-0.071
Mof_H 	H 	0.4547	0.5645	0.403	0.057
Mof_N 	N 	0.368	0.664	0.4464	-0.047
Mof_C 	C 	0.2822	0.633	0.4181	-0.007
Mof_H 	H 	0.2461	0.6446	0.3957	0.026
Mof_C 	C 	0.3182	0.721	0.4175	0.011
Mof_H 	H 	0.3111	0.8106	0.3998	0.026
Mof_Co	Co	0.76703	0.85307	0.46995	1.156
Mof_N 	N 	0.8674	0.168	0.4642	-0.055
Mof_N 	N 	0.80312	0.0256	0.45388	-0.232
Mof_O 	O 	0.83437	0.7359	0.5142	-0.451
Mof_O 	O 	0.8081	0.5714	0.56147	-0.438
Mof_O 	O 	0.22148	0.931	0.9482	-0.456
Mof_O 	O 	0.24791	0.7737	0.89892	-0.44
Mof_C 	C 	0.84219	0.6303	0.5473	0.375
Mof_C 	C 	0.89694	0.5658	0.5719	-0.123
Mof_C 	C 	0.93643	0.6319	0.5616	0.043
Mof_H 	H 	0.9294	0.7178	0.5412	0.029
Mof_C 	C 	0.98631	0.5729	0.5813	-0.117
Mof_H 	H 	0.0126	0.6203	0.5744	0.067
Mof_C 	C 	0.99784	0.4429	0.61124	0.046
Mof_C 	C 	0.95821	0.3795	0.6235	-0.119
Mof_H 	H 	0.9651	0.295	0.6449	0.069
Mof_C 	C 	0.90853	0.4419	0.6039	0.049
Mof_H 	H 	0.8826	0.3987	0.6126	0.025
Mof_C 	C 	0.22555	0.888	0.9026	0.377
Mof_C 	C 	0.19992	0.9778	0.8482	-0.132
Mof_C 	C 	0.1682	0.0911	0.8469	0.056
Mof_H 	H 	0.1639	0.115	0.8808	0.024
Mof_C 	C 	0.1428	0.1697	0.7965	-0.126
Mof_H 	H 	0.1208	0.2444	0.7966	0.073
Mof_C 	C 	0.14918	0.1398	0.7451	0.057
Mof_C 	C 	0.1806	0.0246	0.7469	-0.127
Mof_H 	H 	0.1846	0.9994	0.7129	0.075
Mof_C 	C 	0.2063	0.9458	0.7975	0.057
Mof_H 	H 	0.2281	0.8706	0.7976	0.024
Mof_C 	C 	0.0498	0.3744	0.6267	0.029
Mof_C 	C 	0.07424	0.2919	0.6768	-0.098
Mof_H 	H 	0.0576	0.28	0.702	0.063
Mof_C 	C 	0.12278	0.2261	0.6907	0.027
Mof_C 	C 	0.14692	0.2437	0.652	-0.09
Mof_H 	H 	0.1793	0.2001	0.6602	0.066
Mof_C 	C 	0.12318	0.3255	0.6018	0.009
Mof_H 	H 	0.1397	0.3376	0.5764	0.036
Mof_C 	C 	0.07481	0.3895	0.5891	-0.091
Mof_H 	H 	0.0588	0.4435	0.5549	0.059
Mof_C 	C 	0.8529	0.0348	0.464	0.091
Mof_H 	H 	0.8753	0.957	0.4703	0.004
Mof_C 	C 	0.7871	0.1666	0.4521	0.018
Mof_H 	H 	0.7542	0.1956	0.4496	0.023
Mof_C 	C 	0.8262	0.2552	0.4544	-0.042
Mof_H 	H 	0.8249	0.3538	0.4502	0.046
Mof_C 	C 	0.9192	0.2212	0.4678	-0.127
Mof_H 	H 	0.9141	0.2606	0.4298	0.07
Mof_H 	H 	0.9316	0.2974	0.4967	0.073
Mof_C 	C 	0.9612	0.1062	0.4847	0.061
Mof_C 	C 	0.989	0.0668	0.5425	-0.069
Mof_H 	H 	0.9822	0.1114	0.5719	0.059
Mof_C 	C 	0.9728	0.0386	0.4425	-0.071
Mof_H 	H 	0.9547	0.0645	0.403	0.057
Mof_N 	N 	0.868	0.164	0.4464	-0.047
Mof_C 	C 	0.7822	0.133	0.4181	-0.007
Mof_H 	H 	0.7461	0.1446	0.3957	0.026
Mof_C 	C 	0.8182	0.221	0.4175	0.011
Mof_H 	H 	0.8111	0.3106	0.3998	0.026
Mof_Co	Co	0.73297	0.35307	0.03005	1.156
Mof_N 	N 	0.6326	0.668	0.0358	-0.055
Mof_N 	N 	0.69688	0.5256	0.04612	-0.232
Mof_O 	O 	0.66563	0.2359	0.9858	-0.451
Mof_O 	O 	0.6919	0.0714	0.93853	-0.439
Mof_O 	O 	0.27852	0.431	0.5518	-0.456
Mof_O 	O 	0.25209	0.2737	0.60108	-0.44
Mof_C 	C 	0.65781	0.1303	0.9527	0.376
Mof_C 	C 	0.60306	0.0658	0.9281	-0.124
Mof_C 	C 	0.56357	0.1319	0.9384	0.044
Mof_H 	H 	0.5706	0.2178	0.9588	0.029
Mof_C 	C 	0.51369	0.0729	0.9187	-0.118
Mof_H 	H 	0.4874	0.1203	0.9256	0.067
Mof_C 	C 	0.50216	0.9429	0.88876	0.048
Mof_C 	C 	0.54179	0.8795	0.8765	-0.12
Mof_H 	H 	0.5349	0.795	0.8551	0.069
Mof_C 	C 	0.59147	0.9419	0.8961	0.05
Mof_H 	H 	0.6174	0.8987	0.8874	0.025
Mof_C 	C 	0.27445	0.388	0.5974	0.377
Mof_C 	C 	0.30008	0.4778	0.6518	-0.132
Mof_C 	C 	0.3318	0.5911	0.6531	0.056
Mof_H 	H 	0.3361	0.615	0.6192	0.024
Mof_C 	C 	0.3572	0.6697	0.7035	-0.126
Mof_H 	H 	0.3792	0.7444	0.7034	0.073
Mof_C 	C 	0.35082	0.6398	0.7549	0.058
Mof_C 	C 	0.3194	0.5246	0.7531	-0.126
Mof_H 	H 	0.3154	0.4994	0.7871	0.075
Mof_C 	C 	0.2937	0.4458	0.7025	0.057
Mof_H 	H 	0.2719	0.3706	0.7024	0.024
Mof_C 	C 	0.4502	0.8744	0.8733	0.029
Mof_C 	C 	0.42576	0.7919	0.8232	-0.097
Mof_H 	H 	0.4424	0.78	0.798	0.062
Mof_C 	C 	0.37722	0.7261	0.8093	0.027
Mof_C 	C 	0.35308	0.7437	0.848	-0.089
Mof_H 	H 	0.3207	0.7001	0.8398	0.066
Mof_C 	C 	0.37682	0.8255	0.8982	0.009
Mof_H 	H 	0.3603	0.8376	0.9236	0.036
Mof_C 	C 	0.42519	0.8895	0.9109	-0.091
Mof_H 	H 	0.4412	0.9435	0.9451	0.059
Mof_C 	C 	0.6471	0.5348	0.036	0.091
Mof_H 	H 	0.6247	0.457	0.0297	0.004
Mof_C 	C 	0.7129	0.6666	0.0479	0.019
Mof_H 	H 	0.7458	0.6956	0.0504	0.023
Mof_C 	C 	0.6738	0.7552	0.0456	-0.042
Mof_H 	H 	0.6751	0.8538	0.0498	0.046
Mof_C 	C 	0.5808	0.7212	0.0322	-0.127
Mof_H 	H 	0.5859	0.7606	0.0702	0.07
Mof_H 	H 	0.5684	0.7974	0.0033	0.073
Mof_C 	C 	0.5388	0.6062	0.0153	0.061
Mof_C 	C 	0.511	0.5668	0.9575	-0.069
Mof_H 	H 	0.5178	0.6114	0.9281	0.059
Mof_C 	C 	0.5272	0.5386	0.0575	-0.071
Mof_H 	H 	0.5453	0.5645	0.097	0.057
Mof_N 	N 	0.632	0.664	0.0536	-0.047
Mof_C 	C 	0.7178	0.633	0.0819	-0.007
Mof_H 	H 	0.7539	0.6446	0.1043	0.026
Mof_C 	C 	0.6818	0.721	0.0825	0.011
Mof_H 	H 	0.6889	0.8106	0.1002	0.026
Mof_Co	Co	0.23297	0.85307	0.03005	1.155
Mof_N 	N 	0.1326	0.168	0.0358	-0.054
Mof_N 	N 	0.19688	0.0256	0.04612	-0.232
Mof_O 	O 	0.16563	0.7359	0.9858	-0.45
Mof_O 	O 	0.1919	0.5714	0.93853	-0.438
Mof_O 	O 	0.77852	0.931	0.5518	-0.457
Mof_O 	O 	0.75209	0.7737	0.60108	-0.44
Mof_C 	C 	0.15781	0.6303	0.9527	0.375
Mof_C 	C 	0.10306	0.5658	0.9281	-0.122
Mof_C 	C 	0.06357	0.6319	0.9384	0.042
Mof_H 	H 	0.0706	0.7178	0.9588	0.03
Mof_C 	C 	0.01369	0.5729	0.9187	-0.115
Mof_H 	H 	0.9874	0.6203	0.9256	0.066
Mof_C 	C 	0.00216	0.4429	0.88876	0.047
Mof_C 	C 	0.04179	0.3795	0.8765	-0.119
Mof_H 	H 	0.0349	0.295	0.8551	0.069
Mof_C 	C 	0.09147	0.4419	0.8961	0.048
Mof_H 	H 	0.1174	0.3987	0.8874	0.025
Mof_C 	C 	0.77445	0.888	0.5974	0.377
Mof_C 	C 	0.80008	0.9778	0.6518	-0.132
Mof_C 	C 	0.8318	0.0911	0.6531	0.057
Mof_H 	H 	0.8361	0.115	0.6192	0.024
Mof_C 	C 	0.8572	0.1697	0.7035	-0.126
Mof_H 	H 	0.8792	0.2444	0.7034	0.073
Mof_C 	C 	0.85082	0.1398	0.7549	0.058
Mof_C 	C 	0.8194	0.0246	0.7531	-0.127
Mof_H 	H 	0.8154	0.9994	0.7871	0.075
Mof_C 	C 	0.7937	0.9458	0.7025	0.057
Mof_H 	H 	0.7719	0.8706	0.7024	0.024
Mof_C 	C 	0.9502	0.3744	0.8733	0.029
Mof_C 	C 	0.92576	0.2919	0.8232	-0.097
Mof_H 	H 	0.9424	0.28	0.798	0.062
Mof_C 	C 	0.87722	0.2261	0.8093	0.027
Mof_C 	C 	0.85308	0.2437	0.848	-0.089
Mof_H 	H 	0.8207	0.2001	0.8398	0.066
Mof_C 	C 	0.87682	0.3255	0.8982	0.009
Mof_H 	H 	0.8603	0.3376	0.9236	0.036
Mof_C 	C 	0.92519	0.3895	0.9109	-0.091
Mof_H 	H 	0.9412	0.4435	0.9451	0.059
Mof_C 	C 	0.1471	0.0348	0.036	0.092
Mof_H 	H 	0.1247	0.957	0.0297	0.004
Mof_C 	C 	0.2129	0.1666	0.0479	0.018
Mof_H 	H 	0.2458	0.1956	0.0504	0.023
Mof_C 	C 	0.1738	0.2552	0.0456	-0.042
Mof_H 	H 	0.1751	0.3538	0.0498	0.046
Mof_C 	C 	0.0808	0.2212	0.0322	-0.126
Mof_H 	H 	0.0859	0.2606	0.0702	0.07
Mof_H 	H 	0.0684	0.2974	0.0033	0.073
Mof_C 	C 	0.0388	0.1062	0.0153	0.061
Mof_C 	C 	0.011	0.0668	0.9575	-0.069
Mof_H 	H 	0.0178	0.1114	0.9281	0.059
Mof_C 	C 	0.0272	0.0386	0.0575	-0.071
Mof_H 	H 	0.0453	0.0645	0.097	0.057
Mof_N 	N 	0.132	0.164	0.0536	-0.048
Mof_C 	C 	0.2178	0.133	0.0819	-0.006
Mof_H 	H 	0.2539	0.1446	0.1043	0.026
Mof_C 	C 	0.1818	0.221	0.0825	0.011
Mof_H 	H 	0.1889	0.3106	0.1002	0.026
_end
