data_functionalizedCrystal
_audit_creation_method	'EQeq! by Chris Wilmer'
_symmetry_space_group_name_H-M	'P1'
_symmetry_Int_Tables_number	1
_symmetry_cell_setting	triclinic
loop_
_symmetry_equiv_pos_as_xyz
  x,y,z
_cell_length_a	24.6648
_cell_length_b	10.049
_cell_length_c	21.4914
_cell_angle_alpha	90
_cell_angle_beta	104.424
_cell_angle_gamma	90
loop_
_atom_site_label
_atom_site_type_symbol
_atom_site_fract_x
_atom_site_fract_y
_atom_site_fract_z
_atom_site_charge
Mof_Cu	Cu	0.70008	0.09372	0.52967	0.924
Mof_O 	O 	0.73519	0.3005	0.56499	-0.357
Mof_O 	O 	0.81296	0.4146	0.56345	-0.383
Mof_O 	O 	0.79517	0.5612	0.87946	-0.377
Mof_O 	O 	0.8504	0.3845	0.9062	-0.297
Mof_N 	N 	0.62182	0.162	0.51692	-0.218
Mof_N 	N 	0.27462	0.5038	0.5403	-0.214
Mof_C 	C 	0.77885	0.3632	0.5916	0.342
Mof_C 	C 	0.78973	0.387	0.66166	-0.051
Mof_C 	C 	0.75642	0.3193	0.69865	0.028
Mof_H 	H 	0.7274	0.2599	0.6785	0.019
Mof_C 	C 	0.76807	0.3434	0.76486	0.019
Mof_C 	C 	0.81064	0.4325	0.79615	-0.09
Mof_C 	C 	0.8428	0.4971	0.7592	-0.036
Mof_H 	H 	0.8718	0.5566	0.7795	-0.009
Mof_C 	C 	0.8324	0.4741	0.6928	0.082
Mof_H 	H 	0.8545	0.5181	0.6687	0.133
Mof_C 	C 	0.8208	0.4565	0.8665	0.341
Mof_C 	C 	0.5791	0.1135	0.4724	0.1
Mof_H 	H 	0.5867	0.052	0.442	0.009
Mof_C 	C 	0.524	0.1481	0.4681	-0.171
Mof_H 	H 	0.4947	0.1082	0.4364	0.098
Mof_C 	C 	0.5117	0.2413	0.5102	0.132
Mof_C 	C 	0.5565	0.2929	0.5556	-0.168
Mof_H 	H 	0.5502	0.3559	0.586	0.094
Mof_C 	C 	0.6103	0.2536	0.5569	0.099
Mof_H 	H 	0.6405	0.2931	0.5876	0.01
Mof_C 	C 	0.4536	0.2787	0.5068	-0.102
Mof_H 	H 	0.4248	0.2359	0.4757	0.086
Mof_C 	C 	0.439	0.3686	0.5445	-0.063
Mof_H 	H 	0.4684	0.4102	0.5755	0.057
Mof_C 	C 	0.3818	0.4101	0.543	0.122
Mof_C 	C 	0.3732	0.5087	0.5848	-0.149
Mof_H 	H 	0.4043	0.547	0.6147	0.091
Mof_C 	C 	0.3195	0.5513	0.5831	0.106
Mof_H 	H 	0.3143	0.6161	0.6132	0.003
Mof_C 	C 	0.2825	0.4078	0.5004	0.106
Mof_H 	H 	0.2506	0.3727	0.4705	0.019
Mof_C 	C 	0.3342	0.3572	0.5004	-0.152
Mof_H 	H 	0.3377	0.2874	0.4718	0.11
Mof_Br	Br	0.70335	0.3368	0.80126	-0.034
Mof_Br	Br	0.83481	0.6574	0.64576	-0.2
Mof_C 	C 	0.74972	0.3576	0.6946	0.176
Mof_H 	H 	0.7148	0.3216	0.6717	-0.018
Mof_C 	C 	0.7591	0.3794	0.7612	-0.018
Mof_C 	C 	0.8525	0.4627	0.7632	-0.31
Mof_H 	H 	0.8876	0.4977	0.7861	0.152
Mof_C 	C 	0.8418	0.4405	0.6964	0.124
Mof_H 	H 	0.8696	0.4617	0.6744	-0.068
Mof_C 	C 	0.7769	0.2911	0.7021	-0.279
Mof_H 	H 	0.7611	0.2091	0.6843	0.134
Mof_C 	C 	0.7866	0.3117	0.7689	0.064
Mof_H 	H 	0.7769	0.2447	0.7954	0.087
Mof_C 	C 	0.8239	0.5321	0.7554	0.347
Mof_H 	H 	0.8393	0.6145	0.7731	-0.041
Mof_C 	C 	0.8142	0.5092	0.6888	-0.188
Mof_Br	Br	0.72469	0.2574	0.81221	-0.208
Mof_Cu	Cu	0.20008	0.59372	0.52967	0.923
Mof_O 	O 	0.23519	0.8005	0.56499	-0.358
Mof_O 	O 	0.31296	0.9146	0.56345	-0.384
Mof_O 	O 	0.29517	0.0612	0.87946	-0.378
Mof_O 	O 	0.3504	0.8845	0.9062	-0.298
Mof_N 	N 	0.12182	0.662	0.51692	-0.219
Mof_N 	N 	0.77462	0.0038	0.5403	-0.215
Mof_C 	C 	0.27885	0.8632	0.5916	0.341
Mof_C 	C 	0.28973	0.887	0.66166	-0.052
Mof_C 	C 	0.25642	0.8193	0.69865	0.027
Mof_H 	H 	0.2274	0.7599	0.6785	0.018
Mof_C 	C 	0.26807	0.8434	0.76486	0.018
Mof_C 	C 	0.31064	0.9325	0.79615	-0.091
Mof_C 	C 	0.3428	0.9971	0.7592	-0.037
Mof_H 	H 	0.3718	0.0566	0.7795	-0.011
Mof_C 	C 	0.3324	0.9741	0.6928	0.081
Mof_H 	H 	0.3545	0.0181	0.6687	0.133
Mof_C 	C 	0.3208	0.9565	0.8665	0.341
Mof_C 	C 	0.0791	0.6135	0.4724	0.101
Mof_H 	H 	0.0867	0.552	0.442	0.009
Mof_C 	C 	0.024	0.6481	0.4681	-0.171
Mof_H 	H 	0.9947	0.6082	0.4364	0.098
Mof_C 	C 	0.0117	0.7413	0.5102	0.132
Mof_C 	C 	0.0565	0.7929	0.5556	-0.168
Mof_H 	H 	0.0502	0.8559	0.586	0.094
Mof_C 	C 	0.1103	0.7536	0.5569	0.099
Mof_H 	H 	0.1405	0.7931	0.5876	0.01
Mof_C 	C 	0.9536	0.7787	0.5068	-0.102
Mof_H 	H 	0.9248	0.7359	0.4757	0.086
Mof_C 	C 	0.939	0.8686	0.5445	-0.063
Mof_H 	H 	0.9684	0.9102	0.5755	0.056
Mof_C 	C 	0.8818	0.9101	0.543	0.122
Mof_C 	C 	0.8732	0.0087	0.5848	-0.149
Mof_H 	H 	0.9043	0.047	0.6147	0.091
Mof_C 	C 	0.8195	0.0513	0.5831	0.106
Mof_H 	H 	0.8143	0.1161	0.6132	0.003
Mof_C 	C 	0.7825	0.9078	0.5004	0.106
Mof_H 	H 	0.7506	0.8727	0.4705	0.019
Mof_C 	C 	0.8342	0.8572	0.5004	-0.152
Mof_H 	H 	0.8377	0.7874	0.4718	0.11
Mof_Br	Br	0.20335	0.8368	0.80126	-0.034
Mof_Br	Br	0.33481	0.1574	0.64576	-0.2
Mof_C 	C 	0.24972	0.8576	0.6946	0.175
Mof_H 	H 	0.2148	0.8216	0.6717	-0.017
Mof_C 	C 	0.2591	0.8794	0.7612	-0.017
Mof_C 	C 	0.3525	0.9627	0.7632	-0.31
Mof_H 	H 	0.3876	0.9977	0.7861	0.152
Mof_C 	C 	0.3418	0.9405	0.6964	0.125
Mof_H 	H 	0.3696	0.9617	0.6744	-0.069
Mof_C 	C 	0.2769	0.7911	0.7021	-0.278
Mof_H 	H 	0.2611	0.7091	0.6843	0.134
Mof_C 	C 	0.2866	0.8117	0.7689	0.064
Mof_H 	H 	0.2769	0.7447	0.7954	0.087
Mof_C 	C 	0.3239	0.0321	0.7554	0.348
Mof_H 	H 	0.3393	0.1145	0.7731	-0.041
Mof_C 	C 	0.3142	0.0092	0.6888	-0.189
Mof_Br	Br	0.22469	0.7574	0.81221	-0.209
Mof_Cu	Cu	0.29992	0.09372	0.97033	0.923
Mof_O 	O 	0.26481	0.3005	0.93501	-0.358
Mof_O 	O 	0.18704	0.4146	0.93655	-0.384
Mof_O 	O 	0.20483	0.5612	0.62054	-0.378
Mof_O 	O 	0.1496	0.3845	0.5938	-0.298
Mof_N 	N 	0.37818	0.162	0.98308	-0.219
Mof_N 	N 	0.72538	0.5038	0.9597	-0.215
Mof_C 	C 	0.22115	0.3632	0.9084	0.341
Mof_C 	C 	0.21027	0.387	0.83834	-0.052
Mof_C 	C 	0.24358	0.3193	0.80135	0.027
Mof_H 	H 	0.2726	0.2599	0.8215	0.018
Mof_C 	C 	0.23193	0.3434	0.73514	0.018
Mof_C 	C 	0.18936	0.4325	0.70385	-0.091
Mof_C 	C 	0.1572	0.4971	0.7408	-0.037
Mof_H 	H 	0.1282	0.5566	0.7205	-0.01
Mof_C 	C 	0.1676	0.4741	0.8072	0.081
Mof_H 	H 	0.1455	0.5181	0.8313	0.133
Mof_C 	C 	0.1792	0.4565	0.6335	0.341
Mof_C 	C 	0.4209	0.1135	0.0276	0.101
Mof_H 	H 	0.4133	0.052	0.058	0.009
Mof_C 	C 	0.476	0.1481	0.0319	-0.171
Mof_H 	H 	0.5053	0.1082	0.0636	0.098
Mof_C 	C 	0.4883	0.2413	0.9898	0.132
Mof_C 	C 	0.4435	0.2929	0.9444	-0.168
Mof_H 	H 	0.4498	0.3559	0.914	0.094
Mof_C 	C 	0.3897	0.2536	0.9431	0.099
Mof_H 	H 	0.3595	0.2931	0.9124	0.01
Mof_C 	C 	0.5464	0.2787	0.9932	-0.102
Mof_H 	H 	0.5752	0.2359	0.0243	0.087
Mof_C 	C 	0.561	0.3686	0.9555	-0.062
Mof_H 	H 	0.5316	0.4102	0.9245	0.056
Mof_C 	C 	0.6182	0.4101	0.957	0.122
Mof_C 	C 	0.6268	0.5087	0.9152	-0.149
Mof_H 	H 	0.5957	0.547	0.8853	0.091
Mof_C 	C 	0.6805	0.5513	0.9169	0.106
Mof_H 	H 	0.6857	0.6161	0.8868	0.003
Mof_C 	C 	0.7175	0.4078	0.9996	0.106
Mof_H 	H 	0.7494	0.3727	0.0295	0.02
Mof_C 	C 	0.6658	0.3572	0.9996	-0.153
Mof_H 	H 	0.6623	0.2874	0.0282	0.11
Mof_Br	Br	0.29665	0.3368	0.69874	-0.034
Mof_Br	Br	0.16519	0.6574	0.85424	-0.2
Mof_C 	C 	0.25028	0.3576	0.8054	0.176
Mof_H 	H 	0.2852	0.3216	0.8283	-0.017
Mof_C 	C 	0.2409	0.3794	0.7388	-0.018
Mof_C 	C 	0.1475	0.4627	0.7368	-0.31
Mof_H 	H 	0.1124	0.4977	0.7139	0.152
Mof_C 	C 	0.1582	0.4405	0.8036	0.124
Mof_H 	H 	0.1304	0.4617	0.8256	-0.068
Mof_C 	C 	0.2231	0.2911	0.7979	-0.279
Mof_H 	H 	0.2389	0.2091	0.8157	0.134
Mof_C 	C 	0.2134	0.3117	0.7311	0.064
Mof_H 	H 	0.2231	0.2447	0.7046	0.087
Mof_C 	C 	0.1761	0.5321	0.7446	0.347
Mof_H 	H 	0.1607	0.6145	0.7269	-0.041
Mof_C 	C 	0.1858	0.5092	0.8112	-0.188
Mof_Br	Br	0.27531	0.2574	0.68779	-0.208
Mof_Cu	Cu	0.79992	0.59372	0.97033	0.923
Mof_O 	O 	0.76481	0.8005	0.93501	-0.358
Mof_O 	O 	0.68704	0.9146	0.93655	-0.384
Mof_O 	O 	0.70483	0.0612	0.62054	-0.378
Mof_O 	O 	0.6496	0.8845	0.5938	-0.298
Mof_N 	N 	0.87818	0.662	0.98308	-0.218
Mof_N 	N 	0.22538	0.0038	0.9597	-0.216
Mof_C 	C 	0.72115	0.8632	0.9084	0.341
Mof_C 	C 	0.71027	0.887	0.83834	-0.052
Mof_C 	C 	0.74358	0.8193	0.80135	0.027
Mof_H 	H 	0.7726	0.7599	0.8215	0.018
Mof_C 	C 	0.73193	0.8434	0.73514	0.018
Mof_C 	C 	0.68936	0.9325	0.70385	-0.091
Mof_C 	C 	0.6572	0.9971	0.7408	-0.037
Mof_H 	H 	0.6282	0.0566	0.7205	-0.011
Mof_C 	C 	0.6676	0.9741	0.8072	0.08
Mof_H 	H 	0.6455	0.0181	0.8313	0.133
Mof_C 	C 	0.6792	0.9565	0.6335	0.341
Mof_C 	C 	0.9209	0.6135	0.0276	0.098
Mof_H 	H 	0.9133	0.552	0.058	0.01
Mof_C 	C 	0.976	0.6481	0.0319	-0.165
Mof_H 	H 	0.0053	0.6082	0.0636	0.095
Mof_C 	C 	0.9883	0.7413	0.9898	0.125
Mof_C 	C 	0.9435	0.7929	0.9444	-0.164
Mof_H 	H 	0.9498	0.8559	0.914	0.092
Mof_C 	C 	0.8897	0.7536	0.9431	0.097
Mof_H 	H 	0.8595	0.7931	0.9124	0.011
Mof_C 	C 	0.0464	0.7787	0.9932	-0.094
Mof_H 	H 	0.0752	0.7359	0.0243	0.083
Mof_C 	C 	0.061	0.8686	0.9555	-0.067
Mof_H 	H 	0.0316	0.9102	0.9245	0.058
Mof_C 	C 	0.1182	0.9101	0.957	0.125
Mof_C 	C 	0.1268	0.0087	0.9152	-0.151
Mof_H 	H 	0.0957	0.047	0.8853	0.092
Mof_C 	C 	0.1805	0.0513	0.9169	0.107
Mof_H 	H 	0.1857	0.1161	0.8868	0.003
Mof_C 	C 	0.2175	0.9078	0.9996	0.109
Mof_H 	H 	0.2494	0.8727	0.0295	0.018
Mof_C 	C 	0.1658	0.8572	0.9996	-0.153
Mof_H 	H 	0.1623	0.7874	0.0282	0.109
Mof_Br	Br	0.79665	0.8368	0.69874	-0.034
Mof_Br	Br	0.66519	0.1574	0.85424	-0.2
Mof_C 	C 	0.75028	0.8576	0.8054	0.176
Mof_H 	H 	0.7852	0.8216	0.8283	-0.018
Mof_C 	C 	0.7409	0.8794	0.7388	-0.017
Mof_C 	C 	0.6475	0.9627	0.7368	-0.309
Mof_H 	H 	0.6124	0.9977	0.7139	0.152
Mof_C 	C 	0.6582	0.9405	0.8036	0.125
Mof_H 	H 	0.6304	0.9617	0.8256	-0.068
Mof_C 	C 	0.7231	0.7911	0.7979	-0.279
Mof_H 	H 	0.7389	0.7091	0.8157	0.134
Mof_C 	C 	0.7134	0.8117	0.7311	0.064
Mof_H 	H 	0.7231	0.7447	0.7046	0.087
Mof_C 	C 	0.6761	0.0321	0.7446	0.347
Mof_H 	H 	0.6607	0.1145	0.7269	-0.041
Mof_C 	C 	0.6858	0.0092	0.8112	-0.189
Mof_Br	Br	0.77531	0.7574	0.68779	-0.208
Mof_Cu	Cu	0.29992	0.90628	0.47033	0.923
Mof_O 	O 	0.26481	0.6995	0.43501	-0.358
Mof_O 	O 	0.18704	0.5854	0.43655	-0.384
Mof_O 	O 	0.20483	0.4388	0.12054	-0.378
Mof_O 	O 	0.1496	0.6155	0.0938	-0.298
Mof_N 	N 	0.37818	0.838	0.48308	-0.219
Mof_N 	N 	0.72538	0.4962	0.4597	-0.215
Mof_C 	C 	0.22115	0.6368	0.4084	0.341
Mof_C 	C 	0.21027	0.613	0.33834	-0.052
Mof_C 	C 	0.24358	0.6807	0.30135	0.027
Mof_H 	H 	0.2726	0.7401	0.3215	0.018
Mof_C 	C 	0.23193	0.6566	0.23514	0.018
Mof_C 	C 	0.18936	0.5675	0.20385	-0.091
Mof_C 	C 	0.1572	0.5029	0.2408	-0.037
Mof_H 	H 	0.1282	0.4434	0.2205	-0.01
Mof_C 	C 	0.1676	0.5259	0.3072	0.081
Mof_H 	H 	0.1455	0.4819	0.3313	0.133
Mof_C 	C 	0.1792	0.5435	0.1335	0.341
Mof_C 	C 	0.4209	0.8865	0.5276	0.1
Mof_H 	H 	0.4133	0.948	0.558	0.009
Mof_C 	C 	0.476	0.8519	0.5319	-0.171
Mof_H 	H 	0.5053	0.8918	0.5636	0.098
Mof_C 	C 	0.4883	0.7587	0.4898	0.132
Mof_C 	C 	0.4435	0.7071	0.4444	-0.168
Mof_H 	H 	0.4498	0.6441	0.414	0.094
Mof_C 	C 	0.3897	0.7464	0.4431	0.099
Mof_H 	H 	0.3595	0.7069	0.4124	0.01
Mof_C 	C 	0.5464	0.7213	0.4932	-0.102
Mof_H 	H 	0.5752	0.7641	0.5243	0.086
Mof_C 	C 	0.561	0.6314	0.4555	-0.063
Mof_H 	H 	0.5316	0.5898	0.4245	0.057
Mof_C 	C 	0.6182	0.5899	0.457	0.122
Mof_C 	C 	0.6268	0.4913	0.4152	-0.149
Mof_H 	H 	0.5957	0.453	0.3853	0.091
Mof_C 	C 	0.6805	0.4487	0.4169	0.106
Mof_H 	H 	0.6857	0.3839	0.3868	0.003
Mof_C 	C 	0.7175	0.5922	0.4996	0.106
Mof_H 	H 	0.7494	0.6273	0.5295	0.019
Mof_C 	C 	0.6658	0.6428	0.4996	-0.152
Mof_H 	H 	0.6623	0.7126	0.5282	0.11
Mof_Br	Br	0.29665	0.6632	0.19874	-0.034
Mof_Br	Br	0.16519	0.3426	0.35424	-0.2
Mof_C 	C 	0.25028	0.6424	0.3054	0.176
Mof_H 	H 	0.2852	0.6784	0.3283	-0.018
Mof_C 	C 	0.2409	0.6206	0.2388	-0.018
Mof_C 	C 	0.1475	0.5373	0.2368	-0.31
Mof_H 	H 	0.1124	0.5023	0.2139	0.152
Mof_C 	C 	0.1582	0.5595	0.3036	0.124
Mof_H 	H 	0.1304	0.5383	0.3256	-0.068
Mof_C 	C 	0.2231	0.7089	0.2979	-0.279
Mof_H 	H 	0.2389	0.7909	0.3157	0.134
Mof_C 	C 	0.2134	0.6883	0.2311	0.064
Mof_H 	H 	0.2231	0.7553	0.2046	0.087
Mof_C 	C 	0.1761	0.4679	0.2446	0.347
Mof_H 	H 	0.1607	0.3855	0.2269	-0.041
Mof_C 	C 	0.1858	0.4908	0.3112	-0.188
Mof_Br	Br	0.27531	0.7426	0.18779	-0.208
Mof_Cu	Cu	0.79992	0.40628	0.47033	0.923
Mof_O 	O 	0.76481	0.1995	0.43501	-0.358
Mof_O 	O 	0.68704	0.0854	0.43655	-0.384
Mof_O 	O 	0.70483	0.9388	0.12054	-0.378
Mof_O 	O 	0.6496	0.1155	0.0938	-0.298
Mof_N 	N 	0.87818	0.338	0.48308	-0.219
Mof_N 	N 	0.22538	0.9962	0.4597	-0.215
Mof_C 	C 	0.72115	0.1368	0.4084	0.341
Mof_C 	C 	0.71027	0.113	0.33834	-0.052
Mof_C 	C 	0.74358	0.1807	0.30135	0.027
Mof_H 	H 	0.7726	0.2401	0.3215	0.018
Mof_C 	C 	0.73193	0.1566	0.23514	0.018
Mof_C 	C 	0.68936	0.0675	0.20385	-0.091
Mof_C 	C 	0.6572	0.0029	0.2408	-0.037
Mof_H 	H 	0.6282	0.9434	0.2205	-0.011
Mof_C 	C 	0.6676	0.0259	0.3072	0.081
Mof_H 	H 	0.6455	0.9819	0.3313	0.133
Mof_C 	C 	0.6792	0.0435	0.1335	0.341
Mof_C 	C 	0.9209	0.3865	0.5276	0.101
Mof_H 	H 	0.9133	0.448	0.558	0.009
Mof_C 	C 	0.976	0.3519	0.5319	-0.171
Mof_H 	H 	0.0053	0.3918	0.5636	0.098
Mof_C 	C 	0.9883	0.2587	0.4898	0.132
Mof_C 	C 	0.9435	0.2071	0.4444	-0.168
Mof_H 	H 	0.9498	0.1441	0.414	0.094
Mof_C 	C 	0.8897	0.2464	0.4431	0.099
Mof_H 	H 	0.8595	0.2069	0.4124	0.01
Mof_C 	C 	0.0464	0.2213	0.4932	-0.102
Mof_H 	H 	0.0752	0.2641	0.5243	0.086
Mof_C 	C 	0.061	0.1314	0.4555	-0.063
Mof_H 	H 	0.0316	0.0898	0.4245	0.056
Mof_C 	C 	0.1182	0.0899	0.457	0.122
Mof_C 	C 	0.1268	0.9913	0.4152	-0.149
Mof_H 	H 	0.0957	0.953	0.3853	0.091
Mof_C 	C 	0.1805	0.9487	0.4169	0.106
Mof_H 	H 	0.1857	0.8839	0.3868	0.003
Mof_C 	C 	0.2175	0.0922	0.4996	0.106
Mof_H 	H 	0.2494	0.1273	0.5295	0.019
Mof_C 	C 	0.1658	0.1428	0.4996	-0.152
Mof_H 	H 	0.1623	0.2126	0.5282	0.11
Mof_Br	Br	0.79665	0.1632	0.19874	-0.034
Mof_Br	Br	0.66519	0.8426	0.35424	-0.2
Mof_C 	C 	0.75028	0.1424	0.3054	0.175
Mof_H 	H 	0.7852	0.1784	0.3283	-0.017
Mof_C 	C 	0.7409	0.1206	0.2388	-0.017
Mof_C 	C 	0.6475	0.0373	0.2368	-0.31
Mof_H 	H 	0.6124	0.0023	0.2139	0.152
Mof_C 	C 	0.6582	0.0595	0.3036	0.125
Mof_H 	H 	0.6304	0.0383	0.3256	-0.069
Mof_C 	C 	0.7231	0.2089	0.2979	-0.278
Mof_H 	H 	0.7389	0.2909	0.3157	0.134
Mof_C 	C 	0.7134	0.1883	0.2311	0.064
Mof_H 	H 	0.7231	0.2553	0.2046	0.087
Mof_C 	C 	0.6761	0.9679	0.2446	0.348
Mof_H 	H 	0.6607	0.8855	0.2269	-0.041
Mof_C 	C 	0.6858	0.9908	0.3112	-0.189
Mof_Br	Br	0.77531	0.2426	0.18779	-0.209
Mof_Cu	Cu	0.70008	0.90628	0.02967	0.923
Mof_O 	O 	0.73519	0.6995	0.06499	-0.358
Mof_O 	O 	0.81296	0.5854	0.06345	-0.384
Mof_O 	O 	0.79517	0.4388	0.37946	-0.378
Mof_O 	O 	0.8504	0.6155	0.4062	-0.298
Mof_N 	N 	0.62182	0.838	0.01692	-0.219
Mof_N 	N 	0.27462	0.4962	0.0403	-0.215
Mof_C 	C 	0.77885	0.6368	0.0916	0.341
Mof_C 	C 	0.78973	0.613	0.16166	-0.052
Mof_C 	C 	0.75642	0.6807	0.19865	0.027
Mof_H 	H 	0.7274	0.7401	0.1785	0.018
Mof_C 	C 	0.76807	0.6566	0.26486	0.018
Mof_C 	C 	0.81064	0.5675	0.29615	-0.091
Mof_C 	C 	0.8428	0.5029	0.2592	-0.037
Mof_H 	H 	0.8718	0.4434	0.2795	-0.01
Mof_C 	C 	0.8324	0.5259	0.1928	0.081
Mof_H 	H 	0.8545	0.4819	0.1687	0.133
Mof_C 	C 	0.8208	0.5435	0.3665	0.341
Mof_C 	C 	0.5791	0.8865	0.9724	0.101
Mof_H 	H 	0.5867	0.948	0.942	0.009
Mof_C 	C 	0.524	0.8519	0.9681	-0.171
Mof_H 	H 	0.4947	0.8918	0.9364	0.098
Mof_C 	C 	0.5117	0.7587	0.0102	0.132
Mof_C 	C 	0.5565	0.7071	0.0556	-0.168
Mof_H 	H 	0.5502	0.6441	0.086	0.094
Mof_C 	C 	0.6103	0.7464	0.0569	0.099
Mof_H 	H 	0.6405	0.7069	0.0876	0.01
Mof_C 	C 	0.4536	0.7213	0.0068	-0.102
Mof_H 	H 	0.4248	0.7641	0.9757	0.087
Mof_C 	C 	0.439	0.6314	0.0445	-0.062
Mof_H 	H 	0.4684	0.5898	0.0755	0.056
Mof_C 	C 	0.3818	0.5899	0.043	0.122
Mof_C 	C 	0.3732	0.4913	0.0848	-0.149
Mof_H 	H 	0.4043	0.453	0.1147	0.091
Mof_C 	C 	0.3195	0.4487	0.0831	0.106
Mof_H 	H 	0.3143	0.3839	0.1132	0.003
Mof_C 	C 	0.2825	0.5922	0.0004	0.106
Mof_H 	H 	0.2506	0.6273	0.9705	0.02
Mof_C 	C 	0.3342	0.6428	0.0004	-0.153
Mof_H 	H 	0.3377	0.7126	0.9718	0.11
Mof_Br	Br	0.70335	0.6632	0.30126	-0.034
Mof_Br	Br	0.83481	0.3426	0.14576	-0.2
Mof_C 	C 	0.74972	0.6424	0.1946	0.176
Mof_H 	H 	0.7148	0.6784	0.1717	-0.017
Mof_C 	C 	0.7591	0.6206	0.2612	-0.018
Mof_C 	C 	0.8525	0.5373	0.2632	-0.31
Mof_H 	H 	0.8876	0.5023	0.2861	0.152
Mof_C 	C 	0.8418	0.5595	0.1964	0.124
Mof_H 	H 	0.8696	0.5383	0.1744	-0.068
Mof_C 	C 	0.7769	0.7089	0.2021	-0.279
Mof_H 	H 	0.7611	0.7909	0.1843	0.134
Mof_C 	C 	0.7866	0.6883	0.2689	0.064
Mof_H 	H 	0.7769	0.7553	0.2954	0.087
Mof_C 	C 	0.8239	0.4679	0.2554	0.347
Mof_H 	H 	0.8393	0.3855	0.2731	-0.041
Mof_C 	C 	0.8142	0.4908	0.1888	-0.188
Mof_Br	Br	0.72469	0.7426	0.31221	-0.208
Mof_Cu	Cu	0.20008	0.40628	0.02967	0.923
Mof_O 	O 	0.23519	0.1995	0.06499	-0.358
Mof_O 	O 	0.31296	0.0854	0.06345	-0.384
Mof_O 	O 	0.29517	0.9388	0.37946	-0.378
Mof_O 	O 	0.3504	0.1155	0.4062	-0.298
Mof_N 	N 	0.12182	0.338	0.01692	-0.218
Mof_N 	N 	0.77462	0.9962	0.0403	-0.216
Mof_C 	C 	0.27885	0.1368	0.0916	0.341
Mof_C 	C 	0.28973	0.113	0.16166	-0.052
Mof_C 	C 	0.25642	0.1807	0.19865	0.027
Mof_H 	H 	0.2274	0.2401	0.1785	0.018
Mof_C 	C 	0.26807	0.1566	0.26486	0.018
Mof_C 	C 	0.31064	0.0675	0.29615	-0.091
Mof_C 	C 	0.3428	0.0029	0.2592	-0.037
Mof_H 	H 	0.3718	0.9434	0.2795	-0.011
Mof_C 	C 	0.3324	0.0259	0.1928	0.08
Mof_H 	H 	0.3545	0.9819	0.1687	0.133
Mof_C 	C 	0.3208	0.0435	0.3665	0.341
Mof_C 	C 	0.0791	0.3865	0.9724	0.098
Mof_H 	H 	0.0867	0.448	0.942	0.01
Mof_C 	C 	0.024	0.3519	0.9681	-0.165
Mof_H 	H 	0.9947	0.3918	0.9364	0.095
Mof_C 	C 	0.0117	0.2587	0.0102	0.125
Mof_C 	C 	0.0565	0.2071	0.0556	-0.164
Mof_H 	H 	0.0502	0.1441	0.086	0.092
Mof_C 	C 	0.1103	0.2464	0.0569	0.097
Mof_H 	H 	0.1405	0.2069	0.0876	0.011
Mof_C 	C 	0.9536	0.2213	0.0068	-0.094
Mof_H 	H 	0.9248	0.2641	0.9757	0.083
Mof_C 	C 	0.939	0.1314	0.0445	-0.067
Mof_H 	H 	0.9684	0.0898	0.0755	0.058
Mof_C 	C 	0.8818	0.0899	0.043	0.125
Mof_C 	C 	0.8732	0.9913	0.0848	-0.151
Mof_H 	H 	0.9043	0.953	0.1147	0.092
Mof_C 	C 	0.8195	0.9487	0.0831	0.107
Mof_H 	H 	0.8143	0.8839	0.1132	0.003
Mof_C 	C 	0.7825	0.0922	0.0004	0.109
Mof_H 	H 	0.7506	0.1273	0.9705	0.018
Mof_C 	C 	0.8342	0.1428	0.0004	-0.153
Mof_H 	H 	0.8377	0.2126	0.9718	0.109
Mof_Br	Br	0.20335	0.1632	0.30126	-0.034
Mof_Br	Br	0.33481	0.8426	0.14576	-0.2
Mof_C 	C 	0.24972	0.1424	0.1946	0.176
Mof_H 	H 	0.2148	0.1784	0.1717	-0.018
Mof_C 	C 	0.2591	0.1206	0.2612	-0.017
Mof_C 	C 	0.3525	0.0373	0.2632	-0.309
Mof_H 	H 	0.3876	0.0023	0.2861	0.152
Mof_C 	C 	0.3418	0.0595	0.1964	0.125
Mof_H 	H 	0.3696	0.0383	0.1744	-0.068
Mof_C 	C 	0.2769	0.2089	0.2021	-0.279
Mof_H 	H 	0.2611	0.2909	0.1843	0.134
Mof_C 	C 	0.2866	0.1883	0.2689	0.064
Mof_H 	H 	0.2769	0.2553	0.2954	0.087
Mof_C 	C 	0.3239	0.9679	0.2554	0.347
Mof_H 	H 	0.3393	0.8855	0.2731	-0.041
Mof_C 	C 	0.3142	0.9908	0.1888	-0.189
Mof_Br	Br	0.22469	0.2426	0.31221	-0.208
_end
