data_functionalizedCrystal
_audit_creation_method	'EQeq! by Chris Wilmer'
_symmetry_space_group_name_H-M	'P1'
_symmetry_Int_Tables_number	1
_symmetry_cell_setting	triclinic
loop_
_symmetry_equiv_pos_as_xyz
  x,y,z
_cell_length_a	10.0873
_cell_length_b	10.0873
_cell_length_c	12.9358
_cell_angle_alpha	90
_cell_angle_beta	90
_cell_angle_gamma	90
loop_
_atom_site_label
_atom_site_type_symbol
_atom_site_fract_x
_atom_site_fract_y
_atom_site_fract_z
_atom_site_charge
Mof_Co	Co	0.8816	0.1324	0.2989	1.215
Mof_P 	P 	0.8446	0.8679	0.1839	0.626
Mof_O 	O 	0.7208	0.7848	0.1887	-0.424
Mof_O 	O 	0.9062	0.8579	0.0761	-0.399
Mof_O 	O 	0.8075	0.0123	0.2034	-0.525
Mof_O 	O 	0.8895	0.0629	0.4342	-0.373
Mof_O 	O 	0.0584	0.1815	0.2647	-0.512
Mof_Co	Co	0.1184	0.8676	0.2989	1.186
Mof_P 	P 	0.1554	0.1321	0.1839	0.505
Mof_O 	O 	0.2792	0.2152	0.1887	-0.448
Mof_O 	O 	0.0938	0.1421	0.0761	-0.499
Mof_O 	O 	0.1925	0.9877	0.2034	-0.419
Mof_O 	O 	0.1105	0.9371	0.4342	-0.361
Mof_O 	O 	0.9416	0.8185	0.2647	-0.414
Mof_Co	Co	0.1324	0.1184	0.7011	1.175
Mof_P 	P 	0.8679	0.1554	0.8161	0.626
Mof_O 	O 	0.7848	0.2792	0.8113	-0.403
Mof_O 	O 	0.8579	0.0938	0.9239	-0.366
Mof_O 	O 	0.0123	0.1925	0.7966	-0.521
Mof_O 	O 	0.0629	0.1105	0.5658	-0.445
Mof_O 	O 	0.1815	0.9416	0.7353	-0.416
Mof_Co	Co	0.8676	0.8816	0.7011	1.231
Mof_P 	P 	0.1321	0.8446	0.8161	0.508
Mof_O 	O 	0.2152	0.7208	0.8113	-0.411
Mof_O 	O 	0.1421	0.9062	0.9239	-0.339
Mof_O 	O 	0.9877	0.8075	0.7966	-0.371
Mof_O 	O 	0.9371	0.8895	0.5658	-0.297
Mof_O 	O 	0.8185	0.0584	0.7353	-0.486
Mof_Co	Co	0.6184	0.6324	0.2011	1.202
Mof_P 	P 	0.6554	0.3679	0.3161	0.567
Mof_O 	O 	0.7792	0.2848	0.3113	-0.415
Mof_O 	O 	0.5938	0.3579	0.4239	-0.428
Mof_O 	O 	0.6925	0.5123	0.2966	-0.456
Mof_O 	O 	0.6105	0.5629	0.0658	-0.435
Mof_O 	O 	0.4416	0.6815	0.2353	-0.463
Mof_Co	Co	0.3816	0.3676	0.2011	1.195
Mof_P 	P 	0.3446	0.6321	0.3161	0.568
Mof_O 	O 	0.2208	0.7152	0.3113	-0.442
Mof_O 	O 	0.4062	0.6421	0.4239	-0.421
Mof_O 	O 	0.3075	0.4877	0.2966	-0.479
Mof_O 	O 	0.3895	0.4371	0.0658	-0.452
Mof_O 	O 	0.5584	0.3185	0.2353	-0.478
Mof_Co	Co	0.3676	0.6184	0.7989	1.205
Mof_P 	P 	0.6321	0.6554	0.6839	0.568
Mof_O 	O 	0.7152	0.7792	0.6887	-0.395
Mof_O 	O 	0.6421	0.5938	0.5761	-0.415
Mof_O 	O 	0.4877	0.6925	0.7034	-0.452
Mof_O 	O 	0.4371	0.6105	0.9342	-0.333
Mof_O 	O 	0.3185	0.4416	0.7647	-0.457
Mof_Co	Co	0.6324	0.3816	0.7989	1.206
Mof_P 	P 	0.3679	0.3446	0.6839	0.567
Mof_O 	O 	0.2848	0.2208	0.6887	-0.436
Mof_O 	O 	0.3579	0.4062	0.5761	-0.434
Mof_O 	O 	0.5123	0.3075	0.7034	-0.468
Mof_O 	O 	0.5629	0.3895	0.9342	-0.338
Mof_O 	O 	0.6815	0.5584	0.7647	-0.438
Mof_Co	Co	-0	0	-0	1.046
Mof_Co	Co	0.5	0.5	0.5	1.173
Mof_P 	P 	-2.39046e-33	-4.79454e-33	0.5	0.306
Mof_P 	P 	0.5	0.5	-0	0.389
_end
