data_functionalizedCrystal
_audit_creation_method	'EQeq! by Chris Wilmer'
_symmetry_space_group_name_H-M	'P1'
_symmetry_Int_Tables_number	1
_symmetry_cell_setting	triclinic
loop_
_symmetry_equiv_pos_as_xyz
  x,y,z
_cell_length_a	18.928
_cell_length_b	19.711
_cell_length_c	23.0995
_cell_angle_alpha	112.906
_cell_angle_beta	90
_cell_angle_gamma	90
loop_
_atom_site_label
_atom_site_type_symbol
_atom_site_fract_x
_atom_site_fract_y
_atom_site_fract_z
_atom_site_charge
Mof_Ce	Ce	0.01376	0.62042	0.02416	2.567
Mof_Ce	Ce	0.99605	0.88609	0.98359	2.527
Mof_Ce	Ce	0.51376	0.87958	0.47584	2.595
Mof_Ce	Ce	0.49605	0.61391	0.51641	2.556
Mof_Ce	Ce	0.98624	0.37958	0.97584	2.567
Mof_Ce	Ce	0.00395	0.11391	0.01641	2.527
Mof_Ce	Ce	0.48624	0.12042	0.52416	2.595
Mof_Ce	Ce	0.50395	0.38609	0.48359	2.556
Mof_H 	H 	0.9674	0.9455	0.1749	-0.002
Mof_H 	H 	0.8448	0.766	0.1361	0.016
Mof_H 	H 	0.9009	0.0104	0.2633	0.085
Mof_H 	H 	0.8095	0.0662	0.35	0.091
Mof_H 	H 	0.6417	0.89	0.3471	-0.046
Mof_H 	H 	0.7177	0.0968	0.4224	0.005
Mof_H 	H 	0.1789	0.363	0.8304	0.014
Mof_H 	H 	0.1121	0.5668	0.8553	0.01
Mof_H 	H 	0.2637	0.3668	0.7587	0.095
Mof_H 	H 	0.3468	0.3908	0.685	0.058
Mof_H 	H 	0.3056	0.6182	0.673	0.051
Mof_H 	H 	0.4167	0.429	0.622	-0.021
Mof_H 	H 	0.7037	0.4348	0.604	0.004
Mof_H 	H 	0.6822	0.6535	0.6565	0.027
Mof_H 	H 	0.7988	0.4516	0.6705	0.09
Mof_H 	H 	0.8929	0.4943	0.7597	0.089
Mof_H 	H 	0.9146	0.7514	0.8431	0
Mof_H 	H 	0.9733	0.5528	0.8408	-0.01
Mof_H 	H 	0.4674	0.5545	0.3251	-0.007
Mof_H 	H 	0.3448	0.734	0.3639	0.014
Mof_H 	H 	0.4009	0.4896	0.2367	0.086
Mof_H 	H 	0.3095	0.4338	0.15	0.089
Mof_H 	H 	0.1417	0.61	0.1529	-0.046
Mof_H 	H 	0.2177	0.4032	0.0776	0.004
Mof_H 	H 	0.6789	0.137	0.6696	0.013
Mof_H 	H 	0.6121	0.9332	0.6447	0.008
Mof_H 	H 	0.7637	0.1332	0.7413	0.095
Mof_H 	H 	0.8468	0.1092	0.815	0.059
Mof_H 	H 	0.8056	0.8818	0.827	0.049
Mof_H 	H 	0.9167	0.071	0.878	-0.023
Mof_H 	H 	0.2037	0.0652	0.896	0.005
Mof_H 	H 	0.1822	0.8465	0.8435	0.029
Mof_H 	H 	0.2988	0.0484	0.8295	0.09
Mof_H 	H 	0.3929	0.0057	0.7403	0.09
Mof_H 	H 	0.4146	0.7486	0.6569	0.002
Mof_H 	H 	0.4733	0.9472	0.6592	-0.007
Mof_H 	H 	0.0326	0.0545	0.8251	-0.003
Mof_H 	H 	0.1552	0.234	0.8639	0.015
Mof_H 	H 	0.0991	0.9896	0.7367	0.084
Mof_H 	H 	0.1905	0.9338	0.65	0.09
Mof_H 	H 	0.3583	0.11	0.6529	-0.046
Mof_H 	H 	0.2823	0.9032	0.5776	0.005
Mof_H 	H 	0.8211	0.637	0.1696	0.014
Mof_H 	H 	0.8879	0.4332	0.1447	0.01
Mof_H 	H 	0.7363	0.6332	0.2413	0.095
Mof_H 	H 	0.6532	0.6092	0.315	0.058
Mof_H 	H 	0.6944	0.3818	0.327	0.051
Mof_H 	H 	0.5833	0.571	0.378	-0.021
Mof_H 	H 	0.2963	0.5652	0.396	0.004
Mof_H 	H 	0.3178	0.3465	0.3435	0.027
Mof_H 	H 	0.2012	0.5484	0.3295	0.09
Mof_H 	H 	0.1071	0.5057	0.2403	0.089
Mof_H 	H 	0.0854	0.2486	0.1569	0
Mof_H 	H 	0.0267	0.4472	0.1592	-0.01
Mof_H 	H 	0.5326	0.4455	0.6749	-0.007
Mof_H 	H 	0.6552	0.266	0.6361	0.014
Mof_H 	H 	0.5991	0.5104	0.7633	0.086
Mof_H 	H 	0.6905	0.5662	0.85	0.089
Mof_H 	H 	0.8583	0.39	0.8471	-0.046
Mof_H 	H 	0.7823	0.5968	0.9224	0.004
Mof_H 	H 	0.3211	0.863	0.3304	0.013
Mof_H 	H 	0.3879	0.0668	0.3553	0.008
Mof_H 	H 	0.2363	0.8668	0.2587	0.095
Mof_H 	H 	0.1532	0.8908	0.185	0.059
Mof_H 	H 	0.1944	0.1182	0.173	0.049
Mof_H 	H 	0.0833	0.929	0.122	-0.023
Mof_H 	H 	0.7963	0.9348	0.104	0.005
Mof_H 	H 	0.8178	0.1535	0.1565	0.029
Mof_H 	H 	0.7012	0.9516	0.1705	0.09
Mof_H 	H 	0.6071	0.9943	0.2597	0.09
Mof_H 	H 	0.5854	0.2514	0.3431	0.002
Mof_H 	H 	0.5267	0.0528	0.3408	-0.007
Mof_C 	C 	0.9584	0.8069	0.0905	0.504
Mof_C 	C 	0.9139	0.8494	0.1475	-0.205
Mof_C 	C 	0.9293	0.9226	0.1853	0.097
Mof_C 	C 	0.856	0.8145	0.1609	0.082
Mof_C 	C 	0.8892	0.9621	0.2379	-0.141
Mof_C 	C 	0.8157	0.8555	0.2131	-0.102
Mof_C 	C 	0.8316	0.9282	0.2518	0.051
Mof_C 	C 	0.7796	0.9599	0.3037	0.065
Mof_C 	C 	0.7275	0.9089	0.304	-0.127
Mof_C 	C 	0.776	0.0312	0.3488	-0.155
Mof_C 	C 	0.6743	0.9255	0.3474	0.114
Mof_C 	C 	0.7208	0.0489	0.3923	0.109
Mof_C 	C 	0.6708	0.9982	0.3924	-0.224
Mof_C 	C 	0.6116	0.0224	0.4395	0.526
Mof_C 	C 	0.0892	0.4648	0.9024	0.572
Mof_C 	C 	0.1386	0.4647	0.8514	-0.217
Mof_C 	C 	0.1827	0.4047	0.821	0.104
Mof_C 	C 	0.1411	0.5263	0.8355	0.096
Mof_C 	C 	0.1879	0.5249	0.7896	-0.104
Mof_C 	C 	0.2344	0.467	0.7599	0.062
Mof_C 	C 	0.2325	0.4059	0.7767	-0.144
Mof_C 	C 	0.2831	0.4803	0.7161	0.034
Mof_C 	C 	0.2725	0.5489	0.7118	-0.071
Mof_C 	C 	0.3382	0.436	0.6823	-0.124
Mof_C 	C 	0.3137	0.5727	0.675	0.052
Mof_C 	C 	0.3801	0.4591	0.6447	0.066
Mof_C 	C 	0.3686	0.5269	0.6401	-0.16
Mof_C 	C 	0.4141	0.5514	0.5983	0.445
Mof_C 	C 	0.6163	0.5288	0.5835	0.507
Mof_C 	C 	0.6818	0.5422	0.6244	-0.182
Mof_C 	C 	0.7184	0.4824	0.6286	0.089
Mof_C 	C 	0.7052	0.6131	0.6592	0.076
Mof_C 	C 	0.7635	0.623	0.6979	-0.088
Mof_C 	C 	0.7757	0.4921	0.6683	-0.135
Mof_C 	C 	0.7984	0.5628	0.7049	0.05
Mof_C 	C 	0.8547	0.5868	0.753	0.062
Mof_C 	C 	0.8968	0.5454	0.7764	-0.145
Mof_C 	C 	0.8627	0.6641	0.7802	-0.102
Mof_C 	C 	0.9102	0.7003	0.8273	0.099
Mof_C 	C 	0.9453	0.5807	0.8253	0.115
Mof_C 	C 	0.9514	0.6578	0.8506	-0.216
Mof_C 	C 	0.0021	0.6973	0.9038	0.544
Mof_C 	C 	0.4584	0.6931	0.4095	0.496
Mof_C 	C 	0.4139	0.6506	0.3525	-0.207
Mof_C 	C 	0.4293	0.5774	0.3147	0.099
Mof_C 	C 	0.356	0.6855	0.3391	0.082
Mof_C 	C 	0.3892	0.5379	0.2621	-0.146
Mof_C 	C 	0.3157	0.6445	0.2869	-0.103
Mof_C 	C 	0.3316	0.5718	0.2482	0.053
Mof_C 	C 	0.2796	0.5401	0.1963	0.063
Mof_C 	C 	0.2275	0.5911	0.196	-0.126
Mof_C 	C 	0.276	0.4688	0.1512	-0.153
Mof_C 	C 	0.1743	0.5745	0.1526	0.114
Mof_C 	C 	0.2208	0.4511	0.1077	0.109
Mof_C 	C 	0.1708	0.5018	0.1076	-0.224
Mof_C 	C 	0.1116	0.4776	0.0605	0.526
Mof_C 	C 	0.5892	0.0352	0.5976	0.575
Mof_C 	C 	0.6386	0.0353	0.6486	-0.219
Mof_C 	C 	0.6827	0.0953	0.679	0.105
Mof_C 	C 	0.6411	0.9737	0.6645	0.096
Mof_C 	C 	0.6879	0.9751	0.7104	-0.107
Mof_C 	C 	0.7344	0.033	0.7401	0.062
Mof_C 	C 	0.7325	0.0941	0.7233	-0.146
Mof_C 	C 	0.7831	0.0197	0.7839	0.036
Mof_C 	C 	0.7725	0.9511	0.7882	-0.075
Mof_C 	C 	0.8382	0.064	0.8177	-0.127
Mof_C 	C 	0.8137	0.9273	0.825	0.055
Mof_C 	C 	0.8801	0.0409	0.8553	0.071
Mof_C 	C 	0.8686	0.9731	0.8599	-0.165
Mof_C 	C 	0.9141	0.9486	0.9017	0.444
Mof_C 	C 	0.1163	0.9712	0.9165	0.501
Mof_C 	C 	0.1818	0.9578	0.8756	-0.18
Mof_C 	C 	0.2184	0.0176	0.8714	0.089
Mof_C 	C 	0.2052	0.8869	0.8408	0.074
Mof_C 	C 	0.2635	0.877	0.8021	-0.086
Mof_C 	C 	0.2757	0.0079	0.8317	-0.132
Mof_C 	C 	0.2984	0.9372	0.7951	0.047
Mof_C 	C 	0.3547	0.9132	0.747	0.063
Mof_C 	C 	0.3968	0.9546	0.7236	-0.147
Mof_C 	C 	0.3627	0.8359	0.7198	-0.101
Mof_C 	C 	0.4102	0.7997	0.6727	0.096
Mof_C 	C 	0.4453	0.9193	0.6747	0.112
Mof_C 	C 	0.4514	0.8422	0.6494	-0.208
Mof_C 	C 	0.5021	0.8027	0.5962	0.539
Mof_C 	C 	0.0416	0.1931	0.9095	0.504
Mof_C 	C 	0.0861	0.1506	0.8525	-0.205
Mof_C 	C 	0.0707	0.0774	0.8147	0.097
Mof_C 	C 	0.144	0.1855	0.8391	0.082
Mof_C 	C 	0.1108	0.0379	0.7621	-0.141
Mof_C 	C 	0.1843	0.1445	0.7869	-0.102
Mof_C 	C 	0.1684	0.0718	0.7482	0.051
Mof_C 	C 	0.2204	0.0401	0.6963	0.065
Mof_C 	C 	0.2725	0.0911	0.696	-0.127
Mof_C 	C 	0.224	0.9688	0.6512	-0.155
Mof_C 	C 	0.3257	0.0745	0.6526	0.114
Mof_C 	C 	0.2792	0.9511	0.6077	0.109
Mof_C 	C 	0.3292	0.0018	0.6076	-0.224
Mof_C 	C 	0.3884	0.9776	0.5605	0.526
Mof_C 	C 	0.9108	0.5352	0.0976	0.572
Mof_C 	C 	0.8614	0.5353	0.1486	-0.217
Mof_C 	C 	0.8173	0.5953	0.179	0.104
Mof_C 	C 	0.8589	0.4737	0.1645	0.096
Mof_C 	C 	0.8121	0.4751	0.2104	-0.104
Mof_C 	C 	0.7656	0.533	0.2401	0.062
Mof_C 	C 	0.7675	0.5941	0.2233	-0.144
Mof_C 	C 	0.7169	0.5197	0.2839	0.034
Mof_C 	C 	0.7275	0.4511	0.2882	-0.071
Mof_C 	C 	0.6618	0.564	0.3177	-0.124
Mof_C 	C 	0.6863	0.4273	0.325	0.052
Mof_C 	C 	0.6199	0.5409	0.3553	0.066
Mof_C 	C 	0.6314	0.4731	0.3599	-0.16
Mof_C 	C 	0.5859	0.4486	0.4017	0.445
Mof_C 	C 	0.3837	0.4712	0.4165	0.507
Mof_C 	C 	0.3182	0.4578	0.3756	-0.182
Mof_C 	C 	0.2816	0.5176	0.3714	0.089
Mof_C 	C 	0.2948	0.3869	0.3408	0.076
Mof_C 	C 	0.2365	0.377	0.3021	-0.088
Mof_C 	C 	0.2243	0.5079	0.3317	-0.135
Mof_C 	C 	0.2016	0.4372	0.2951	0.05
Mof_C 	C 	0.1453	0.4132	0.247	0.062
Mof_C 	C 	0.1032	0.4546	0.2236	-0.145
Mof_C 	C 	0.1373	0.3359	0.2198	-0.102
Mof_C 	C 	0.0898	0.2997	0.1727	0.099
Mof_C 	C 	0.0547	0.4193	0.1747	0.115
Mof_C 	C 	0.0486	0.3422	0.1494	-0.216
Mof_C 	C 	0.9979	0.3027	0.0962	0.544
Mof_C 	C 	0.5416	0.3069	0.5905	0.496
Mof_C 	C 	0.5861	0.3494	0.6475	-0.207
Mof_C 	C 	0.5707	0.4226	0.6853	0.099
Mof_C 	C 	0.644	0.3145	0.6609	0.082
Mof_C 	C 	0.6108	0.4621	0.7379	-0.146
Mof_C 	C 	0.6843	0.3555	0.7131	-0.103
Mof_C 	C 	0.6684	0.4282	0.7518	0.053
Mof_C 	C 	0.7204	0.4599	0.8037	0.063
Mof_C 	C 	0.7725	0.4089	0.804	-0.126
Mof_C 	C 	0.724	0.5312	0.8488	-0.153
Mof_C 	C 	0.8257	0.4255	0.8474	0.114
Mof_C 	C 	0.7792	0.5489	0.8923	0.109
Mof_C 	C 	0.8292	0.4982	0.8924	-0.224
Mof_C 	C 	0.8884	0.5224	0.9395	0.526
Mof_C 	C 	0.4108	0.9648	0.4024	0.575
Mof_C 	C 	0.3614	0.9647	0.3514	-0.219
Mof_C 	C 	0.3173	0.9047	0.321	0.105
Mof_C 	C 	0.3589	0.0263	0.3355	0.096
Mof_C 	C 	0.3121	0.0249	0.2896	-0.107
Mof_C 	C 	0.2656	0.967	0.2599	0.062
Mof_C 	C 	0.2675	0.9059	0.2767	-0.146
Mof_C 	C 	0.2169	0.9803	0.2161	0.036
Mof_C 	C 	0.2275	0.0489	0.2118	-0.075
Mof_C 	C 	0.1618	0.936	0.1823	-0.127
Mof_C 	C 	0.1863	0.0727	0.175	0.055
Mof_C 	C 	0.1199	0.9591	0.1447	0.071
Mof_C 	C 	0.1314	0.0269	0.1401	-0.165
Mof_C 	C 	0.0859	0.0514	0.0983	0.444
Mof_C 	C 	0.8837	0.0288	0.0835	0.501
Mof_C 	C 	0.8182	0.0422	0.1244	-0.18
Mof_C 	C 	0.7816	0.9824	0.1286	0.089
Mof_C 	C 	0.7948	0.1131	0.1592	0.074
Mof_C 	C 	0.7365	0.123	0.1979	-0.086
Mof_C 	C 	0.7243	0.9921	0.1683	-0.132
Mof_C 	C 	0.7016	0.0628	0.2049	0.047
Mof_C 	C 	0.6453	0.0868	0.253	0.063
Mof_C 	C 	0.6032	0.0454	0.2764	-0.147
Mof_C 	C 	0.6373	0.1641	0.2802	-0.101
Mof_C 	C 	0.5898	0.2003	0.3273	0.096
Mof_C 	C 	0.5547	0.0807	0.3253	0.112
Mof_C 	C 	0.5486	0.1578	0.3506	-0.208
Mof_C 	C 	0.4979	0.1973	0.4038	0.539
Mof_S 	S 	0.73873	0.82431	0.23875	0.337
Mof_S 	S 	0.19791	0.59398	0.75846	0.331
Mof_S 	S 	0.80402	0.70727	0.74555	0.336
Mof_S 	S 	0.23873	0.67569	0.26125	0.337
Mof_S 	S 	0.69791	0.90602	0.74154	0.332
Mof_S 	S 	0.30402	0.79273	0.75445	0.335
Mof_S 	S 	0.26127	0.17569	0.76125	0.337
Mof_S 	S 	0.80209	0.40602	0.24154	0.331
Mof_S 	S 	0.19598	0.29273	0.25445	0.336
Mof_S 	S 	0.76127	0.32431	0.73875	0.337
Mof_S 	S 	0.30209	0.09398	0.25846	0.332
Mof_S 	S 	0.69598	0.20727	0.24555	0.335
Mof_O 	O 	0.0005	0.84286	0.07096	-0.627
Mof_O 	O 	0.9521	0.73751	0.06731	-0.615
Mof_O 	O 	0.5746	0.9718	0.4449	-0.651
Mof_O 	O 	0.602	0.0885	0.4696	-0.558
Mof_O 	O 	0.6817	0.8119	0.194	-0.233
Mof_O 	O 	0.7551	0.7656	0.2585	-0.247
Mof_O 	O 	0.0755	0.40552	0.90742	-0.578
Mof_O 	O 	0.0608	0.5242	0.9344	-0.651
Mof_O 	O 	0.414	0.61807	0.60627	-0.509
Mof_O 	O 	0.1385	0.5918	0.7179	-0.204
Mof_O 	O 	0.2158	0.66344	0.80674	-0.211
Mof_O 	O 	0.6006	0.46364	0.55044	-0.59
Mof_O 	O 	0.5822	0.58567	0.58727	-0.558
Mof_O 	O 	0.7554	0.7553	0.7906	-0.215
Mof_O 	O 	0.8437	0.7373	0.7072	-0.204
Mof_O 	O 	0.0233	0.66282	0.93622	-0.591
Mof_O 	O 	0.0207	0.76122	0.91122	-0.614
Mof_O 	O 	0.4519	0.50294	0.55644	-0.68
Mof_O 	O 	0.5005	0.65714	0.42904	-0.623
Mof_O 	O 	0.4521	0.76249	0.43269	-0.622
Mof_O 	O 	0.0746	0.5282	0.0551	-0.65
Mof_O 	O 	0.102	0.4115	0.0304	-0.559
Mof_O 	O 	0.1817	0.6881	0.306	-0.234
Mof_O 	O 	0.2551	0.7344	0.2415	-0.248
Mof_O 	O 	0.5755	0.09448	0.59258	-0.587
Mof_O 	O 	0.5608	0.9758	0.5656	-0.662
Mof_O 	O 	0.914	0.88193	0.89373	-0.509
Mof_O 	O 	0.6385	0.9082	0.7821	-0.206
Mof_O 	O 	0.7158	0.83656	0.69326	-0.212
Mof_O 	O 	0.1006	0.03636	0.94956	-0.577
Mof_O 	O 	0.0822	0.91433	0.91273	-0.549
Mof_O 	O 	0.2554	0.7447	0.7094	-0.215
Mof_O 	O 	0.3437	0.7627	0.7928	-0.204
Mof_O 	O 	0.5233	0.83718	0.56378	-0.598
Mof_O 	O 	0.5207	0.73878	0.58878	-0.621
Mof_O 	O 	0.9519	0.99706	0.94356	-0.679
Mof_O 	O 	0.9995	0.15714	0.92904	-0.627
Mof_O 	O 	0.0479	0.26249	0.93269	-0.615
Mof_O 	O 	0.4254	0.0282	0.5551	-0.651
Mof_O 	O 	0.398	0.9115	0.5304	-0.558
Mof_O 	O 	0.3183	0.1881	0.806	-0.233
Mof_O 	O 	0.2449	0.2344	0.7415	-0.247
Mof_O 	O 	0.9245	0.59448	0.09258	-0.578
Mof_O 	O 	0.9392	0.4758	0.0656	-0.651
Mof_O 	O 	0.586	0.38193	0.39373	-0.509
Mof_O 	O 	0.8615	0.4082	0.2821	-0.204
Mof_O 	O 	0.7842	0.33656	0.19326	-0.211
Mof_O 	O 	0.3994	0.53636	0.44956	-0.59
Mof_O 	O 	0.4178	0.41433	0.41273	-0.558
Mof_O 	O 	0.2446	0.2447	0.2094	-0.215
Mof_O 	O 	0.1563	0.2627	0.2928	-0.204
Mof_O 	O 	0.9767	0.33718	0.06378	-0.591
Mof_O 	O 	0.9793	0.23878	0.08878	-0.614
Mof_O 	O 	0.5481	0.49706	0.44356	-0.68
Mof_O 	O 	0.4995	0.34286	0.57096	-0.623
Mof_O 	O 	0.5479	0.23751	0.56731	-0.622
Mof_O 	O 	0.9254	0.4718	0.9449	-0.65
Mof_O 	O 	0.898	0.5885	0.9696	-0.559
Mof_O 	O 	0.8183	0.3119	0.694	-0.234
Mof_O 	O 	0.7449	0.2656	0.7585	-0.248
Mof_O 	O 	0.4245	0.90552	0.40742	-0.587
Mof_O 	O 	0.4392	0.0242	0.4344	-0.662
Mof_O 	O 	0.086	0.11807	0.10627	-0.509
Mof_O 	O 	0.3615	0.0918	0.2179	-0.206
Mof_O 	O 	0.2842	0.16344	0.30674	-0.212
Mof_O 	O 	0.8994	0.96364	0.05044	-0.577
Mof_O 	O 	0.9178	0.08567	0.08727	-0.549
Mof_O 	O 	0.7446	0.2553	0.2906	-0.215
Mof_O 	O 	0.6563	0.2373	0.2072	-0.204
Mof_O 	O 	0.4767	0.16282	0.43622	-0.598
Mof_O 	O 	0.4793	0.26122	0.41122	-0.621
Mof_O 	O 	0.0481	0.00294	0.05644	-0.679
_end
