# CIF file generated by openbabel 3.1.0, see https://openbabel.org
data_I
_chemical_name_common 'UZIJUJ_clean'
_cell_length_a 11.44
_cell_length_b 12.288
_cell_length_c 36.854
_cell_angle_alpha 90
_cell_angle_beta 90
_cell_angle_gamma 117.642
_space_group_name_H-M_alt 'P 1'
_space_group_name_Hall 'P 1'
loop_
    _symmetry_equiv_pos_as_xyz
    x,y,z
loop_
    _atom_site_label
    _atom_site_type_symbol
    _atom_site_fract_x
    _atom_site_fract_y
    _atom_site_fract_z
    _atom_site_occupancy
    Ce1      Ce       0.13023    0.62999    0.53649    1.000
    Ce2      Ce       0.36977    0.37001    0.03649    1.000
    Ce3      Ce       0.86977    0.37001    0.46351    1.000
    Ce4      Ce       0.63023    0.62999    0.96351    1.000
    H1       H        0.45170    0.45060    0.17170    1.000
    H2       H        0.52680    0.18260    0.13530    1.000
    H3       H        0.57530    0.14780    0.19370    1.000
    H4       H        0.50120    0.41640    0.22990    1.000
    H5       H        0.54120    0.29250    0.27100    1.000
    H6       H        0.81120    0.06770    0.40500    1.000
    H7       H        0.45470    0.29740    0.37040    1.000
    H8       H        0.25400    0.27340    0.39240    1.000
    H9       H        0.68600    0.04590    0.30030    1.000
    H10      H        0.64260    0.11370    0.40490    1.000
    H11      H        0.02030    0.92380    0.47790    1.000
    H12      H        0.58950    0.31230    0.32480    1.000
    H13      H        0.95200    0.04830    0.44720    1.000
    H14      H        0.78880    0.64080    0.41580    1.000
    H15      H        0.72030    0.76420    0.38440    1.000
    H16      H        0.47830    0.57730    0.47480    1.000
    H17      H        0.58300    0.48030    0.44590    1.000
    H18      H        0.14680    0.36290    0.42540    1.000
    H19      H        0.04830    0.54940    0.67170    1.000
    H20      H        0.97320    0.81740    0.63530    1.000
    H21      H        0.92470    0.85220    0.69370    1.000
    H22      H        0.99880    0.58360    0.72990    1.000
    H23      H        0.95880    0.70750    0.77100    1.000
    H24      H        0.68880    0.93230    0.90500    1.000
    H25      H        0.04530    0.70260    0.87040    1.000
    H26      H        0.24600    0.72660    0.89240    1.000
    H27      H        0.81400    0.95410    0.80030    1.000
    H28      H        0.85740    0.88630    0.90490    1.000
    H29      H        0.47970    0.07620    0.97790    1.000
    H30      H        0.91050    0.68770    0.82480    1.000
    H31      H        0.54800    0.95170    0.94720    1.000
    H32      H        0.71120    0.35920    0.91580    1.000
    H33      H        0.77970    0.23580    0.88440    1.000
    H34      H        0.02170    0.42270    0.97480    1.000
    H35      H        0.91700    0.51970    0.94590    1.000
    H36      H        0.35320    0.63710    0.92540    1.000
    H37      H        0.54830    0.54940    0.82830    1.000
    H38      H        0.47320    0.81740    0.86470    1.000
    H39      H        0.42470    0.85220    0.80630    1.000
    H40      H        0.49880    0.58360    0.77010    1.000
    H41      H        0.45880    0.70750    0.72900    1.000
    H42      H        0.18880    0.93230    0.59500    1.000
    H43      H        0.54530    0.70260    0.62960    1.000
    H44      H        0.74600    0.72660    0.60760    1.000
    H45      H        0.31400    0.95410    0.69970    1.000
    H46      H        0.35740    0.88630    0.59510    1.000
    H47      H        0.97970    0.07620    0.52210    1.000
    H48      H        0.41050    0.68770    0.67520    1.000
    H49      H        0.04800    0.95170    0.55280    1.000
    H50      H        0.21120    0.35920    0.58420    1.000
    H51      H        0.27970    0.23580    0.61560    1.000
    H52      H        0.52170    0.42270    0.52520    1.000
    H53      H        0.41700    0.51970    0.55410    1.000
    H54      H        0.85320    0.63710    0.57460    1.000
    H55      H        0.95170    0.45060    0.32830    1.000
    H56      H        0.02680    0.18260    0.36470    1.000
    H57      H        0.07530    0.14780    0.30630    1.000
    H58      H        0.00120    0.41640    0.27010    1.000
    H59      H        0.04120    0.29250    0.22900    1.000
    H60      H        0.31120    0.06770    0.09500    1.000
    H61      H        0.95470    0.29740    0.12960    1.000
    H62      H        0.75400    0.27340    0.10760    1.000
    H63      H        0.18600    0.04590    0.19970    1.000
    H64      H        0.14260    0.11370    0.09510    1.000
    H65      H        0.52030    0.92380    0.02210    1.000
    H66      H        0.08950    0.31230    0.17520    1.000
    H67      H        0.45200    0.04830    0.05280    1.000
    H68      H        0.28880    0.64080    0.08420    1.000
    H69      H        0.22030    0.76420    0.11560    1.000
    H70      H        0.97830    0.57730    0.02520    1.000
    H71      H        0.08300    0.48030    0.05410    1.000
    H72      H        0.64680    0.36290    0.07460    1.000
    C1       C        0.44720    0.33890    0.10967    1.000
    C2       C        0.48230    0.31820    0.14717    1.000
    C3       C        0.47600    0.38930    0.17599    1.000
    C4       C        0.52070    0.22950    0.15432    1.000
    C5       C        0.55030    0.20870    0.18936    1.000
    C6       C        0.50590    0.36890    0.21083    1.000
    C7       C        0.54260    0.27850    0.21762    1.000
    C8       C        0.59560    0.30200    0.39805    1.000
    C9       C        0.43200    0.37690    0.41390    1.000
    C10      C        0.30090    0.33650    0.40870    1.000
    C11      C        0.68050    0.07340    0.35388    1.000
    C12      C        0.67020    0.09310    0.31747    1.000
    C13      C        0.30180    0.48500    0.45201    1.000
    C14      C        0.23410    0.54640    0.47217    1.000
    C15      C        0.91020    0.76860    0.45024    1.000
    C16      C        0.95170    0.68340    0.46940    1.000
    C17      C        0.62250    0.23320    0.36901    1.000
    C18      C        0.64770    0.13540    0.38060    1.000
    C19      C        0.95920    0.89110    0.45919    1.000
    C20      C        0.61250    0.25230    0.33209    1.000
    C21      C        0.82830    0.91870    0.41274    1.000
    C22      C        0.91850    0.96610    0.44071    1.000
    C23      C        0.63630    0.18330    0.30613    1.000
    C24      C        0.82190    0.72300    0.42230    1.000
    C25      C        0.78030    0.79690    0.40330    1.000
    C26      C        0.43140    0.51610    0.45800    1.000
    C27      C        0.71490    0.97390    0.36425    1.000
    C28      C        0.49640    0.46030    0.44000    1.000
    C29      C        0.62960    0.19860    0.26605    1.000
    C30      C        0.23700    0.39180    0.42860    1.000
    C31      C        0.05280    0.66110    0.60967    1.000
    C32      C        0.01770    0.68180    0.64717    1.000
    C33      C        0.02400    0.61070    0.67599    1.000
    C34      C        0.97930    0.77050    0.65432    1.000
    C35      C        0.94970    0.79130    0.68936    1.000
    C36      C        0.99410    0.63110    0.71083    1.000
    C37      C        0.95740    0.72150    0.71762    1.000
    C38      C        0.90440    0.69800    0.89805    1.000
    C39      C        0.06800    0.62310    0.91390    1.000
    C40      C        0.19910    0.66350    0.90870    1.000
    C41      C        0.81950    0.92660    0.85388    1.000
    C42      C        0.82980    0.90690    0.81747    1.000
    C43      C        0.19820    0.51500    0.95201    1.000
    C44      C        0.26590    0.45360    0.97217    1.000
    C45      C        0.58980    0.23140    0.95024    1.000
    C46      C        0.54830    0.31660    0.96940    1.000
    C47      C        0.87750    0.76680    0.86901    1.000
    C48      C        0.85230    0.86460    0.88060    1.000
    C49      C        0.54080    0.10890    0.95919    1.000
    C50      C        0.88750    0.74770    0.83209    1.000
    C51      C        0.67170    0.08130    0.91274    1.000
    C52      C        0.58150    0.03390    0.94071    1.000
    C53      C        0.86370    0.81670    0.80613    1.000
    C54      C        0.67810    0.27700    0.92230    1.000
    C55      C        0.71970    0.20310    0.90330    1.000
    C56      C        0.06860    0.48390    0.95800    1.000
    C57      C        0.78510    0.02610    0.86425    1.000
    C58      C        0.00360    0.53970    0.94000    1.000
    C59      C        0.87040    0.80140    0.76605    1.000
    C60      C        0.26300    0.60820    0.92860    1.000
    C61      C        0.55280    0.66110    0.89033    1.000
    C62      C        0.51770    0.68180    0.85283    1.000
    C63      C        0.52400    0.61070    0.82401    1.000
    C64      C        0.47930    0.77050    0.84568    1.000
    C65      C        0.44970    0.79130    0.81064    1.000
    C66      C        0.49410    0.63110    0.78917    1.000
    C67      C        0.45740    0.72150    0.78238    1.000
    C68      C        0.40440    0.69800    0.60195    1.000
    C69      C        0.56800    0.62310    0.58610    1.000
    C70      C        0.69910    0.66350    0.59130    1.000
    C71      C        0.31950    0.92660    0.64612    1.000
    C72      C        0.32980    0.90690    0.68253    1.000
    C73      C        0.69820    0.51500    0.54799    1.000
    C74      C        0.76590    0.45360    0.52783    1.000
    C75      C        0.08980    0.23140    0.54976    1.000
    C76      C        0.04830    0.31660    0.53060    1.000
    C77      C        0.37750    0.76680    0.63099    1.000
    C78      C        0.35230    0.86460    0.61940    1.000
    C79      C        0.04080    0.10890    0.54081    1.000
    C80      C        0.38750    0.74770    0.66791    1.000
    C81      C        0.17170    0.08130    0.58726    1.000
    C82      C        0.08150    0.03390    0.55929    1.000
    C83      C        0.36370    0.81670    0.69387    1.000
    C84      C        0.17810    0.27700    0.57770    1.000
    C85      C        0.21970    0.20310    0.59670    1.000
    C86      C        0.56860    0.48390    0.54200    1.000
    C87      C        0.28510    0.02610    0.63575    1.000
    C88      C        0.50360    0.53970    0.56000    1.000
    C89      C        0.37040    0.80140    0.73395    1.000
    C90      C        0.76300    0.60820    0.57140    1.000
    C91      C        0.94720    0.33890    0.39033    1.000
    C92      C        0.98230    0.31820    0.35283    1.000
    C93      C        0.97600    0.38930    0.32401    1.000
    C94      C        0.02070    0.22950    0.34568    1.000
    C95      C        0.05030    0.20870    0.31064    1.000
    C96      C        0.00590    0.36890    0.28917    1.000
    C97      C        0.04260    0.27850    0.28238    1.000
    C98      C        0.09560    0.30200    0.10195    1.000
    C99      C        0.93200    0.37690    0.08610    1.000
    C100     C        0.80090    0.33650    0.09130    1.000
    C101     C        0.18050    0.07340    0.14612    1.000
    C102     C        0.17020    0.09310    0.18253    1.000
    C103     C        0.80180    0.48500    0.04799    1.000
    C104     C        0.73410    0.54640    0.02783    1.000
    C105     C        0.41020    0.76860    0.04976    1.000
    C106     C        0.45170    0.68340    0.03060    1.000
    C107     C        0.12250    0.23320    0.13099    1.000
    C108     C        0.14770    0.13540    0.11940    1.000
    C109     C        0.45920    0.89110    0.04081    1.000
    C110     C        0.11250    0.25230    0.16791    1.000
    C111     C        0.32830    0.91870    0.08726    1.000
    C112     C        0.41850    0.96610    0.05929    1.000
    C113     C        0.13630    0.18330    0.19387    1.000
    C114     C        0.32190    0.72300    0.07770    1.000
    C115     C        0.28030    0.79690    0.09670    1.000
    C116     C        0.93140    0.51610    0.04200    1.000
    C117     C        0.21490    0.97390    0.13575    1.000
    C118     C        0.99640    0.46030    0.06000    1.000
    C119     C        0.12960    0.19860    0.23395    1.000
    C120     C        0.73700    0.39180    0.07140    1.000
    N1       N        0.56850    0.26000    0.25457    1.000
    N2       N        0.78750    0.99720    0.39509    1.000
    N3       N        0.49100    0.32160    0.39131    1.000
    N4       N        0.93150    0.74000    0.75457    1.000
    N5       N        0.71250    0.00280    0.89509    1.000
    N6       N        0.00900    0.67840    0.89131    1.000
    N7       N        0.43150    0.74000    0.74543    1.000
    N8       N        0.21250    0.00280    0.60491    1.000
    N9       N        0.50900    0.67840    0.60869    1.000
    N10      N        0.06850    0.26000    0.24543    1.000
    N11      N        0.28750    0.99720    0.10491    1.000
    N12      N        0.99100    0.32160    0.10869    1.000
    O1       O        0.03870    0.72620    0.49367    1.000
    O2       O        0.65830    0.33170    0.42667    1.000
    O3       O        0.43560    0.43270    0.10243    1.000
    O4       O        0.42480    0.25540    0.08576    1.000
    O5       O        0.89460    0.57410    0.45871    1.000
    O6       O        0.11110    0.50790    0.46837    1.000
    O7       O        0.68670    0.16210    0.24540    1.000
    O8       O        0.30050    0.63250    0.49322    1.000
    O9       O        0.67840    0.88180    0.34610    1.000
    O10      O        0.46130    0.27380    0.99367    1.000
    O11      O        0.84170    0.66830    0.92667    1.000
    O12      O        0.06440    0.56730    0.60243    1.000
    O13      O        0.07520    0.74460    0.58576    1.000
    O14      O        0.60540    0.42590    0.95871    1.000
    O15      O        0.38890    0.49210    0.96837    1.000
    O16      O        0.81330    0.83790    0.74540    1.000
    O17      O        0.19950    0.36750    0.99322    1.000
    O18      O        0.82160    0.11820    0.84610    1.000
    O19      O        0.96130    0.27380    0.50633    1.000
    O20      O        0.34170    0.66830    0.57333    1.000
    O21      O        0.56440    0.56730    0.89757    1.000
    O22      O        0.57520    0.74460    0.91424    1.000
    O23      O        0.10540    0.42590    0.54129    1.000
    O24      O        0.88890    0.49210    0.53163    1.000
    O25      O        0.31330    0.83790    0.75460    1.000
    O26      O        0.69950    0.36750    0.50678    1.000
    O27      O        0.32160    0.11820    0.65390    1.000
    O28      O        0.53870    0.72620    0.00633    1.000
    O29      O        0.15830    0.33170    0.07333    1.000
    O30      O        0.93560    0.43270    0.39757    1.000
    O31      O        0.92480    0.25540    0.41424    1.000
    O32      O        0.39460    0.57410    0.04129    1.000
    O33      O        0.61110    0.50790    0.03163    1.000
    O34      O        0.18670    0.16210    0.25460    1.000
    O35      O        0.80050    0.63250    0.00678    1.000
    O36      O        0.17840    0.88180    0.15390    1.000
