data_functionalizedCrystal
_audit_creation_method	'EQeq! by Chris Wilmer'
_symmetry_space_group_name_H-M	'P1'
_symmetry_Int_Tables_number	1
_symmetry_cell_setting	triclinic
loop_
_symmetry_equiv_pos_as_xyz
  x,y,z
_cell_length_a	8.29
_cell_length_b	13.8221
_cell_length_c	17.0674
_cell_angle_alpha	77.1879
_cell_angle_beta	75.9446
_cell_angle_gamma	72.5495
loop_
_atom_site_label
_atom_site_type_symbol
_atom_site_fract_x
_atom_site_fract_y
_atom_site_fract_z
_atom_site_charge
Mof_Cu	Cu	0.90139	0.54497	0.15631	0.881
Mof_Cu	Cu	0.73315	0.52457	0.35567	0.876
Mof_Cu	Cu	0.60267	0.95503	0.34369	0.881
Mof_Cu	Cu	0.61339	0.97543	0.14433	0.875
Mof_Cu	Cu	0.09861	0.45503	0.84369	0.88
Mof_Cu	Cu	0.26685	0.47543	0.64433	0.875
Mof_Cu	Cu	0.39733	0.04497	0.65631	0.881
Mof_Cu	Cu	0.38661	0.02457	0.85567	0.875
Mof_H 	H 	0.262	0.6187	0.0865	-0.009
Mof_H 	H 	0.4152	0.639	0.9558	0.079
Mof_H 	H 	0.3722	0.57	0.8502	-0.021
Mof_H 	H 	0.8772	0.6014	0.4794	0.007
Mof_H 	H 	0.7753	0.6272	0.6218	0.046
Mof_H 	H 	0.5137	0.58	0.6974	-0.011
Mof_H 	H 	0.2255	0.6479	0.2741	0.063
Mof_H 	H 	0.0898	0.7159	0.3341	0.1
Mof_H 	H 	0.5884	0.5596	0.2372	0.108
Mof_H 	H 	0.9672	0.8813	0.4135	-0.008
Mof_H 	H 	0.01	0.861	0.5442	0.076
Mof_H 	H 	0.7924	0.93	0.6498	-0.02
Mof_H 	H 	0.958	0.8986	0.0206	0.003
Mof_H 	H 	0.0243	0.8728	0.8782	0.045
Mof_H 	H 	0.7911	0.92	0.8026	-0.01
Mof_H 	H 	0.1475	0.8521	0.2259	0.063
Mof_H 	H 	0.1398	0.7841	0.1659	0.1
Mof_H 	H 	0.3852	0.9404	0.2628	0.108
Mof_H 	H 	0.738	0.3813	0.9135	-0.009
Mof_H 	H 	0.5848	0.361	0.0442	0.079
Mof_H 	H 	0.6278	0.43	0.1498	-0.021
Mof_H 	H 	0.1228	0.3986	0.5206	0.007
Mof_H 	H 	0.2247	0.3728	0.3782	0.046
Mof_H 	H 	0.4863	0.42	0.3026	-0.011
Mof_H 	H 	0.7745	0.3521	0.7259	0.063
Mof_H 	H 	0.9102	0.2841	0.6659	0.1
Mof_H 	H 	0.4116	0.4404	0.7628	0.108
Mof_H 	H 	0.0328	0.1187	0.5865	-0.008
Mof_H 	H 	0.99	0.139	0.4558	0.076
Mof_H 	H 	0.2076	0.07	0.3502	-0.02
Mof_H 	H 	0.042	0.1014	0.9794	0.003
Mof_H 	H 	0.9757	0.1272	0.1218	0.045
Mof_H 	H 	0.2089	0.08	0.1974	-0.01
Mof_H 	H 	0.8525	0.1479	0.7741	0.063
Mof_H 	H 	0.8602	0.2159	0.8341	0.1
Mof_H 	H 	0.6148	0.0596	0.7372	0.108
Mof_C 	C 	0.2193	0.6036	0.0412	0.091
Mof_C 	C 	0.3289	0.6081	0.9665	-0.184
Mof_C 	C 	0.2986	0.5703	0.9051	0.087
Mof_C 	C 	0.7705	0.5876	0.5118	0.061
Mof_C 	C 	0.7111	0.6022	0.5924	-0.125
Mof_C 	C 	0.5639	0.5738	0.634	0.054
Mof_C 	C 	0.0748	0.517	0.9926	0.038
Mof_C 	C 	0.5466	0.5214	0.5202	0.043
Mof_C 	C 	0.9935	0.6351	0.2717	0.409
Mof_C 	C 	0.1032	0.7	0.2804	-0.213
Mof_C 	C 	0.8641	0.8964	0.4588	0.089
Mof_C 	C 	0.9035	0.8919	0.5335	-0.179
Mof_C 	C 	0.774	0.9297	0.5949	0.085
Mof_C 	C 	0.8699	0.9124	0.9882	0.069
Mof_C 	C 	0.9057	0.8978	0.9076	-0.124
Mof_C 	C 	0.7717	0.9262	0.866	0.054
Mof_C 	C 	0.5844	0.983	0.5074	0.039
Mof_C 	C 	0.5882	0.9786	0.9798	0.045
Mof_C 	C 	0.9003	0.8649	0.2283	0.409
Mof_C 	C 	0.0836	0.8	0.2196	-0.213
Mof_C 	C 	0.7807	0.3964	0.9588	0.091
Mof_C 	C 	0.6711	0.3919	0.0335	-0.184
Mof_C 	C 	0.7014	0.4297	0.0949	0.087
Mof_C 	C 	0.2295	0.4124	0.4882	0.061
Mof_C 	C 	0.2889	0.3978	0.4076	-0.125
Mof_C 	C 	0.4361	0.4262	0.366	0.054
Mof_C 	C 	0.9252	0.483	0.0074	0.038
Mof_C 	C 	0.4534	0.4786	0.4798	0.043
Mof_C 	C 	0.0065	0.3649	0.7283	0.409
Mof_C 	C 	0.8968	0.3	0.7196	-0.213
Mof_C 	C 	0.1359	0.1036	0.5412	0.089
Mof_C 	C 	0.0965	0.1081	0.4665	-0.179
Mof_C 	C 	0.226	0.0703	0.4051	0.085
Mof_C 	C 	0.1301	0.0876	0.0118	0.069
Mof_C 	C 	0.0943	0.1022	0.0924	-0.124
Mof_C 	C 	0.2283	0.0738	0.134	0.054
Mof_C 	C 	0.4156	0.017	0.4926	0.039
Mof_C 	C 	0.4118	0.0214	0.0202	0.045
Mof_C 	C 	0.0997	0.1351	0.7717	0.409
Mof_C 	C 	0.9164	0.2	0.7804	-0.213
Mof_N 	N 	0.0882	0.5612	0.0542	-0.224
Mof_N 	N 	0.1687	0.527	0.9182	-0.232
Mof_N 	N 	0.6874	0.5466	0.4754	-0.223
Mof_N 	N 	0.4818	0.5319	0.5977	-0.228
Mof_N 	N 	0.7036	0.9388	0.4458	-0.225
Mof_N 	N 	0.6139	0.973	0.5818	-0.232
Mof_N 	N 	0.7094	0.9534	0.0246	-0.226
Mof_N 	N 	0.6114	0.9681	0.9023	-0.227
Mof_N 	N 	0.9118	0.4388	0.9458	-0.224
Mof_N 	N 	0.8313	0.473	0.0818	-0.232
Mof_N 	N 	0.3126	0.4534	0.5246	-0.223
Mof_N 	N 	0.5182	0.4681	0.4023	-0.228
Mof_N 	N 	0.2964	0.0612	0.5542	-0.225
Mof_N 	N 	0.3861	0.027	0.4182	-0.232
Mof_N 	N 	0.2906	0.0466	0.9754	-0.226
Mof_N 	N 	0.3886	0.0319	0.0977	-0.227
Mof_O 	O 	0.9839	0.6333	0.2001	-0.464
Mof_O 	O 	0.9236	0.5873	0.3355	-0.463
Mof_O 	O 	0.7188	0.5262	0.2454	-0.548
Mof_O 	O 	0.8173	0.8667	0.2999	-0.463
Mof_O 	O 	0.8464	0.9127	0.1645	-0.463
Mof_O 	O 	0.4904	0.9738	0.2546	-0.548
Mof_O 	O 	0.0161	0.3667	0.7999	-0.464
Mof_O 	O 	0.0764	0.4127	0.6645	-0.463
Mof_O 	O 	0.2812	0.4738	0.7546	-0.548
Mof_O 	O 	0.1827	0.1333	0.7001	-0.463
Mof_O 	O 	0.1536	0.0873	0.8355	-0.463
Mof_O 	O 	0.5096	0.0262	0.7454	-0.548
_end
