# CIF file generated by openbabel 3.1.0, see https://openbabel.org
data_I
_chemical_name_common 'image0'
_cell_length_a 13.926
_cell_length_b 16.59
_cell_length_c 16.181
_cell_angle_alpha 90
_cell_angle_beta 110.296
_cell_angle_gamma 90
_space_group_name_H-M_alt 'P 1'
_space_group_name_Hall 'P 1'
loop_
    _symmetry_equiv_pos_as_xyz
    x,y,z
loop_
    _atom_site_label
    _atom_site_type_symbol
    _atom_site_fract_x
    _atom_site_fract_y
    _atom_site_fract_z
    _atom_site_occupancy
    Cd1      Cd       0.29152    0.49907    0.14202    1.000
    Cd2      Cd       0.41891    0.50416    0.37350    1.000
    O1       O        0.26894    0.57761    0.31720    1.000
    O2       O        0.16677    0.55185    0.17982    1.000
    O3       O        0.83909    0.62677    0.36021    1.000
    O4       O        0.69717    0.90443    0.23198    1.000
    O5       O        0.54441    0.87243    0.13729    1.000
    O6       O        0.47610    0.51847    0.25054    1.000
    O7       O        0.38976    0.61400    0.16068    1.000
    O8       O        0.34638    0.39060    0.08587    1.000
    O9       O        0.17953    0.39858    0.05386    1.000
    O10      O        0.49016    0.11780    0.08315    1.000
    O11      O        0.39290    0.01991    0.00380    1.000
    O12      O        0.03597    0.14084    0.89910    1.000
    O13      O        0.93420    0.09200    0.49139    1.000
    H1       H        0.90450    0.08210    0.43910    1.000
    O14      O        0.77977    0.06690    0.49827    1.000
    C1       C        0.18100    0.57138    0.25870    1.000
    C2       C        0.09850    0.59620    0.37090    1.000
    H2       H        0.16260    0.59120    0.41450    1.000
    C3       C        0.01440    0.60980    0.39500    1.000
    H3       H        0.02140    0.61280    0.45420    1.000
    C4       C        0.92000    0.61870    0.33050    1.000
    C5       C        0.90930    0.61480    0.24260    1.000
    H4       H        0.84540    0.62240    0.19930    1.000
    C6       C        0.99360    0.59970    0.21910    1.000
    H5       H        0.98630    0.59590    0.15980    1.000
    C7       C        0.09000    0.58990    0.28360    1.000
    C8       C        0.74540    0.65680    0.30370    1.000
    C9       C        0.73700    0.73690    0.27790    1.000
    H6       H        0.79440    0.77010    0.29450    1.000
    C10      C        0.64180    0.76690    0.22710    1.000
    C11      C        0.55710    0.71700    0.20540    1.000
    H7       H        0.49350    0.73680    0.17050    1.000
    C12      C        0.56570    0.63750    0.23500    1.000
    C13      C        0.66130    0.60690    0.28400    1.000
    H8       H        0.66850    0.55360    0.30310    1.000
    C14      C        0.62800    0.85360    0.19800    1.000
    C15      C        0.47100    0.58720    0.21490    1.000
    C16      C        0.25750    0.36210    0.05270    1.000
    C17      C        0.24440    0.27910    0.01350    1.000
    C18      C        0.14680    0.24930    0.96760    1.000
    H9       H        0.08980    0.28230    0.95650    1.000
    C19      C        0.13550    0.17040    0.93870    1.000
    C20      C        0.21910    0.11920    0.95610    1.000
    H10      H        0.21030    0.06610    0.93650    1.000
    C21      C        0.31620    0.14870    0.00342    1.000
    C22      C        0.32870    0.22870    0.03070    1.000
    H11      H        0.39400    0.24860    0.06060    1.000
    C23      C        0.40540    0.09230    0.03070    1.000
    C24      C        0.99980    0.12860    0.80880    1.000
    C25      C        0.89750    0.10780    0.77170    1.000
    H12      H        0.85720    0.10290    0.80690    1.000
    C26      C        0.85620    0.09470    0.68280    1.000
    H13      H        0.78760    0.08030    0.65780    1.000
    C27      C        0.91490    0.10250    0.62940    1.000
    C28      C        0.01740    0.12170    0.66790    1.000
    H14      H        0.05830    0.12540    0.63330    1.000
    C29      C        0.05930    0.13560    0.75730    1.000
    H15      H        0.12800    0.14970    0.78270    1.000
    C30      C        0.86940    0.08570    0.53410    1.000
    Cd3      Cd       0.70848    0.99907    0.35798    1.000
    Cd4      Cd       0.58109    0.00416    0.12650    1.000
    O15      O        0.73106    0.07761    0.18280    1.000
    O16      O        0.83323    0.05185    0.32018    1.000
    O17      O        0.16091    0.12677    0.13979    1.000
    O18      O        0.30283    0.40443    0.26802    1.000
    O19      O        0.45559    0.37243    0.36271    1.000
    O20      O        0.52390    0.01847    0.24946    1.000
    O21      O        0.61024    0.11400    0.33932    1.000
    O22      O        0.65362    0.89060    0.41413    1.000
    O23      O        0.82047    0.89858    0.44614    1.000
    O24      O        0.50984    0.61780    0.41685    1.000
    O25      O        0.60710    0.51991    0.49620    1.000
    O26      O        0.96403    0.64084    0.60090    1.000
    O27      O        0.06580    0.59200    0.00861    1.000
    H16      H        0.09550    0.58210    0.06090    1.000
    O28      O        0.22023    0.56690    0.00173    1.000
    C31      C        0.81900    0.07138    0.24130    1.000
    C32      C        0.90150    0.09620    0.12910    1.000
    H17      H        0.83740    0.09120    0.08550    1.000
    C33      C        0.98560    0.10980    0.10500    1.000
    H18      H        0.97860    0.11280    0.04580    1.000
    C34      C        0.08000    0.11870    0.16950    1.000
    C35      C        0.09070    0.11480    0.25740    1.000
    H19      H        0.15460    0.12240    0.30070    1.000
    C36      C        0.00640    0.09970    0.28090    1.000
    H20      H        0.01370    0.09590    0.34020    1.000
    C37      C        0.91000    0.08990    0.21640    1.000
    C38      C        0.25460    0.15680    0.19630    1.000
    C39      C        0.26300    0.23690    0.22210    1.000
    H21      H        0.20560    0.27010    0.20550    1.000
    C40      C        0.35820    0.26690    0.27290    1.000
    C41      C        0.44290    0.21700    0.29460    1.000
    H22      H        0.50650    0.23680    0.32950    1.000
    C42      C        0.43430    0.13750    0.26500    1.000
    C43      C        0.33870    0.10690    0.21600    1.000
    H23      H        0.33150    0.05360    0.19690    1.000
    C44      C        0.37200    0.35360    0.30200    1.000
    C45      C        0.52900    0.08720    0.28510    1.000
    C46      C        0.74250    0.86210    0.44730    1.000
    C47      C        0.75560    0.77910    0.48650    1.000
    C48      C        0.85320    0.74930    0.53240    1.000
    H24      H        0.91020    0.78230    0.54350    1.000
    C49      C        0.86450    0.67040    0.56130    1.000
    C50      C        0.78090    0.61920    0.54390    1.000
    H25      H        0.78970    0.56610    0.56350    1.000
    C51      C        0.68380    0.64870    0.49658    1.000
    C52      C        0.67130    0.72870    0.46930    1.000
    H26      H        0.60600    0.74860    0.43940    1.000
    C53      C        0.59460    0.59230    0.46930    1.000
    C54      C        0.00020    0.62860    0.69120    1.000
    C55      C        0.10250    0.60780    0.72830    1.000
    H27      H        0.14280    0.60290    0.69310    1.000
    C56      C        0.14380    0.59470    0.81720    1.000
    H28      H        0.21240    0.58030    0.84220    1.000
    C57      C        0.08510    0.60250    0.87060    1.000
    C58      C        0.98260    0.62170    0.83210    1.000
    H29      H        0.94170    0.62540    0.86670    1.000
    C59      C        0.94070    0.63560    0.74270    1.000
    H30      H        0.87200    0.64970    0.71730    1.000
    C60      C        0.13060    0.58570    0.96590    1.000
    Cd5      Cd       0.70848    0.50093    0.85798    1.000
    Cd6      Cd       0.58109    0.49584    0.62650    1.000
    O29      O        0.73106    0.42239    0.68280    1.000
    O30      O        0.83323    0.44815    0.82018    1.000
    O31      O        0.16091    0.37323    0.63979    1.000
    O32      O        0.30283    0.09557    0.76802    1.000
    O33      O        0.45559    0.12757    0.86271    1.000
    O34      O        0.52390    0.48153    0.74946    1.000
    O35      O        0.61024    0.38600    0.83932    1.000
    O36      O        0.65362    0.60940    0.91413    1.000
    O37      O        0.82047    0.60142    0.94614    1.000
    O38      O        0.50984    0.88220    0.91685    1.000
    O39      O        0.60710    0.98009    0.99620    1.000
    O40      O        0.96403    0.85916    0.10090    1.000
    O41      O        0.06580    0.90800    0.50861    1.000
    H31      H        0.09550    0.91790    0.56090    1.000
    O42      O        0.22023    0.93310    0.50173    1.000
    C61      C        0.81900    0.42862    0.74130    1.000
    C62      C        0.90150    0.40380    0.62910    1.000
    H32      H        0.83740    0.40880    0.58550    1.000
    C63      C        0.98560    0.39020    0.60500    1.000
    H33      H        0.97860    0.38720    0.54580    1.000
    C64      C        0.08000    0.38130    0.66950    1.000
    C65      C        0.09070    0.38520    0.75740    1.000
    H34      H        0.15460    0.37760    0.80070    1.000
    C66      C        0.00640    0.40030    0.78090    1.000
    H35      H        0.01370    0.40410    0.84020    1.000
    C67      C        0.91000    0.41010    0.71640    1.000
    C68      C        0.25460    0.34320    0.69630    1.000
    C69      C        0.26300    0.26310    0.72210    1.000
    H36      H        0.20560    0.22990    0.70550    1.000
    C70      C        0.35820    0.23310    0.77290    1.000
    C71      C        0.44290    0.28300    0.79460    1.000
    H37      H        0.50650    0.26320    0.82950    1.000
    C72      C        0.43430    0.36250    0.76500    1.000
    C73      C        0.33870    0.39310    0.71600    1.000
    H38      H        0.33150    0.44640    0.69690    1.000
    C74      C        0.37200    0.14640    0.80200    1.000
    C75      C        0.52900    0.41280    0.78510    1.000
    C76      C        0.74250    0.63790    0.94730    1.000
    C77      C        0.75560    0.72090    0.98650    1.000
    C78      C        0.85320    0.75070    0.03240    1.000
    H39      H        0.91020    0.71770    0.04350    1.000
    C79      C        0.86450    0.82960    0.06130    1.000
    C80      C        0.78090    0.88080    0.04390    1.000
    H40      H        0.78970    0.93390    0.06350    1.000
    C81      C        0.68380    0.85130    0.99658    1.000
    C82      C        0.67130    0.77130    0.96930    1.000
    H41      H        0.60600    0.75140    0.93940    1.000
    C83      C        0.59460    0.90770    0.96930    1.000
    C84      C        0.00020    0.87140    0.19120    1.000
    C85      C        0.10250    0.89220    0.22830    1.000
    H42      H        0.14280    0.89710    0.19310    1.000
    C86      C        0.14380    0.90530    0.31720    1.000
    H43      H        0.21240    0.91970    0.34220    1.000
    C87      C        0.08510    0.89750    0.37060    1.000
    C88      C        0.98260    0.87830    0.33210    1.000
    H44      H        0.94170    0.87460    0.36670    1.000
    C89      C        0.94070    0.86440    0.24270    1.000
    H45      H        0.87200    0.85030    0.21730    1.000
    C90      C        0.13060    0.91430    0.46590    1.000
    Cd7      Cd       0.29152    0.00093    0.64202    1.000
    Cd8      Cd       0.41891    0.99584    0.87350    1.000
    O43      O        0.26894    0.92239    0.81720    1.000
    O44      O        0.16677    0.94815    0.67982    1.000
    O45      O        0.83909    0.87323    0.86021    1.000
    O46      O        0.69717    0.59557    0.73198    1.000
    O47      O        0.54441    0.62757    0.63729    1.000
    O48      O        0.47610    0.98153    0.75054    1.000
    O49      O        0.38976    0.88600    0.66068    1.000
    O50      O        0.34638    0.10940    0.58587    1.000
    O51      O        0.17953    0.10142    0.55386    1.000
    O52      O        0.49016    0.38220    0.58315    1.000
    O53      O        0.39290    0.48009    0.50380    1.000
    O54      O        0.03597    0.35916    0.39910    1.000
    O55      O        0.93420    0.40800    0.99139    1.000
    H46      H        0.90450    0.41790    0.93910    1.000
    O56      O        0.77977    0.43310    0.99827    1.000
    C91      C        0.18100    0.92862    0.75870    1.000
    C92      C        0.09850    0.90380    0.87090    1.000
    H47      H        0.16260    0.90880    0.91450    1.000
    C93      C        0.01440    0.89020    0.89500    1.000
    H48      H        0.02140    0.88720    0.95420    1.000
    C94      C        0.92000    0.88130    0.83050    1.000
    C95      C        0.90930    0.88520    0.74260    1.000
    H49      H        0.84540    0.87760    0.69930    1.000
    C96      C        0.99360    0.90030    0.71910    1.000
    H50      H        0.98630    0.90410    0.65980    1.000
    C97      C        0.09000    0.91010    0.78360    1.000
    C98      C        0.74540    0.84320    0.80370    1.000
    C99      C        0.73700    0.76310    0.77790    1.000
    H51      H        0.79440    0.72990    0.79450    1.000
    C100     C        0.64180    0.73310    0.72710    1.000
    C101     C        0.55710    0.78300    0.70540    1.000
    H52      H        0.49350    0.76320    0.67050    1.000
    C102     C        0.56570    0.86250    0.73500    1.000
    C103     C        0.66130    0.89310    0.78400    1.000
    H53      H        0.66850    0.94640    0.80310    1.000
    C104     C        0.62800    0.64640    0.69800    1.000
    C105     C        0.47100    0.91280    0.71490    1.000
    C106     C        0.25750    0.13790    0.55270    1.000
    C107     C        0.24440    0.22090    0.51350    1.000
    C108     C        0.14680    0.25070    0.46760    1.000
    H54      H        0.08980    0.21770    0.45650    1.000
    C109     C        0.13550    0.32960    0.43870    1.000
    C110     C        0.21910    0.38080    0.45610    1.000
    H55      H        0.21030    0.43390    0.43650    1.000
    C111     C        0.31620    0.35130    0.50342    1.000
    C112     C        0.32870    0.27130    0.53070    1.000
    H56      H        0.39400    0.25140    0.56060    1.000
    C113     C        0.40540    0.40770    0.53070    1.000
    C114     C        0.99980    0.37140    0.30880    1.000
    C115     C        0.89750    0.39220    0.27170    1.000
    H57      H        0.85720    0.39710    0.30690    1.000
    C116     C        0.85620    0.40530    0.18280    1.000
    H58      H        0.78760    0.41970    0.15780    1.000
    C117     C        0.91490    0.39750    0.12940    1.000
    C118     C        0.01740    0.37830    0.16790    1.000
    H59      H        0.05830    0.37460    0.13330    1.000
    C119     C        0.05930    0.36440    0.25730    1.000
    H60      H        0.12800    0.35030    0.28270    1.000
    C120     C        0.86940    0.41430    0.03410    1.000
