data_functionalizedCrystal
_audit_creation_method	'EQeq! by Chris Wilmer'
_symmetry_space_group_name_H-M	'P1'
_symmetry_Int_Tables_number	1
_symmetry_cell_setting	triclinic
loop_
_symmetry_equiv_pos_as_xyz
  x,y,z
_cell_length_a	9.8707
_cell_length_b	16.5087
_cell_length_c	16.4722
_cell_angle_alpha	90
_cell_angle_beta	90
_cell_angle_gamma	90
loop_
_atom_site_label
_atom_site_type_symbol
_atom_site_fract_x
_atom_site_fract_y
_atom_site_fract_z
_atom_site_charge
Mof_Ni	Ni	0.37116	0.55204	0.03555	1.012
Mof_Ni	Ni	0.62884	0.44796	0.53555	1.081
Mof_Ni	Ni	0.62884	0.05204	0.03555	1.011
Mof_Ni	Ni	0.37116	0.94796	0.53555	1.079
Mof_Ge	Ge	0.09054	0.47498	0.05226	1.392
Mof_Ge	Ge	0.95452	0.57292	0.91424	1.736
Mof_Ge	Ge	0.06377	0.66318	0.06008	1.356
Mof_Ge	Ge	0.86759	0.34875	0.07743	1.57
Mof_Ge	Ge	0.97565	0.44186	0.22244	1.63
Mof_Ge	Ge	0.72958	0.50521	0.02202	1.107
Mof_Ge	Ge	0.82667	0.59544	0.16394	1.26
Mof_Ge	Ge	0.90946	0.52502	0.55226	1.598
Mof_Ge	Ge	0.04548	0.42708	0.41424	1.684
Mof_Ge	Ge	0.93623	0.33682	0.56008	1.667
Mof_Ge	Ge	0.13241	0.65125	0.57743	1.634
Mof_Ge	Ge	0.02435	0.55814	0.72244	1.652
Mof_Ge	Ge	0.27042	0.49479	0.52202	1.594
Mof_Ge	Ge	0.17333	0.40456	0.66394	1.316
Mof_Ge	Ge	0.90946	0.97498	0.05226	1.409
Mof_Ge	Ge	0.04548	0.07292	0.91424	1.731
Mof_Ge	Ge	0.93623	0.16318	0.06008	1.343
Mof_Ge	Ge	0.13241	0.84875	0.07743	1.559
Mof_Ge	Ge	0.02435	0.94186	0.22244	1.586
Mof_Ge	Ge	0.27042	0.00521	0.02202	1.129
Mof_Ge	Ge	0.17333	0.09544	0.16394	1.26
Mof_Ge	Ge	0.09054	0.02502	0.55226	1.605
Mof_Ge	Ge	0.95452	0.92708	0.41424	1.69
Mof_Ge	Ge	0.06377	0.83682	0.56008	1.653
Mof_Ge	Ge	0.86759	0.15125	0.57743	1.619
Mof_Ge	Ge	0.97565	0.05814	0.72244	1.596
Mof_Ge	Ge	0.72958	0.99479	0.52202	1.607
Mof_Ge	Ge	0.82667	0.90456	0.66394	1.317
Mof_H 	H 	0.5154	0.4031	0.1292	0.076
Mof_H 	H 	0.3993	0.3874	0.1923	0.099
Mof_H 	H 	0.3873	0.3462	0.0389	-0.097
Mof_H 	H 	0.2629	0.3458	0.098	-0.058
Mof_H 	H 	0.4128	0.5208	0.8111	0.069
Mof_H 	H 	0.5129	0.5843	0.8493	0.083
Mof_H 	H 	0.4571	0.4293	0.912	0.068
Mof_H 	H 	0.5984	0.4592	0.8796	0.041
Mof_H 	H 	0.4846	0.5969	0.6292	0.08
Mof_H 	H 	0.6007	0.6126	0.6923	0.096
Mof_H 	H 	0.6127	0.6538	0.5389	-0.033
Mof_H 	H 	0.7371	0.6542	0.598	-0.036
Mof_H 	H 	0.5872	0.4792	0.3111	0.086
Mof_H 	H 	0.4871	0.4157	0.3493	0.088
Mof_H 	H 	0.5429	0.5707	0.412	-0.027
Mof_H 	H 	0.4016	0.5408	0.3796	-0.032
Mof_H 	H 	0.4846	0.9031	0.1292	0.075
Mof_H 	H 	0.6007	0.8874	0.1923	0.098
Mof_H 	H 	0.6127	0.8462	0.0389	-0.096
Mof_H 	H 	0.7371	0.8458	0.098	-0.057
Mof_H 	H 	0.5872	0.0208	0.8111	0.069
Mof_H 	H 	0.4871	0.0843	0.8493	0.086
Mof_H 	H 	0.5429	0.9293	0.912	0.065
Mof_H 	H 	0.4016	0.9592	0.8796	0.036
Mof_H 	H 	0.5154	0.0969	0.6292	0.079
Mof_H 	H 	0.3993	0.1126	0.6923	0.095
Mof_H 	H 	0.3873	0.1538	0.5389	-0.033
Mof_H 	H 	0.2629	0.1542	0.598	-0.036
Mof_H 	H 	0.4128	0.9792	0.3111	0.084
Mof_H 	H 	0.5129	0.9157	0.3493	0.087
Mof_H 	H 	0.4571	0.0707	0.412	-0.025
Mof_H 	H 	0.5984	0.0408	0.3796	-0.033
Mof_C 	C 	0.4212	0.4143	0.1416	-0.236
Mof_C 	C 	0.3322	0.3799	0.0741	0.246
Mof_C 	C 	0.4483	0.5419	0.8618	-0.122
Mof_C 	C 	0.5167	0.4758	0.9078	0.068
Mof_C 	C 	0.5788	0.5857	0.6416	-0.205
Mof_C 	C 	0.6678	0.6201	0.5741	0.21
Mof_C 	C 	0.5517	0.4581	0.3618	-0.201
Mof_C 	C 	0.4833	0.5242	0.4078	0.197
Mof_C 	C 	0.5788	0.9143	0.1416	-0.231
Mof_C 	C 	0.6678	0.8799	0.0741	0.244
Mof_C 	C 	0.5517	0.0419	0.8618	-0.133
Mof_C 	C 	0.4833	0.9758	0.9078	0.084
Mof_C 	C 	0.4212	0.0857	0.6416	-0.204
Mof_C 	C 	0.3322	0.1201	0.5741	0.209
Mof_C 	C 	0.4483	0.9581	0.3618	-0.196
Mof_C 	C 	0.5167	0.0242	0.4078	0.191
Mof_N 	N 	0.4023	0.5075	0.1524	-0.19
Mof_N 	N 	0.3348	0.5756	0.9123	-0.14
Mof_N 	N 	0.5977	0.4925	0.6524	-0.181
Mof_N 	N 	0.6652	0.4244	0.4123	-0.197
Mof_N 	N 	0.5977	0.0075	0.1524	-0.193
Mof_N 	N 	0.6652	0.0756	0.9123	-0.143
Mof_N 	N 	0.4023	0.9925	0.6524	-0.182
Mof_N 	N 	0.3348	0.9244	0.4123	-0.199
Mof_O 	O 	0.2686	0.4416	0.0266	-0.575
Mof_O 	O 	0.1675	0.5795	0.0684	-0.816
Mof_O 	O 	0.0683	0.4977	0.9402	-0.591
Mof_O 	O 	0.1173	0.4557	0.1625	-0.703
Mof_O 	O 	0.0234	0.3711	0.0346	-0.75
Mof_O 	O 	0.1714	0.7464	0.0668	-0.775
Mof_O 	O 	0.972	0.6001	0.814	-0.788
Mof_O 	O 	0.9861	0.6653	0.965	-0.618
Mof_O 	O 	0.9109	0.5177	0.0735	-0.8
Mof_O 	O 	0.8847	0.5312	0.2426	-0.733
Mof_O 	O 	0.8643	0.3685	0.1813	-0.78
Mof_O 	O 	0.9435	0.6712	0.1364	-0.728
Mof_O 	O 	0.7867	0.5471	0.9281	-0.625
Mof_O 	O 	0.7338	0.3977	0.0292	-0.754
Mof_O 	O 	0.6827	0.5683	0.1041	-0.702
Mof_O 	O 	0.5506	0.5051	0.9881	-0.309
Mof_O 	O 	0.7314	0.5584	0.5266	-0.515
Mof_O 	O 	0.8325	0.4205	0.5684	-0.852
Mof_O 	O 	0.9317	0.5023	0.4402	-0.737
Mof_O 	O 	0.8827	0.5443	0.6625	-0.74
Mof_O 	O 	0.9766	0.6289	0.5346	-0.735
Mof_O 	O 	0.8286	0.2536	0.5668	-0.793
Mof_O 	O 	0.028	0.3999	0.314	-0.785
Mof_O 	O 	0.0139	0.3347	0.465	-0.805
Mof_O 	O 	0.0891	0.4823	0.5735	-0.852
Mof_O 	O 	0.1153	0.4688	0.7426	-0.739
Mof_O 	O 	0.1357	0.6315	0.6813	-0.795
Mof_O 	O 	0.0565	0.3288	0.6364	-0.773
Mof_O 	O 	0.2133	0.4529	0.4281	-0.791
Mof_O 	O 	0.2662	0.6023	0.5292	-0.773
Mof_O 	O 	0.3173	0.4317	0.6041	-0.747
Mof_O 	O 	0.4494	0.4949	0.4881	-0.56
Mof_O 	O 	0.7314	0.9416	0.0266	-0.574
Mof_O 	O 	0.8325	0.0795	0.0684	-0.823
Mof_O 	O 	0.9317	0.9977	0.9402	-0.586
Mof_O 	O 	0.8827	0.9557	0.1625	-0.69
Mof_O 	O 	0.9766	0.8711	0.0346	-0.748
Mof_O 	O 	0.8286	0.2464	0.0668	-0.775
Mof_O 	O 	0.028	0.1001	0.814	-0.773
Mof_O 	O 	0.0139	0.1653	0.965	-0.615
Mof_O 	O 	0.0891	0.0177	0.0735	-0.797
Mof_O 	O 	0.1153	0.0312	0.2426	-0.72
Mof_O 	O 	0.1357	0.8685	0.1813	-0.773
Mof_O 	O 	0.0565	0.1712	0.1364	-0.724
Mof_O 	O 	0.2133	0.0471	0.9281	-0.628
Mof_O 	O 	0.2662	0.8977	0.0292	-0.759
Mof_O 	O 	0.3173	0.0683	0.1041	-0.703
Mof_O 	O 	0.4494	0.0051	0.9881	-0.319
Mof_O 	O 	0.2686	0.0584	0.5266	-0.515
Mof_O 	O 	0.1675	0.9205	0.5684	-0.856
Mof_O 	O 	0.0683	0.0023	0.4402	-0.734
Mof_O 	O 	0.1173	0.0443	0.6625	-0.726
Mof_O 	O 	0.0234	0.1289	0.5346	-0.73
Mof_O 	O 	0.1714	0.7536	0.5668	-0.793
Mof_O 	O 	0.972	0.8999	0.314	-0.773
Mof_O 	O 	0.9861	0.8347	0.465	-0.802
Mof_O 	O 	0.9109	0.9823	0.5735	-0.846
Mof_O 	O 	0.8847	0.9688	0.7426	-0.722
Mof_O 	O 	0.8643	0.1315	0.6813	-0.787
Mof_O 	O 	0.9435	0.8288	0.6364	-0.769
Mof_O 	O 	0.7867	0.9529	0.4281	-0.792
Mof_O 	O 	0.7338	0.1023	0.5292	-0.778
Mof_O 	O 	0.6827	0.9317	0.6041	-0.748
Mof_O 	O 	0.5506	0.9949	0.4881	-0.559
_end
