data_functionalizedCrystal
_audit_creation_method	'EQeq! by Chris Wilmer'
_symmetry_space_group_name_H-M	'P1'
_symmetry_Int_Tables_number	1
_symmetry_cell_setting	triclinic
loop_
_symmetry_equiv_pos_as_xyz
  x,y,z
_cell_length_a	25.6125
_cell_length_b	25.6125
_cell_length_c	6.8036
_cell_angle_alpha	90
_cell_angle_beta	90
_cell_angle_gamma	120
loop_
_atom_site_label
_atom_site_type_symbol
_atom_site_fract_x
_atom_site_fract_y
_atom_site_fract_z
_atom_site_charge
Mof_Fe	Fe	0.38929	0.35113	0.15399	0.825
Mof_O 	O 	0.323	0.29715	0.3555	-0.427
Mof_O 	O 	0.3009	0.22839	0.594	-0.368
Mof_O 	O 	0.35534	0.2728	0.9989	-0.403
Mof_C 	C 	0.3164	0.2467	0.4151	0.38
Mof_C 	C 	0.326	0.2052	0.2881	-0.188
Mof_C 	C 	0.3431	0.2202	0.0922	0.158
Mof_C 	C 	0.3492	0.1795	0.9565	0.022
Mof_Fe	Fe	0.05596	0.68446	0.48732	0.827
Mof_O 	O 	0.98967	0.63048	0.68883	-0.426
Mof_O 	O 	0.96757	0.56172	0.92733	-0.366
Mof_O 	O 	0.02201	0.60613	0.33223	-0.403
Mof_C 	C 	0.98307	0.58003	0.74843	0.38
Mof_C 	C 	0.99267	0.53853	0.62143	-0.189
Mof_C 	C 	0.00977	0.55353	0.42553	0.161
Mof_C 	C 	0.01587	0.51283	0.28983	0.018
Mof_Fe	Fe	0.72262	0.0178	0.82066	0.828
Mof_O 	O 	0.65633	0.96382	0.02217	-0.427
Mof_O 	O 	0.63423	0.89506	0.26067	-0.367
Mof_O 	O 	0.68867	0.93947	0.66557	-0.404
Mof_C 	C 	0.64973	0.91337	0.08177	0.382
Mof_C 	C 	0.65933	0.87187	0.95477	-0.193
Mof_C 	C 	0.67643	0.88687	0.75887	0.163
Mof_C 	C 	0.68253	0.84617	0.62317	0.017
Mof_Fe	Fe	0.64887	0.03816	0.15399	0.824
Mof_O 	O 	0.70285	0.02585	0.3555	-0.426
Mof_O 	O 	0.77161	0.07251	0.594	-0.367
Mof_O 	O 	0.7272	0.08254	0.9989	-0.401
Mof_C 	C 	0.7533	0.0697	0.4151	0.379
Mof_C 	C 	0.7948	0.1208	0.2881	-0.187
Mof_C 	C 	0.7798	0.1229	0.0922	0.156
Mof_C 	C 	0.8205	0.1697	0.9565	0.024
Mof_Fe	Fe	0.31554	0.37149	0.48732	0.827
Mof_O 	O 	0.36952	0.35918	0.68883	-0.426
Mof_O 	O 	0.43828	0.40584	0.92733	-0.367
Mof_O 	O 	0.39387	0.41587	0.33223	-0.404
Mof_C 	C 	0.41997	0.40303	0.74843	0.38
Mof_C 	C 	0.46147	0.45413	0.62143	-0.189
Mof_C 	C 	0.44647	0.45623	0.42553	0.161
Mof_C 	C 	0.48717	0.50303	0.28983	0.018
Mof_Fe	Fe	0.9822	0.70483	0.82066	0.827
Mof_O 	O 	0.03618	0.69252	0.02217	-0.427
Mof_O 	O 	0.10494	0.73918	0.26067	-0.368
Mof_O 	O 	0.06053	0.74921	0.66557	-0.404
Mof_C 	C 	0.08663	0.73637	0.08177	0.383
Mof_C 	C 	0.12813	0.78747	0.95477	-0.195
Mof_C 	C 	0.11313	0.78957	0.75887	0.164
Mof_C 	C 	0.15383	0.83637	0.62317	0.016
Mof_Fe	Fe	0.96184	0.61071	0.15399	0.824
Mof_O 	O 	0.97415	0.677	0.3555	-0.426
Mof_O 	O 	0.92749	0.6991	0.594	-0.367
Mof_O 	O 	0.91746	0.64466	0.9989	-0.402
Mof_C 	C 	0.9303	0.6836	0.4151	0.379
Mof_C 	C 	0.8792	0.674	0.2881	-0.188
Mof_C 	C 	0.8771	0.6569	0.0922	0.158
Mof_C 	C 	0.8303	0.6508	0.9565	0.022
Mof_Fe	Fe	0.62851	0.94404	0.48732	0.827
Mof_O 	O 	0.64082	0.01033	0.68883	-0.426
Mof_O 	O 	0.59416	0.03243	0.92733	-0.366
Mof_O 	O 	0.58413	0.97799	0.33223	-0.403
Mof_C 	C 	0.59697	0.01693	0.74843	0.38
Mof_C 	C 	0.54587	0.00733	0.62143	-0.189
Mof_C 	C 	0.54377	0.99023	0.42553	0.161
Mof_C 	C 	0.49697	0.98413	0.28983	0.018
Mof_Fe	Fe	0.29517	0.27738	0.82066	0.827
Mof_O 	O 	0.30748	0.34367	0.02217	-0.427
Mof_O 	O 	0.26082	0.36577	0.26067	-0.367
Mof_O 	O 	0.25079	0.31133	0.66557	-0.404
Mof_C 	C 	0.26363	0.35027	0.08177	0.382
Mof_C 	C 	0.21253	0.34067	0.95477	-0.193
Mof_C 	C 	0.21043	0.32357	0.75887	0.163
Mof_C 	C 	0.16363	0.31747	0.62317	0.017
Mof_Fe	Fe	0.61071	0.64887	0.84601	0.826
Mof_O 	O 	0.677	0.70285	0.6445	-0.426
Mof_O 	O 	0.6991	0.77161	0.406	-0.367
Mof_O 	O 	0.64466	0.7272	0.0011	-0.402
Mof_C 	C 	0.6836	0.7533	0.5849	0.38
Mof_C 	C 	0.674	0.7948	0.7119	-0.188
Mof_C 	C 	0.6569	0.7798	0.9078	0.158
Mof_C 	C 	0.6508	0.8205	0.0435	0.022
Mof_Fe	Fe	0.27738	0.9822	0.17934	0.828
Mof_O 	O 	0.34367	0.03618	0.97783	-0.427
Mof_O 	O 	0.36577	0.10494	0.73933	-0.367
Mof_O 	O 	0.31133	0.06053	0.33443	-0.404
Mof_C 	C 	0.35027	0.08663	0.91823	0.382
Mof_C 	C 	0.34067	0.12813	0.04523	-0.193
Mof_C 	C 	0.32357	0.11313	0.24113	0.163
Mof_C 	C 	0.31747	0.15383	0.37683	0.017
Mof_Fe	Fe	0.94404	0.31554	0.51268	0.827
Mof_O 	O 	0.01033	0.36952	0.31117	-0.426
Mof_O 	O 	0.03243	0.43828	0.07267	-0.366
Mof_O 	O 	0.97799	0.39387	0.66777	-0.403
Mof_C 	C 	0.01693	0.41997	0.25157	0.38
Mof_C 	C 	0.00733	0.46147	0.37857	-0.189
Mof_C 	C 	0.99023	0.44647	0.57447	0.161
Mof_C 	C 	0.98413	0.48717	0.71017	0.018
Mof_Fe	Fe	0.35113	0.96184	0.84601	0.824
Mof_O 	O 	0.29715	0.97415	0.6445	-0.426
Mof_O 	O 	0.22839	0.92749	0.406	-0.367
Mof_O 	O 	0.2728	0.91746	0.0011	-0.401
Mof_C 	C 	0.2467	0.9303	0.5849	0.379
Mof_C 	C 	0.2052	0.8792	0.7119	-0.187
Mof_C 	C 	0.2202	0.8771	0.9078	0.156
Mof_C 	C 	0.1795	0.8303	0.0435	0.024
Mof_Fe	Fe	0.0178	0.29517	0.17934	0.827
Mof_O 	O 	0.96382	0.30748	0.97783	-0.427
Mof_O 	O 	0.89506	0.26082	0.73933	-0.368
Mof_O 	O 	0.93947	0.25079	0.33443	-0.404
Mof_C 	C 	0.91337	0.26363	0.91823	0.383
Mof_C 	C 	0.87187	0.21253	0.04523	-0.195
Mof_C 	C 	0.88687	0.21043	0.24113	0.164
Mof_C 	C 	0.84617	0.16363	0.37683	0.016
Mof_Fe	Fe	0.68446	0.62851	0.51268	0.827
Mof_O 	O 	0.63048	0.64082	0.31117	-0.426
Mof_O 	O 	0.56172	0.59416	0.07267	-0.367
Mof_O 	O 	0.60613	0.58413	0.66777	-0.404
Mof_C 	C 	0.58003	0.59697	0.25157	0.38
Mof_C 	C 	0.53853	0.54587	0.37857	-0.189
Mof_C 	C 	0.55353	0.54377	0.57447	0.161
Mof_C 	C 	0.51283	0.49697	0.71017	0.018
Mof_Fe	Fe	0.03816	0.38929	0.84601	0.824
Mof_O 	O 	0.02585	0.323	0.6445	-0.426
Mof_O 	O 	0.07251	0.3009	0.406	-0.367
Mof_O 	O 	0.08254	0.35534	0.0011	-0.402
Mof_C 	C 	0.0697	0.3164	0.5849	0.379
Mof_C 	C 	0.1208	0.326	0.7119	-0.188
Mof_C 	C 	0.1229	0.3431	0.9078	0.158
Mof_C 	C 	0.1697	0.3492	0.0435	0.022
Mof_Fe	Fe	0.70483	0.72262	0.17934	0.827
Mof_O 	O 	0.69252	0.65633	0.97783	-0.427
Mof_O 	O 	0.73918	0.63423	0.73933	-0.367
Mof_O 	O 	0.74921	0.68867	0.33443	-0.404
Mof_C 	C 	0.73637	0.64973	0.91823	0.382
Mof_C 	C 	0.78747	0.65933	0.04523	-0.193
Mof_C 	C 	0.78957	0.67643	0.24113	0.163
Mof_C 	C 	0.83637	0.68253	0.37683	0.017
Mof_Fe	Fe	0.37149	0.05596	0.51268	0.827
Mof_O 	O 	0.35918	0.98967	0.31117	-0.426
Mof_O 	O 	0.40584	0.96757	0.07267	-0.366
Mof_O 	O 	0.41587	0.02201	0.66777	-0.403
Mof_C 	C 	0.40303	0.98307	0.25157	0.38
Mof_C 	C 	0.45413	0.99267	0.37857	-0.189
Mof_C 	C 	0.45623	0.00977	0.57447	0.161
Mof_C 	C 	0.50303	0.01587	0.71017	0.018
_end
