data_functionalizedCrystal
_audit_creation_method	'EQeq! by Chris Wilmer'
_symmetry_space_group_name_H-M	'P1'
_symmetry_Int_Tables_number	1
_symmetry_cell_setting	triclinic
loop_
_symmetry_equiv_pos_as_xyz
  x,y,z
_cell_length_a	9.8317
_cell_length_b	17.3953
_cell_length_c	18.1967
_cell_angle_alpha	92.3549
_cell_angle_beta	90
_cell_angle_gamma	106.415
loop_
_atom_site_label
_atom_site_type_symbol
_atom_site_fract_x
_atom_site_fract_y
_atom_site_fract_z
_atom_site_charge
Mof_Zn	Zn	0.5454	0.69334	0.00346	1.221
Mof_Zn	Zn	0.85206	0.30666	0.49654	1.232
Mof_Zn	Zn	0.4546	0.30666	0.99654	1.24
Mof_Zn	Zn	0.14794	0.69334	0.50346	1.23
Mof_Zn	Zn	0.5	0.5	-0	1.227
Mof_Zn	Zn	-0	0.5	0.5	1.227
Mof_H 	H 	0.6337	0.5052	0.7753	0.048
Mof_H 	H 	0.7517	0.5122	0.6652	0.052
Mof_H 	H 	0.9905	0.7334	0.7242	0.057
Mof_H 	H 	0.8685	0.728	0.8331	0.058
Mof_H 	H 	0.0382	0.5676	0.8915	0.107
Mof_H 	H 	0.1882	0.5064	0.079	0.11
Mof_H 	H 	0.6355	0.9358	0.9311	0.028
Mof_H 	H 	0.344	0.9306	0.0851	0.013
Mof_H 	H 	0.1285	0.4948	0.7247	0.041
Mof_H 	H 	0.2395	0.4878	0.8348	0.052
Mof_H 	H 	0.2571	0.2666	0.7758	0.048
Mof_H 	H 	0.1405	0.272	0.6669	0.044
Mof_H 	H 	0.4706	0.4324	0.6085	0.05
Mof_H 	H 	0.6818	0.4936	0.421	0.045
Mof_H 	H 	0.6997	0.0642	0.5689	0.049
Mof_H 	H 	0.4134	0.0694	0.4149	0.029
Mof_H 	H 	0.3663	0.4948	0.2247	0.04
Mof_H 	H 	0.2483	0.4878	0.3348	0.057
Mof_H 	H 	0.0095	0.2666	0.2758	0.044
Mof_H 	H 	0.1315	0.272	0.1669	0.038
Mof_H 	H 	0.9618	0.4324	0.1085	-0.007
Mof_H 	H 	0.8118	0.4936	0.921	-0.023
Mof_H 	H 	0.3645	0.0642	0.0689	0.07
Mof_H 	H 	0.656	0.0694	0.9149	0.06
Mof_H 	H 	0.8715	0.5052	0.2753	0.047
Mof_H 	H 	0.7605	0.5122	0.1652	0.057
Mof_H 	H 	0.7429	0.7334	0.2242	0.053
Mof_H 	H 	0.8595	0.728	0.3331	0.052
Mof_H 	H 	0.5294	0.5676	0.3915	0.05
Mof_H 	H 	0.3182	0.5064	0.579	0.043
Mof_H 	H 	0.3003	0.9358	0.4311	0.053
Mof_H 	H 	0.5866	0.9306	0.5851	0.043
Mof_C 	C 	0.65797	0.61214	0.8859	0.373
Mof_C 	C 	0.7381	0.6162	0.81519	-0.075
Mof_C 	C 	0.70449	0.55158	0.76477	-0.032
Mof_C 	C 	0.77532	0.55564	0.69897	-0.017
Mof_C 	C 	0.88151	0.62402	0.68285	-0.084
Mof_C 	C 	0.91747	0.68794	0.73402	-0.008
Mof_C 	C 	0.84521	0.68442	0.7995	-0.023
Mof_C 	C 	0.95408	0.62816	0.61019	0.405
Mof_C 	C 	0.28211	0.59442	0.96323	0.314
Mof_C 	C 	0.13678	0.54436	0.98199	0.078
Mof_C 	C 	0.02303	0.54046	0.93501	-0.209
Mof_C 	C 	0.11281	0.50382	0.04721	-0.238
Mof_C 	C 	0.47385	0.8321	0.02111	0.295
Mof_C 	C 	0.48716	0.91892	0.01009	-0.134
Mof_C 	C 	0.58063	0.96146	0.95905	0.052
Mof_C 	C 	0.40715	0.9583	0.05065	0.02
Mof_C 	C 	0.04583	0.38786	0.6141	0.334
Mof_C 	C 	0.1219	0.3838	0.68481	-0.079
Mof_C 	C 	0.15291	0.44842	0.73523	-0.034
Mof_C 	C 	0.21968	0.44436	0.80103	-0.028
Mof_C 	C 	0.25749	0.37598	0.81715	-0.077
Mof_C 	C 	0.22953	0.31206	0.76598	-0.021
Mof_C 	C 	0.16079	0.31558	0.7005	-0.027
Mof_C 	C 	0.32592	0.37184	0.88981	0.361
Mof_C 	C 	0.68769	0.40558	0.53677	0.33
Mof_C 	C 	0.59242	0.45564	0.51801	-0.071
Mof_C 	C 	0.48257	0.45954	0.56499	-0.021
Mof_C 	C 	0.60899	0.49618	0.45279	-0.024
Mof_C 	C 	0.64175	0.1679	0.47889	0.316
Mof_C 	C 	0.56824	0.08108	0.48991	-0.076
Mof_C 	C 	0.61917	0.03854	0.54095	-0.017
Mof_C 	C 	0.44885	0.0417	0.44935	-0.01
Mof_C 	C 	0.34203	0.38786	0.1141	0.377
Mof_C 	C 	0.2619	0.3838	0.18481	-0.096
Mof_C 	C 	0.29551	0.44842	0.23523	-0.017
Mof_C 	C 	0.22468	0.44436	0.30103	-0.043
Mof_C 	C 	0.11849	0.37598	0.31715	-0.063
Mof_C 	C 	0.08253	0.31206	0.26598	-0.038
Mof_C 	C 	0.15479	0.31558	0.2005	-0.009
Mof_C 	C 	0.04592	0.37184	0.38981	0.32
Mof_C 	C 	0.71789	0.40558	0.03677	0.35
Mof_C 	C 	0.86322	0.45564	0.01801	-0.222
Mof_C 	C 	0.97697	0.45954	0.06499	0.169
Mof_C 	C 	0.88719	0.49618	0.95279	0.193
Mof_C 	C 	0.52615	0.1679	0.97889	0.326
Mof_C 	C 	0.51284	0.08108	0.98991	-0.001
Mof_C 	C 	0.41937	0.03854	0.04095	-0.109
Mof_C 	C 	0.59285	0.0417	0.94935	-0.083
Mof_C 	C 	0.95417	0.61214	0.3859	0.415
Mof_C 	C 	0.8781	0.6162	0.31519	-0.093
Mof_C 	C 	0.84709	0.55158	0.26477	-0.015
Mof_C 	C 	0.78032	0.55564	0.19897	-0.032
Mof_C 	C 	0.74251	0.62402	0.18285	-0.071
Mof_C 	C 	0.77047	0.68794	0.23402	-0.025
Mof_C 	C 	0.83921	0.68442	0.2995	-0.006
Mof_C 	C 	0.67408	0.62816	0.11019	0.364
Mof_C 	C 	0.31231	0.59442	0.46323	0.332
Mof_C 	C 	0.40758	0.54436	0.48199	-0.074
Mof_C 	C 	0.51743	0.54046	0.43501	-0.018
Mof_C 	C 	0.39101	0.50382	0.54721	-0.023
Mof_C 	C 	0.35825	0.8321	0.52111	0.307
Mof_C 	C 	0.43176	0.91892	0.51009	-0.055
Mof_C 	C 	0.38083	0.96146	0.45905	-0.053
Mof_C 	C 	0.55115	0.9583	0.55065	-0.044
Mof_O 	O 	0.66525	0.6777	0.92011	-0.45
Mof_O 	O 	0.58888	0.54336	0.90459	-0.446
Mof_O 	O 	0.05449	0.69098	0.59923	-0.492
Mof_O 	O 	0.90932	0.57124	0.56398	-0.456
Mof_O 	O 	0.29967	0.63454	0.90777	-0.321
Mof_O 	O 	0.38429	0.59458	0.00831	-0.566
Mof_O 	O 	0.5461	0.7996	0.97724	-0.409
Mof_O 	O 	0.39986	0.79612	0.07061	-0.322
Mof_O 	O 	0.98755	0.3223	0.57989	-0.428
Mof_O 	O 	0.04552	0.45664	0.59541	-0.46
Mof_O 	O 	0.36351	0.30902	0.90077	-0.455
Mof_O 	O 	0.33808	0.42876	0.93602	-0.447
Mof_O 	O 	0.66513	0.36546	0.59223	-0.326
Mof_O 	O 	0.78971	0.40542	0.49169	-0.54
Mof_O 	O 	0.7465	0.2004	0.52276	-0.439
Mof_O 	O 	0.60374	0.20388	0.42939	-0.32
Mof_O 	O 	0.33475	0.3223	0.07989	-0.477
Mof_O 	O 	0.41112	0.45664	0.09541	-0.467
Mof_O 	O 	0.94551	0.30902	0.40077	-0.425
Mof_O 	O 	0.09068	0.42876	0.43602	-0.457
Mof_O 	O 	0.70033	0.36546	0.09223	-0.335
Mof_O 	O 	0.61571	0.40542	0.99169	-0.528
Mof_O 	O 	0.4539	0.2004	0.02276	-0.468
Mof_O 	O 	0.60014	0.20388	0.92939	-0.314
Mof_O 	O 	0.01245	0.6777	0.42011	-0.499
Mof_O 	O 	0.95448	0.54336	0.40459	-0.453
Mof_O 	O 	0.63649	0.69098	0.09923	-0.463
Mof_O 	O 	0.66192	0.57124	0.06398	-0.465
Mof_O 	O 	0.33487	0.63454	0.40777	-0.33
Mof_O 	O 	0.21029	0.59458	0.50831	-0.553
Mof_O 	O 	0.2535	0.7996	0.47724	-0.442
Mof_O 	O 	0.39626	0.79612	0.57061	-0.317
Mof_H 	H 	0.4165	0.716	0.8388	0.159
Mof_H 	H 	0.3559	0.7822	0.8307	0.144
Mof_H 	H 	0.6025	0.8224	0.839	-0.065
Mof_H 	H 	0.6015	0.7788	0.7617	-0.079
Mof_H 	H 	0.6344	0.9148	0.7469	0.272
Mof_H 	H 	0.4888	0.8664	0.7108	0.287
Mof_H 	H 	0.4925	0.9104	0.788	0.271
Mof_H 	H 	0.3172	0.7502	0.7071	-0.098
Mof_H 	H 	0.229	0.683	0.7571	-0.1
Mof_H 	H 	0.3297	0.6268	0.6626	0.327
Mof_H 	H 	0.4813	0.6784	0.6886	0.33
Mof_H 	H 	0.3919	0.6112	0.738	0.326
Mof_C 	C 	0.55017	0.80714	0.793	0.343
Mof_C 	C 	0.54061	0.88142	0.7564	-0.845
Mof_C 	C 	0.32433	0.71066	0.742	0.425
Mof_C 	C 	0.38737	0.65154	0.7045	-0.974
Mof_N 	N 	0.40684	0.75308	0.80762	-0.364
Mof_H 	H 	0.7005	0.284	0.6612	0.16
Mof_H 	H 	0.5737	0.2178	0.6693	0.144
Mof_H 	H 	0.7801	0.1776	0.661	-0.065
Mof_H 	H 	0.8227	0.2212	0.7383	-0.075
Mof_H 	H 	0.7196	0.0852	0.7531	0.275
Mof_H 	H 	0.6224	0.1336	0.7892	0.29
Mof_H 	H 	0.5821	0.0896	0.712	0.273
Mof_H 	H 	0.567	0.2498	0.7929	-0.099
Mof_H 	H 	0.546	0.317	0.7429	-0.098
Mof_H 	H 	0.7029	0.3732	0.8374	0.341
Mof_H 	H 	0.8029	0.3216	0.8114	0.346
Mof_H 	H 	0.7807	0.3888	0.762	0.34
Mof_C 	C 	0.74303	0.19286	0.707	0.343
Mof_C 	C 	0.65919	0.11858	0.7436	-0.849
Mof_C 	C 	0.61367	0.28934	0.758	0.438
Mof_C 	C 	0.73583	0.34846	0.7955	-1.003
Mof_N 	N 	0.65376	0.24692	0.69238	-0.365
Mof_H 	H 	0.5835	0.284	0.1612	0.158
Mof_H 	H 	0.6441	0.2178	0.1693	0.145
Mof_H 	H 	0.3975	0.1776	0.161	-0.073
Mof_H 	H 	0.3985	0.2212	0.2383	-0.084
Mof_H 	H 	0.3656	0.0852	0.2531	0.271
Mof_H 	H 	0.5112	0.1336	0.2892	0.292
Mof_H 	H 	0.5075	0.0896	0.212	0.277
Mof_H 	H 	0.6828	0.2498	0.2929	-0.088
Mof_H 	H 	0.771	0.317	0.2429	-0.083
Mof_H 	H 	0.6703	0.3732	0.3374	0.323
Mof_H 	H 	0.5187	0.3216	0.3114	0.323
Mof_H 	H 	0.6081	0.3888	0.262	0.321
Mof_C 	C 	0.44983	0.19286	0.207	0.351
Mof_C 	C 	0.45939	0.11858	0.2436	-0.856
Mof_C 	C 	0.67567	0.28934	0.258	0.409
Mof_C 	C 	0.61263	0.34846	0.2955	-0.955
Mof_N 	N 	0.59316	0.24692	0.19238	-0.362
Mof_H 	H 	0.2995	0.716	0.3388	0.157
Mof_H 	H 	0.4263	0.7822	0.3307	0.144
Mof_H 	H 	0.2199	0.8224	0.339	-0.074
Mof_H 	H 	0.1773	0.7788	0.2617	-0.088
Mof_H 	H 	0.2804	0.9148	0.2469	0.265
Mof_H 	H 	0.3776	0.8664	0.2108	0.288
Mof_H 	H 	0.4179	0.9104	0.288	0.272
Mof_H 	H 	0.433	0.7502	0.2071	-0.087
Mof_H 	H 	0.454	0.683	0.2571	-0.085
Mof_H 	H 	0.2971	0.6268	0.1626	0.309
Mof_H 	H 	0.1971	0.6784	0.1886	0.308
Mof_H 	H 	0.2193	0.6112	0.238	0.306
Mof_C 	C 	0.25697	0.80714	0.293	0.348
Mof_C 	C 	0.34081	0.88142	0.2564	-0.848
Mof_C 	C 	0.38633	0.71066	0.242	0.396
Mof_C 	C 	0.26417	0.65154	0.2045	-0.926
Mof_N 	N 	0.34624	0.75308	0.30762	-0.36
_end
