# CIF file generated by openbabel 3.1.0, see https://openbabel.org
data_I
_chemical_name_common 'image0'
_cell_length_a 10.8416
_cell_length_b 17.6498
_cell_length_c 18.5049
_cell_angle_alpha 90
_cell_angle_beta 92.707
_cell_angle_gamma 90
_space_group_name_H-M_alt 'P 1'
_space_group_name_Hall 'P 1'
loop_
    _symmetry_equiv_pos_as_xyz
    x,y,z
loop_
    _atom_site_label
    _atom_site_type_symbol
    _atom_site_fract_x
    _atom_site_fract_y
    _atom_site_fract_z
    _atom_site_occupancy
    Ba1      Ba       0.19912    0.81875    0.24691    1.000
    Fe1      Fe       0.75151    0.04535    0.25202    1.000
    Fe2      Fe       0.69683    0.65608    0.25204    1.000
    O1       O        0.66850    0.99322    0.33260    1.000
    O2       O        0.70730    0.13736    0.31177    1.000
    O3       O        0.57910    0.01531    0.43654    1.000
    O4       O        0.64440    0.16576    0.42191    1.000
    O5       O        0.78680    0.11603    0.17178    1.000
    O6       O        0.59510    0.02781    0.18747    1.000
    O7       O        0.71610    0.14981    0.06117    1.000
    O8       O        0.52900    0.04349    0.07397    1.000
    O9       O        0.92240    0.03479    0.29843    1.000
    O10      O        0.81180    0.95180    0.20107    1.000
    O11      O        0.08920    0.95734    0.30327    1.000
    O12      O        0.98360    0.88600    0.18130    1.000
    O13      O        0.62430    0.56916    0.19302    1.000
    O14      O        0.74350    0.56980    0.31860    1.000
    O15      O        0.63100    0.44254    0.18810    1.000
    O16      O        0.72540    0.44450    0.32889    1.000
    O17      O        0.55820    0.68239    0.31742    1.000
    O18      O        0.60480    0.73088    0.18853    1.000
    O19      O        0.39980    0.76163    0.32496    1.000
    O20      O        0.44050    0.80656    0.18558    1.000
    O21      O        0.80200    0.72780    0.31284    1.000
    O22      O        0.84380    0.65999    0.19220    1.000
    O23      O        0.98520    0.78310    0.31726    1.000
    O24      O        0.03170    0.71208    0.18876    1.000
    C1       C        0.63250    0.03630    0.38310    1.000
    C2       C        0.66280    0.12080    0.37290    1.000
    C3       C        0.71000    0.11280    0.11780    1.000
    C4       C        0.59950    0.05700    0.12650    1.000
    C5       C        0.98730    0.97820    0.27850    1.000
    C6       C        0.92280    0.93380    0.21440    1.000
    C7       C        0.65030    0.50310    0.21860    1.000
    C8       C        0.71050    0.50440    0.29460    1.000
    C9       C        0.48580    0.73280    0.29200    1.000
    C10      C        0.50910    0.76040    0.21530    1.000
    C11      C        0.90840    0.74120    0.28810    1.000
    C12      C        0.93270    0.70160    0.21730    1.000
    Ba2      Ba       0.44355    0.87865    0.44560    1.000
    Ba3      Ba       0.58057    0.10490    0.93862    1.000
    O25      O        0.21960    0.79881    0.09336    1.000
    O26      O        0.53490    0.72240    0.47411    1.000
    Ba4      Ba       0.80088    0.31875    0.25309    1.000
    Fe3      Fe       0.24849    0.54535    0.24798    1.000
    Fe4      Fe       0.30317    0.15608    0.24796    1.000
    O27      O        0.33150    0.49322    0.16740    1.000
    O28      O        0.29270    0.63736    0.18823    1.000
    O29      O        0.42090    0.51531    0.06346    1.000
    O30      O        0.35560    0.66576    0.07809    1.000
    O31      O        0.21320    0.61603    0.32822    1.000
    O32      O        0.40490    0.52781    0.31253    1.000
    O33      O        0.28390    0.64981    0.43883    1.000
    O34      O        0.47100    0.54349    0.42603    1.000
    O35      O        0.07760    0.53479    0.20157    1.000
    O36      O        0.18820    0.45180    0.29893    1.000
    O37      O        0.91080    0.45734    0.19673    1.000
    O38      O        0.01640    0.38600    0.31870    1.000
    O39      O        0.37570    0.06916    0.30698    1.000
    O40      O        0.25650    0.06980    0.18140    1.000
    O41      O        0.36900    0.94254    0.31190    1.000
    O42      O        0.27460    0.94450    0.17111    1.000
    O43      O        0.44180    0.18239    0.18258    1.000
    O44      O        0.39520    0.23088    0.31147    1.000
    O45      O        0.60020    0.26163    0.17504    1.000
    O46      O        0.55950    0.30656    0.31442    1.000
    O47      O        0.19800    0.22780    0.18716    1.000
    O48      O        0.15620    0.15999    0.30780    1.000
    O49      O        0.01480    0.28310    0.18274    1.000
    O50      O        0.96830    0.21208    0.31124    1.000
    C13      C        0.36750    0.53630    0.11690    1.000
    C14      C        0.33720    0.62080    0.12710    1.000
    C15      C        0.29000    0.61280    0.38220    1.000
    C16      C        0.40050    0.55700    0.37350    1.000
    C17      C        0.01270    0.47820    0.22150    1.000
    C18      C        0.07720    0.43380    0.28560    1.000
    C19      C        0.34970    0.00310    0.28140    1.000
    C20      C        0.28950    0.00440    0.20540    1.000
    C21      C        0.51420    0.23280    0.20800    1.000
    C22      C        0.49090    0.26040    0.28470    1.000
    C23      C        0.09160    0.24120    0.21190    1.000
    C24      C        0.06730    0.20160    0.28270    1.000
    Ba5      Ba       0.55645    0.37865    0.05440    1.000
    Ba6      Ba       0.41943    0.60490    0.56138    1.000
    O51      O        0.78040    0.29881    0.40664    1.000
    O52      O        0.46510    0.22240    0.02589    1.000
    Ba7      Ba       0.80088    0.18125    0.75309    1.000
    Fe5      Fe       0.24849    0.95465    0.74798    1.000
    Fe6      Fe       0.30317    0.34392    0.74796    1.000
    O53      O        0.33150    0.00678    0.66740    1.000
    O54      O        0.29270    0.86264    0.68823    1.000
    O55      O        0.42090    0.98469    0.56346    1.000
    O56      O        0.35560    0.83424    0.57809    1.000
    O57      O        0.21320    0.88397    0.82822    1.000
    O58      O        0.40490    0.97219    0.81253    1.000
    O59      O        0.28390    0.85019    0.93883    1.000
    O60      O        0.47100    0.95651    0.92603    1.000
    O61      O        0.07760    0.96521    0.70157    1.000
    O62      O        0.18820    0.04820    0.79893    1.000
    O63      O        0.91080    0.04266    0.69673    1.000
    O64      O        0.01640    0.11400    0.81870    1.000
    O65      O        0.37570    0.43084    0.80698    1.000
    O66      O        0.25650    0.43020    0.68140    1.000
    O67      O        0.36900    0.55746    0.81190    1.000
    O68      O        0.27460    0.55550    0.67111    1.000
    O69      O        0.44180    0.31761    0.68258    1.000
    O70      O        0.39520    0.26912    0.81147    1.000
    O71      O        0.60020    0.23837    0.67504    1.000
    O72      O        0.55950    0.19344    0.81442    1.000
    O73      O        0.19800    0.27220    0.68716    1.000
    O74      O        0.15620    0.34001    0.80780    1.000
    O75      O        0.01480    0.21690    0.68274    1.000
    O76      O        0.96830    0.28792    0.81124    1.000
    C25      C        0.36750    0.96370    0.61690    1.000
    C26      C        0.33720    0.87920    0.62710    1.000
    C27      C        0.29000    0.88720    0.88220    1.000
    C28      C        0.40050    0.94300    0.87350    1.000
    C29      C        0.01270    0.02180    0.72150    1.000
    C30      C        0.07720    0.06620    0.78560    1.000
    C31      C        0.34970    0.49690    0.78140    1.000
    C32      C        0.28950    0.49560    0.70540    1.000
    C33      C        0.51420    0.26720    0.70800    1.000
    C34      C        0.49090    0.23960    0.78470    1.000
    C35      C        0.09160    0.25880    0.71190    1.000
    C36      C        0.06730    0.29840    0.78270    1.000
    Ba8      Ba       0.55645    0.12135    0.55440    1.000
    Ba9      Ba       0.41943    0.89510    0.06138    1.000
    O77      O        0.78040    0.20119    0.90664    1.000
    O78      O        0.46510    0.27760    0.52589    1.000
    Ba10     Ba       0.19912    0.68125    0.74691    1.000
    Fe7      Fe       0.75151    0.45465    0.75202    1.000
    Fe8      Fe       0.69683    0.84392    0.75204    1.000
    O79      O        0.66850    0.50678    0.83260    1.000
    O80      O        0.70730    0.36264    0.81177    1.000
    O81      O        0.57910    0.48469    0.93654    1.000
    O82      O        0.64440    0.33424    0.92191    1.000
    O83      O        0.78680    0.38397    0.67178    1.000
    O84      O        0.59510    0.47219    0.68747    1.000
    O85      O        0.71610    0.35019    0.56117    1.000
    O86      O        0.52900    0.45651    0.57397    1.000
    O87      O        0.92240    0.46521    0.79843    1.000
    O88      O        0.81180    0.54820    0.70107    1.000
    O89      O        0.08920    0.54266    0.80327    1.000
    O90      O        0.98360    0.61400    0.68130    1.000
    O91      O        0.62430    0.93084    0.69302    1.000
    O92      O        0.74350    0.93020    0.81860    1.000
    O93      O        0.63100    0.05746    0.68810    1.000
    O94      O        0.72540    0.05550    0.82889    1.000
    O95      O        0.55820    0.81761    0.81742    1.000
    O96      O        0.60480    0.76912    0.68853    1.000
    O97      O        0.39980    0.73837    0.82496    1.000
    O98      O        0.44050    0.69344    0.68558    1.000
    O99      O        0.80200    0.77220    0.81284    1.000
    O100     O        0.84380    0.84001    0.69220    1.000
    O101     O        0.98520    0.71690    0.81726    1.000
    O102     O        0.03170    0.78792    0.68876    1.000
    C37      C        0.63250    0.46370    0.88310    1.000
    C38      C        0.66280    0.37920    0.87290    1.000
    C39      C        0.71000    0.38720    0.61780    1.000
    C40      C        0.59950    0.44300    0.62650    1.000
    C41      C        0.98730    0.52180    0.77850    1.000
    C42      C        0.92280    0.56620    0.71440    1.000
    C43      C        0.65030    0.99690    0.71860    1.000
    C44      C        0.71050    0.99560    0.79460    1.000
    C45      C        0.48580    0.76720    0.79200    1.000
    C46      C        0.50910    0.73960    0.71530    1.000
    C47      C        0.90840    0.75880    0.78810    1.000
    C48      C        0.93270    0.79840    0.71730    1.000
    Ba11     Ba       0.44355    0.62135    0.94560    1.000
    Ba12     Ba       0.58057    0.39510    0.43862    1.000
    O103     O        0.21960    0.70119    0.59336    1.000
    O104     O        0.53490    0.77760    0.97411    1.000
