data_functionalizedCrystal
_audit_creation_method	'EQeq! by Chris Wilmer'
_symmetry_space_group_name_H-M	'P1'
_symmetry_Int_Tables_number	1
_symmetry_cell_setting	triclinic
loop_
_symmetry_equiv_pos_as_xyz
  x,y,z
_cell_length_a	32.84
_cell_length_b	8.998
_cell_length_c	34.21
_cell_angle_alpha	90
_cell_angle_beta	115.564
_cell_angle_gamma	90
loop_
_atom_site_label
_atom_site_type_symbol
_atom_site_fract_x
_atom_site_fract_y
_atom_site_fract_z
_atom_site_charge
Mof_Sm	Sm	0.00381	0.85755	0.88103	1.986
Mof_O 	O 	0.0685	0.9135	0.94906	-0.503
Mof_O 	O 	0.1309	0.7711	0.9695	-0.314
Mof_O 	O 	0.0298	0.0986	0.06839	-0.467
Mof_O 	O 	0.0705	0.029	0.13444	-0.466
Mof_O 	O 	0.4532	0.8176	0.32786	-0.474
Mof_O 	O 	0.4689	0.6171	0.30034	-0.435
Mof_O 	O 	0.4388	0.7047	0.1394	-0.591
Mof_O 	O 	0.3684	0.7704	0.0996	-0.573
Mof_H 	H 	0.3735	0.7364	0.0799	0.339
Mof_N 	N 	0.3306	0.082	0.2	-0.204
Mof_H 	H 	0.3176	0.1218	0.1748	0.122
Mof_N 	N 	0.1833	0.6599	0.1247	-0.211
Mof_H 	H 	0.1999	0.614	0.1149	0.124
Mof_C 	C 	0.4028	0.7519	0.1356	0.515
Mof_C 	C 	0.3973	0.808	0.1755	-0.116
Mof_C 	C 	0.4245	0.7479	0.2154	0.01
Mof_H 	H 	0.445	0.6726	0.2182	0.036
Mof_C 	C 	0.4202	0.8039	0.2511	-0.063
Mof_C 	C 	0.3893	0.9128	0.2471	-0.088
Mof_H 	H 	0.3868	0.9474	0.2716	0.059
Mof_C 	C 	0.3612	0.9728	0.2057	0.087
Mof_C 	C 	0.3648	0.9122	0.1702	-0.069
Mof_H 	H 	0.3451	0.9423	0.1425	0.069
Mof_C 	C 	0.4496	0.7411	0.296	0.316
Mof_C 	C 	0.318	0.1375	0.2335	-0.018
Mof_H 	H 	0.3448	0.1723	0.2581	0.027
Mof_H 	H 	0.3051	0.057	0.2434	0.025
Mof_C 	C 	0.2842	0.2632	0.2168	-0.085
Mof_C 	C 	0.2377	0.2328	0.1951	0.092
Mof_C 	C 	0.208	0.3567	0.1802	0.1
Mof_C 	C 	0.2242	0.5001	0.1859	-0.111
Mof_C 	C 	0.2705	0.5297	0.2052	0.118
Mof_C 	C 	0.3005	0.4117	0.221	0.068
Mof_C 	C 	0.2206	0.0754	0.1889	-0.579
Mof_H 	H 	0.2124	0.0451	0.1595	0.196
Mof_H 	H 	0.1946	0.0695	0.1948	0.189
Mof_H 	H 	0.2438	0.011	0.2083	0.196
Mof_C 	C 	0.1575	0.325	0.1581	-0.586
Mof_H 	H 	0.1451	0.3352	0.1787	0.194
Mof_H 	H 	0.1526	0.2255	0.1468	0.197
Mof_H 	H 	0.143	0.3941	0.1348	0.2
Mof_C 	C 	0.3517	0.444	0.2409	-0.554
Mof_H 	H 	0.368	0.3522	0.2453	0.195
Mof_H 	H 	0.3606	0.4937	0.2682	0.188
Mof_H 	H 	0.3583	0.5063	0.2216	0.19
Mof_C 	C 	0.1911	0.6305	0.1685	-0.001
Mof_H 	H 	0.1628	0.6059	0.1697	0.024
Mof_H 	H 	0.2036	0.7179	0.1863	0.02
Mof_C 	C 	0.1514	0.7554	0.0972	0.105
Mof_C 	C 	0.1436	0.7601	0.0538	-0.103
Mof_H 	H 	0.1617	0.7046	0.0445	0.078
Mof_C 	C 	0.1088	0.8473	0.0241	-0.058
Mof_C 	C 	0.0821	0.9356	0.0371	-0.02
Mof_H 	H 	0.0593	0.9947	0.0173	0.049
Mof_C 	C 	0.0906	0.9326	0.0805	-0.053
Mof_C 	C 	0.1248	0.8461	0.1101	-0.106
Mof_H 	H 	0.1302	0.8481	0.1391	0.066
Mof_C 	C 	0.1012	0.8443	0.9767	0.345
Mof_C 	C 	0.0632	0.03	0.096	0.311
Mof_C 	C 	0.2887	0.686	0.2091	-0.613
Mof_H 	H 	0.2645	0.7524	0.1924	0.209
Mof_H 	H 	0.3113	0.6889	0.1983	0.21
Mof_H 	H 	0.3018	0.7158	0.2389	0.203
Mof_Sm	Sm	0.50381	0.35755	0.88103	1.987
Mof_O 	O 	0.5685	0.4135	0.94906	-0.502
Mof_O 	O 	0.6309	0.2711	0.9695	-0.313
Mof_O 	O 	0.5298	0.5986	0.06839	-0.467
Mof_O 	O 	0.5705	0.529	0.13444	-0.466
Mof_O 	O 	0.9532	0.3176	0.32786	-0.474
Mof_O 	O 	0.9689	0.1171	0.30034	-0.435
Mof_O 	O 	0.9388	0.2047	0.1394	-0.591
Mof_O 	O 	0.8684	0.2704	0.0996	-0.574
Mof_H 	H 	0.8735	0.2364	0.0799	0.339
Mof_N 	N 	0.8306	0.582	0.2	-0.204
Mof_H 	H 	0.8176	0.6218	0.1748	0.122
Mof_N 	N 	0.6833	0.1599	0.1247	-0.211
Mof_H 	H 	0.6999	0.114	0.1149	0.124
Mof_C 	C 	0.9028	0.2519	0.1356	0.515
Mof_C 	C 	0.8973	0.308	0.1755	-0.116
Mof_C 	C 	0.9245	0.2479	0.2154	0.01
Mof_H 	H 	0.945	0.1726	0.2182	0.036
Mof_C 	C 	0.9202	0.3039	0.2511	-0.063
Mof_C 	C 	0.8893	0.4128	0.2471	-0.087
Mof_H 	H 	0.8868	0.4474	0.2716	0.059
Mof_C 	C 	0.8612	0.4728	0.2057	0.086
Mof_C 	C 	0.8648	0.4122	0.1702	-0.068
Mof_H 	H 	0.8451	0.4423	0.1425	0.069
Mof_C 	C 	0.9496	0.2411	0.296	0.317
Mof_C 	C 	0.818	0.6375	0.2335	-0.019
Mof_H 	H 	0.8448	0.6723	0.2581	0.027
Mof_H 	H 	0.8051	0.557	0.2434	0.025
Mof_C 	C 	0.7842	0.7632	0.2168	-0.084
Mof_C 	C 	0.7377	0.7328	0.1951	0.092
Mof_C 	C 	0.708	0.8567	0.1802	0.102
Mof_C 	C 	0.7242	0.0001	0.1859	-0.113
Mof_C 	C 	0.7705	0.0297	0.2052	0.117
Mof_C 	C 	0.8005	0.9117	0.221	0.068
Mof_C 	C 	0.7206	0.5754	0.1889	-0.58
Mof_H 	H 	0.7124	0.5451	0.1595	0.196
Mof_H 	H 	0.6946	0.5695	0.1948	0.19
Mof_H 	H 	0.7438	0.511	0.2083	0.196
Mof_C 	C 	0.6575	0.825	0.1581	-0.588
Mof_H 	H 	0.6451	0.8352	0.1787	0.195
Mof_H 	H 	0.6526	0.7255	0.1468	0.197
Mof_H 	H 	0.643	0.8941	0.1348	0.201
Mof_C 	C 	0.8517	0.944	0.2409	-0.547
Mof_H 	H 	0.868	0.8522	0.2453	0.193
Mof_H 	H 	0.8606	0.9937	0.2682	0.187
Mof_H 	H 	0.8583	0.0063	0.2216	0.187
Mof_C 	C 	0.6911	0.1305	0.1685	-0.001
Mof_H 	H 	0.6628	0.1059	0.1697	0.023
Mof_H 	H 	0.7036	0.2179	0.1863	0.02
Mof_C 	C 	0.6514	0.2554	0.0972	0.104
Mof_C 	C 	0.6436	0.2601	0.0538	-0.102
Mof_H 	H 	0.6617	0.2046	0.0445	0.077
Mof_C 	C 	0.6088	0.3473	0.0241	-0.06
Mof_C 	C 	0.5821	0.4356	0.0371	-0.018
Mof_H 	H 	0.5593	0.4947	0.0173	0.048
Mof_C 	C 	0.5906	0.4326	0.0805	-0.055
Mof_C 	C 	0.6248	0.3461	0.1101	-0.105
Mof_H 	H 	0.6302	0.3481	0.1391	0.065
Mof_C 	C 	0.6012	0.3443	0.9767	0.346
Mof_C 	C 	0.5632	0.53	0.096	0.312
Mof_C 	C 	0.7887	0.186	0.2091	-0.612
Mof_H 	H 	0.7645	0.2524	0.1924	0.209
Mof_H 	H 	0.8113	0.1889	0.1983	0.21
Mof_H 	H 	0.8018	0.2158	0.2389	0.203
Mof_Sm	Sm	0.99619	0.85755	0.61897	1.989
Mof_O 	O 	0.9315	0.9135	0.55094	-0.502
Mof_O 	O 	0.8691	0.7711	0.5305	-0.313
Mof_O 	O 	0.9702	0.0986	0.43161	-0.466
Mof_O 	O 	0.9295	0.029	0.36556	-0.466
Mof_O 	O 	0.5468	0.8176	0.17214	-0.474
Mof_O 	O 	0.5311	0.6171	0.19966	-0.435
Mof_O 	O 	0.5612	0.7047	0.3606	-0.591
Mof_O 	O 	0.6316	0.7704	0.4004	-0.573
Mof_H 	H 	0.6265	0.7364	0.4201	0.339
Mof_N 	N 	0.6694	0.082	0.3	-0.204
Mof_H 	H 	0.6824	0.1218	0.3252	0.122
Mof_N 	N 	0.8167	0.6599	0.3753	-0.211
Mof_H 	H 	0.8001	0.614	0.3851	0.124
Mof_C 	C 	0.5972	0.7519	0.3644	0.515
Mof_C 	C 	0.6027	0.808	0.3245	-0.116
Mof_C 	C 	0.5755	0.7479	0.2846	0.01
Mof_H 	H 	0.555	0.6726	0.2818	0.036
Mof_C 	C 	0.5798	0.8039	0.2489	-0.063
Mof_C 	C 	0.6107	0.9128	0.2529	-0.088
Mof_H 	H 	0.6132	0.9474	0.2284	0.059
Mof_C 	C 	0.6388	0.9728	0.2943	0.087
Mof_C 	C 	0.6352	0.9122	0.3298	-0.069
Mof_H 	H 	0.6549	0.9423	0.3575	0.069
Mof_C 	C 	0.5504	0.7411	0.204	0.316
Mof_C 	C 	0.682	0.1375	0.2665	-0.018
Mof_H 	H 	0.6552	0.1723	0.2419	0.027
Mof_H 	H 	0.6949	0.057	0.2566	0.025
Mof_C 	C 	0.7158	0.2632	0.2832	-0.085
Mof_C 	C 	0.7623	0.2328	0.3049	0.092
Mof_C 	C 	0.792	0.3567	0.3198	0.1
Mof_C 	C 	0.7758	0.5001	0.3141	-0.111
Mof_C 	C 	0.7295	0.5297	0.2948	0.118
Mof_C 	C 	0.6995	0.4117	0.279	0.068
Mof_C 	C 	0.7794	0.0754	0.3111	-0.579
Mof_H 	H 	0.7876	0.0451	0.3405	0.196
Mof_H 	H 	0.8054	0.0695	0.3052	0.189
Mof_H 	H 	0.7562	0.011	0.2917	0.196
Mof_C 	C 	0.8425	0.325	0.3419	-0.586
Mof_H 	H 	0.8549	0.3352	0.3213	0.194
Mof_H 	H 	0.8474	0.2255	0.3532	0.197
Mof_H 	H 	0.857	0.3941	0.3652	0.2
Mof_C 	C 	0.6483	0.444	0.2591	-0.554
Mof_H 	H 	0.632	0.3522	0.2547	0.195
Mof_H 	H 	0.6394	0.4937	0.2318	0.188
Mof_H 	H 	0.6417	0.5063	0.2784	0.19
Mof_C 	C 	0.8089	0.6305	0.3315	-0.001
Mof_H 	H 	0.8372	0.6059	0.3303	0.024
Mof_H 	H 	0.7964	0.7179	0.3137	0.02
Mof_C 	C 	0.8486	0.7554	0.4028	0.105
Mof_C 	C 	0.8564	0.7601	0.4462	-0.102
Mof_H 	H 	0.8383	0.7046	0.4555	0.078
Mof_C 	C 	0.8912	0.8473	0.4759	-0.059
Mof_C 	C 	0.9179	0.9356	0.4629	-0.019
Mof_H 	H 	0.9407	0.9947	0.4827	0.049
Mof_C 	C 	0.9094	0.9326	0.4195	-0.054
Mof_C 	C 	0.8752	0.8461	0.3899	-0.105
Mof_H 	H 	0.8698	0.8481	0.3609	0.066
Mof_C 	C 	0.8988	0.8443	0.5233	0.346
Mof_C 	C 	0.9368	0.03	0.404	0.311
Mof_C 	C 	0.7113	0.686	0.2909	-0.613
Mof_H 	H 	0.7355	0.7524	0.3076	0.209
Mof_H 	H 	0.6887	0.6889	0.3017	0.21
Mof_H 	H 	0.6982	0.7158	0.2611	0.203
Mof_Sm	Sm	0.49619	0.35755	0.61897	1.987
Mof_O 	O 	0.4315	0.4135	0.55094	-0.502
Mof_O 	O 	0.3691	0.2711	0.5305	-0.313
Mof_O 	O 	0.4702	0.5986	0.43161	-0.467
Mof_O 	O 	0.4295	0.529	0.36556	-0.466
Mof_O 	O 	0.0468	0.3176	0.17214	-0.473
Mof_O 	O 	0.0311	0.1171	0.19966	-0.435
Mof_O 	O 	0.0612	0.2047	0.3606	-0.591
Mof_O 	O 	0.1316	0.2704	0.4004	-0.573
Mof_H 	H 	0.1265	0.2364	0.4201	0.339
Mof_N 	N 	0.1694	0.582	0.3	-0.204
Mof_H 	H 	0.1824	0.6218	0.3252	0.122
Mof_N 	N 	0.3167	0.1599	0.3753	-0.211
Mof_H 	H 	0.3001	0.114	0.3851	0.124
Mof_C 	C 	0.0972	0.2519	0.3644	0.515
Mof_C 	C 	0.1027	0.308	0.3245	-0.116
Mof_C 	C 	0.0755	0.2479	0.2846	0.01
Mof_H 	H 	0.055	0.1726	0.2818	0.036
Mof_C 	C 	0.0798	0.3039	0.2489	-0.063
Mof_C 	C 	0.1107	0.4128	0.2529	-0.087
Mof_H 	H 	0.1132	0.4474	0.2284	0.059
Mof_C 	C 	0.1388	0.4728	0.2943	0.086
Mof_C 	C 	0.1352	0.4122	0.3298	-0.069
Mof_H 	H 	0.1549	0.4423	0.3575	0.069
Mof_C 	C 	0.0504	0.2411	0.204	0.316
Mof_C 	C 	0.182	0.6375	0.2665	-0.019
Mof_H 	H 	0.1552	0.6723	0.2419	0.027
Mof_H 	H 	0.1949	0.557	0.2566	0.025
Mof_C 	C 	0.2158	0.7632	0.2832	-0.084
Mof_C 	C 	0.2623	0.7328	0.3049	0.092
Mof_C 	C 	0.292	0.8567	0.3198	0.102
Mof_C 	C 	0.2758	0.0001	0.3141	-0.113
Mof_C 	C 	0.2295	0.0297	0.2948	0.117
Mof_C 	C 	0.1995	0.9117	0.279	0.068
Mof_C 	C 	0.2794	0.5754	0.3111	-0.58
Mof_H 	H 	0.2876	0.5451	0.3405	0.196
Mof_H 	H 	0.3054	0.5695	0.3052	0.19
Mof_H 	H 	0.2562	0.511	0.2917	0.196
Mof_C 	C 	0.3425	0.825	0.3419	-0.588
Mof_H 	H 	0.3549	0.8352	0.3213	0.195
Mof_H 	H 	0.3474	0.7255	0.3532	0.197
Mof_H 	H 	0.357	0.8941	0.3652	0.201
Mof_C 	C 	0.1483	0.944	0.2591	-0.548
Mof_H 	H 	0.132	0.8522	0.2547	0.193
Mof_H 	H 	0.1394	0.9937	0.2318	0.187
Mof_H 	H 	0.1417	0.0063	0.2784	0.187
Mof_C 	C 	0.3089	0.1305	0.3315	-0.001
Mof_H 	H 	0.3372	0.1059	0.3303	0.023
Mof_H 	H 	0.2964	0.2179	0.3137	0.02
Mof_C 	C 	0.3486	0.2554	0.4028	0.104
Mof_C 	C 	0.3564	0.2601	0.4462	-0.102
Mof_H 	H 	0.3383	0.2046	0.4555	0.077
Mof_C 	C 	0.3912	0.3473	0.4759	-0.06
Mof_C 	C 	0.4179	0.4356	0.4629	-0.019
Mof_H 	H 	0.4407	0.4947	0.4827	0.048
Mof_C 	C 	0.4094	0.4326	0.4195	-0.055
Mof_C 	C 	0.3752	0.3461	0.3899	-0.105
Mof_H 	H 	0.3698	0.3481	0.3609	0.065
Mof_C 	C 	0.3988	0.3443	0.5233	0.346
Mof_C 	C 	0.4368	0.53	0.404	0.312
Mof_C 	C 	0.2113	0.186	0.2909	-0.612
Mof_H 	H 	0.2355	0.2524	0.3076	0.209
Mof_H 	H 	0.1887	0.1889	0.3017	0.21
Mof_H 	H 	0.1982	0.2158	0.2611	0.203
Mof_Sm	Sm	0.99619	0.14245	0.11897	1.987
Mof_O 	O 	0.9315	0.0865	0.05094	-0.502
Mof_O 	O 	0.8691	0.2289	0.0305	-0.313
Mof_O 	O 	0.9702	0.9014	0.93161	-0.466
Mof_O 	O 	0.9295	0.971	0.86556	-0.466
Mof_O 	O 	0.5468	0.1824	0.67214	-0.474
Mof_O 	O 	0.5311	0.3829	0.69966	-0.435
Mof_O 	O 	0.5612	0.2953	0.8606	-0.591
Mof_O 	O 	0.6316	0.2296	0.9004	-0.573
Mof_H 	H 	0.6265	0.2636	0.9201	0.339
Mof_N 	N 	0.6694	0.918	0.8	-0.204
Mof_H 	H 	0.6824	0.8782	0.8252	0.122
Mof_N 	N 	0.8167	0.3401	0.8753	-0.211
Mof_H 	H 	0.8001	0.386	0.8851	0.124
Mof_C 	C 	0.5972	0.2481	0.8644	0.515
Mof_C 	C 	0.6027	0.192	0.8245	-0.116
Mof_C 	C 	0.5755	0.2521	0.7846	0.01
Mof_H 	H 	0.555	0.3274	0.7818	0.036
Mof_C 	C 	0.5798	0.1961	0.7489	-0.063
Mof_C 	C 	0.6107	0.0872	0.7529	-0.088
Mof_H 	H 	0.6132	0.0526	0.7284	0.059
Mof_C 	C 	0.6388	0.0272	0.7943	0.087
Mof_C 	C 	0.6352	0.0878	0.8298	-0.069
Mof_H 	H 	0.6549	0.0577	0.8575	0.069
Mof_C 	C 	0.5504	0.2589	0.704	0.316
Mof_C 	C 	0.682	0.8625	0.7665	-0.018
Mof_H 	H 	0.6552	0.8277	0.7419	0.027
Mof_H 	H 	0.6949	0.943	0.7566	0.025
Mof_C 	C 	0.7158	0.7368	0.7832	-0.085
Mof_C 	C 	0.7623	0.7672	0.8049	0.092
Mof_C 	C 	0.792	0.6433	0.8198	0.1
Mof_C 	C 	0.7758	0.4999	0.8141	-0.111
Mof_C 	C 	0.7295	0.4703	0.7948	0.118
Mof_C 	C 	0.6995	0.5883	0.779	0.068
Mof_C 	C 	0.7794	0.9246	0.8111	-0.579
Mof_H 	H 	0.7876	0.9549	0.8405	0.196
Mof_H 	H 	0.8054	0.9305	0.8052	0.189
Mof_H 	H 	0.7562	0.989	0.7917	0.196
Mof_C 	C 	0.8425	0.675	0.8419	-0.586
Mof_H 	H 	0.8549	0.6648	0.8213	0.194
Mof_H 	H 	0.8474	0.7745	0.8532	0.197
Mof_H 	H 	0.857	0.6059	0.8652	0.2
Mof_C 	C 	0.6483	0.556	0.7591	-0.554
Mof_H 	H 	0.632	0.6478	0.7547	0.195
Mof_H 	H 	0.6394	0.5063	0.7318	0.188
Mof_H 	H 	0.6417	0.4937	0.7784	0.19
Mof_C 	C 	0.8089	0.3695	0.8315	-0.001
Mof_H 	H 	0.8372	0.3941	0.8303	0.024
Mof_H 	H 	0.7964	0.2821	0.8137	0.02
Mof_C 	C 	0.8486	0.2446	0.9028	0.105
Mof_C 	C 	0.8564	0.2399	0.9462	-0.103
Mof_H 	H 	0.8383	0.2954	0.9555	0.078
Mof_C 	C 	0.8912	0.1527	0.9759	-0.058
Mof_C 	C 	0.9179	0.0644	0.9629	-0.02
Mof_H 	H 	0.9407	0.0053	0.9827	0.049
Mof_C 	C 	0.9094	0.0674	0.9195	-0.053
Mof_C 	C 	0.8752	0.1539	0.8899	-0.106
Mof_H 	H 	0.8698	0.1519	0.8609	0.066
Mof_C 	C 	0.8988	0.1557	0.0233	0.345
Mof_C 	C 	0.9368	0.97	0.904	0.311
Mof_C 	C 	0.7113	0.314	0.7909	-0.613
Mof_H 	H 	0.7355	0.2476	0.8076	0.209
Mof_H 	H 	0.6887	0.3111	0.8017	0.21
Mof_H 	H 	0.6982	0.2842	0.7611	0.203
Mof_Sm	Sm	0.49619	0.64245	0.11897	1.987
Mof_O 	O 	0.4315	0.5865	0.05094	-0.502
Mof_O 	O 	0.3691	0.7289	0.0305	-0.313
Mof_O 	O 	0.4702	0.4014	0.93161	-0.467
Mof_O 	O 	0.4295	0.471	0.86556	-0.466
Mof_O 	O 	0.0468	0.6824	0.67214	-0.474
Mof_O 	O 	0.0311	0.8829	0.69966	-0.435
Mof_O 	O 	0.0612	0.7953	0.8606	-0.591
Mof_O 	O 	0.1316	0.7296	0.9004	-0.574
Mof_H 	H 	0.1265	0.7636	0.9201	0.339
Mof_N 	N 	0.1694	0.418	0.8	-0.204
Mof_H 	H 	0.1824	0.3782	0.8252	0.122
Mof_N 	N 	0.3167	0.8401	0.8753	-0.211
Mof_H 	H 	0.3001	0.886	0.8851	0.124
Mof_C 	C 	0.0972	0.7481	0.8644	0.515
Mof_C 	C 	0.1027	0.692	0.8245	-0.116
Mof_C 	C 	0.0755	0.7521	0.7846	0.01
Mof_H 	H 	0.055	0.8274	0.7818	0.036
Mof_C 	C 	0.0798	0.6961	0.7489	-0.063
Mof_C 	C 	0.1107	0.5872	0.7529	-0.087
Mof_H 	H 	0.1132	0.5526	0.7284	0.059
Mof_C 	C 	0.1388	0.5272	0.7943	0.086
Mof_C 	C 	0.1352	0.5878	0.8298	-0.068
Mof_H 	H 	0.1549	0.5577	0.8575	0.069
Mof_C 	C 	0.0504	0.7589	0.704	0.317
Mof_C 	C 	0.182	0.3625	0.7665	-0.019
Mof_H 	H 	0.1552	0.3277	0.7419	0.027
Mof_H 	H 	0.1949	0.443	0.7566	0.025
Mof_C 	C 	0.2158	0.2368	0.7832	-0.084
Mof_C 	C 	0.2623	0.2672	0.8049	0.092
Mof_C 	C 	0.292	0.1433	0.8198	0.102
Mof_C 	C 	0.2758	0.9999	0.8141	-0.113
Mof_C 	C 	0.2295	0.9703	0.7948	0.117
Mof_C 	C 	0.1995	0.0883	0.779	0.068
Mof_C 	C 	0.2794	0.4246	0.8111	-0.58
Mof_H 	H 	0.2876	0.4549	0.8405	0.196
Mof_H 	H 	0.3054	0.4305	0.8052	0.19
Mof_H 	H 	0.2562	0.489	0.7917	0.196
Mof_C 	C 	0.3425	0.175	0.8419	-0.588
Mof_H 	H 	0.3549	0.1648	0.8213	0.195
Mof_H 	H 	0.3474	0.2745	0.8532	0.197
Mof_H 	H 	0.357	0.1059	0.8652	0.201
Mof_C 	C 	0.1483	0.056	0.7591	-0.547
Mof_H 	H 	0.132	0.1478	0.7547	0.193
Mof_H 	H 	0.1394	0.0063	0.7318	0.187
Mof_H 	H 	0.1417	0.9937	0.7784	0.187
Mof_C 	C 	0.3089	0.8695	0.8315	-0.001
Mof_H 	H 	0.3372	0.8941	0.8303	0.023
Mof_H 	H 	0.2964	0.7821	0.8137	0.02
Mof_C 	C 	0.3486	0.7446	0.9028	0.104
Mof_C 	C 	0.3564	0.7399	0.9462	-0.102
Mof_H 	H 	0.3383	0.7954	0.9555	0.077
Mof_C 	C 	0.3912	0.6527	0.9759	-0.06
Mof_C 	C 	0.4179	0.5644	0.9629	-0.018
Mof_H 	H 	0.4407	0.5053	0.9827	0.048
Mof_C 	C 	0.4094	0.5674	0.9195	-0.055
Mof_C 	C 	0.3752	0.6539	0.8899	-0.105
Mof_H 	H 	0.3698	0.6519	0.8609	0.065
Mof_C 	C 	0.3988	0.6557	0.0233	0.346
Mof_C 	C 	0.4368	0.47	0.904	0.312
Mof_C 	C 	0.2113	0.814	0.7909	-0.612
Mof_H 	H 	0.2355	0.7476	0.8076	0.209
Mof_H 	H 	0.1887	0.8111	0.8017	0.21
Mof_H 	H 	0.1982	0.7842	0.7611	0.203
Mof_Sm	Sm	0.00381	0.14245	0.38103	1.989
Mof_O 	O 	0.0685	0.0865	0.44906	-0.502
Mof_O 	O 	0.1309	0.2289	0.4695	-0.313
Mof_O 	O 	0.0298	0.9014	0.56839	-0.466
Mof_O 	O 	0.0705	0.971	0.63444	-0.466
Mof_O 	O 	0.4532	0.1824	0.82786	-0.474
Mof_O 	O 	0.4689	0.3829	0.80034	-0.435
Mof_O 	O 	0.4388	0.2953	0.6394	-0.591
Mof_O 	O 	0.3684	0.2296	0.5996	-0.573
Mof_H 	H 	0.3735	0.2636	0.5799	0.339
Mof_N 	N 	0.3306	0.918	0.7	-0.204
Mof_H 	H 	0.3176	0.8782	0.6748	0.122
Mof_N 	N 	0.1833	0.3401	0.6247	-0.211
Mof_H 	H 	0.1999	0.386	0.6149	0.124
Mof_C 	C 	0.4028	0.2481	0.6356	0.515
Mof_C 	C 	0.3973	0.192	0.6755	-0.116
Mof_C 	C 	0.4245	0.2521	0.7154	0.01
Mof_H 	H 	0.445	0.3274	0.7182	0.036
Mof_C 	C 	0.4202	0.1961	0.7511	-0.063
Mof_C 	C 	0.3893	0.0872	0.7471	-0.088
Mof_H 	H 	0.3868	0.0526	0.7716	0.059
Mof_C 	C 	0.3612	0.0272	0.7057	0.087
Mof_C 	C 	0.3648	0.0878	0.6702	-0.069
Mof_H 	H 	0.3451	0.0577	0.6425	0.069
Mof_C 	C 	0.4496	0.2589	0.796	0.316
Mof_C 	C 	0.318	0.8625	0.7335	-0.018
Mof_H 	H 	0.3448	0.8277	0.7581	0.027
Mof_H 	H 	0.3051	0.943	0.7434	0.025
Mof_C 	C 	0.2842	0.7368	0.7168	-0.085
Mof_C 	C 	0.2377	0.7672	0.6951	0.092
Mof_C 	C 	0.208	0.6433	0.6802	0.1
Mof_C 	C 	0.2242	0.4999	0.6859	-0.111
Mof_C 	C 	0.2705	0.4703	0.7052	0.118
Mof_C 	C 	0.3005	0.5883	0.721	0.068
Mof_C 	C 	0.2206	0.9246	0.6889	-0.579
Mof_H 	H 	0.2124	0.9549	0.6595	0.196
Mof_H 	H 	0.1946	0.9305	0.6948	0.189
Mof_H 	H 	0.2438	0.989	0.7083	0.196
Mof_C 	C 	0.1575	0.675	0.6581	-0.586
Mof_H 	H 	0.1451	0.6648	0.6787	0.194
Mof_H 	H 	0.1526	0.7745	0.6468	0.197
Mof_H 	H 	0.143	0.6059	0.6348	0.2
Mof_C 	C 	0.3517	0.556	0.7409	-0.554
Mof_H 	H 	0.368	0.6478	0.7453	0.195
Mof_H 	H 	0.3606	0.5063	0.7682	0.188
Mof_H 	H 	0.3583	0.4937	0.7216	0.19
Mof_C 	C 	0.1911	0.3695	0.6685	-0.001
Mof_H 	H 	0.1628	0.3941	0.6697	0.024
Mof_H 	H 	0.2036	0.2821	0.6863	0.02
Mof_C 	C 	0.1514	0.2446	0.5972	0.105
Mof_C 	C 	0.1436	0.2399	0.5538	-0.102
Mof_H 	H 	0.1617	0.2954	0.5445	0.078
Mof_C 	C 	0.1088	0.1527	0.5241	-0.059
Mof_C 	C 	0.0821	0.0644	0.5371	-0.019
Mof_H 	H 	0.0593	0.0053	0.5173	0.049
Mof_C 	C 	0.0906	0.0674	0.5805	-0.054
Mof_C 	C 	0.1248	0.1539	0.6101	-0.105
Mof_H 	H 	0.1302	0.1519	0.6391	0.066
Mof_C 	C 	0.1012	0.1557	0.4767	0.346
Mof_C 	C 	0.0632	0.97	0.596	0.311
Mof_C 	C 	0.2887	0.314	0.7091	-0.613
Mof_H 	H 	0.2645	0.2476	0.6924	0.209
Mof_H 	H 	0.3113	0.3111	0.6983	0.21
Mof_H 	H 	0.3018	0.2842	0.7389	0.203
Mof_Sm	Sm	0.50381	0.64245	0.38103	1.987
Mof_O 	O 	0.5685	0.5865	0.44906	-0.502
Mof_O 	O 	0.6309	0.7289	0.4695	-0.313
Mof_O 	O 	0.5298	0.4014	0.56839	-0.467
Mof_O 	O 	0.5705	0.471	0.63444	-0.466
Mof_O 	O 	0.9532	0.6824	0.82786	-0.473
Mof_O 	O 	0.9689	0.8829	0.80034	-0.435
Mof_O 	O 	0.9388	0.7953	0.6394	-0.591
Mof_O 	O 	0.8684	0.7296	0.5996	-0.573
Mof_H 	H 	0.8735	0.7636	0.5799	0.339
Mof_N 	N 	0.8306	0.418	0.7	-0.204
Mof_H 	H 	0.8176	0.3782	0.6748	0.122
Mof_N 	N 	0.6833	0.8401	0.6247	-0.211
Mof_H 	H 	0.6999	0.886	0.6149	0.124
Mof_C 	C 	0.9028	0.7481	0.6356	0.515
Mof_C 	C 	0.8973	0.692	0.6755	-0.116
Mof_C 	C 	0.9245	0.7521	0.7154	0.01
Mof_H 	H 	0.945	0.8274	0.7182	0.036
Mof_C 	C 	0.9202	0.6961	0.7511	-0.063
Mof_C 	C 	0.8893	0.5872	0.7471	-0.087
Mof_H 	H 	0.8868	0.5526	0.7716	0.059
Mof_C 	C 	0.8612	0.5272	0.7057	0.086
Mof_C 	C 	0.8648	0.5878	0.6702	-0.069
Mof_H 	H 	0.8451	0.5577	0.6425	0.069
Mof_C 	C 	0.9496	0.7589	0.796	0.316
Mof_C 	C 	0.818	0.3625	0.7335	-0.019
Mof_H 	H 	0.8448	0.3277	0.7581	0.027
Mof_H 	H 	0.8051	0.443	0.7434	0.025
Mof_C 	C 	0.7842	0.2368	0.7168	-0.084
Mof_C 	C 	0.7377	0.2672	0.6951	0.092
Mof_C 	C 	0.708	0.1433	0.6802	0.102
Mof_C 	C 	0.7242	0.9999	0.6859	-0.113
Mof_C 	C 	0.7705	0.9703	0.7052	0.117
Mof_C 	C 	0.8005	0.0883	0.721	0.068
Mof_C 	C 	0.7206	0.4246	0.6889	-0.58
Mof_H 	H 	0.7124	0.4549	0.6595	0.196
Mof_H 	H 	0.6946	0.4305	0.6948	0.19
Mof_H 	H 	0.7438	0.489	0.7083	0.196
Mof_C 	C 	0.6575	0.175	0.6581	-0.588
Mof_H 	H 	0.6451	0.1648	0.6787	0.195
Mof_H 	H 	0.6526	0.2745	0.6468	0.197
Mof_H 	H 	0.643	0.1059	0.6348	0.201
Mof_C 	C 	0.8517	0.056	0.7409	-0.548
Mof_H 	H 	0.868	0.1478	0.7453	0.193
Mof_H 	H 	0.8606	0.0063	0.7682	0.187
Mof_H 	H 	0.8583	0.9937	0.7216	0.187
Mof_C 	C 	0.6911	0.8695	0.6685	-0.001
Mof_H 	H 	0.6628	0.8941	0.6697	0.023
Mof_H 	H 	0.7036	0.7821	0.6863	0.02
Mof_C 	C 	0.6514	0.7446	0.5972	0.104
Mof_C 	C 	0.6436	0.7399	0.5538	-0.102
Mof_H 	H 	0.6617	0.7954	0.5445	0.077
Mof_C 	C 	0.6088	0.6527	0.5241	-0.06
Mof_C 	C 	0.5821	0.5644	0.5371	-0.019
Mof_H 	H 	0.5593	0.5053	0.5173	0.048
Mof_C 	C 	0.5906	0.5674	0.5805	-0.055
Mof_C 	C 	0.6248	0.6539	0.6101	-0.105
Mof_H 	H 	0.6302	0.6519	0.6391	0.065
Mof_C 	C 	0.6012	0.6557	0.4767	0.346
Mof_C 	C 	0.5632	0.47	0.596	0.312
Mof_C 	C 	0.7887	0.814	0.7091	-0.612
Mof_H 	H 	0.7645	0.7476	0.6924	0.209
Mof_H 	H 	0.8113	0.8111	0.6983	0.21
Mof_H 	H 	0.8018	0.7842	0.7389	0.203
_end
