data_functionalizedCrystal
_audit_creation_method	'EQeq! by Chris Wilmer'
_symmetry_space_group_name_H-M	'P1'
_symmetry_Int_Tables_number	1
_symmetry_cell_setting	triclinic
loop_
_symmetry_equiv_pos_as_xyz
  x,y,z
_cell_length_a	9.663
_cell_length_b	9.663
_cell_length_c	20.224
_cell_angle_alpha	90
_cell_angle_beta	90
_cell_angle_gamma	120
loop_
_atom_site_label
_atom_site_type_symbol
_atom_site_fract_x
_atom_site_fract_y
_atom_site_fract_z
_atom_site_charge
Mof_Zn	Zn	0.93547	0.50641	0.41623	1.178
Mof_N 	N 	0.348	0.8303	0.51356	-0.281
Mof_N 	N 	0.4084	0.8123	0.4532	-0.153
Mof_N 	N 	0.1419	0.6831	0.449	-0.321
Mof_N 	N 	0.0867	0.7459	0.5567	-0.282
Mof_H 	H 	0.9877	0.6519	0.5624	0.094
Mof_H 	H 	0.1191	0.789	0.5979	0.103
Mof_N 	N 	0.2165	0.42	0.289	-0.326
Mof_N 	N 	0.0301	0.4263	0.3505	-0.272
Mof_N 	N 	0.9606	0.2742	0.3225	-0.14
Mof_N 	N 	0.0595	0.1502	0.2506	-0.256
Mof_H 	H 	0.9551	0.0766	0.2341	0.092
Mof_H 	H 	0.1167	0.1649	0.2126	0.083
Mof_C 	C 	0.19	0.7516	0.509	0.168
Mof_C 	C 	0.2824	0.7247	0.4175	0.166
Mof_C 	C 	0.2933	0.6793	0.3468	-0.362
Mof_H 	H 	0.2736	0.7484	0.3167	0.104
Mof_H 	H 	0.4035	0.7012	0.3386	0.091
Mof_C 	C 	0.1799	0.5098	0.3301	0.148
Mof_C 	C 	0.0767	0.279	0.2864	0.168
Mof_Zn	Zn	0.49359	0.42906	0.74956	1.179
Mof_N 	N 	0.1697	0.5177	0.84689	-0.282
Mof_N 	N 	0.1877	0.5961	0.78653	-0.154
Mof_N 	N 	0.3169	0.4588	0.78233	-0.321
Mof_N 	N 	0.2541	0.3408	0.89003	-0.282
Mof_H 	H 	0.3481	0.3358	0.89573	0.094
Mof_H 	H 	0.211	0.3301	0.93123	0.103
Mof_N 	N 	0.58	0.7965	0.62233	-0.326
Mof_N 	N 	0.5737	0.6038	0.68383	-0.274
Mof_N 	N 	0.7258	0.6864	0.65583	-0.138
Mof_N 	N 	0.8498	0.9093	0.58393	-0.257
Mof_H 	H 	0.9234	0.8785	0.56743	0.094
Mof_H 	H 	0.8351	0.9518	0.54593	0.083
Mof_C 	C 	0.2484	0.4384	0.84233	0.167
Mof_C 	C 	0.2753	0.5577	0.75083	0.166
Mof_C 	C 	0.3207	0.614	0.68013	-0.361
Mof_H 	H 	0.2516	0.5252	0.65003	0.103
Mof_H 	H 	0.2988	0.7023	0.67193	0.09
Mof_C 	C 	0.4902	0.6701	0.66343	0.147
Mof_C 	C 	0.721	0.7977	0.61973	0.166
Mof_Zn	Zn	0.57094	0.06453	0.0829	1.178
Mof_N 	N 	0.4823	0.652	0.18023	-0.281
Mof_N 	N 	0.4039	0.5916	0.11987	-0.153
Mof_N 	N 	0.5412	0.8581	0.11567	-0.319
Mof_N 	N 	0.6592	0.9133	0.22337	-0.28
Mof_H 	H 	0.6642	0.0123	0.22907	0.092
Mof_H 	H 	0.6699	0.8809	0.26457	0.104
Mof_N 	N 	0.2035	0.7835	0.95567	-0.325
Mof_N 	N 	0.3962	0.9699	0.01717	-0.269
Mof_N 	N 	0.3136	0.0394	0.98917	-0.137
Mof_N 	N 	0.0907	0.9405	0.91727	-0.259
Mof_H 	H 	0.1215	0.0449	0.90077	0.096
Mof_H 	H 	0.0482	0.8833	0.87927	0.082
Mof_C 	C 	0.5616	0.81	0.17567	0.168
Mof_C 	C 	0.4423	0.7176	0.08417	0.164
Mof_C 	C 	0.386	0.7067	0.01347	-0.351
Mof_H 	H 	0.4748	0.7264	0.98337	0.099
Mof_H 	H 	0.2977	0.5965	0.00527	0.088
Mof_C 	C 	0.3299	0.8201	0.99677	0.14
Mof_C 	C 	0.2023	0.9233	0.95307	0.164
Mof_Zn	Zn	0.50641	0.93547	0.58377	1.178
Mof_N 	N 	0.8303	0.348	0.48644	-0.281
Mof_N 	N 	0.8123	0.4084	0.5468	-0.153
Mof_N 	N 	0.6831	0.1419	0.551	-0.321
Mof_N 	N 	0.7459	0.0867	0.4433	-0.282
Mof_H 	H 	0.6519	0.9877	0.4376	0.094
Mof_H 	H 	0.789	0.1191	0.4021	0.103
Mof_N 	N 	0.42	0.2165	0.711	-0.326
Mof_N 	N 	0.4263	0.0301	0.6495	-0.272
Mof_N 	N 	0.2742	0.9606	0.6775	-0.14
Mof_N 	N 	0.1502	0.0595	0.7494	-0.256
Mof_H 	H 	0.0766	0.9551	0.7659	0.092
Mof_H 	H 	0.1649	0.1167	0.7874	0.083
Mof_C 	C 	0.7516	0.19	0.491	0.168
Mof_C 	C 	0.7247	0.2824	0.5825	0.166
Mof_C 	C 	0.6793	0.2933	0.6532	-0.362
Mof_H 	H 	0.7484	0.2736	0.6833	0.104
Mof_H 	H 	0.7012	0.4035	0.6614	0.091
Mof_C 	C 	0.5098	0.1799	0.6699	0.148
Mof_C 	C 	0.279	0.0767	0.7136	0.168
Mof_Zn	Zn	0.42906	0.49359	0.25044	1.179
Mof_N 	N 	0.5177	0.1697	0.15311	-0.282
Mof_N 	N 	0.5961	0.1877	0.21347	-0.154
Mof_N 	N 	0.4588	0.3169	0.21767	-0.321
Mof_N 	N 	0.3408	0.2541	0.10997	-0.282
Mof_H 	H 	0.3358	0.3481	0.10427	0.094
Mof_H 	H 	0.3301	0.211	0.06877	0.103
Mof_N 	N 	0.7965	0.58	0.37767	-0.326
Mof_N 	N 	0.6038	0.5737	0.31617	-0.274
Mof_N 	N 	0.6864	0.7258	0.34417	-0.138
Mof_N 	N 	0.9093	0.8498	0.41607	-0.257
Mof_H 	H 	0.8785	0.9234	0.43257	0.094
Mof_H 	H 	0.9518	0.8351	0.45407	0.083
Mof_C 	C 	0.4384	0.2484	0.15767	0.167
Mof_C 	C 	0.5577	0.2753	0.24917	0.166
Mof_C 	C 	0.614	0.3207	0.31987	-0.361
Mof_H 	H 	0.5252	0.2516	0.34997	0.103
Mof_H 	H 	0.7023	0.2988	0.32807	0.09
Mof_C 	C 	0.6701	0.4902	0.33657	0.147
Mof_C 	C 	0.7977	0.721	0.38027	0.166
Mof_Zn	Zn	0.06453	0.57094	0.9171	1.178
Mof_N 	N 	0.652	0.4823	0.81977	-0.281
Mof_N 	N 	0.5916	0.4039	0.88013	-0.153
Mof_N 	N 	0.8581	0.5412	0.88433	-0.319
Mof_N 	N 	0.9133	0.6592	0.77663	-0.28
Mof_H 	H 	0.0123	0.6642	0.77093	0.092
Mof_H 	H 	0.8809	0.6699	0.73543	0.104
Mof_N 	N 	0.7835	0.2035	0.04433	-0.325
Mof_N 	N 	0.9699	0.3962	0.98283	-0.269
Mof_N 	N 	0.0394	0.3136	0.01083	-0.137
Mof_N 	N 	0.9405	0.0907	0.08273	-0.259
Mof_H 	H 	0.0449	0.1215	0.09923	0.096
Mof_H 	H 	0.8833	0.0482	0.12073	0.082
Mof_C 	C 	0.81	0.5616	0.82433	0.168
Mof_C 	C 	0.7176	0.4423	0.91583	0.164
Mof_C 	C 	0.7067	0.386	0.98653	-0.351
Mof_H 	H 	0.7264	0.4748	0.01663	0.099
Mof_H 	H 	0.5965	0.2977	0.99473	0.088
Mof_C 	C 	0.8201	0.3299	0.00323	0.14
Mof_C 	C 	0.9233	0.2023	0.04693	0.164
_end
