# CIF file generated by openbabel 3.1.0, see https://openbabel.org
data_I
_chemical_name_common 'FAZZEM_clean'
_cell_length_a 11.552
_cell_length_b 12.742
_cell_length_c 14.589
_cell_angle_alpha 94.22
_cell_angle_beta 109.01
_cell_angle_gamma 115.57
_space_group_name_H-M_alt 'P 1'
_space_group_name_Hall 'P 1'
loop_
    _symmetry_equiv_pos_as_xyz
    x,y,z
loop_
    _atom_site_label
    _atom_site_type_symbol
    _atom_site_fract_x
    _atom_site_fract_y
    _atom_site_fract_z
    _atom_site_occupancy
    La1      La       0.11849    0.54830    0.16889    1.000
    La2      La       0.26551    0.47562    0.55631    1.000
    La3      La       0.88151    0.45170    0.83111    1.000
    La4      La       0.73449    0.52438    0.44369    1.000
    Mo1      Mo       0.12723    0.07303    0.27191    1.000
    Mo2      Mo       0.12198    0.87432    0.11559    1.000
    Mo3      Mo       0.15075    0.24070    0.11396    1.000
    Mo4      Mo       0.14630    0.04356    0.96191    1.000
    Mo5      Mo       0.87277    0.92697    0.72809    1.000
    Mo6      Mo       0.87802    0.12568    0.88441    1.000
    Mo7      Mo       0.84925    0.75930    0.88604    1.000
    Mo8      Mo       0.85370    0.95644    0.03809    1.000
    H1       H        0.38650    0.66010    0.44320    1.000
    H2       H        0.41740    0.58820    0.47010    1.000
    H3       H        0.09410    0.62380    0.46230    1.000
    H4       H        0.12340    0.58480    0.56230    1.000
    H5       H        0.78650    0.16730    0.29430    1.000
    H6       H        0.58190    0.07170    0.14850    1.000
    H7       H        0.57680    0.15000    0.00930    1.000
    H8       H        0.45230    0.61270    0.09740    1.000
    H9       H        0.61470    0.65600    0.02470    1.000
    H10      H        0.81120    0.63430    0.10130    1.000
    H11      H        0.61350    0.33990    0.55680    1.000
    H12      H        0.58260    0.41180    0.52990    1.000
    H13      H        0.90590    0.37620    0.53770    1.000
    H14      H        0.87660    0.41520    0.43770    1.000
    H15      H        0.21350    0.83270    0.70570    1.000
    H16      H        0.41810    0.92830    0.85150    1.000
    H17      H        0.42320    0.85000    0.99070    1.000
    H18      H        0.54770    0.38730    0.90260    1.000
    H19      H        0.38530    0.34400    0.97530    1.000
    H20      H        0.18880    0.36570    0.89870    1.000
    C1       C        0.89230    0.30130    0.23960    1.000
    C2       C        0.78060    0.19790    0.23800    1.000
    C3       C        0.65940    0.14040    0.15110    1.000
    C4       C        0.65620    0.18710    0.06880    1.000
    C5       C        0.77280    0.29000    0.07580    1.000
    C6       C        0.02610    0.37290    0.33130    1.000
    C7       C        0.78120    0.34760    0.99110    1.000
    C8       C        0.56120    0.57690    0.21870    1.000
    C9       C        0.53370    0.60810    0.12830    1.000
    C10      C        0.62970    0.63260    0.08450    1.000
    C11      C        0.74730    0.62170    0.13050    1.000
    C12      C        0.76770    0.59120    0.22210    1.000
    C13      C        0.46610    0.55160    0.27510    1.000
    C14      C        0.89790    0.58510    0.28120    1.000
    C15      C        0.10770    0.69870    0.76040    1.000
    C16      C        0.21940    0.80210    0.76200    1.000
    C17      C        0.34060    0.85960    0.84890    1.000
    C18      C        0.34380    0.81290    0.93120    1.000
    C19      C        0.22720    0.71000    0.92420    1.000
    C20      C        0.97390    0.62710    0.66870    1.000
    C21      C        0.21880    0.65240    0.00890    1.000
    C22      C        0.43880    0.42310    0.78130    1.000
    C23      C        0.46630    0.39190    0.87170    1.000
    C24      C        0.37030    0.36740    0.91550    1.000
    C25      C        0.25270    0.37830    0.86950    1.000
    C26      C        0.23230    0.40880    0.77790    1.000
    C27      C        0.53390    0.44840    0.72490    1.000
    C28      C        0.10210    0.41490    0.71880    1.000
    N1       N        0.88950    0.34670    0.16000    1.000
    N2       N        0.67780    0.56940    0.26500    1.000
    N3       N        0.11050    0.65330    0.84000    1.000
    N4       N        0.32220    0.43060    0.73500    1.000
    O1       O        0.12540    0.45840    0.32250    1.000
    O2       O        0.03060    0.34490    0.41270    1.000
    O3       O        0.88370    0.45230    0.01207    1.000
    O4       O        0.30820    0.70700    0.09590    1.000
    O5       O        0.90870    0.56190    0.36520    1.000
    O6       O        0.98730    0.60570    0.24560    1.000
    O7       O        0.50630    0.52360    0.35610    1.000
    O8       O        0.35830    0.56010    0.23900    1.000
    O9       O        0.11860    0.36010    0.10300    1.000
    O10      O        0.10420    0.04730    0.09722    1.000
    O11      O        0.08470    0.91040    0.22757    1.000
    O12      O        0.11140    0.20690    0.22740    1.000
    O13      O        0.89450    0.98350    0.16640    1.000
    O14      O        0.07700    0.72600    0.10810    1.000
    O15      O        0.88570    0.81850    0.02651    1.000
    O16      O        0.09240    0.88050    0.97447    1.000
    O17      O        0.42780    0.64560    0.49440    1.000
    O18      O        0.16560    0.62030    0.51300    1.000
    O19      O        0.87460    0.54160    0.67750    1.000
    O20      O        0.96940    0.65510    0.58730    1.000
    O21      O        0.11630    0.54770    0.98793    1.000
    O22      O        0.69180    0.29300    0.90410    1.000
    O23      O        0.09130    0.43810    0.63480    1.000
    O24      O        0.01270    0.39430    0.75440    1.000
    O25      O        0.49370    0.47640    0.64390    1.000
    O26      O        0.64170    0.43990    0.76100    1.000
    O27      O        0.88140    0.63990    0.89700    1.000
    O28      O        0.89580    0.95270    0.90278    1.000
    O29      O        0.91530    0.08960    0.77243    1.000
    O30      O        0.88860    0.79310    0.77260    1.000
    O31      O        0.10550    0.01650    0.83360    1.000
    O32      O        0.92300    0.27400    0.89190    1.000
    O33      O        0.11430    0.18150    0.97349    1.000
    O34      O        0.90760    0.11950    0.02553    1.000
    O35      O        0.57220    0.35440    0.50560    1.000
    O36      O        0.83440    0.37970    0.48700    1.000
