data_functionalizedCrystal
_audit_creation_method	'EQeq! by Chris Wilmer'
_symmetry_space_group_name_H-M	'P1'
_symmetry_Int_Tables_number	1
_symmetry_cell_setting	triclinic
loop_
_symmetry_equiv_pos_as_xyz
  x,y,z
_cell_length_a	13.244
_cell_length_b	14.521
_cell_length_c	15.695
_cell_angle_alpha	90
_cell_angle_beta	92.746
_cell_angle_gamma	90
loop_
_atom_site_label
_atom_site_type_symbol
_atom_site_fract_x
_atom_site_fract_y
_atom_site_fract_z
_atom_site_charge
Mof_Cu	Cu	0.52973	0.2003	0.39005	0.865
Mof_C 	C 	0.8247	0.8527	0.1266	0.101
Mof_H 	H 	0.8464	0.8698	0.0734	-0.018
Mof_C 	C 	0.7584	0.9102	0.1653	-0.143
Mof_H 	H 	0.7378	0.9653	0.1397	0.094
Mof_C 	C 	0.7235	0.8846	0.2425	0.066
Mof_C 	C 	0.7587	0.8021	0.2783	-0.129
Mof_H 	H 	0.7369	0.7827	0.3308	0.092
Mof_C 	C 	0.826	0.7497	0.2353	0.084
Mof_H 	H 	0.8491	0.6948	0.2595	0.004
Mof_C 	C 	0.6558	0.9432	0.2906	0.128
Mof_C 	C 	0.091	0.8267	0.2161	0.13
Mof_H 	H 	0.0581	0.8705	0.1816	-0.041
Mof_C 	C 	0.1643	0.8573	0.2758	-0.183
Mof_H 	H 	0.1845	0.9187	0.2764	0.109
Mof_C 	C 	0.2053	0.7981	0.3322	0.102
Mof_C 	C 	0.1742	0.7092	0.3264	-0.167
Mof_H 	H 	0.1988	0.6659	0.3659	0.093
Mof_C 	C 	0.1057	0.6833	0.2613	0.105
Mof_H 	H 	0.0871	0.6217	0.2567	-0.02
Mof_C 	C 	0.2832	0.8282	0.397	0.085
Mof_N 	N 	0.8594	0.7752	0.1595	-0.233
Mof_N 	N 	0.6334	0.031	0.2708	-0.118
Mof_N 	N 	0.5763	0.0587	0.3342	-0.138
Mof_N 	N 	0.5656	0.9895	0.387	-0.123
Mof_N 	N 	0.6143	0.9159	0.362	-0.092
Mof_N 	N 	0.0658	0.7427	0.2055	-0.26
Mof_N 	N 	0.3314	0.9078	0.3939	-0.082
Mof_N 	N 	0.3942	0.9054	0.462	-0.136
Mof_N 	N 	0.3836	0.8284	0.504	-0.153
Mof_N 	N 	0.3127	0.7763	0.4641	-0.095
Mof_N 	N 	0.42	0.1313	0.4419	-0.243
Mof_N 	N 	0.3398	0.1531	0.4437	-0.038
Mof_N 	N 	0.2509	0.1629	0.4334	-0.085
Mof_Cu	Cu	0.97027	0.7003	0.10995	0.88
Mof_C 	C 	0.6753	0.3527	0.3734	0.102
Mof_H 	H 	0.6536	0.3698	0.4266	-0.018
Mof_C 	C 	0.7416	0.4102	0.3347	-0.151
Mof_H 	H 	0.7622	0.4653	0.3603	0.094
Mof_C 	C 	0.7765	0.3846	0.2575	0.073
Mof_C 	C 	0.7413	0.3021	0.2217	-0.138
Mof_H 	H 	0.7631	0.2827	0.1692	0.085
Mof_C 	C 	0.674	0.2497	0.2647	0.082
Mof_H 	H 	0.6509	0.1948	0.2405	-0.006
Mof_C 	C 	0.8442	0.4432	0.2094	0.093
Mof_C 	C 	0.409	0.3267	0.2839	0.123
Mof_H 	H 	0.4419	0.3705	0.3184	-0.032
Mof_C 	C 	0.3357	0.3573	0.2242	-0.176
Mof_H 	H 	0.3155	0.4187	0.2236	0.099
Mof_C 	C 	0.2947	0.2981	0.1678	0.09
Mof_C 	C 	0.3258	0.2092	0.1736	-0.161
Mof_H 	H 	0.3012	0.1659	0.1341	0.08
Mof_C 	C 	0.3943	0.1833	0.2387	0.099
Mof_H 	H 	0.4129	0.1217	0.2433	-0.018
Mof_C 	C 	0.2168	0.3282	0.103	0.078
Mof_N 	N 	0.6406	0.2752	0.3405	-0.237
Mof_N 	N 	0.8666	0.531	0.2292	-0.088
Mof_N 	N 	0.9237	0.5587	0.1658	-0.115
Mof_N 	N 	0.9344	0.4895	0.113	-0.142
Mof_N 	N 	0.8857	0.4159	0.138	-0.093
Mof_N 	N 	0.4342	0.2427	0.2945	-0.248
Mof_N 	N 	0.1686	0.4078	0.1061	-0.094
Mof_N 	N 	0.1058	0.4054	0.038	-0.17
Mof_N 	N 	0.1164	0.3284	0.996	-0.13
Mof_N 	N 	0.1873	0.2763	0.0359	-0.12
Mof_N 	N 	0.08	0.6313	0.0581	-0.256
Mof_N 	N 	0.1602	0.6531	0.0563	-0.04
Mof_N 	N 	0.2491	0.6629	0.0666	-0.081
Mof_Cu	Cu	0.47027	0.7997	0.60995	0.869
Mof_C 	C 	0.1753	0.1473	0.8734	0.102
Mof_H 	H 	0.1536	0.1302	0.9266	-0.021
Mof_C 	C 	0.2416	0.0898	0.8347	-0.161
Mof_H 	H 	0.2622	0.0347	0.8603	0.086
Mof_C 	C 	0.2765	0.1154	0.7575	0.081
Mof_C 	C 	0.2413	0.1979	0.7217	-0.147
Mof_H 	H 	0.2631	0.2173	0.6692	0.091
Mof_C 	C 	0.174	0.2503	0.7647	0.084
Mof_H 	H 	0.1509	0.3052	0.7405	-0.008
Mof_C 	C 	0.3442	0.0568	0.7094	0.055
Mof_C 	C 	0.909	0.1733	0.7839	0.127
Mof_H 	H 	0.9419	0.1295	0.8184	-0.021
Mof_C 	C 	0.8357	0.1427	0.7242	-0.169
Mof_H 	H 	0.8155	0.0813	0.7236	0.098
Mof_C 	C 	0.7947	0.2019	0.6678	0.094
Mof_C 	C 	0.8258	0.2908	0.6736	-0.153
Mof_H 	H 	0.8012	0.3341	0.6341	0.096
Mof_C 	C 	0.8943	0.3167	0.7387	0.105
Mof_H 	H 	0.9129	0.3783	0.7433	0.002
Mof_C 	C 	0.7168	0.1718	0.603	0.088
Mof_N 	N 	0.1406	0.2248	0.8405	-0.24
Mof_N 	N 	0.3666	0.969	0.7292	-0.063
Mof_N 	N 	0.4237	0.9413	0.6658	-0.103
Mof_N 	N 	0.4344	0.0105	0.613	-0.17
Mof_N 	N 	0.3857	0.0841	0.638	-0.089
Mof_N 	N 	0.9342	0.2573	0.7945	-0.235
Mof_N 	N 	0.6686	0.0922	0.6061	-0.094
Mof_N 	N 	0.6058	0.0946	0.538	-0.15
Mof_N 	N 	0.6164	0.1716	0.496	-0.156
Mof_N 	N 	0.6873	0.2237	0.5359	-0.095
Mof_N 	N 	0.58	0.8687	0.5581	-0.229
Mof_N 	N 	0.6602	0.8469	0.5563	-0.031
Mof_N 	N 	0.7491	0.8371	0.5666	-0.059
Mof_Cu	Cu	0.02973	0.2997	0.89005	0.854
Mof_C 	C 	0.3247	0.6473	0.6266	0.102
Mof_H 	H 	0.3464	0.6302	0.5734	-0.02
Mof_C 	C 	0.2584	0.5898	0.6653	-0.152
Mof_H 	H 	0.2378	0.5347	0.6397	0.088
Mof_C 	C 	0.2235	0.6154	0.7425	0.074
Mof_C 	C 	0.2587	0.6979	0.7783	-0.138
Mof_H 	H 	0.2369	0.7173	0.8308	0.098
Mof_C 	C 	0.326	0.7503	0.7353	0.086
Mof_H 	H 	0.3491	0.8052	0.7595	0.003
Mof_C 	C 	0.1558	0.5568	0.7906	0.091
Mof_C 	C 	0.591	0.6733	0.7161	0.133
Mof_H 	H 	0.5581	0.6295	0.6816	-0.032
Mof_C 	C 	0.6643	0.6427	0.7758	-0.177
Mof_H 	H 	0.6845	0.5813	0.7764	0.108
Mof_C 	C 	0.7053	0.7019	0.8322	0.107
Mof_C 	C 	0.6742	0.7908	0.8264	-0.159
Mof_H 	H 	0.6988	0.8341	0.8659	0.109
Mof_C 	C 	0.6057	0.8167	0.7613	0.111
Mof_H 	H 	0.5871	0.8783	0.7567	-0.001
Mof_C 	C 	0.7832	0.6718	0.897	0.094
Mof_N 	N 	0.3594	0.7248	0.6595	-0.236
Mof_N 	N 	0.1334	0.469	0.7708	-0.094
Mof_N 	N 	0.0763	0.4413	0.8342	-0.127
Mof_N 	N 	0.0656	0.5105	0.887	-0.146
Mof_N 	N 	0.1143	0.5841	0.862	-0.088
Mof_N 	N 	0.5658	0.7573	0.7055	-0.248
Mof_N 	N 	0.8314	0.5922	0.8939	-0.081
Mof_N 	N 	0.8942	0.5946	0.962	-0.11
Mof_N 	N 	0.8836	0.6716	0.004	-0.181
Mof_N 	N 	0.8127	0.7237	0.9641	-0.069
Mof_N 	N 	0.92	0.3687	0.9419	-0.212
Mof_N 	N 	0.8398	0.3469	0.9437	-0.028
Mof_N 	N 	0.7509	0.3371	0.9334	-0.062
Mof_Cu	Cu	0.5	0	0.5	0.855
Mof_Cu	Cu	-4.18642e-33	0.5	-0	0.839
_end
