data_functionalizedCrystal
_audit_creation_method	'EQeq! by Chris Wilmer'
_symmetry_space_group_name_H-M	'P1'
_symmetry_Int_Tables_number	1
_symmetry_cell_setting	triclinic
loop_
_symmetry_equiv_pos_as_xyz
  x,y,z
_cell_length_a	14.4447
_cell_length_b	15.6609
_cell_length_c	20.4563
_cell_angle_alpha	90
_cell_angle_beta	90
_cell_angle_gamma	90
loop_
_atom_site_label
_atom_site_type_symbol
_atom_site_fract_x
_atom_site_fract_y
_atom_site_fract_z
_atom_site_charge
Mof_V 	V 	0.236	0.742	0.2795	1.87
Mof_V 	V 	0.73	0.246	0.3955	1.877
Mof_V 	V 	0.235	0.744	0.432	1.799
Mof_V 	V 	0.764	0.242	0.7205	1.87
Mof_V 	V 	0.27	0.746	0.6045	1.877
Mof_V 	V 	0.765	0.244	0.568	1.799
Mof_V 	V 	0.264	0.742	0.7795	1.87
Mof_V 	V 	0.77	0.246	0.8955	1.876
Mof_V 	V 	0.265	0.744	0.932	1.799
Mof_V 	V 	0.736	0.242	0.2205	1.87
Mof_V 	V 	0.23	0.746	0.1045	1.877
Mof_V 	V 	0.735	0.244	0.068	1.8
Mof_C 	C 	0.4357	0.564	0.4949	-0.084
Mof_C 	C 	0.4636	0.5362	0.5553	0.001
Mof_C 	C 	0.5279	0.4722	0.5604	-0.004
Mof_C 	C 	0.4721	0.5278	0.4396	0.004
Mof_C 	C 	0.5364	0.4638	0.4447	-0.006
Mof_C 	C 	0.5643	0.436	0.5051	-0.074
Mof_C 	C 	0.3653	0.634	0.4894	0.342
Mof_C 	C 	0.6347	0.366	0.5106	0.326
Mof_C 	C 	0.0636	0.564	0.336	-0.145
Mof_C 	C 	0.0249	0.5251	0.39	0.03
Mof_C 	C 	0.9613	0.4611	0.382	-0.019
Mof_C 	C 	0.0387	0.5389	0.275	0.038
Mof_C 	C 	0.9751	0.4749	0.267	-0.021
Mof_C 	C 	0.9364	0.436	0.32	-0.062
Mof_C 	C 	0.1332	0.6341	0.346	0.499
Mof_C 	C 	0.8668	0.3659	0.311	0.34
Mof_C 	C 	0.4354	0.564	0.164	-0.075
Mof_C 	C 	0.4676	0.5322	0.222	-0.007
Mof_C 	C 	0.5322	0.4681	0.222	0.009
Mof_C 	C 	0.4678	0.5319	0.106	-0.005
Mof_C 	C 	0.5324	0.4678	0.106	0.007
Mof_C 	C 	0.5646	0.436	0.164	-0.094
Mof_C 	C 	0.3646	0.6341	0.164	0.341
Mof_C 	C 	0.6354	0.3659	0.164	0.377
Mof_C 	C 	0.5643	0.064	0.5051	-0.081
Mof_C 	C 	0.5364	0.0362	0.4447	-0.004
Mof_C 	C 	0.4721	0.9722	0.4396	0.001
Mof_C 	C 	0.5279	0.0278	0.5604	-0.001
Mof_C 	C 	0.4636	0.9638	0.5553	-0.002
Mof_C 	C 	0.4357	0.936	0.4949	-0.076
Mof_C 	C 	0.6347	0.134	0.5106	0.341
Mof_C 	C 	0.3653	0.866	0.4894	0.327
Mof_C 	C 	0.9364	0.064	0.664	-0.145
Mof_C 	C 	0.9751	0.0251	0.61	0.03
Mof_C 	C 	0.0387	0.9611	0.618	-0.019
Mof_C 	C 	0.9613	0.0389	0.725	0.038
Mof_C 	C 	0.0249	0.9749	0.733	-0.022
Mof_C 	C 	0.0636	0.936	0.68	-0.062
Mof_C 	C 	0.8668	0.1341	0.654	0.499
Mof_C 	C 	0.1332	0.8659	0.689	0.34
Mof_C 	C 	0.5646	0.064	0.836	-0.074
Mof_C 	C 	0.5324	0.0322	0.778	-0.008
Mof_C 	C 	0.4678	0.9681	0.778	0.011
Mof_C 	C 	0.5322	0.0319	0.894	-0.007
Mof_C 	C 	0.4676	0.9678	0.894	0.008
Mof_C 	C 	0.4354	0.936	0.836	-0.095
Mof_C 	C 	0.6354	0.1341	0.836	0.341
Mof_C 	C 	0.3646	0.8659	0.836	0.377
Mof_C 	C 	0.0643	0.564	0.9949	-0.085
Mof_C 	C 	0.0364	0.5362	0.0553	0.004
Mof_C 	C 	0.9721	0.4722	0.0604	-0.005
Mof_C 	C 	0.0279	0.5278	0.9396	-0
Mof_C 	C 	0.9636	0.4638	0.9447	-0
Mof_C 	C 	0.9357	0.436	0.0051	-0.077
Mof_C 	C 	0.1347	0.634	0.9894	0.34
Mof_C 	C 	0.8653	0.366	0.0106	0.325
Mof_C 	C 	0.4364	0.564	0.836	-0.145
Mof_C 	C 	0.4751	0.5251	0.89	0.031
Mof_C 	C 	0.5387	0.4611	0.882	-0.019
Mof_C 	C 	0.4613	0.5389	0.775	0.037
Mof_C 	C 	0.5249	0.4749	0.767	-0.021
Mof_C 	C 	0.5636	0.436	0.82	-0.062
Mof_C 	C 	0.3668	0.6341	0.846	0.499
Mof_C 	C 	0.6332	0.3659	0.811	0.34
Mof_C 	C 	0.0646	0.564	0.664	-0.073
Mof_C 	C 	0.0324	0.5322	0.722	-0.01
Mof_C 	C 	0.9678	0.4681	0.722	0.012
Mof_C 	C 	0.0322	0.5319	0.606	-0.008
Mof_C 	C 	0.9676	0.4678	0.606	0.009
Mof_C 	C 	0.9354	0.436	0.664	-0.095
Mof_C 	C 	0.1354	0.6341	0.664	0.341
Mof_C 	C 	0.8646	0.3659	0.664	0.377
Mof_C 	C 	0.9357	0.064	0.0051	-0.086
Mof_C 	C 	0.9636	0.0362	0.9447	0.006
Mof_C 	C 	0.0279	0.9722	0.9396	-0.006
Mof_C 	C 	0.9721	0.0278	0.0604	-0.004
Mof_C 	C 	0.0364	0.9638	0.0553	0.005
Mof_C 	C 	0.0643	0.936	0.9949	-0.079
Mof_C 	C 	0.8653	0.134	0.0106	0.339
Mof_C 	C 	0.1347	0.866	0.9894	0.325
Mof_C 	C 	0.5636	0.064	0.164	-0.141
Mof_C 	C 	0.5249	0.0251	0.11	0.023
Mof_C 	C 	0.4613	0.9611	0.118	-0.011
Mof_C 	C 	0.5387	0.0389	0.225	0.03
Mof_C 	C 	0.4751	0.9749	0.233	-0.014
Mof_C 	C 	0.4364	0.936	0.18	-0.066
Mof_C 	C 	0.6332	0.1341	0.154	0.497
Mof_C 	C 	0.3668	0.8659	0.189	0.342
Mof_C 	C 	0.9354	0.064	0.336	-0.071
Mof_C 	C 	0.9676	0.0322	0.278	-0.013
Mof_C 	C 	0.0322	0.9681	0.278	0.015
Mof_C 	C 	0.9678	0.0319	0.394	-0.011
Mof_C 	C 	0.0324	0.9678	0.394	0.012
Mof_C 	C 	0.0646	0.936	0.336	-0.097
Mof_C 	C 	0.8646	0.1341	0.336	0.34
Mof_C 	C 	0.1354	0.8659	0.336	0.378
Mof_O 	O 	0.31	0.729	0.355	-0.574
Mof_O 	O 	0.76422	0.25813	0.46104	-0.744
Mof_O 	O 	0.203	0.75814	0.19173	-0.656
Mof_O 	O 	0.3388	0.6604	0.432	-0.41
Mof_O 	O 	0.6692	0.3317	0.458	-0.406
Mof_O 	O 	0.3308	0.6683	0.542	-0.478
Mof_O 	O 	0.6612	0.3396	0.568	-0.396
Mof_O 	O 	0.1699	0.671	0.295	-0.778
Mof_O 	O 	0.8431	0.3421	0.252	-0.365
Mof_O 	O 	0.1569	0.6579	0.404	-0.599
Mof_O 	O 	0.8301	0.329	0.362	-0.416
Mof_O 	O 	0.3341	0.6644	0.109	-0.446
Mof_O 	O 	0.6662	0.3354	0.109	-0.556
Mof_O 	O 	0.3338	0.6646	0.219	-0.412
Mof_O 	O 	0.6659	0.3356	0.22	-0.531
Mof_O 	O 	0.69	0.229	0.645	-0.574
Mof_O 	O 	0.23578	0.75813	0.53896	-0.744
Mof_O 	O 	0.797	0.25814	0.80827	-0.656
Mof_O 	O 	0.6612	0.1604	0.568	-0.41
Mof_O 	O 	0.3308	0.8317	0.542	-0.406
Mof_O 	O 	0.6692	0.1683	0.458	-0.478
Mof_O 	O 	0.3388	0.8396	0.432	-0.396
Mof_O 	O 	0.8301	0.171	0.705	-0.778
Mof_O 	O 	0.1569	0.8421	0.748	-0.365
Mof_O 	O 	0.8431	0.1579	0.596	-0.599
Mof_O 	O 	0.1699	0.829	0.638	-0.416
Mof_O 	O 	0.6659	0.1644	0.891	-0.446
Mof_O 	O 	0.3338	0.8354	0.891	-0.556
Mof_O 	O 	0.6662	0.1646	0.781	-0.412
Mof_O 	O 	0.3341	0.8356	0.78	-0.531
Mof_O 	O 	0.19	0.729	0.855	-0.574
Mof_O 	O 	0.73578	0.25813	0.96104	-0.744
Mof_O 	O 	0.297	0.75814	0.69173	-0.656
Mof_O 	O 	0.1612	0.6604	0.932	-0.41
Mof_O 	O 	0.8308	0.3317	0.958	-0.404
Mof_O 	O 	0.1692	0.6683	0.042	-0.477
Mof_O 	O 	0.8388	0.3396	0.068	-0.396
Mof_O 	O 	0.3301	0.671	0.795	-0.778
Mof_O 	O 	0.6569	0.3421	0.752	-0.365
Mof_O 	O 	0.3431	0.6579	0.904	-0.599
Mof_O 	O 	0.6699	0.329	0.862	-0.416
Mof_O 	O 	0.1659	0.6644	0.609	-0.446
Mof_O 	O 	0.8338	0.3354	0.609	-0.556
Mof_O 	O 	0.1662	0.6646	0.719	-0.412
Mof_O 	O 	0.8341	0.3356	0.72	-0.531
Mof_O 	O 	0.81	0.229	0.145	-0.574
Mof_O 	O 	0.26422	0.75813	0.03896	-0.744
Mof_O 	O 	0.703	0.25814	0.30827	-0.656
Mof_O 	O 	0.8388	0.1604	0.068	-0.41
Mof_O 	O 	0.1692	0.8317	0.042	-0.403
Mof_O 	O 	0.8308	0.1683	0.958	-0.476
Mof_O 	O 	0.1612	0.8396	0.932	-0.396
Mof_O 	O 	0.6699	0.171	0.205	-0.777
Mof_O 	O 	0.3431	0.8421	0.248	-0.365
Mof_O 	O 	0.6569	0.1579	0.096	-0.599
Mof_O 	O 	0.3301	0.829	0.138	-0.416
Mof_O 	O 	0.8341	0.1644	0.391	-0.446
Mof_O 	O 	0.1662	0.8354	0.391	-0.556
Mof_O 	O 	0.8338	0.1646	0.281	-0.412
Mof_O 	O 	0.1659	0.8356	0.28	-0.531
Mof_H 	H 	0.43332	0.56632	0.60131	0.025
Mof_H 	H 	0.55109	0.44909	0.61064	0.05
Mof_H 	H 	0.4489	0.55092	0.38936	0.05
Mof_H 	H 	0.56669	0.43367	0.3987	0.034
Mof_H 	H 	0.04588	0.54624	0.44123	0.035
Mof_H 	H 	0.92929	0.42892	0.42659	0.049
Mof_H 	H 	0.07072	0.57109	0.23042	0.031
Mof_H 	H 	0.95417	0.4538	0.21575	0.051
Mof_H 	H 	0.4407	0.55902	0.2702	0.049
Mof_H 	H 	0.55904	0.44142	0.27026	0.045
Mof_H 	H 	0.44101	0.55852	0.05771	0.046
Mof_H 	H 	0.5592	0.44108	0.05774	0.038
Mof_H 	H 	0.56668	0.06632	0.39869	0.026
Mof_H 	H 	0.44891	0.94909	0.38936	0.049
Mof_H 	H 	0.5511	0.05092	0.61064	0.051
Mof_H 	H 	0.43331	0.93367	0.6013	0.034
Mof_H 	H 	0.95412	0.04624	0.55877	0.034
Mof_H 	H 	0.07071	0.92892	0.57341	0.049
Mof_H 	H 	0.92928	0.07109	0.76958	0.031
Mof_H 	H 	0.04583	0.9538	0.78425	0.051
Mof_H 	H 	0.5593	0.05902	0.7298	0.049
Mof_H 	H 	0.44096	0.94142	0.72974	0.045
Mof_H 	H 	0.55899	0.05852	0.94229	0.047
Mof_H 	H 	0.4408	0.94108	0.94226	0.038
Mof_H 	H 	0.06668	0.56632	0.10131	0.025
Mof_H 	H 	0.94891	0.44909	0.11064	0.05
Mof_H 	H 	0.0511	0.55092	0.88936	0.051
Mof_H 	H 	0.93331	0.43367	0.8987	0.034
Mof_H 	H 	0.45412	0.54624	0.94123	0.035
Mof_H 	H 	0.57071	0.42892	0.92659	0.049
Mof_H 	H 	0.42928	0.57109	0.73042	0.031
Mof_H 	H 	0.54583	0.4538	0.71575	0.051
Mof_H 	H 	0.0593	0.55902	0.7702	0.049
Mof_H 	H 	0.94096	0.44142	0.77026	0.045
Mof_H 	H 	0.05899	0.55852	0.55771	0.047
Mof_H 	H 	0.9408	0.44108	0.55774	0.038
Mof_H 	H 	0.93332	0.06632	0.89869	0.024
Mof_H 	H 	0.05109	0.94909	0.88936	0.05
Mof_H 	H 	0.9489	0.05092	0.11064	0.051
Mof_H 	H 	0.06669	0.93367	0.1013	0.033
Mof_H 	H 	0.54588	0.04624	0.05877	0.035
Mof_H 	H 	0.42929	0.92892	0.07341	0.048
Mof_H 	H 	0.57072	0.07109	0.26958	0.032
Mof_H 	H 	0.45417	0.9538	0.28425	0.05
Mof_H 	H 	0.9407	0.05902	0.2298	0.049
Mof_H 	H 	0.05904	0.94142	0.22974	0.044
Mof_H 	H 	0.94101	0.05852	0.44229	0.047
Mof_H 	H 	0.0592	0.94108	0.44226	0.037
_end
