# CIF file generated by openbabel 3.1.0, see https://openbabel.org
data_I
_chemical_name_common 'image0'
_cell_length_a 10.3144
_cell_length_b 16.81
_cell_length_c 44.985
_cell_angle_alpha 90
_cell_angle_beta 101.869
_cell_angle_gamma 90
_space_group_name_H-M_alt 'P 1'
_space_group_name_Hall 'P 1'
loop_
    _symmetry_equiv_pos_as_xyz
    x,y,z
loop_
    _atom_site_label
    _atom_site_type_symbol
    _atom_site_fract_x
    _atom_site_fract_y
    _atom_site_fract_z
    _atom_site_occupancy
    Mn1      Mn       0.10432    0.00427    0.81165    1.000
    Mn2      Mn       0.29609    0.09160    0.75759    1.000
    C1       C        0.74810    0.09450    0.00149    1.000
    C2       C        0.66110    0.15120    0.98461    1.000
    H1       H        0.58720    0.17350    0.99030    1.000
    C3       C        0.70370    0.16690    0.95930    1.000
    H2       H        0.66520    0.20170    0.94390    1.000
    C4       C        0.82280    0.11890    0.96021    1.000
    C5       C        0.89130    0.11510    0.93681    1.000
    C6       C        0.99990    0.06650    0.93743    1.000
    C7       C        0.06810    0.05760    0.91247    1.000
    H3       H        0.04480    0.08130    0.89340    1.000
    C8       C        0.17000    0.00930    0.92189    1.000
    H4       H        0.23330    0.99510    0.91080    1.000
    C9       C        0.16610    0.98280    0.95174    1.000
    C10      C        0.25670    0.93520    0.96919    1.000
    C11      C        0.37770    0.91020    0.95628    1.000
    C12      C        0.47160    0.96710    0.95527    1.000
    H5       H        0.46490    0.01560    0.96480    1.000
    C13      C        0.57720    0.95570    0.94051    1.000
    H6       H        0.64060    0.99490    0.94010    1.000
    C14      C        0.58150    0.88290    0.92661    1.000
    C15      C        0.49440    0.82370    0.92829    1.000
    H7       H        0.50300    0.77400    0.91980    1.000
    C16      C        0.38850    0.84030    0.94357    1.000
    H8       H        0.32600    0.80100    0.94460    1.000
    C17      C        0.66460    0.91420    0.88272    1.000
    C18      C        0.54460    0.93960    0.86688    1.000
    H9       H        0.46910    0.92960    0.87460    1.000
    C19      C        0.53280    0.97910    0.84009    1.000
    C20      C        0.64820    0.99430    0.82893    1.000
    H10      H        0.64320    0.02310    0.81110    1.000
    C21      C        0.76980    0.96610    0.84467    1.000
    C22      C        0.77650    0.92760    0.87130    1.000
    H11      H        0.85810    0.91000    0.88210    1.000
    C23      C        0.89240    0.98380    0.83118    1.000
    C24      C        0.40090    0.00900    0.82270    1.000
    C25      C        0.85200    0.16970    0.90998    1.000
    C26      C        0.75120    0.14980    0.88617    1.000
    H12      H        0.70310    0.10350    0.88730    1.000
    C27      C        0.72020    0.19550    0.86120    1.000
    H13      H        0.65050    0.18040    0.84560    1.000
    C28      C        0.78830    0.26340    0.85810    1.000
    C29      C        0.88720    0.28630    0.88170    1.000
    H14      H        0.93310    0.33330    0.88020    1.000
    C30      C        0.92150    0.23900    0.90880    1.000
    H15      H        0.98820    0.25470    0.92490    1.000
    C31      C        0.84420    0.30640    0.81214    1.000
    C32      C        0.82950    0.36770    0.79095    1.000
    H16      H        0.77380    0.41030    0.79260    1.000
    C33      C        0.89610    0.36560    0.76783    1.000
    C34      C        0.98150    0.30340    0.76643    1.000
    H17      H        0.02760    0.30090    0.75070    1.000
    C35      C        0.99860    0.24490    0.78837    1.000
    C36      C        0.93170    0.24590    0.81150    1.000
    H18      H        0.94520    0.20660    0.82640    1.000
    C37      C        0.08830    0.17170    0.78672    1.000
    C38      C        0.87990    0.43000    0.74360    1.000
    N1       N        0.84830    0.07670    0.98655    1.000
    N2       N        0.06020    0.01740    0.96078    1.000
    O1       O        0.00230    0.96220    0.84625    1.000
    O2       O        0.87950    0.01380    0.80642    1.000
    O3       O        0.39900    0.05170    0.80038    1.000
    O4       O        0.30270    0.98620    0.83245    1.000
    O5       O        0.14700    0.17010    0.76454    1.000
    O6       O        0.10630    0.12600    0.80851    1.000
    O7       O        0.92270    0.41430    0.72054    1.000
    O8       O        0.82150    0.49080    0.74880    1.000
    O9       O        0.67950    0.86990    0.90951    1.000
    O10      O        0.76880    0.31820    0.83436    1.000
    Mn3      Mn       0.89568    0.50427    0.68835    1.000
    Mn4      Mn       0.70391    0.59160    0.74241    1.000
    C39      C        0.25190    0.59450    0.49851    1.000
    C40      C        0.33890    0.65120    0.51539    1.000
    H19      H        0.41280    0.67350    0.50970    1.000
    C41      C        0.29630    0.66690    0.54070    1.000
    H20      H        0.33480    0.70170    0.55610    1.000
    C42      C        0.17720    0.61890    0.53979    1.000
    C43      C        0.10870    0.61510    0.56319    1.000
    C44      C        0.00010    0.56650    0.56257    1.000
    C45      C        0.93190    0.55760    0.58753    1.000
    H21      H        0.95520    0.58130    0.60660    1.000
    C46      C        0.83000    0.50930    0.57811    1.000
    H22      H        0.76670    0.49510    0.58920    1.000
    C47      C        0.83390    0.48280    0.54826    1.000
    C48      C        0.74330    0.43520    0.53081    1.000
    C49      C        0.62230    0.41020    0.54372    1.000
    C50      C        0.52840    0.46710    0.54473    1.000
    H23      H        0.53510    0.51560    0.53520    1.000
    C51      C        0.42280    0.45570    0.55949    1.000
    H24      H        0.35940    0.49490    0.55990    1.000
    C52      C        0.41850    0.38290    0.57339    1.000
    C53      C        0.50560    0.32370    0.57171    1.000
    H25      H        0.49700    0.27400    0.58020    1.000
    C54      C        0.61150    0.34030    0.55643    1.000
    H26      H        0.67400    0.30100    0.55540    1.000
    C55      C        0.33540    0.41420    0.61728    1.000
    C56      C        0.45540    0.43960    0.63312    1.000
    H27      H        0.53090    0.42960    0.62540    1.000
    C57      C        0.46720    0.47910    0.65991    1.000
    C58      C        0.35180    0.49430    0.67107    1.000
    H28      H        0.35680    0.52310    0.68890    1.000
    C59      C        0.23020    0.46610    0.65533    1.000
    C60      C        0.22350    0.42760    0.62870    1.000
    H29      H        0.14190    0.41000    0.61790    1.000
    C61      C        0.10760    0.48380    0.66882    1.000
    C62      C        0.59910    0.50900    0.67730    1.000
    C63      C        0.14800    0.66970    0.59002    1.000
    C64      C        0.24880    0.64980    0.61383    1.000
    H30      H        0.29690    0.60350    0.61270    1.000
    C65      C        0.27980    0.69550    0.63880    1.000
    H31      H        0.34950    0.68040    0.65440    1.000
    C66      C        0.21170    0.76340    0.64190    1.000
    C67      C        0.11280    0.78630    0.61830    1.000
    H32      H        0.06690    0.83330    0.61980    1.000
    C68      C        0.07850    0.73900    0.59120    1.000
    H33      H        0.01180    0.75470    0.57510    1.000
    C69      C        0.15580    0.80640    0.68786    1.000
    C70      C        0.17050    0.86770    0.70905    1.000
    H34      H        0.22620    0.91030    0.70740    1.000
    C71      C        0.10390    0.86560    0.73217    1.000
    C72      C        0.01850    0.80340    0.73357    1.000
    H35      H        0.97240    0.80090    0.74930    1.000
    C73      C        0.00140    0.74490    0.71163    1.000
    C74      C        0.06830    0.74590    0.68850    1.000
    H36      H        0.05480    0.70660    0.67360    1.000
    C75      C        0.91170    0.67170    0.71328    1.000
    C76      C        0.12010    0.93000    0.75640    1.000
    N3       N        0.15170    0.57670    0.51345    1.000
    N4       N        0.93980    0.51740    0.53922    1.000
    O11      O        0.99770    0.46220    0.65375    1.000
    O12      O        0.12050    0.51380    0.69358    1.000
    O13      O        0.60100    0.55170    0.69962    1.000
    O14      O        0.69730    0.48620    0.66755    1.000
    O15      O        0.85300    0.67010    0.73546    1.000
    O16      O        0.89370    0.62600    0.69149    1.000
    O17      O        0.07730    0.91430    0.77946    1.000
    O18      O        0.17850    0.99080    0.75120    1.000
    O19      O        0.32050    0.36990    0.59049    1.000
    O20      O        0.23120    0.81820    0.66564    1.000
    Mn5      Mn       0.89568    0.99573    0.18835    1.000
    Mn6      Mn       0.70391    0.90840    0.24241    1.000
    C77      C        0.25190    0.90550    0.99851    1.000
    C78      C        0.33890    0.84880    0.01539    1.000
    H37      H        0.41280    0.82650    0.00970    1.000
    C79      C        0.29630    0.83310    0.04070    1.000
    H38      H        0.33480    0.79830    0.05610    1.000
    C80      C        0.17720    0.88110    0.03979    1.000
    C81      C        0.10870    0.88490    0.06319    1.000
    C82      C        0.00010    0.93350    0.06257    1.000
    C83      C        0.93190    0.94240    0.08753    1.000
    H39      H        0.95520    0.91870    0.10660    1.000
    C84      C        0.83000    0.99070    0.07811    1.000
    H40      H        0.76670    0.00490    0.08920    1.000
    C85      C        0.83390    0.01720    0.04826    1.000
    C86      C        0.74330    0.06480    0.03081    1.000
    C87      C        0.62230    0.08980    0.04372    1.000
    C88      C        0.52840    0.03290    0.04473    1.000
    H41      H        0.53510    0.98440    0.03520    1.000
    C89      C        0.42280    0.04430    0.05949    1.000
    H42      H        0.35940    0.00510    0.05990    1.000
    C90      C        0.41850    0.11710    0.07339    1.000
    C91      C        0.50560    0.17630    0.07171    1.000
    H43      H        0.49700    0.22600    0.08020    1.000
    C92      C        0.61150    0.15970    0.05643    1.000
    H44      H        0.67400    0.19900    0.05540    1.000
    C93      C        0.33540    0.08580    0.11728    1.000
    C94      C        0.45540    0.06040    0.13312    1.000
    H45      H        0.53090    0.07040    0.12540    1.000
    C95      C        0.46720    0.02090    0.15991    1.000
    C96      C        0.35180    0.00570    0.17107    1.000
    H46      H        0.35680    0.97690    0.18890    1.000
    C97      C        0.23020    0.03390    0.15533    1.000
    C98      C        0.22350    0.07240    0.12870    1.000
    H47      H        0.14190    0.09000    0.11790    1.000
    C99      C        0.10760    0.01620    0.16882    1.000
    C100     C        0.59910    0.99100    0.17730    1.000
    C101     C        0.14800    0.83030    0.09002    1.000
    C102     C        0.24880    0.85020    0.11383    1.000
    H48      H        0.29690    0.89650    0.11270    1.000
    C103     C        0.27980    0.80450    0.13880    1.000
    H49      H        0.34950    0.81960    0.15440    1.000
    C104     C        0.21170    0.73660    0.14190    1.000
    C105     C        0.11280    0.71370    0.11830    1.000
    H50      H        0.06690    0.66670    0.11980    1.000
    C106     C        0.07850    0.76100    0.09120    1.000
    H51      H        0.01180    0.74530    0.07510    1.000
    C107     C        0.15580    0.69360    0.18786    1.000
    C108     C        0.17050    0.63230    0.20905    1.000
    H52      H        0.22620    0.58970    0.20740    1.000
    C109     C        0.10390    0.63440    0.23217    1.000
    C110     C        0.01850    0.69660    0.23357    1.000
    H53      H        0.97240    0.69910    0.24930    1.000
    C111     C        0.00140    0.75510    0.21163    1.000
    C112     C        0.06830    0.75410    0.18850    1.000
    H54      H        0.05480    0.79340    0.17360    1.000
    C113     C        0.91170    0.82830    0.21328    1.000
    C114     C        0.12010    0.57000    0.25640    1.000
    N5       N        0.15170    0.92330    0.01345    1.000
    N6       N        0.93980    0.98260    0.03922    1.000
    O21      O        0.99770    0.03780    0.15375    1.000
    O22      O        0.12050    0.98620    0.19358    1.000
    O23      O        0.60100    0.94830    0.19962    1.000
    O24      O        0.69730    0.01380    0.16755    1.000
    O25      O        0.85300    0.82990    0.23546    1.000
    O26      O        0.89370    0.87400    0.19149    1.000
    O27      O        0.07730    0.58570    0.27946    1.000
    O28      O        0.17850    0.50920    0.25120    1.000
    O29      O        0.32050    0.13010    0.09049    1.000
    O30      O        0.23120    0.68180    0.16564    1.000
    Mn7      Mn       0.10432    0.49573    0.31165    1.000
    Mn8      Mn       0.29609    0.40840    0.25759    1.000
    C115     C        0.74810    0.40550    0.50149    1.000
    C116     C        0.66110    0.34880    0.48461    1.000
    H55      H        0.58720    0.32650    0.49030    1.000
    C117     C        0.70370    0.33310    0.45930    1.000
    H56      H        0.66520    0.29830    0.44390    1.000
    C118     C        0.82280    0.38110    0.46021    1.000
    C119     C        0.89130    0.38490    0.43681    1.000
    C120     C        0.99990    0.43350    0.43743    1.000
    C121     C        0.06810    0.44240    0.41247    1.000
    H57      H        0.04480    0.41870    0.39340    1.000
    C122     C        0.17000    0.49070    0.42189    1.000
    H58      H        0.23330    0.50490    0.41080    1.000
    C123     C        0.16610    0.51720    0.45174    1.000
    C124     C        0.25670    0.56480    0.46919    1.000
    C125     C        0.37770    0.58980    0.45628    1.000
    C126     C        0.47160    0.53290    0.45527    1.000
    H59      H        0.46490    0.48440    0.46480    1.000
    C127     C        0.57720    0.54430    0.44051    1.000
    H60      H        0.64060    0.50510    0.44010    1.000
    C128     C        0.58150    0.61710    0.42661    1.000
    C129     C        0.49440    0.67630    0.42829    1.000
    H61      H        0.50300    0.72600    0.41980    1.000
    C130     C        0.38850    0.65970    0.44357    1.000
    H62      H        0.32600    0.69900    0.44460    1.000
    C131     C        0.66460    0.58580    0.38272    1.000
    C132     C        0.54460    0.56040    0.36688    1.000
    H63      H        0.46910    0.57040    0.37460    1.000
    C133     C        0.53280    0.52090    0.34009    1.000
    C134     C        0.64820    0.50570    0.32893    1.000
    H64      H        0.64320    0.47690    0.31110    1.000
    C135     C        0.76980    0.53390    0.34467    1.000
    C136     C        0.77650    0.57240    0.37130    1.000
    H65      H        0.85810    0.59000    0.38210    1.000
    C137     C        0.89240    0.51620    0.33118    1.000
    C138     C        0.40090    0.49100    0.32270    1.000
    C139     C        0.85200    0.33030    0.40998    1.000
    C140     C        0.75120    0.35020    0.38617    1.000
    H66      H        0.70310    0.39650    0.38730    1.000
    C141     C        0.72020    0.30450    0.36120    1.000
    H67      H        0.65050    0.31960    0.34560    1.000
    C142     C        0.78830    0.23660    0.35810    1.000
    C143     C        0.88720    0.21370    0.38170    1.000
    H68      H        0.93310    0.16670    0.38020    1.000
    C144     C        0.92150    0.26100    0.40880    1.000
    H69      H        0.98820    0.24530    0.42490    1.000
    C145     C        0.84420    0.19360    0.31214    1.000
    C146     C        0.82950    0.13230    0.29095    1.000
    H70      H        0.77380    0.08970    0.29260    1.000
    C147     C        0.89610    0.13440    0.26783    1.000
    C148     C        0.98150    0.19660    0.26643    1.000
    H71      H        0.02760    0.19910    0.25070    1.000
    C149     C        0.99860    0.25510    0.28837    1.000
    C150     C        0.93170    0.25410    0.31150    1.000
    H72      H        0.94520    0.29340    0.32640    1.000
    C151     C        0.08830    0.32830    0.28672    1.000
    C152     C        0.87990    0.07000    0.24360    1.000
    N7       N        0.84830    0.42330    0.48655    1.000
    N8       N        0.06020    0.48260    0.46078    1.000
    O31      O        0.00230    0.53780    0.34625    1.000
    O32      O        0.87950    0.48620    0.30642    1.000
    O33      O        0.39900    0.44830    0.30038    1.000
    O34      O        0.30270    0.51380    0.33245    1.000
    O35      O        0.14700    0.32990    0.26454    1.000
    O36      O        0.10630    0.37400    0.30851    1.000
    O37      O        0.92270    0.08570    0.22054    1.000
    O38      O        0.82150    0.00920    0.24880    1.000
    O39      O        0.67950    0.63010    0.40951    1.000
    O40      O        0.76880    0.18180    0.33436    1.000
    Mn9      Mn       0.00000    0.00000    0.00000    1.000
    Mn10     Mn       0.00000    0.50000    0.50000    1.000
