# CIF file generated by openbabel 3.1.0, see https://openbabel.org
data_I
_chemical_name_common 'image0'
_cell_length_a 10.361
_cell_length_b 10.39
_cell_length_c 9.135
_cell_angle_alpha 90
_cell_angle_beta 90
_cell_angle_gamma 90
_space_group_name_H-M_alt 'P 1'
_space_group_name_Hall 'P 1'
loop_
    _symmetry_equiv_pos_as_xyz
    x,y,z
loop_
    _atom_site_label
    _atom_site_type_symbol
    _atom_site_fract_x
    _atom_site_fract_y
    _atom_site_fract_z
    _atom_site_occupancy
    Fe1      Fe       0.87730    0.37740    0.15740    1.000
    P1       P        0.10010    0.59950    0.19610    1.000
    O1       O        0.00100    0.50120    0.24320    1.000
    O2       O        0.06200    0.65290    0.04370    1.000
    O3       O        0.84900    0.43850    0.95730    1.000
    O4       O        0.05770    0.73490    0.20500    1.000
    O5       O        0.92500    0.20580    0.18760    1.000
    O6       O        0.20680    0.58000    0.31450    1.000
    O7       O        0.73150    0.44220    0.29500    1.000
    Fe2      Fe       0.62270    0.12260    0.15740    1.000
    P2       P        0.39990    0.90050    0.19610    1.000
    O8       O        0.49900    0.99880    0.24320    1.000
    O9       O        0.43800    0.84710    0.04370    1.000
    O10      O        0.65100    0.06150    0.95730    1.000
    O11      O        0.44230    0.76510    0.20500    1.000
    O12      O        0.57500    0.29420    0.18760    1.000
    O13      O        0.29320    0.92000    0.31450    1.000
    O14      O        0.76850    0.05780    0.29500    1.000
    Fe3      Fe       0.12270    0.87740    0.34260    1.000
    P3       P        0.89990    0.09950    0.30390    1.000
    O15      O        0.99900    0.00120    0.25680    1.000
    O16      O        0.93800    0.15290    0.45630    1.000
    O17      O        0.15100    0.93850    0.54270    1.000
    O18      O        0.94230    0.23490    0.29500    1.000
    O19      O        0.07500    0.70580    0.31240    1.000
    O20      O        0.79320    0.08000    0.18550    1.000
    O21      O        0.26850    0.94220    0.20500    1.000
    Fe4      Fe       0.37730    0.62260    0.34260    1.000
    P4       P        0.60010    0.40050    0.30390    1.000
    O22      O        0.50100    0.49880    0.25680    1.000
    O23      O        0.56200    0.34710    0.45630    1.000
    O24      O        0.34900    0.56150    0.54270    1.000
    O25      O        0.55770    0.26510    0.29500    1.000
    O26      O        0.42500    0.79420    0.31240    1.000
    O27      O        0.70680    0.42000    0.18550    1.000
    O28      O        0.23150    0.55780    0.20500    1.000
    Fe5      Fe       0.12270    0.62260    0.84260    1.000
    P5       P        0.89990    0.40050    0.80390    1.000
    O29      O        0.99900    0.49880    0.75680    1.000
    O30      O        0.93800    0.34710    0.95630    1.000
    O31      O        0.15100    0.56150    0.04270    1.000
    O32      O        0.94230    0.26510    0.79500    1.000
    O33      O        0.07500    0.79420    0.81240    1.000
    O34      O        0.79320    0.42000    0.68550    1.000
    O35      O        0.26850    0.55780    0.70500    1.000
    Fe6      Fe       0.37730    0.87740    0.84260    1.000
    P6       P        0.60010    0.09950    0.80390    1.000
    O36      O        0.50100    0.00120    0.75680    1.000
    O37      O        0.56200    0.15290    0.95630    1.000
    O38      O        0.34900    0.93850    0.04270    1.000
    O39      O        0.55770    0.23490    0.79500    1.000
    O40      O        0.42500    0.70580    0.81240    1.000
    O41      O        0.70680    0.08000    0.68550    1.000
    O42      O        0.23150    0.94220    0.70500    1.000
    Fe7      Fe       0.87730    0.12260    0.65740    1.000
    P7       P        0.10010    0.90050    0.69610    1.000
    O43      O        0.00100    0.99880    0.74320    1.000
    O44      O        0.06200    0.84710    0.54370    1.000
    O45      O        0.84900    0.06150    0.45730    1.000
    O46      O        0.05770    0.76510    0.70500    1.000
    O47      O        0.92500    0.29420    0.68760    1.000
    O48      O        0.20680    0.92000    0.81450    1.000
    O49      O        0.73150    0.05780    0.79500    1.000
    Fe8      Fe       0.62270    0.37740    0.65740    1.000
    P8       P        0.39990    0.59950    0.69610    1.000
    O50      O        0.49900    0.50120    0.74320    1.000
    O51      O        0.43800    0.65290    0.54370    1.000
    O52      O        0.65100    0.43850    0.45730    1.000
    O53      O        0.44230    0.73490    0.70500    1.000
    O54      O        0.57500    0.20580    0.68760    1.000
    O55      O        0.29320    0.58000    0.81450    1.000
    O56      O        0.76850    0.44220    0.79500    1.000
