data_functionalizedCrystal
_audit_creation_method	'EQeq! by Chris Wilmer'
_symmetry_space_group_name_H-M	'P1'
_symmetry_Int_Tables_number	1
_symmetry_cell_setting	triclinic
loop_
_symmetry_equiv_pos_as_xyz
  x,y,z
_cell_length_a	28.123
_cell_length_b	28.123
_cell_length_c	14.436
_cell_angle_alpha	90
_cell_angle_beta	90
_cell_angle_gamma	120
loop_
_atom_site_label
_atom_site_type_symbol
_atom_site_fract_x
_atom_site_fract_y
_atom_site_fract_z
_atom_site_charge
Mof_Ag	Ag	0.7996	0.07384	0.3967	0.577
Mof_N 	N 	0.7432	0.8808	0.5484	-0.173
Mof_C 	C 	0.7579	0.8916	0.4586	-0.052
Mof_H 	H 	0.757	0.8637	0.4202	0.028
Mof_N 	N 	0.7512	0.014	0.2808	-0.185
Mof_C 	C 	0.7451	0.92	0.5962	0.018
Mof_H 	H 	0.7366	0.9135	0.6603	-0.005
Mof_N 	N 	0.6769	0.9349	0.1579	-0.152
Mof_N 	N 	0.7757	0.984	0.4724	-0.17
Mof_C 	C 	0.6772	0.9821	0.1683	0.002
Mof_H 	H 	0.6522	0.9885	0.1338	0.017
Mof_C 	C 	0.749	0.9663	0.2653	0.108
Mof_C 	C 	0.7148	0.927	0.2052	-0.063
Mof_H 	H 	0.7169	0.8947	0.196	0.033
Mof_C 	C 	0.7752	0.9461	0.4199	0.118
Mof_C 	C 	0.7924	0.9579	0.3241	-0.258
Mof_H 	H 	0.7956	0.9271	0.2977	0.088
Mof_H 	H 	0.8289	0.9915	0.3206	0.077
Mof_C 	C 	0.7586	0.971	0.5617	-0.013
Mof_H 	H 	0.7559	0.997	0.6002	0.022
Mof_C 	C 	0.7124	0.0208	0.2268	-0.012
Mof_H 	H 	0.7115	0.054	0.2325	0.009
Mof_Ag	Ag	0.46627	0.40717	0.73003	0.576
Mof_N 	N 	0.40987	0.21413	0.88173	-0.174
Mof_C 	C 	0.42457	0.22493	0.79193	-0.053
Mof_H 	H 	0.42367	0.19703	0.75353	0.027
Mof_N 	N 	0.41787	0.34733	0.61413	-0.186
Mof_C 	C 	0.41177	0.25333	0.92953	0.017
Mof_H 	H 	0.40327	0.24683	0.99363	-0.006
Mof_N 	N 	0.34357	0.26823	0.49123	-0.153
Mof_N 	N 	0.44237	0.31733	0.80573	-0.171
Mof_C 	C 	0.34387	0.31543	0.50163	0.002
Mof_H 	H 	0.31887	0.32183	0.46713	0.016
Mof_C 	C 	0.41567	0.29963	0.59863	0.108
Mof_C 	C 	0.38147	0.26033	0.53853	-0.064
Mof_H 	H 	0.38357	0.22803	0.52933	0.032
Mof_C 	C 	0.44187	0.27943	0.75323	0.118
Mof_C 	C 	0.45907	0.29123	0.65743	-0.258
Mof_H 	H 	0.46227	0.26043	0.63103	0.088
Mof_H 	H 	0.49557	0.32483	0.65393	0.077
Mof_C 	C 	0.42527	0.30433	0.89503	-0.013
Mof_H 	H 	0.42257	0.33033	0.93353	0.021
Mof_C 	C 	0.37907	0.35413	0.56013	-0.013
Mof_H 	H 	0.37817	0.38733	0.56583	0.009
Mof_Ag	Ag	0.13293	0.74051	0.06337	0.575
Mof_N 	N 	0.07653	0.54747	0.21507	-0.174
Mof_C 	C 	0.09123	0.55827	0.12527	-0.053
Mof_H 	H 	0.09033	0.53037	0.08687	0.027
Mof_N 	N 	0.08453	0.68067	0.94747	-0.186
Mof_C 	C 	0.07843	0.58667	0.26287	0.017
Mof_H 	H 	0.06993	0.58017	0.32697	-0.006
Mof_N 	N 	0.01023	0.60157	0.82457	-0.153
Mof_N 	N 	0.10903	0.65067	0.13907	-0.171
Mof_C 	C 	0.01053	0.64877	0.83497	0.003
Mof_H 	H 	0.98553	0.65517	0.80047	0.015
Mof_C 	C 	0.08233	0.63297	0.93197	0.108
Mof_C 	C 	0.04813	0.59367	0.87187	-0.063
Mof_H 	H 	0.05023	0.56137	0.86267	0.032
Mof_C 	C 	0.10853	0.61277	0.08657	0.117
Mof_C 	C 	0.12573	0.62457	0.99077	-0.257
Mof_H 	H 	0.12893	0.59377	0.96437	0.087
Mof_H 	H 	0.16223	0.65817	0.98727	0.077
Mof_C 	C 	0.09193	0.63767	0.22837	-0.013
Mof_H 	H 	0.08923	0.66367	0.26687	0.021
Mof_C 	C 	0.04573	0.68747	0.89347	-0.014
Mof_H 	H 	0.04483	0.72067	0.89917	0.01
Mof_Ag	Ag	0.92616	0.72576	0.3967	0.576
Mof_N 	N 	0.1192	0.8624	0.5484	-0.174
Mof_C 	C 	0.1084	0.8663	0.4586	-0.053
Mof_H 	H 	0.1363	0.8933	0.4202	0.027
Mof_N 	N 	0.986	0.7372	0.2808	-0.186
Mof_C 	C 	0.08	0.8251	0.5962	0.017
Mof_H 	H 	0.0865	0.8231	0.6603	-0.006
Mof_N 	N 	0.0651	0.742	0.1579	-0.153
Mof_N 	N 	0.016	0.7917	0.4724	-0.171
Mof_C 	C 	0.0179	0.6951	0.1683	0.001
Mof_H 	H 	0.0115	0.6637	0.1338	0.016
Mof_C 	C 	0.0337	0.7827	0.2653	0.107
Mof_C 	C 	0.073	0.7878	0.2052	-0.064
Mof_H 	H 	0.1053	0.8222	0.196	0.032
Mof_C 	C 	0.0539	0.8291	0.4199	0.118
Mof_C 	C 	0.0421	0.8345	0.3241	-0.258
Mof_H 	H 	0.0729	0.8685	0.2977	0.087
Mof_H 	H 	0.0085	0.8374	0.3206	0.077
Mof_C 	C 	0.029	0.7876	0.5617	-0.013
Mof_H 	H 	0.003	0.7589	0.6002	0.022
Mof_C 	C 	0.9792	0.6916	0.2268	-0.012
Mof_H 	H 	0.946	0.6575	0.2325	0.009
Mof_Ag	Ag	0.59283	0.05909	0.73003	0.575
Mof_N 	N 	0.78587	0.19573	0.88173	-0.174
Mof_C 	C 	0.77507	0.19963	0.79193	-0.053
Mof_H 	H 	0.80297	0.22663	0.75353	0.027
Mof_N 	N 	0.65267	0.07053	0.61413	-0.186
Mof_C 	C 	0.74667	0.15843	0.92953	0.017
Mof_H 	H 	0.75317	0.15643	0.99363	-0.007
Mof_N 	N 	0.73177	0.07533	0.49123	-0.153
Mof_N 	N 	0.68267	0.12503	0.80573	-0.171
Mof_C 	C 	0.68457	0.02843	0.50163	0.002
Mof_H 	H 	0.67817	0.99703	0.46713	0.016
Mof_C 	C 	0.70037	0.11603	0.59863	0.108
Mof_C 	C 	0.73967	0.12113	0.53853	-0.064
Mof_H 	H 	0.77197	0.15553	0.52933	0.032
Mof_C 	C 	0.72057	0.16243	0.75323	0.118
Mof_C 	C 	0.70877	0.16783	0.65743	-0.258
Mof_H 	H 	0.73957	0.20183	0.63103	0.088
Mof_H 	H 	0.67517	0.17073	0.65393	0.077
Mof_C 	C 	0.69567	0.12093	0.89503	-0.013
Mof_H 	H 	0.66967	0.09223	0.93353	0.021
Mof_C 	C 	0.64587	0.02493	0.56013	-0.014
Mof_H 	H 	0.61267	0.99083	0.56583	0.009
Mof_Ag	Ag	0.25949	0.39243	0.06337	0.576
Mof_N 	N 	0.45253	0.52907	0.21507	-0.174
Mof_C 	C 	0.44173	0.53297	0.12527	-0.053
Mof_H 	H 	0.46963	0.55997	0.08687	0.027
Mof_N 	N 	0.31933	0.40387	0.94747	-0.186
Mof_C 	C 	0.41333	0.49177	0.26287	0.017
Mof_H 	H 	0.41983	0.48977	0.32697	-0.006
Mof_N 	N 	0.39843	0.40867	0.82457	-0.153
Mof_N 	N 	0.34933	0.45837	0.13907	-0.171
Mof_C 	C 	0.35123	0.36177	0.83497	0.002
Mof_H 	H 	0.34483	0.33037	0.80047	0.016
Mof_C 	C 	0.36703	0.44937	0.93197	0.108
Mof_C 	C 	0.40633	0.45447	0.87187	-0.064
Mof_H 	H 	0.43863	0.48887	0.86267	0.032
Mof_C 	C 	0.38723	0.49577	0.08657	0.118
Mof_C 	C 	0.37543	0.50117	0.99077	-0.258
Mof_H 	H 	0.40623	0.53517	0.96437	0.088
Mof_H 	H 	0.34183	0.50407	0.98727	0.077
Mof_C 	C 	0.36233	0.45427	0.22837	-0.013
Mof_H 	H 	0.33633	0.42557	0.26687	0.021
Mof_C 	C 	0.31253	0.35827	0.89347	-0.013
Mof_H 	H 	0.27933	0.32417	0.89917	0.009
Mof_Ag	Ag	0.27424	0.2004	0.3967	0.576
Mof_N 	N 	0.1376	0.2568	0.5484	-0.174
Mof_C 	C 	0.1337	0.2421	0.4586	-0.053
Mof_H 	H 	0.1067	0.243	0.4202	0.027
Mof_N 	N 	0.2628	0.2488	0.2808	-0.186
Mof_C 	C 	0.1749	0.2549	0.5962	0.017
Mof_H 	H 	0.1769	0.2634	0.6603	-0.006
Mof_N 	N 	0.258	0.3231	0.1579	-0.153
Mof_N 	N 	0.2083	0.2243	0.4724	-0.171
Mof_C 	C 	0.3049	0.3228	0.1683	0.002
Mof_H 	H 	0.3363	0.3478	0.1338	0.016
Mof_C 	C 	0.2173	0.251	0.2653	0.108
Mof_C 	C 	0.2122	0.2852	0.2052	-0.064
Mof_H 	H 	0.1778	0.2831	0.196	0.032
Mof_C 	C 	0.1709	0.2248	0.4199	0.118
Mof_C 	C 	0.1655	0.2076	0.3241	-0.258
Mof_H 	H 	0.1315	0.2044	0.2977	0.088
Mof_H 	H 	0.1626	0.1711	0.3206	0.077
Mof_C 	C 	0.2124	0.2414	0.5617	-0.013
Mof_H 	H 	0.2411	0.2441	0.6002	0.021
Mof_C 	C 	0.3084	0.2876	0.2268	-0.013
Mof_H 	H 	0.3425	0.2885	0.2325	0.009
Mof_Ag	Ag	0.94091	0.53373	0.73003	0.575
Mof_N 	N 	0.80427	0.59013	0.88173	-0.174
Mof_C 	C 	0.80037	0.57543	0.79193	-0.053
Mof_H 	H 	0.77337	0.57633	0.75353	0.027
Mof_N 	N 	0.92947	0.58213	0.61413	-0.186
Mof_C 	C 	0.84157	0.58823	0.92953	0.017
Mof_H 	H 	0.84357	0.59673	0.99363	-0.006
Mof_N 	N 	0.92467	0.65643	0.49123	-0.153
Mof_N 	N 	0.87497	0.55763	0.80573	-0.171
Mof_C 	C 	0.97157	0.65613	0.50163	0.002
Mof_H 	H 	0.00297	0.68113	0.46713	0.016
Mof_C 	C 	0.88397	0.58433	0.59863	0.108
Mof_C 	C 	0.87887	0.61853	0.53853	-0.064
Mof_H 	H 	0.84447	0.61643	0.52933	0.032
Mof_C 	C 	0.83757	0.55813	0.75323	0.118
Mof_C 	C 	0.83217	0.54093	0.65743	-0.258
Mof_H 	H 	0.79817	0.53773	0.63103	0.088
Mof_H 	H 	0.82927	0.50443	0.65393	0.077
Mof_C 	C 	0.87907	0.57473	0.89503	-0.013
Mof_H 	H 	0.90777	0.57743	0.93353	0.021
Mof_C 	C 	0.97507	0.62093	0.56013	-0.014
Mof_H 	H 	0.00917	0.62183	0.56583	0.009
Mof_Ag	Ag	0.60757	0.86707	0.06337	0.575
Mof_N 	N 	0.47093	0.92347	0.21507	-0.174
Mof_C 	C 	0.46703	0.90877	0.12527	-0.053
Mof_H 	H 	0.44003	0.90967	0.08687	0.027
Mof_N 	N 	0.59613	0.91547	0.94747	-0.186
Mof_C 	C 	0.50823	0.92157	0.26287	0.017
Mof_H 	H 	0.51023	0.93007	0.32697	-0.006
Mof_N 	N 	0.59133	0.98977	0.82457	-0.153
Mof_N 	N 	0.54163	0.89097	0.13907	-0.171
Mof_C 	C 	0.63823	0.98947	0.83497	0.003
Mof_H 	H 	0.66963	0.01447	0.80047	0.015
Mof_C 	C 	0.55063	0.91767	0.93197	0.108
Mof_C 	C 	0.54553	0.95187	0.87187	-0.063
Mof_H 	H 	0.51113	0.94977	0.86267	0.032
Mof_C 	C 	0.50423	0.89147	0.08657	0.117
Mof_C 	C 	0.49883	0.87427	0.99077	-0.257
Mof_H 	H 	0.46483	0.87107	0.96437	0.088
Mof_H 	H 	0.49593	0.83777	0.98727	0.077
Mof_C 	C 	0.54573	0.90807	0.22837	-0.013
Mof_H 	H 	0.57443	0.91077	0.26687	0.021
Mof_C 	C 	0.64173	0.95427	0.89347	-0.014
Mof_H 	H 	0.67583	0.95517	0.89917	0.01
Mof_Ag	Ag	0.2004	0.92616	0.6033	0.576
Mof_N 	N 	0.2568	0.1192	0.4516	-0.174
Mof_C 	C 	0.2421	0.1084	0.5414	-0.053
Mof_H 	H 	0.243	0.1363	0.5798	0.027
Mof_N 	N 	0.2488	0.986	0.7192	-0.186
Mof_C 	C 	0.2549	0.08	0.4038	0.017
Mof_H 	H 	0.2634	0.0865	0.3397	-0.006
Mof_N 	N 	0.3231	0.0651	0.8421	-0.153
Mof_N 	N 	0.2243	0.016	0.5276	-0.171
Mof_C 	C 	0.3228	0.0179	0.8317	0.001
Mof_H 	H 	0.3478	0.0115	0.8662	0.016
Mof_C 	C 	0.251	0.0337	0.7347	0.107
Mof_C 	C 	0.2852	0.073	0.7948	-0.064
Mof_H 	H 	0.2831	0.1053	0.804	0.032
Mof_C 	C 	0.2248	0.0539	0.5801	0.118
Mof_C 	C 	0.2076	0.0421	0.6759	-0.258
Mof_H 	H 	0.2044	0.0729	0.7023	0.088
Mof_H 	H 	0.1711	0.0085	0.6794	0.077
Mof_C 	C 	0.2414	0.029	0.4383	-0.013
Mof_H 	H 	0.2441	0.003	0.3998	0.022
Mof_C 	C 	0.2876	0.9792	0.7732	-0.012
Mof_H 	H 	0.2885	0.946	0.7675	0.009
Mof_Ag	Ag	0.86707	0.25949	0.93663	0.575
Mof_N 	N 	0.92347	0.45253	0.78493	-0.174
Mof_C 	C 	0.90877	0.44173	0.87473	-0.053
Mof_H 	H 	0.90967	0.46963	0.91313	0.027
Mof_N 	N 	0.91547	0.31933	0.05253	-0.186
Mof_C 	C 	0.92157	0.41333	0.73713	0.017
Mof_H 	H 	0.93007	0.41983	0.67303	-0.006
Mof_N 	N 	0.98977	0.39843	0.17543	-0.153
Mof_N 	N 	0.89097	0.34933	0.86093	-0.171
Mof_C 	C 	0.98947	0.35123	0.16503	0.003
Mof_H 	H 	0.01447	0.34483	0.19953	0.015
Mof_C 	C 	0.91767	0.36703	0.06803	0.108
Mof_C 	C 	0.95187	0.40633	0.12813	-0.063
Mof_H 	H 	0.94977	0.43863	0.13733	0.032
Mof_C 	C 	0.89147	0.38723	0.91343	0.117
Mof_C 	C 	0.87427	0.37543	0.00923	-0.257
Mof_H 	H 	0.87107	0.40623	0.03563	0.087
Mof_H 	H 	0.83777	0.34183	0.01273	0.077
Mof_C 	C 	0.90807	0.36233	0.77163	-0.013
Mof_H 	H 	0.91077	0.33633	0.73313	0.021
Mof_C 	C 	0.95427	0.31253	0.10653	-0.014
Mof_H 	H 	0.95517	0.27933	0.10083	0.01
Mof_Ag	Ag	0.53373	0.59283	0.26997	0.576
Mof_N 	N 	0.59013	0.78587	0.11827	-0.174
Mof_C 	C 	0.57543	0.77507	0.20807	-0.053
Mof_H 	H 	0.57633	0.80297	0.24647	0.027
Mof_N 	N 	0.58213	0.65267	0.38587	-0.186
Mof_C 	C 	0.58823	0.74667	0.07047	0.017
Mof_H 	H 	0.59673	0.75317	0.00637	-0.006
Mof_N 	N 	0.65643	0.73177	0.50877	-0.153
Mof_N 	N 	0.55763	0.68267	0.19427	-0.171
Mof_C 	C 	0.65613	0.68457	0.49837	0.002
Mof_H 	H 	0.68113	0.67817	0.53287	0.016
Mof_C 	C 	0.58433	0.70037	0.40137	0.108
Mof_C 	C 	0.61853	0.73967	0.46147	-0.064
Mof_H 	H 	0.61643	0.77197	0.47067	0.032
Mof_C 	C 	0.55813	0.72057	0.24677	0.118
Mof_C 	C 	0.54093	0.70877	0.34257	-0.258
Mof_H 	H 	0.53773	0.73957	0.36897	0.088
Mof_H 	H 	0.50443	0.67517	0.34607	0.077
Mof_C 	C 	0.57473	0.69567	0.10497	-0.013
Mof_H 	H 	0.57743	0.66967	0.06647	0.021
Mof_C 	C 	0.62093	0.64587	0.43987	-0.013
Mof_H 	H 	0.62183	0.61267	0.43417	0.009
Mof_Ag	Ag	0.07384	0.27424	0.6033	0.576
Mof_N 	N 	0.8808	0.1376	0.4516	-0.174
Mof_C 	C 	0.8916	0.1337	0.5414	-0.053
Mof_H 	H 	0.8637	0.1067	0.5798	0.027
Mof_N 	N 	0.014	0.2628	0.7192	-0.186
Mof_C 	C 	0.92	0.1749	0.4038	0.017
Mof_H 	H 	0.9135	0.1769	0.3397	-0.006
Mof_N 	N 	0.9349	0.258	0.8421	-0.153
Mof_N 	N 	0.984	0.2083	0.5276	-0.171
Mof_C 	C 	0.9821	0.3049	0.8317	0.001
Mof_H 	H 	0.9885	0.3363	0.8662	0.016
Mof_C 	C 	0.9663	0.2173	0.7347	0.107
Mof_C 	C 	0.927	0.2122	0.7948	-0.064
Mof_H 	H 	0.8947	0.1778	0.804	0.032
Mof_C 	C 	0.9461	0.1709	0.5801	0.118
Mof_C 	C 	0.9579	0.1655	0.6759	-0.258
Mof_H 	H 	0.9271	0.1315	0.7023	0.087
Mof_H 	H 	0.9915	0.1626	0.6794	0.077
Mof_C 	C 	0.971	0.2124	0.4383	-0.013
Mof_H 	H 	0.997	0.2411	0.3998	0.022
Mof_C 	C 	0.0208	0.3084	0.7732	-0.012
Mof_H 	H 	0.054	0.3425	0.7675	0.009
Mof_Ag	Ag	0.74051	0.60757	0.93663	0.576
Mof_N 	N 	0.54747	0.47093	0.78493	-0.174
Mof_C 	C 	0.55827	0.46703	0.87473	-0.053
Mof_H 	H 	0.53037	0.44003	0.91313	0.027
Mof_N 	N 	0.68067	0.59613	0.05253	-0.186
Mof_C 	C 	0.58667	0.50823	0.73713	0.017
Mof_H 	H 	0.58017	0.51023	0.67303	-0.006
Mof_N 	N 	0.60157	0.59133	0.17543	-0.153
Mof_N 	N 	0.65067	0.54163	0.86093	-0.171
Mof_C 	C 	0.64877	0.63823	0.16503	0.002
Mof_H 	H 	0.65517	0.66963	0.19953	0.016
Mof_C 	C 	0.63297	0.55063	0.06803	0.108
Mof_C 	C 	0.59367	0.54553	0.12813	-0.064
Mof_H 	H 	0.56137	0.51113	0.13733	0.032
Mof_C 	C 	0.61277	0.50423	0.91343	0.118
Mof_C 	C 	0.62457	0.49883	0.00923	-0.258
Mof_H 	H 	0.59377	0.46483	0.03563	0.088
Mof_H 	H 	0.65817	0.49593	0.01273	0.077
Mof_C 	C 	0.63767	0.54573	0.77163	-0.013
Mof_H 	H 	0.66367	0.57443	0.73313	0.021
Mof_C 	C 	0.68747	0.64173	0.10653	-0.013
Mof_H 	H 	0.72067	0.67583	0.10083	0.009
Mof_Ag	Ag	0.40717	0.94091	0.26997	0.575
Mof_N 	N 	0.21413	0.80427	0.11827	-0.174
Mof_C 	C 	0.22493	0.80037	0.20807	-0.053
Mof_H 	H 	0.19703	0.77337	0.24647	0.027
Mof_N 	N 	0.34733	0.92947	0.38587	-0.186
Mof_C 	C 	0.25333	0.84157	0.07047	0.017
Mof_H 	H 	0.24683	0.84357	0.00637	-0.007
Mof_N 	N 	0.26823	0.92467	0.50877	-0.153
Mof_N 	N 	0.31733	0.87497	0.19427	-0.171
Mof_C 	C 	0.31543	0.97157	0.49837	0.002
Mof_H 	H 	0.32183	0.00297	0.53287	0.016
Mof_C 	C 	0.29963	0.88397	0.40137	0.108
Mof_C 	C 	0.26033	0.87887	0.46147	-0.064
Mof_H 	H 	0.22803	0.84447	0.47067	0.032
Mof_C 	C 	0.27943	0.83757	0.24677	0.118
Mof_C 	C 	0.29123	0.83217	0.34257	-0.258
Mof_H 	H 	0.26043	0.79817	0.36897	0.088
Mof_H 	H 	0.32483	0.82927	0.34607	0.077
Mof_C 	C 	0.30433	0.87907	0.10497	-0.013
Mof_H 	H 	0.33033	0.90777	0.06647	0.021
Mof_C 	C 	0.35413	0.97507	0.43987	-0.014
Mof_H 	H 	0.38733	0.00917	0.43417	0.009
Mof_Ag	Ag	0.72576	0.7996	0.6033	0.576
Mof_N 	N 	0.8624	0.7432	0.4516	-0.174
Mof_C 	C 	0.8663	0.7579	0.5414	-0.053
Mof_H 	H 	0.8933	0.757	0.5798	0.027
Mof_N 	N 	0.7372	0.7512	0.7192	-0.186
Mof_C 	C 	0.8251	0.7451	0.4038	0.017
Mof_H 	H 	0.8231	0.7366	0.3397	-0.006
Mof_N 	N 	0.742	0.6769	0.8421	-0.153
Mof_N 	N 	0.7917	0.7757	0.5276	-0.171
Mof_C 	C 	0.6951	0.6772	0.8317	0.002
Mof_H 	H 	0.6637	0.6522	0.8662	0.016
Mof_C 	C 	0.7827	0.749	0.7347	0.108
Mof_C 	C 	0.7878	0.7148	0.7948	-0.064
Mof_H 	H 	0.8222	0.7169	0.804	0.032
Mof_C 	C 	0.8291	0.7752	0.5801	0.118
Mof_C 	C 	0.8345	0.7924	0.6759	-0.258
Mof_H 	H 	0.8685	0.7956	0.7023	0.088
Mof_H 	H 	0.8374	0.8289	0.6794	0.077
Mof_C 	C 	0.7876	0.7586	0.4383	-0.013
Mof_H 	H 	0.7589	0.7559	0.3998	0.021
Mof_C 	C 	0.6916	0.7124	0.7732	-0.013
Mof_H 	H 	0.6575	0.7115	0.7675	0.009
Mof_Ag	Ag	0.39243	0.13293	0.93663	0.575
Mof_N 	N 	0.52907	0.07653	0.78493	-0.174
Mof_C 	C 	0.53297	0.09123	0.87473	-0.053
Mof_H 	H 	0.55997	0.09033	0.91313	0.027
Mof_N 	N 	0.40387	0.08453	0.05253	-0.186
Mof_C 	C 	0.49177	0.07843	0.73713	0.017
Mof_H 	H 	0.48977	0.06993	0.67303	-0.006
Mof_N 	N 	0.40867	0.01023	0.17543	-0.153
Mof_N 	N 	0.45837	0.10903	0.86093	-0.171
Mof_C 	C 	0.36177	0.01053	0.16503	0.003
Mof_H 	H 	0.33037	0.98553	0.19953	0.015
Mof_C 	C 	0.44937	0.08233	0.06803	0.108
Mof_C 	C 	0.45447	0.04813	0.12813	-0.063
Mof_H 	H 	0.48887	0.05023	0.13733	0.032
Mof_C 	C 	0.49577	0.10853	0.91343	0.117
Mof_C 	C 	0.50117	0.12573	0.00923	-0.257
Mof_H 	H 	0.53517	0.12893	0.03563	0.088
Mof_H 	H 	0.50407	0.16223	0.01273	0.077
Mof_C 	C 	0.45427	0.09193	0.77163	-0.013
Mof_H 	H 	0.42557	0.08923	0.73313	0.021
Mof_C 	C 	0.35827	0.04573	0.10653	-0.014
Mof_H 	H 	0.32417	0.04483	0.10083	0.01
Mof_Ag	Ag	0.05909	0.46627	0.26997	0.575
Mof_N 	N 	0.19573	0.40987	0.11827	-0.174
Mof_C 	C 	0.19963	0.42457	0.20807	-0.053
Mof_H 	H 	0.22663	0.42367	0.24647	0.027
Mof_N 	N 	0.07053	0.41787	0.38587	-0.186
Mof_C 	C 	0.15843	0.41177	0.07047	0.017
Mof_H 	H 	0.15643	0.40327	0.00637	-0.006
Mof_N 	N 	0.07533	0.34357	0.50877	-0.153
Mof_N 	N 	0.12503	0.44237	0.19427	-0.171
Mof_C 	C 	0.02843	0.34387	0.49837	0.002
Mof_H 	H 	0.99703	0.31887	0.53287	0.016
Mof_C 	C 	0.11603	0.41567	0.40137	0.108
Mof_C 	C 	0.12113	0.38147	0.46147	-0.064
Mof_H 	H 	0.15553	0.38357	0.47067	0.032
Mof_C 	C 	0.16243	0.44187	0.24677	0.118
Mof_C 	C 	0.16783	0.45907	0.34257	-0.258
Mof_H 	H 	0.20183	0.46227	0.36897	0.088
Mof_H 	H 	0.17073	0.49557	0.34607	0.077
Mof_C 	C 	0.12093	0.42527	0.10497	-0.013
Mof_H 	H 	0.09223	0.42257	0.06647	0.021
Mof_C 	C 	0.02493	0.37907	0.43987	-0.014
Mof_H 	H 	0.99083	0.37817	0.43417	0.009
_end
