data_functionalizedCrystal
_audit_creation_method	'EQeq! by Chris Wilmer'
_symmetry_space_group_name_H-M	'P1'
_symmetry_Int_Tables_number	1
_symmetry_cell_setting	triclinic
loop_
_symmetry_equiv_pos_as_xyz
  x,y,z
_cell_length_a	11.269
_cell_length_b	13.1064
_cell_length_c	13.1064
_cell_angle_alpha	90
_cell_angle_beta	90
_cell_angle_gamma	90
loop_
_atom_site_label
_atom_site_type_symbol
_atom_site_fract_x
_atom_site_fract_y
_atom_site_fract_z
_atom_site_charge
Mof_Zn	Zn	-4.33994e-33	0	0.5	1.213
Mof_Zn	Zn	0.5	0.5	-0	1.226
Mof_H 	H 	0.2643	0.7682	0.556	0.076
Mof_H 	H 	0.4288	0.6718	0.6003	0.05
Mof_H 	H 	0.4973	0.8611	0.8237	0.041
Mof_H 	H 	0.3318	0.9547	0.7867	0.084
Mof_H 	H 	0.5903	0.6951	0.8194	0.078
Mof_H 	H 	0.5776	0.6293	0.7199	0.077
Mof_H 	H 	0.6926	0.8208	0.7165	0.085
Mof_H 	H 	0.6959	0.7391	0.629	0.082
Mof_H 	H 	0.2643	0.2318	0.444	0.085
Mof_H 	H 	0.4288	0.3282	0.3997	0.047
Mof_H 	H 	0.4973	0.1389	0.1763	0.018
Mof_H 	H 	0.3318	0.0453	0.2133	0.059
Mof_H 	H 	0.5903	0.3049	0.1806	0.074
Mof_H 	H 	0.5776	0.3707	0.2801	0.076
Mof_H 	H 	0.6926	0.1792	0.2835	0.076
Mof_H 	H 	0.6959	0.2609	0.371	0.08
Mof_H 	H 	0.7643	0.444	0.7682	0.078
Mof_H 	H 	0.9288	0.3997	0.6718	0.061
Mof_H 	H 	0.9973	0.1763	0.8611	0.048
Mof_H 	H 	0.8318	0.2133	0.9547	0.081
Mof_H 	H 	0.0903	0.1806	0.6951	0.075
Mof_H 	H 	0.0776	0.2801	0.6293	0.076
Mof_H 	H 	0.1926	0.2835	0.8208	0.075
Mof_H 	H 	0.1959	0.371	0.7391	0.076
Mof_H 	H 	0.7643	0.556	0.2318	0.085
Mof_H 	H 	0.9288	0.6003	0.3282	0.057
Mof_H 	H 	0.9973	0.8237	0.1389	0.04
Mof_H 	H 	0.8318	0.7867	0.0453	0.07
Mof_H 	H 	0.0903	0.8194	0.3049	0.08
Mof_H 	H 	0.0776	0.7199	0.3707	0.079
Mof_H 	H 	0.1926	0.7165	0.1792	0.068
Mof_H 	H 	0.1959	0.629	0.2609	0.072
Mof_H 	H 	0.7357	0.2318	0.556	0.089
Mof_H 	H 	0.5712	0.3282	0.6003	0.046
Mof_H 	H 	0.5027	0.1389	0.8237	0.025
Mof_H 	H 	0.6682	0.0453	0.7867	0.07
Mof_H 	H 	0.4097	0.3049	0.8194	0.073
Mof_H 	H 	0.4224	0.3707	0.7199	0.073
Mof_H 	H 	0.3074	0.1792	0.7165	0.085
Mof_H 	H 	0.3041	0.2609	0.629	0.088
Mof_H 	H 	0.7357	0.7682	0.444	0.083
Mof_H 	H 	0.5712	0.6718	0.3997	0.049
Mof_H 	H 	0.5027	0.8611	0.1763	0.031
Mof_H 	H 	0.6682	0.9547	0.2133	0.081
Mof_H 	H 	0.4097	0.6951	0.1806	0.068
Mof_H 	H 	0.4224	0.6293	0.2801	0.069
Mof_H 	H 	0.3074	0.8208	0.2835	0.094
Mof_H 	H 	0.3041	0.7391	0.371	0.093
Mof_H 	H 	0.2357	0.556	0.7682	0.081
Mof_H 	H 	0.0712	0.6003	0.6718	0.039
Mof_H 	H 	0.0027	0.8237	0.8611	0.026
Mof_H 	H 	0.1682	0.7867	0.9547	0.084
Mof_H 	H 	0.9097	0.8194	0.6951	0.072
Mof_H 	H 	0.9224	0.7199	0.6293	0.071
Mof_H 	H 	0.8074	0.7165	0.8208	0.101
Mof_H 	H 	0.8041	0.629	0.7391	0.097
Mof_H 	H 	0.2357	0.444	0.2318	0.088
Mof_H 	H 	0.0712	0.3997	0.3282	0.036
Mof_H 	H 	0.0027	0.1763	0.1389	0.002
Mof_H 	H 	0.1682	0.2133	0.0453	0.059
Mof_H 	H 	0.9097	0.1806	0.3049	0.068
Mof_H 	H 	0.9224	0.2801	0.3707	0.071
Mof_H 	H 	0.8074	0.2835	0.1792	0.092
Mof_H 	H 	0.8041	0.371	0.2609	0.096
Mof_C 	C 	0.17	0.9347	0.64	0.383
Mof_C 	C 	0.2796	0.8707	0.6668	-0.021
Mof_C 	C 	0.3101	0.7872	0.6119	-0.039
Mof_C 	C 	0.4091	0.7294	0.6381	0.043
Mof_C 	C 	0.4484	0.8409	0.7702	0.051
Mof_C 	C 	0.3505	0.8977	0.7475	-0.047
Mof_C 	C 	0.584	0.6985	0.7457	-0.069
Mof_C 	C 	0.6945	0.7482	0.7024	-0.088
Mof_C 	C 	0.17	0.0653	0.36	0.27
Mof_C 	C 	0.2796	0.1293	0.3332	0.004
Mof_C 	C 	0.3101	0.2128	0.3881	-0.061
Mof_C 	C 	0.4091	0.2706	0.3619	0.053
Mof_C 	C 	0.4484	0.1591	0.2298	0.057
Mof_C 	C 	0.3505	0.1023	0.2525	-0.076
Mof_C 	C 	0.584	0.3015	0.2543	-0.07
Mof_C 	C 	0.6945	0.2518	0.2976	-0.085
Mof_C 	C 	0.67	0.36	0.9347	0.378
Mof_C 	C 	0.7796	0.3332	0.8707	-0.02
Mof_C 	C 	0.8101	0.3881	0.7872	-0.036
Mof_C 	C 	0.9091	0.3619	0.7294	0.045
Mof_C 	C 	0.9484	0.2298	0.8409	0.052
Mof_C 	C 	0.8505	0.2525	0.8977	-0.044
Mof_C 	C 	0.084	0.2543	0.6985	-0.104
Mof_C 	C 	0.1945	0.2976	0.7482	-0.081
Mof_C 	C 	0.67	0.64	0.0653	0.273
Mof_C 	C 	0.7796	0.6668	0.1293	0.006
Mof_C 	C 	0.8101	0.6119	0.2128	-0.058
Mof_C 	C 	0.9091	0.6381	0.2706	0.054
Mof_C 	C 	0.9484	0.7702	0.1591	0.06
Mof_C 	C 	0.8505	0.7475	0.1023	-0.07
Mof_C 	C 	0.084	0.7457	0.3015	-0.107
Mof_C 	C 	0.1945	0.7024	0.2518	-0.07
Mof_C 	C 	0.83	0.0653	0.64	0.271
Mof_C 	C 	0.7204	0.1293	0.6668	0.012
Mof_C 	C 	0.6899	0.2128	0.6119	-0.066
Mof_C 	C 	0.5909	0.2706	0.6381	0.057
Mof_C 	C 	0.5516	0.1591	0.7702	0.062
Mof_C 	C 	0.6495	0.1023	0.7475	-0.079
Mof_C 	C 	0.416	0.3015	0.7457	-0.056
Mof_C 	C 	0.3055	0.2518	0.7024	-0.114
Mof_C 	C 	0.83	0.9347	0.36	0.37
Mof_C 	C 	0.7204	0.8707	0.3332	-0.012
Mof_C 	C 	0.6899	0.7872	0.3881	-0.046
Mof_C 	C 	0.5909	0.7294	0.3619	0.048
Mof_C 	C 	0.5516	0.8409	0.2298	0.055
Mof_C 	C 	0.6495	0.8977	0.2525	-0.055
Mof_C 	C 	0.416	0.6985	0.2543	-0.048
Mof_C 	C 	0.3055	0.7482	0.2976	-0.127
Mof_C 	C 	0.33	0.64	0.9347	0.373
Mof_C 	C 	0.2204	0.6668	0.8707	-0.014
Mof_C 	C 	0.1899	0.6119	0.7872	-0.049
Mof_C 	C 	0.0909	0.6381	0.7294	0.046
Mof_C 	C 	0.0516	0.7702	0.8409	0.053
Mof_C 	C 	0.1495	0.7475	0.8977	-0.057
Mof_C 	C 	0.916	0.7457	0.6985	-0.019
Mof_C 	C 	0.8055	0.7024	0.7482	-0.129
Mof_C 	C 	0.33	0.36	0.0653	0.272
Mof_C 	C 	0.2204	0.3332	0.1293	0.009
Mof_C 	C 	0.1899	0.3881	0.2128	-0.069
Mof_C 	C 	0.0909	0.3619	0.2706	0.055
Mof_C 	C 	0.0516	0.2298	0.1591	0.058
Mof_C 	C 	0.1495	0.2525	0.1023	-0.084
Mof_C 	C 	0.916	0.2543	0.3015	-0.018
Mof_C 	C 	0.8055	0.2976	0.2518	-0.128
Mof_N 	N 	0.4756	0.7569	0.7173	-0.105
Mof_N 	N 	0.4756	0.2431	0.2827	-0.11
Mof_N 	N 	0.9756	0.2827	0.7569	-0.086
Mof_N 	N 	0.9756	0.7173	0.2431	-0.091
Mof_N 	N 	0.5244	0.2431	0.7173	-0.113
Mof_N 	N 	0.5244	0.7569	0.2827	-0.11
Mof_N 	N 	0.0244	0.7173	0.7569	-0.128
Mof_N 	N 	0.0244	0.2827	0.2431	-0.133
Mof_O 	O 	0.113	0.9044	0.5634	-0.439
Mof_O 	O 	0.146	0.0081	0.6954	-0.343
Mof_O 	O 	0.113	0.0956	0.4366	-0.433
Mof_O 	O 	0.146	0.9919	0.3046	-0.248
Mof_O 	O 	0.613	0.4366	0.9044	-0.429
Mof_O 	O 	0.646	0.3046	0.0081	-0.333
Mof_O 	O 	0.613	0.5634	0.0956	-0.422
Mof_O 	O 	0.646	0.6954	0.9919	-0.238
Mof_O 	O 	0.887	0.0956	0.5634	-0.406
Mof_O 	O 	0.854	0.9919	0.6954	-0.229
Mof_O 	O 	0.887	0.9044	0.4366	-0.414
Mof_O 	O 	0.854	0.0081	0.3046	-0.32
Mof_O 	O 	0.387	0.5634	0.9044	-0.428
Mof_O 	O 	0.354	0.6954	0.0081	-0.328
Mof_O 	O 	0.387	0.4366	0.0956	-0.422
Mof_O 	O 	0.354	0.3046	0.9919	-0.243
Mof_Cl	Cl	-6.52031e-33	0.5	-0	-0.349
Mof_O 	O 	0.0723	0.5627	0.0634	-0.032
Mof_O 	O 	0.0723	0.4373	0.9366	0.002
Mof_O 	O 	0.9277	0.4373	0.0634	0.003
Mof_O 	O 	0.9277	0.5627	0.9366	0.04
Mof_Cl	Cl	0.5	0	0.5	-0.286
Mof_O 	O 	0.5723	0.9366	0.5627	0.005
Mof_O 	O 	0.5723	0.0634	0.4373	-0.032
Mof_O 	O 	0.4277	0.0634	0.5627	-0.033
Mof_O 	O 	0.4277	0.9366	0.4373	0.005
Mof_Cl	Cl	0.75	0.5	0.5	-0.22
Mof_O 	O 	0.8211	0.5886	0.5021	-0.035
Mof_O 	O 	0.8211	0.4114	0.4979	-0.035
Mof_O 	O 	0.6789	0.5021	0.5886	-0.041
Mof_O 	O 	0.6789	0.4979	0.4114	-0.042
Mof_Cl	Cl	0.25	0.5	0.5	-0.216
Mof_O 	O 	0.3211	0.4979	0.5886	-0.043
Mof_O 	O 	0.3211	0.5021	0.4114	-0.043
Mof_O 	O 	0.1789	0.4114	0.5021	-0.05
Mof_O 	O 	0.1789	0.5886	0.4979	-0.049
_end
