# CIF file generated by openbabel 3.1.0, see https://openbabel.org
data_I
_chemical_name_common 'image0'
_cell_length_a 12.622
_cell_length_b 8.1157
_cell_length_c 23.634
_cell_angle_alpha 90
_cell_angle_beta 105.34
_cell_angle_gamma 90
_space_group_name_H-M_alt 'P 1'
_space_group_name_Hall 'P 1'
loop_
    _symmetry_equiv_pos_as_xyz
    x,y,z
loop_
    _atom_site_label
    _atom_site_type_symbol
    _atom_site_fract_x
    _atom_site_fract_y
    _atom_site_fract_z
    _atom_site_occupancy
    Bi1      Bi       0.40646    0.17291    0.13163    1.000
    Sm1      Sm       0.09413    0.99898    0.88543    1.000
    O1       O        0.33050    0.09240    0.02658    1.000
    O2       O        0.21080    0.90480    0.97881    1.000
    O3       O        0.59360    0.10090    0.16033    1.000
    O4       O        0.72340    0.98750    0.12525    1.000
    O5       O        0.48920    0.29910    0.22986    1.000
    O6       O        0.54870    0.25920    0.32678    1.000
    O7       O        0.22120    0.07040    0.12060    1.000
    O8       O        0.09560    0.04570    0.17155    1.000
    N1       N        0.44000    0.88050    0.10891    1.000
    N2       N        0.38730    0.99930    0.21460    1.000
    C1       C        0.34650    0.81490    0.06240    1.000
    H1       H        0.29160    0.76670    0.08070    1.000
    H2       H        0.37320    0.72600    0.04100    1.000
    C2       C        0.29220    0.94750    0.01937    1.000
    C3       C        0.54110    0.88870    0.08854    1.000
    H3       H        0.52270    0.93130    0.04790    1.000
    H4       H        0.57160    0.77630    0.08830    1.000
    C4       C        0.62720    0.99890    0.12751    1.000
    C5       C        0.46060    0.77840    0.16322    1.000
    H5       H        0.53670    0.79680    0.18730    1.000
    H6       H        0.45280    0.66030    0.15240    1.000
    C6       C        0.38040    0.82200    0.19889    1.000
    H7       H        0.30470    0.79560    0.17590    1.000
    H8       H        0.39700    0.75480    0.23510    1.000
    C7       C        0.47800    0.02890    0.26754    1.000
    H9       H        0.54350    0.96600    0.26450    1.000
    H10      H        0.45640    0.98860    0.30240    1.000
    C8       C        0.50690    0.21040    0.27532    1.000
    C9       C        0.28240    0.05390    0.22539    1.000
    H11      H        0.29150    0.16560    0.24290    1.000
    H12      H        0.26160    0.97800    0.25340    1.000
    C10      C        0.19200    0.05640    0.16790    1.000
    N3       N        0.56710    0.84110    0.42340    1.000
    O9       O        0.61290    0.81500    0.38340    1.000
    O10      O        0.50860    0.72800    0.43460    1.000
    O11      O        0.57590    0.97320    0.44880    1.000
    O12      O        0.13780    0.70100    0.88290    1.000
    O13      O        0.98800    0.82820    0.94500    1.000
    O14      O        0.54840    0.00100    0.46110    1.000
    Bi2      Bi       0.09354    0.67291    0.36837    1.000
    Sm2      Sm       0.40587    0.49898    0.61457    1.000
    O15      O        0.16950    0.59240    0.47342    1.000
    O16      O        0.28920    0.40480    0.52119    1.000
    O17      O        0.90640    0.60090    0.33967    1.000
    O18      O        0.77660    0.48750    0.37475    1.000
    O19      O        0.01080    0.79910    0.27014    1.000
    O20      O        0.95130    0.75920    0.17322    1.000
    O21      O        0.27880    0.57040    0.37940    1.000
    O22      O        0.40440    0.54570    0.32845    1.000
    N4       N        0.06000    0.38050    0.39109    1.000
    N5       N        0.11270    0.49930    0.28540    1.000
    C11      C        0.15350    0.31490    0.43760    1.000
    H13      H        0.20840    0.26670    0.41930    1.000
    H14      H        0.12680    0.22600    0.45900    1.000
    C12      C        0.20780    0.44750    0.48063    1.000
    C13      C        0.95890    0.38870    0.41146    1.000
    H15      H        0.97730    0.43130    0.45210    1.000
    H16      H        0.92840    0.27630    0.41170    1.000
    C14      C        0.87280    0.49890    0.37249    1.000
    C15      C        0.03940    0.27840    0.33678    1.000
    H17      H        0.96330    0.29680    0.31270    1.000
    H18      H        0.04720    0.16030    0.34760    1.000
    C16      C        0.11960    0.32200    0.30111    1.000
    H19      H        0.19530    0.29560    0.32410    1.000
    H20      H        0.10300    0.25480    0.26490    1.000
    C17      C        0.02200    0.52890    0.23246    1.000
    H21      H        0.95650    0.46600    0.23550    1.000
    H22      H        0.04360    0.48860    0.19760    1.000
    C18      C        0.99310    0.71040    0.22468    1.000
    C19      C        0.21760    0.55390    0.27461    1.000
    H23      H        0.20850    0.66560    0.25710    1.000
    H24      H        0.23840    0.47800    0.24660    1.000
    C20      C        0.30800    0.55640    0.33210    1.000
    N6       N        0.93290    0.34110    0.07660    1.000
    O23      O        0.88710    0.31500    0.11660    1.000
    O24      O        0.99140    0.22800    0.06540    1.000
    O25      O        0.92410    0.47320    0.05120    1.000
    O26      O        0.36220    0.20100    0.61710    1.000
    O27      O        0.51200    0.32820    0.55500    1.000
    O28      O        0.95160    0.50100    0.03890    1.000
    Bi3      Bi       0.59354    0.82709    0.86837    1.000
    Sm3      Sm       0.90587    0.00102    0.11457    1.000
    O29      O        0.66950    0.90760    0.97342    1.000
    O30      O        0.78920    0.09520    0.02119    1.000
    O31      O        0.40640    0.89910    0.83967    1.000
    O32      O        0.27660    0.01250    0.87475    1.000
    O33      O        0.51080    0.70090    0.77014    1.000
    O34      O        0.45130    0.74080    0.67322    1.000
    O35      O        0.77880    0.92960    0.87940    1.000
    O36      O        0.90440    0.95430    0.82845    1.000
    N7       N        0.56000    0.11950    0.89109    1.000
    N8       N        0.61270    0.00070    0.78540    1.000
    C21      C        0.65350    0.18510    0.93760    1.000
    H25      H        0.70840    0.23330    0.91930    1.000
    H26      H        0.62680    0.27400    0.95900    1.000
    C22      C        0.70780    0.05250    0.98063    1.000
    C23      C        0.45890    0.11130    0.91146    1.000
    H27      H        0.47730    0.06870    0.95210    1.000
    H28      H        0.42840    0.22370    0.91170    1.000
    C24      C        0.37280    0.00110    0.87249    1.000
    C25      C        0.53940    0.22160    0.83678    1.000
    H29      H        0.46330    0.20320    0.81270    1.000
    H30      H        0.54720    0.33970    0.84760    1.000
    C26      C        0.61960    0.17800    0.80111    1.000
    H31      H        0.69530    0.20440    0.82410    1.000
    H32      H        0.60300    0.24520    0.76490    1.000
    C27      C        0.52200    0.97110    0.73246    1.000
    H33      H        0.45650    0.03400    0.73550    1.000
    H34      H        0.54360    0.01140    0.69760    1.000
    C28      C        0.49310    0.78960    0.72468    1.000
    C29      C        0.71760    0.94610    0.77461    1.000
    H35      H        0.70850    0.83440    0.75710    1.000
    H36      H        0.73840    0.02200    0.74660    1.000
    C30      C        0.80800    0.94360    0.83210    1.000
    N9       N        0.43290    0.15890    0.57660    1.000
    O37      O        0.38710    0.18500    0.61660    1.000
    O38      O        0.49140    0.27200    0.56540    1.000
    O39      O        0.42410    0.02680    0.55120    1.000
    O40      O        0.86220    0.29900    0.11710    1.000
    O41      O        0.01200    0.17180    0.05500    1.000
    O42      O        0.45160    0.99900    0.53890    1.000
    Bi4      Bi       0.90646    0.32709    0.63163    1.000
    Sm4      Sm       0.59413    0.50102    0.38543    1.000
    O43      O        0.83050    0.40760    0.52658    1.000
    O44      O        0.71080    0.59520    0.47881    1.000
    O45      O        0.09360    0.39910    0.66033    1.000
    O46      O        0.22340    0.51250    0.62525    1.000
    O47      O        0.98920    0.20090    0.72986    1.000
    O48      O        0.04870    0.24080    0.82678    1.000
    O49      O        0.72120    0.42960    0.62060    1.000
    O50      O        0.59560    0.45430    0.67155    1.000
    N10      N        0.94000    0.61950    0.60891    1.000
    N11      N        0.88730    0.50070    0.71460    1.000
    C31      C        0.84650    0.68510    0.56240    1.000
    H37      H        0.79160    0.73330    0.58070    1.000
    H38      H        0.87320    0.77400    0.54100    1.000
    C32      C        0.79220    0.55250    0.51937    1.000
    C33      C        0.04110    0.61130    0.58854    1.000
    H39      H        0.02270    0.56870    0.54790    1.000
    H40      H        0.07160    0.72370    0.58830    1.000
    C34      C        0.12720    0.50110    0.62751    1.000
    C35      C        0.96060    0.72160    0.66322    1.000
    H41      H        0.03670    0.70320    0.68730    1.000
    H42      H        0.95280    0.83970    0.65240    1.000
    C36      C        0.88040    0.67800    0.69889    1.000
    H43      H        0.80470    0.70440    0.67590    1.000
    H44      H        0.89700    0.74520    0.73510    1.000
    C37      C        0.97800    0.47110    0.76754    1.000
    H45      H        0.04350    0.53400    0.76450    1.000
    H46      H        0.95640    0.51140    0.80240    1.000
    C38      C        0.00690    0.28960    0.77532    1.000
    C39      C        0.78240    0.44610    0.72539    1.000
    H47      H        0.79150    0.33440    0.74290    1.000
    H48      H        0.76160    0.52200    0.75340    1.000
    C40      C        0.69200    0.44360    0.66790    1.000
    N12      N        0.06710    0.65890    0.92340    1.000
    O51      O        0.11290    0.68500    0.88340    1.000
    O52      O        0.00860    0.77200    0.93460    1.000
    O53      O        0.07590    0.52680    0.94880    1.000
    O54      O        0.63780    0.79900    0.38290    1.000
    O55      O        0.48800    0.67180    0.44500    1.000
    O56      O        0.04840    0.49900    0.96110    1.000
