# CIF file generated by openbabel 3.1.0, see https://openbabel.org
data_I
_chemical_name_common 'QISRIV_clean'
_cell_length_a 12.952
_cell_length_b 13.849
_cell_length_c 14.679
_cell_angle_alpha 112.46
_cell_angle_beta 99.574
_cell_angle_gamma 108.472
_space_group_name_H-M_alt 'P 1'
_space_group_name_Hall 'P 1'
loop_
    _symmetry_equiv_pos_as_xyz
    x,y,z
loop_
    _atom_site_label
    _atom_site_type_symbol
    _atom_site_fract_x
    _atom_site_fract_y
    _atom_site_fract_z
    _atom_site_occupancy
    Mo1      Mo       0.23058    0.88965    0.66989    1.000
    Mo2      Mo       0.76942    0.11035    0.33011    1.000
    H1       H        0.23890    0.11260    0.65520    1.000
    H2       H        0.10050    0.82240    0.45430    1.000
    H3       H        0.18280    0.67650    0.70720    1.000
    H4       H        0.96180    0.71740    0.57080    1.000
    H5       H        0.45710    0.78670    0.80260    1.000
    H6       H        0.48600    0.05240    0.81730    1.000
    H7       H        0.28550    0.04370    0.48360    1.000
    H8       H        0.30130    0.79600    0.47610    1.000
    H9       H        0.33880    0.29630    0.56850    1.000
    H10      H        0.36650    0.27650    0.66760    1.000
    H11      H        0.23250    0.39690    0.64340    1.000
    H12      H        0.26950    0.38260    0.74430    1.000
    H13      H        0.36380    0.45800    0.71380    1.000
    H14      H        0.14520    0.80770    0.26190    1.000
    H15      H        0.06330    0.70890    0.27950    1.000
    H16      H        0.90390    0.69150    0.15940    1.000
    H17      H        0.98860    0.78670    0.13950    1.000
    H18      H        0.99590    0.66660    0.10630    1.000
    H19      H        0.18650    0.63920    0.84390    1.000
    H20      H        0.13560    0.50630    0.81200    1.000
    H21      H        0.01560    0.64660    0.85960    1.000
    H22      H        0.95560    0.51160    0.81600    1.000
    H23      H        0.05290    0.58940    0.92660    1.000
    H24      H        0.79100    0.70700    0.59750    1.000
    H25      H        0.78940    0.65080    0.67300    1.000
    H26      H        0.62580    0.48710    0.54200    1.000
    H27      H        0.60370    0.59990    0.58490    1.000
    H28      H        0.62450    0.55450    0.47590    1.000
    H29      H        0.70990    0.79370    0.88480    1.000
    H30      H        0.58400    0.70640    0.80650    1.000
    H31      H        0.65170    0.74320    0.01170    1.000
    H32      H        0.54060    0.64120    0.91890    1.000
    H33      H        0.66440    0.64570    0.91920    1.000
    H34      H        0.65380    0.19320    0.82910    1.000
    H35      H        0.76100    0.25260    0.93180    1.000
    H36      H        0.57090    0.30970    0.91250    1.000
    H37      H        0.66790    0.36210    0.02080    1.000
    H38      H        0.69900    0.38970    0.93110    1.000
    H39      H        0.33650    0.17090    0.35130    1.000
    H40      H        0.22410    0.08460    0.35400    1.000
    H41      H        0.31920    0.02700    0.19140    1.000
    H42      H        0.20640    0.94090    0.19400    1.000
    H43      H        0.20680    0.05040    0.18290    1.000
    H44      H        0.24930    0.64370    0.24210    1.000
    H45      H        0.25140    0.62330    0.34120    1.000
    H46      H        0.41180    0.60750    0.23360    1.000
    H47      H        0.41900    0.59200    0.33560    1.000
    H48      H        0.31470    0.50190    0.23140    1.000
    H49      H        0.76110    0.88740    0.34480    1.000
    H50      H        0.89950    0.17760    0.54570    1.000
    H51      H        0.81720    0.32350    0.29280    1.000
    H52      H        0.03820    0.28260    0.42920    1.000
    H53      H        0.54290    0.21330    0.19740    1.000
    H54      H        0.51400    0.94760    0.18270    1.000
    H55      H        0.71450    0.95630    0.51640    1.000
    H56      H        0.69870    0.20400    0.52390    1.000
    H57      H        0.66120    0.70370    0.43150    1.000
    H58      H        0.63350    0.72350    0.33240    1.000
    H59      H        0.76750    0.60310    0.35660    1.000
    H60      H        0.73050    0.61740    0.25570    1.000
    H61      H        0.63620    0.54200    0.28620    1.000
    H62      H        0.85480    0.19230    0.73810    1.000
    H63      H        0.93670    0.29110    0.72050    1.000
    H64      H        0.09610    0.30850    0.84060    1.000
    H65      H        0.01140    0.21330    0.86050    1.000
    H66      H        0.00410    0.33340    0.89370    1.000
    H67      H        0.81350    0.36080    0.15610    1.000
    H68      H        0.86440    0.49370    0.18800    1.000
    H69      H        0.98440    0.35340    0.14040    1.000
    H70      H        0.04440    0.48840    0.18400    1.000
    H71      H        0.94710    0.41060    0.07340    1.000
    H72      H        0.20900    0.29300    0.40250    1.000
    H73      H        0.21060    0.34920    0.32700    1.000
    H74      H        0.37420    0.51290    0.45800    1.000
    H75      H        0.39630    0.40010    0.41510    1.000
    H76      H        0.37550    0.44550    0.52410    1.000
    H77      H        0.29010    0.20630    0.11520    1.000
    H78      H        0.41600    0.29360    0.19350    1.000
    H79      H        0.34830    0.25680    0.98830    1.000
    H80      H        0.45940    0.35880    0.08110    1.000
    H81      H        0.33560    0.35430    0.08080    1.000
    H82      H        0.34620    0.80680    0.17090    1.000
    H83      H        0.23900    0.74740    0.06820    1.000
    H84      H        0.42910    0.69030    0.08750    1.000
    H85      H        0.33210    0.63790    0.97920    1.000
    H86      H        0.30100    0.61030    0.06890    1.000
    H87      H        0.66350    0.82910    0.64870    1.000
    H88      H        0.77590    0.91540    0.64600    1.000
    H89      H        0.68080    0.97300    0.80860    1.000
    H90      H        0.79360    0.05910    0.80600    1.000
    H91      H        0.79320    0.94960    0.81710    1.000
    H92      H        0.75070    0.35630    0.75790    1.000
    H93      H        0.74860    0.37670    0.65880    1.000
    H94      H        0.58820    0.39250    0.76640    1.000
    H95      H        0.58100    0.40800    0.66440    1.000
    H96      H        0.68530    0.49810    0.76860    1.000
    Rh1      Rh       0.03464    0.96822    0.55978    1.000
    Rh2      Rh       0.06787    0.59336    0.51925    1.000
    Rh3      Rh       0.42030    0.95128    0.92025    1.000
    Rh4      Rh       0.44345    0.00010    0.55763    1.000
    Rh5      Rh       0.96536    0.03178    0.44022    1.000
    Rh6      Rh       0.93213    0.40664    0.48075    1.000
    Rh7      Rh       0.57970    0.04872    0.07975    1.000
    Rh8      Rh       0.55655    0.99990    0.44237    1.000
    C1       C        0.19790    0.17840    0.57250    1.000
    C2       C        0.30920    0.28560    0.62280    1.000
    C3       C        0.29230    0.39000    0.68670    1.000
    C4       C        0.04880    0.86090    0.35090    1.000
    C5       C        0.06750    0.77260    0.26400    1.000
    C6       C        0.98130    0.72510    0.15780    1.000
    C7       C        0.07740    0.53890    0.69330    1.000
    C8       C        0.11650    0.56730    0.80640    1.000
    C9       C        0.02740    0.57980    0.85650    1.000
    C10      C        0.85100    0.58290    0.55680    1.000
    C11      C        0.77220    0.63370    0.59950    1.000
    C12      C        0.64540    0.56250    0.54590    1.000
    C13      C        0.58700    0.85200    0.92140    1.000
    C14      C        0.62930    0.75830    0.88020    1.000
    C15      C        0.62080    0.69150    0.93730    1.000
    C16      C        0.61680    0.14100    0.93770    1.000
    C17      C        0.67770    0.22850    0.90540    1.000
    C18      C        0.65160    0.33150    0.94600    1.000
    C19      C        0.36480    0.05190    0.38960    1.000
    C20      C        0.29210    0.08990    0.33170    1.000
    C21      C        0.25260    0.02090    0.21460    1.000
    C22      C        0.37580    0.77960    0.37550    1.000
    C23      C        0.30010    0.65280    0.30510    1.000
    C24      C        0.36730    0.58230    0.27370    1.000
    C25      C        0.80210    0.82160    0.42750    1.000
    C26      C        0.69080    0.71440    0.37720    1.000
    C27      C        0.70770    0.61000    0.31330    1.000
    C28      C        0.95120    0.13910    0.64910    1.000
    C29      C        0.93250    0.22740    0.73600    1.000
    C30      C        0.01870    0.27490    0.84220    1.000
    C31      C        0.92260    0.46110    0.30670    1.000
    C32      C        0.88350    0.43270    0.19360    1.000
    C33      C        0.97260    0.42020    0.14350    1.000
    C34      C        0.14900    0.41710    0.44320    1.000
    C35      C        0.22780    0.36630    0.40050    1.000
    C36      C        0.35460    0.43750    0.45410    1.000
    C37      C        0.41300    0.14800    0.07860    1.000
    C38      C        0.37070    0.24170    0.11980    1.000
    C39      C        0.37920    0.30850    0.06270    1.000
    C40      C        0.38320    0.85900    0.06230    1.000
    C41      C        0.32230    0.77150    0.09460    1.000
    C42      C        0.34840    0.66850    0.05400    1.000
    C43      C        0.63520    0.94810    0.61040    1.000
    C44      C        0.70790    0.91010    0.66830    1.000
    C45      C        0.74740    0.97910    0.78540    1.000
    C46      C        0.62420    0.22040    0.62450    1.000
    C47      C        0.69990    0.34720    0.69490    1.000
    C48      C        0.63270    0.41770    0.72630    1.000
    N1       N        0.18120    0.10280    0.60750    1.000
    N2       N        0.06970    0.86600    0.44330    1.000
    N3       N        0.12340    0.61330    0.66210    1.000
    N4       N        0.94830    0.64630    0.55500    1.000
    N5       N        0.49130    0.84270    0.86590    1.000
    N6       N        0.51440    0.05950    0.87870    1.000
    N7       N        0.34590    0.03700    0.46860    1.000
    N8       N        0.35670    0.83520    0.46090    1.000
    N9       N        0.81880    0.89720    0.39250    1.000
    N10      N        0.93030    0.13400    0.55670    1.000
    N11      N        0.87660    0.38670    0.33790    1.000
    N12      N        0.05170    0.35370    0.44500    1.000
    N13      N        0.50870    0.15730    0.13410    1.000
    N14      N        0.48560    0.94050    0.12130    1.000
    N15      N        0.65410    0.96300    0.53140    1.000
    N16      N        0.64330    0.16480    0.53910    1.000
    O1       O        0.12250    0.16550    0.49510    1.000
    O2       O        0.01410    0.93000    0.33080    1.000
    O3       O        0.99500    0.43980    0.63080    1.000
    O4       O        0.81860    0.47340    0.52470    1.000
    O5       O        0.64470    0.93440    0.01390    1.000
    O6       O        0.66740    0.15350    0.02640    1.000
    O7       O        0.44990    0.03940    0.35930    1.000
    O8       O        0.45660    0.82920    0.34710    1.000
    O9       O        0.10720    0.91770    0.67430    1.000
    O10      O        0.19200    0.76450    0.55140    1.000
    O11      O        0.27300    0.86390    0.77480    1.000
    O12      O        0.34320    0.00430    0.67160    1.000
    O13      O        0.87750    0.83450    0.50490    1.000
    O14      O        0.98590    0.07000    0.66920    1.000
    O15      O        0.00500    0.56020    0.36920    1.000
    O16      O        0.18140    0.52660    0.47530    1.000
    O17      O        0.35530    0.06560    0.98610    1.000
    O18      O        0.33260    0.84650    0.97360    1.000
    O19      O        0.55010    0.96060    0.64070    1.000
    O20      O        0.54340    0.17080    0.65290    1.000
    O21      O        0.89280    0.08230    0.32570    1.000
    O22      O        0.80800    0.23550    0.44860    1.000
    O23      O        0.72700    0.13610    0.22520    1.000
    O24      O        0.65680    0.99570    0.32840    1.000
