data_functionalizedCrystal
_audit_creation_method	'EQeq! by Chris Wilmer'
_symmetry_space_group_name_H-M	'P1'
_symmetry_Int_Tables_number	1
_symmetry_cell_setting	triclinic
loop_
_symmetry_equiv_pos_as_xyz
  x,y,z
_cell_length_a	10.9733
_cell_length_b	10.9733
_cell_length_c	13.564
_cell_angle_alpha	90
_cell_angle_beta	90
_cell_angle_gamma	106.266
loop_
_atom_site_label
_atom_site_type_symbol
_atom_site_fract_x
_atom_site_fract_y
_atom_site_fract_z
_atom_site_charge
Mof_Ca	Ca	0.67476	0.32524	0.75	1.553
Mof_Ca	Ca	0.32524	0.67476	0.25	1.553
Mof_Zn	Zn	0.8021	0.5927	0.92918	1.196
Mof_Zn	Zn	0.4073	0.1979	0.57082	1.196
Mof_Zn	Zn	0.1979	0.4073	0.42918	1.196
Mof_Zn	Zn	0.5927	0.8021	0.07082	1.196
Mof_H 	H 	0.3173	0.1059	0.2598	-0.015
Mof_H 	H 	0.438	0.8668	0.5345	-0.021
Mof_H 	H 	0.4732	0.4444	0.1294	-0.01
Mof_H 	H 	0.1332	0.562	0.9655	-0.02
Mof_H 	H 	0.5268	0.5556	0.6294	-0.011
Mof_H 	H 	0.5556	0.5268	0.3706	-0.011
Mof_H 	H 	0.1059	0.3173	0.7402	-0.015
Mof_H 	H 	0.562	0.1332	0.0345	-0.02
Mof_H 	H 	0.8941	0.6827	0.2402	-0.015
Mof_H 	H 	0.8668	0.438	0.4655	-0.021
Mof_H 	H 	0.6827	0.8941	0.7598	-0.015
Mof_H 	H 	0.4444	0.4732	0.8706	-0.01
Mof_C 	C 	0.0373	0.5599	0.3383	0.517
Mof_C 	C 	0.5183	0.1715	0.078	0.156
Mof_C 	C 	0.53094	0.30006	0.0705	-0.218
Mof_C 	C 	0.61931	0.37429	0.9933	0.448
Mof_C 	C 	0.6285	0.8453	0.713	0.151
Mof_C 	C 	0.38069	0.62571	0.4933	0.451
Mof_C 	C 	0.9627	0.4401	0.8383	0.517
Mof_C 	C 	0.5599	0.0373	0.6617	0.517
Mof_C 	C 	0.1715	0.5183	0.922	0.156
Mof_C 	C 	0.1547	0.3715	0.787	0.151
Mof_C 	C 	0.65164	0.68676	0.2271	0.447
Mof_C 	C 	0.31324	0.34836	0.2729	0.447
Mof_C 	C 	0.69994	0.46906	0.4295	-0.22
Mof_C 	C 	0.3843	0.2851	0.2049	-0.22
Mof_C 	C 	0.46422	0.35778	0.1342	0.152
Mof_C 	C 	0.62571	0.38069	0.5067	0.451
Mof_C 	C 	0.5587	0.9009	0.6498	-0.245
Mof_C 	C 	0.30006	0.53094	0.9295	-0.218
Mof_C 	C 	0.8285	0.4817	0.422	0.158
Mof_C 	C 	0.34836	0.31324	0.7271	0.447
Mof_C 	C 	0.64222	0.53578	0.3658	0.153
Mof_C 	C 	0.4413	0.0991	0.1498	-0.245
Mof_C 	C 	0.4817	0.8285	0.578	0.158
Mof_C 	C 	0.0991	0.4413	0.8502	-0.245
Mof_C 	C 	0.3715	0.1547	0.213	0.151
Mof_C 	C 	0.4401	0.9627	0.1617	0.517
Mof_C 	C 	0.7149	0.6157	0.2951	-0.22
Mof_C 	C 	0.6157	0.7149	0.7049	-0.22
Mof_C 	C 	0.35778	0.46422	0.8658	0.152
Mof_C 	C 	0.53578	0.64222	0.6342	0.153
Mof_C 	C 	0.9009	0.5587	0.3502	-0.245
Mof_C 	C 	0.46906	0.69994	0.5705	-0.22
Mof_C 	C 	0.37429	0.61931	0.0067	0.448
Mof_C 	C 	0.8453	0.6285	0.287	0.151
Mof_C 	C 	0.68676	0.65164	0.7729	0.447
Mof_C 	C 	0.2851	0.3843	0.7951	-0.22
Mof_O 	O 	0.46047	0.31599	0.73966	-0.525
Mof_O 	O 	0.36585	0.89273	0.21997	-0.494
Mof_O 	O 	0.49188	0.6666	0.98912	-0.511
Mof_O 	O 	0.31792	0.6433	0.08062	-0.491
Mof_O 	O 	0.50812	0.3334	0.48912	-0.513
Mof_O 	O 	0.68208	0.3567	0.58062	-0.491
Mof_O 	O 	0.25185	0.28415	0.3446	-0.521
Mof_O 	O 	0.3334	0.50812	0.51088	-0.513
Mof_O 	O 	0.31599	0.46047	0.26034	-0.525
Mof_O 	O 	0.71585	0.74815	0.1554	-0.521
Mof_O 	O 	0.6666	0.49188	0.01088	-0.511
Mof_O 	O 	0.6433	0.31792	0.91938	-0.491
Mof_O 	O 	0.28415	0.25185	0.6554	-0.521
Mof_O 	O 	0.3567	0.68208	0.41938	-0.491
Mof_O 	O 	0.08133	0.50851	0.40125	-0.523
Mof_O 	O 	0.05866	0.4602	0.38363	-0.05
Mof_O 	O 	0.50851	0.08133	0.59875	-0.523
Mof_O 	O 	0.53953	0.68401	0.23966	-0.525
Mof_O 	O 	0.74815	0.71585	0.8446	-0.521
Mof_O 	O 	0.49149	0.91867	0.09875	-0.527
Mof_O 	O 	0.10727	0.63415	0.28003	-0.494
Mof_O 	O 	0.89273	0.36585	0.78003	-0.494
Mof_O 	O 	0.91867	0.49149	0.90125	-0.527
Mof_O 	O 	0.4602	0.05866	0.61637	-0.05
Mof_O 	O 	0.94134	0.5398	0.88363	-0.047
Mof_O 	O 	0.5398	0.94134	0.11637	-0.047
Mof_O 	O 	0.68401	0.53953	0.76034	-0.525
Mof_O 	O 	0.63415	0.10727	0.71997	-0.494
_end
