data_functionalizedCrystal
_audit_creation_method	'EQeq! by Chris Wilmer'
_symmetry_space_group_name_H-M	'P1'
_symmetry_Int_Tables_number	1
_symmetry_cell_setting	triclinic
loop_
_symmetry_equiv_pos_as_xyz
  x,y,z
_cell_length_a	14.9769
_cell_length_b	14.9769
_cell_length_c	14.9769
_cell_angle_alpha	72.5711
_cell_angle_beta	72.5711
_cell_angle_gamma	72.5711
loop_
_atom_site_label
_atom_site_type_symbol
_atom_site_fract_x
_atom_site_fract_y
_atom_site_fract_z
_atom_site_charge
Mof_In	In	0.58766	0.25	0.91234	2.434
Mof_In	In	0.91234	0.58766	0.25	2.434
Mof_In	In	0.25	0.91234	0.58766	2.434
Mof_In	In	0.41234	0.75	0.08766	2.434
Mof_In	In	0.08766	0.41234	0.75	2.434
Mof_In	In	0.75	0.08766	0.41234	2.434
Mof_H 	H 	0.5319	0.4938	0.8933	0.022
Mof_H 	H 	0.6107	0.6103	0.8666	0.061
Mof_H 	H 	0.8933	0.5319	0.4938	0.022
Mof_H 	H 	0.8666	0.6107	0.6103	0.061
Mof_H 	H 	0.4938	0.8933	0.5319	0.022
Mof_H 	H 	0.6103	0.8666	0.6107	0.061
Mof_H 	H 	0.0062	0.9681	0.6067	0.023
Mof_H 	H 	0.8897	0.8893	0.6334	0.06
Mof_H 	H 	0.9681	0.6067	0.0062	0.023
Mof_H 	H 	0.8893	0.6334	0.8897	0.06
Mof_H 	H 	0.6067	0.0062	0.9681	0.023
Mof_H 	H 	0.6334	0.8897	0.8893	0.06
Mof_H 	H 	0.4681	0.5062	0.1067	0.022
Mof_H 	H 	0.3893	0.3897	0.1334	0.061
Mof_H 	H 	0.1067	0.4681	0.5062	0.022
Mof_H 	H 	0.1334	0.3893	0.3897	0.061
Mof_H 	H 	0.5062	0.1067	0.4681	0.022
Mof_H 	H 	0.3897	0.1334	0.3893	0.061
Mof_H 	H 	0.9938	0.0319	0.3933	0.023
Mof_H 	H 	0.1103	0.1107	0.3666	0.06
Mof_H 	H 	0.0319	0.3933	0.9938	0.023
Mof_H 	H 	0.1107	0.3666	0.1103	0.06
Mof_H 	H 	0.3933	0.9938	0.0319	0.023
Mof_H 	H 	0.3666	0.1103	0.1107	0.06
Mof_C 	C 	0.78917	0.44207	0.84157	0.037
Mof_C 	C 	0.79508	0.26518	0.86588	0.373
Mof_C 	C 	0.74256	0.36856	0.86356	-0.043
Mof_C 	C 	0.5987	0.478	0.8813	0.069
Mof_C 	C 	0.6466	0.5483	0.863	-0.001
Mof_C 	C 	0.899	0.4281	0.8121	0.324
Mof_C 	C 	0.84157	0.78917	0.44207	0.037
Mof_C 	C 	0.86588	0.79508	0.26518	0.373
Mof_C 	C 	0.86356	0.74256	0.36856	-0.043
Mof_C 	C 	0.8813	0.5987	0.478	0.069
Mof_C 	C 	0.863	0.6466	0.5483	-0.001
Mof_C 	C 	0.8121	0.899	0.4281	0.324
Mof_C 	C 	0.44207	0.84157	0.78917	0.037
Mof_C 	C 	0.26518	0.86588	0.79508	0.373
Mof_C 	C 	0.36856	0.86356	0.74256	-0.043
Mof_C 	C 	0.478	0.8813	0.5987	0.069
Mof_C 	C 	0.5483	0.863	0.6466	-0.001
Mof_C 	C 	0.4281	0.8121	0.899	0.324
Mof_C 	C 	0.05793	0.71083	0.65843	0.035
Mof_C 	C 	0.23482	0.70492	0.63412	0.373
Mof_C 	C 	0.13144	0.75744	0.63644	-0.043
Mof_C 	C 	0.022	0.9013	0.6187	0.063
Mof_C 	C 	0.9517	0.8534	0.637	0.006
Mof_C 	C 	0.0719	0.601	0.6879	0.325
Mof_C 	C 	0.71083	0.65843	0.05793	0.035
Mof_C 	C 	0.70492	0.63412	0.23482	0.373
Mof_C 	C 	0.75744	0.63644	0.13144	-0.043
Mof_C 	C 	0.9013	0.6187	0.022	0.063
Mof_C 	C 	0.8534	0.637	0.9517	0.006
Mof_C 	C 	0.601	0.6879	0.0719	0.325
Mof_C 	C 	0.65843	0.05793	0.71083	0.035
Mof_C 	C 	0.63412	0.23482	0.70492	0.373
Mof_C 	C 	0.63644	0.13144	0.75744	-0.043
Mof_C 	C 	0.6187	0.022	0.9013	0.063
Mof_C 	C 	0.637	0.9517	0.8534	0.006
Mof_C 	C 	0.6879	0.0719	0.601	0.325
Mof_C 	C 	0.21083	0.55793	0.15843	0.037
Mof_C 	C 	0.20492	0.73482	0.13412	0.373
Mof_C 	C 	0.25744	0.63144	0.13644	-0.043
Mof_C 	C 	0.4013	0.522	0.1187	0.069
Mof_C 	C 	0.3534	0.4517	0.137	-0.001
Mof_C 	C 	0.101	0.5719	0.1879	0.324
Mof_C 	C 	0.15843	0.21083	0.55793	0.037
Mof_C 	C 	0.13412	0.20492	0.73482	0.373
Mof_C 	C 	0.13644	0.25744	0.63144	-0.043
Mof_C 	C 	0.1187	0.4013	0.522	0.069
Mof_C 	C 	0.137	0.3534	0.4517	-0.001
Mof_C 	C 	0.1879	0.101	0.5719	0.324
Mof_C 	C 	0.55793	0.15843	0.21083	0.037
Mof_C 	C 	0.73482	0.13412	0.20492	0.373
Mof_C 	C 	0.63144	0.13644	0.25744	-0.043
Mof_C 	C 	0.522	0.1187	0.4013	0.069
Mof_C 	C 	0.4517	0.137	0.3534	-0.001
Mof_C 	C 	0.5719	0.1879	0.101	0.324
Mof_C 	C 	0.94207	0.28917	0.34157	0.035
Mof_C 	C 	0.76518	0.29508	0.36588	0.373
Mof_C 	C 	0.86856	0.24256	0.36356	-0.043
Mof_C 	C 	0.978	0.0987	0.3813	0.063
Mof_C 	C 	0.0483	0.1466	0.363	0.006
Mof_C 	C 	0.9281	0.399	0.3121	0.325
Mof_C 	C 	0.28917	0.34157	0.94207	0.035
Mof_C 	C 	0.29508	0.36588	0.76518	0.373
Mof_C 	C 	0.24256	0.36356	0.86856	-0.043
Mof_C 	C 	0.0987	0.3813	0.978	0.063
Mof_C 	C 	0.1466	0.363	0.0483	0.006
Mof_C 	C 	0.399	0.3121	0.9281	0.325
Mof_C 	C 	0.34157	0.94207	0.28917	0.035
Mof_C 	C 	0.36588	0.76518	0.29508	0.373
Mof_C 	C 	0.36356	0.86856	0.24256	-0.043
Mof_C 	C 	0.3813	0.978	0.0987	0.063
Mof_C 	C 	0.363	0.0483	0.1466	0.006
Mof_C 	C 	0.3121	0.9281	0.399	0.325
Mof_N 	N 	0.64604	0.38714	0.88234	-0.256
Mof_N 	N 	0.74081	0.53281	0.84041	-0.093
Mof_N 	N 	0.88234	0.64604	0.38714	-0.256
Mof_N 	N 	0.84041	0.74081	0.53281	-0.093
Mof_N 	N 	0.38714	0.88234	0.64604	-0.256
Mof_N 	N 	0.53281	0.84041	0.74081	-0.093
Mof_N 	N 	0.11286	0.85396	0.61766	-0.256
Mof_N 	N 	0.96719	0.75919	0.65959	-0.093
Mof_N 	N 	0.85396	0.61766	0.11286	-0.256
Mof_N 	N 	0.75919	0.65959	0.96719	-0.093
Mof_N 	N 	0.61766	0.11286	0.85396	-0.256
Mof_N 	N 	0.65959	0.96719	0.75919	-0.093
Mof_N 	N 	0.35396	0.61286	0.11766	-0.256
Mof_N 	N 	0.25919	0.46719	0.15959	-0.093
Mof_N 	N 	0.11766	0.35396	0.61286	-0.256
Mof_N 	N 	0.15959	0.25919	0.46719	-0.093
Mof_N 	N 	0.61286	0.11766	0.35396	-0.256
Mof_N 	N 	0.46719	0.15959	0.25919	-0.093
Mof_N 	N 	0.88714	0.14604	0.38234	-0.256
Mof_N 	N 	0.03281	0.24081	0.34041	-0.093
Mof_N 	N 	0.14604	0.38234	0.88714	-0.256
Mof_N 	N 	0.24081	0.34041	0.03281	-0.093
Mof_N 	N 	0.38234	0.88714	0.14604	-0.256
Mof_N 	N 	0.34041	0.03281	0.24081	-0.093
Mof_O 	O 	0.7426	0.2046	0.8896	-0.542
Mof_O 	O 	0.88343	0.24773	0.84343	-0.233
Mof_O 	O 	0.94002	0.44032	0.72682	-0.517
Mof_O 	O 	0.12148	0.05848	0.59138	-0.416
Mof_O 	O 	0.8896	0.7426	0.2046	-0.542
Mof_O 	O 	0.84343	0.88343	0.24773	-0.233
Mof_O 	O 	0.72682	0.94002	0.44032	-0.517
Mof_O 	O 	0.59138	0.12148	0.05848	-0.416
Mof_O 	O 	0.2046	0.8896	0.7426	-0.542
Mof_O 	O 	0.24773	0.84343	0.88343	-0.233
Mof_O 	O 	0.44032	0.72682	0.94002	-0.517
Mof_O 	O 	0.05848	0.59138	0.12148	-0.416
Mof_O 	O 	0.2954	0.7574	0.6104	-0.542
Mof_O 	O 	0.25227	0.61657	0.65657	-0.233
Mof_O 	O 	0.05968	0.55998	0.77318	-0.519
Mof_O 	O 	0.44152	0.37852	0.90862	-0.418
Mof_O 	O 	0.7574	0.6104	0.2954	-0.542
Mof_O 	O 	0.61657	0.65657	0.25227	-0.233
Mof_O 	O 	0.55998	0.77318	0.05968	-0.519
Mof_O 	O 	0.37852	0.90862	0.44152	-0.418
Mof_O 	O 	0.6104	0.2954	0.7574	-0.542
Mof_O 	O 	0.65657	0.25227	0.61657	-0.233
Mof_O 	O 	0.77318	0.05968	0.55998	-0.519
Mof_O 	O 	0.90862	0.44152	0.37852	-0.418
Mof_O 	O 	0.2574	0.7954	0.1104	-0.542
Mof_O 	O 	0.11657	0.75227	0.15657	-0.233
Mof_O 	O 	0.05998	0.55968	0.27318	-0.517
Mof_O 	O 	0.87852	0.94152	0.40862	-0.416
Mof_O 	O 	0.1104	0.2574	0.7954	-0.542
Mof_O 	O 	0.15657	0.11657	0.75227	-0.233
Mof_O 	O 	0.27318	0.05998	0.55968	-0.517
Mof_O 	O 	0.40862	0.87852	0.94152	-0.416
Mof_O 	O 	0.7954	0.1104	0.2574	-0.542
Mof_O 	O 	0.75227	0.15657	0.11657	-0.233
Mof_O 	O 	0.55968	0.27318	0.05998	-0.517
Mof_O 	O 	0.94152	0.40862	0.87852	-0.416
Mof_O 	O 	0.7046	0.2426	0.3896	-0.542
Mof_O 	O 	0.74773	0.38343	0.34343	-0.233
Mof_O 	O 	0.94032	0.44002	0.22682	-0.519
Mof_O 	O 	0.55848	0.62148	0.09138	-0.418
Mof_O 	O 	0.2426	0.3896	0.7046	-0.542
Mof_O 	O 	0.38343	0.34343	0.74773	-0.233
Mof_O 	O 	0.44002	0.22682	0.94032	-0.519
Mof_O 	O 	0.62148	0.09138	0.55848	-0.418
Mof_O 	O 	0.3896	0.7046	0.2426	-0.542
Mof_O 	O 	0.34343	0.74773	0.38343	-0.233
Mof_O 	O 	0.22682	0.94032	0.44002	-0.519
Mof_O 	O 	0.09138	0.55848	0.62148	-0.418
_end
