# CIF file generated by openbabel 3.1.0, see https://openbabel.org
data_I
_chemical_name_common 'image0'
_cell_length_a 10.022
_cell_length_b 14.335
_cell_length_c 14.636
_cell_angle_alpha 90
_cell_angle_beta 90
_cell_angle_gamma 90
_space_group_name_H-M_alt 'P 1'
_space_group_name_Hall 'P 1'
loop_
    _symmetry_equiv_pos_as_xyz
    x,y,z
loop_
    _atom_site_label
    _atom_site_type_symbol
    _atom_site_fract_x
    _atom_site_fract_y
    _atom_site_fract_z
    _atom_site_occupancy
    O1       O        0.82960    0.97210    0.45450    1.000
    O2       O        0.76050    0.09500    0.34330    1.000
    O3       O        0.82960    0.47210    0.95450    1.000
    O4       O        0.76050    0.59500    0.84330    1.000
    O5       O        0.32960    0.97210    0.95450    1.000
    O6       O        0.26050    0.09500    0.84330    1.000
    O7       O        0.32960    0.47210    0.45450    1.000
    O8       O        0.26050    0.59500    0.34330    1.000
    O9       O        0.92040    0.77790    0.45450    1.000
    O10      O        0.98950    0.65500    0.34330    1.000
    O11      O        0.92040    0.27790    0.95450    1.000
    O12      O        0.98950    0.15500    0.84330    1.000
    O13      O        0.42040    0.77790    0.95450    1.000
    O14      O        0.48950    0.65500    0.84330    1.000
    O15      O        0.42040    0.27790    0.45450    1.000
    O16      O        0.48950    0.15500    0.34330    1.000
    O17      O        0.92040    0.97210    0.29550    1.000
    O18      O        0.98950    0.09500    0.40670    1.000
    O19      O        0.92040    0.47210    0.79550    1.000
    O20      O        0.98950    0.59500    0.90670    1.000
    O21      O        0.42040    0.97210    0.79550    1.000
    O22      O        0.48950    0.09500    0.90670    1.000
    O23      O        0.42040    0.47210    0.29550    1.000
    O24      O        0.48950    0.59500    0.40670    1.000
    O25      O        0.82960    0.77790    0.29550    1.000
    O26      O        0.76050    0.65500    0.40670    1.000
    O27      O        0.82960    0.27790    0.79550    1.000
    O28      O        0.76050    0.15500    0.90670    1.000
    O29      O        0.32960    0.77790    0.79550    1.000
    O30      O        0.26050    0.65500    0.90670    1.000
    O31      O        0.32960    0.27790    0.29550    1.000
    O32      O        0.26050    0.15500    0.40670    1.000
    O33      O        0.17040    0.02790    0.54550    1.000
    O34      O        0.23950    0.90500    0.65670    1.000
    O35      O        0.17040    0.52790    0.04550    1.000
    O36      O        0.23950    0.40500    0.15670    1.000
    O37      O        0.67040    0.02790    0.04550    1.000
    O38      O        0.73950    0.90500    0.15670    1.000
    O39      O        0.67040    0.52790    0.54550    1.000
    O40      O        0.73950    0.40500    0.65670    1.000
    O41      O        0.07960    0.22210    0.54550    1.000
    O42      O        0.01050    0.34500    0.65670    1.000
    O43      O        0.07960    0.72210    0.04550    1.000
    O44      O        0.01050    0.84500    0.15670    1.000
    O45      O        0.57960    0.22210    0.04550    1.000
    O46      O        0.51050    0.34500    0.15670    1.000
    O47      O        0.57960    0.72210    0.54550    1.000
    O48      O        0.51050    0.84500    0.65670    1.000
    O49      O        0.07960    0.02790    0.70450    1.000
    O50      O        0.01050    0.90500    0.59330    1.000
    O51      O        0.07960    0.52790    0.20450    1.000
    O52      O        0.01050    0.40500    0.09330    1.000
    O53      O        0.57960    0.02790    0.20450    1.000
    O54      O        0.51050    0.90500    0.09330    1.000
    O55      O        0.57960    0.52790    0.70450    1.000
    O56      O        0.51050    0.40500    0.59330    1.000
    O57      O        0.17040    0.22210    0.70450    1.000
    O58      O        0.23950    0.34500    0.59330    1.000
    O59      O        0.17040    0.72210    0.20450    1.000
    O60      O        0.23950    0.84500    0.09330    1.000
    O61      O        0.67040    0.22210    0.20450    1.000
    O62      O        0.73950    0.34500    0.09330    1.000
    O63      O        0.67040    0.72210    0.70450    1.000
    O64      O        0.73950    0.84500    0.59330    1.000
    P1       P        0.87500    0.03280    0.37500    1.000
    P2       P        0.87500    0.53280    0.87500    1.000
    P3       P        0.37500    0.03280    0.87500    1.000
    P4       P        0.37500    0.53280    0.37500    1.000
    P5       P        0.87500    0.71720    0.37500    1.000
    P6       P        0.87500    0.21720    0.87500    1.000
    P7       P        0.37500    0.71720    0.87500    1.000
    P8       P        0.37500    0.21720    0.37500    1.000
    P9       P        0.12500    0.96720    0.62500    1.000
    P10      P        0.12500    0.46720    0.12500    1.000
    P11      P        0.62500    0.96720    0.12500    1.000
    P12      P        0.62500    0.46720    0.62500    1.000
    P13      P        0.12500    0.28280    0.62500    1.000
    P14      P        0.12500    0.78280    0.12500    1.000
    P15      P        0.62500    0.28280    0.12500    1.000
    P16      P        0.62500    0.78280    0.62500    1.000
    Mg1      Mg       0.87500    0.87500    0.52370    1.000
    Mg2      Mg       0.87500    0.37500    0.02370    1.000
    Mg3      Mg       0.37500    0.87500    0.02370    1.000
    Mg4      Mg       0.37500    0.37500    0.52370    1.000
    Mg5      Mg       0.87500    0.87500    0.22630    1.000
    Mg6      Mg       0.87500    0.37500    0.72630    1.000
    Mg7      Mg       0.37500    0.87500    0.72630    1.000
    Mg8      Mg       0.37500    0.37500    0.22630    1.000
    Mg9      Mg       0.12500    0.12500    0.47630    1.000
    Mg10     Mg       0.12500    0.62500    0.97630    1.000
    Mg11     Mg       0.62500    0.12500    0.97630    1.000
    Mg12     Mg       0.62500    0.62500    0.47630    1.000
    Mg13     Mg       0.12500    0.12500    0.77370    1.000
    Mg14     Mg       0.12500    0.62500    0.27370    1.000
    Mg15     Mg       0.62500    0.12500    0.27370    1.000
    Mg16     Mg       0.62500    0.62500    0.77370    1.000
