# CIF file generated by openbabel 3.1.0, see https://openbabel.org
data_I
_chemical_name_common 'EBEZUI_ion_b'
_cell_length_a 16.7567
_cell_length_b 16.7567
_cell_length_c 13.1924
_cell_angle_alpha 103.601
_cell_angle_beta 103.601
_cell_angle_gamma 109.546
_space_group_name_H-M_alt 'P 1'
_space_group_name_Hall 'P 1'
loop_
    _symmetry_equiv_pos_as_xyz
    x,y,z
loop_
    _atom_site_label
    _atom_site_type_symbol
    _atom_site_fract_x
    _atom_site_fract_y
    _atom_site_fract_z
    _atom_site_occupancy
    Ag1      Ag       0.76728    0.10284    0.79648    1.000
    Ag2      Ag       0.49344    0.54674    0.88529    1.000
    C3       C        0.40990    0.03690    0.62510    1.000
    H4       H        0.39500    0.98180    0.64250    1.000
    H5       H        0.37320    0.02180    0.54880    1.000
    C6       C        0.56710    0.05410    0.69930    1.000
    H7       H        0.55600    0.02100    0.74590    1.000
    C8       C        0.54550    0.11910    0.57800    1.000
    H9       H        0.51950    0.14010    0.52580    1.000
    C10      C        0.63130    0.12970    0.61180    1.000
    H11      H        0.67510    0.16070    0.58620    1.000
    C12      C        0.20190    0.91990    0.51840    1.000
    H13      H        0.22270    0.88170    0.54650    1.000
    C14      C        0.13240    0.96800    0.41330    1.000
    H15      H        0.09400    0.97120    0.35220    1.000
    C16      C        0.18080    0.03700    0.51120    1.000
    H17      H        0.18290    0.09490    0.52830    1.000
    C18      C        0.28760    0.05320    0.69110    1.000
    H19      H        0.28530    0.01030    0.72970    1.000
    H20      H        0.26750    0.09590    0.72810    1.000
    C21      C        0.38470    0.10370    0.70270    1.000
    C22      C        0.40000    0.18420    0.66510    1.000
    H23      H        0.46130    0.20570    0.66430    1.000
    H24      H        0.36050    0.16230    0.58860    1.000
    C25      C        0.31350    0.27070    0.74050    1.000
    H26      H        0.25760    0.22320    0.71960    1.000
    C27      C        0.33490    0.35870    0.79190    1.000
    H28      H        0.29600    0.38240    0.81300    1.000
    C29      C        0.45310    0.34770    0.76700    1.000
    H30      H        0.51190    0.36170    0.76760    1.000
    C31      C        0.37340    0.24280    0.02400    1.000
    H32      H        0.33540    0.24860    0.06400    1.000
    C33      C        0.36070    0.16790    0.94870    1.000
    H34      H        0.31330    0.11170    0.92680    1.000
    C35      C        0.48500    0.27620    0.96320    1.000
    H36      H        0.53790    0.30730    0.95210    1.000
    C37      C        0.44900    0.12940    0.82420    1.000
    C38      C        0.52520    0.23080    0.33900    1.000
    C39      C        0.55440    0.25080    0.26300    1.000
    C40      C        0.59230    0.21070    0.20900    1.000
    C41      C        0.62830    0.13890    0.25430    1.000
    N42      N        0.50420    0.07180    0.63430    1.000
    N43      N        0.64620    0.08980    0.68780    1.000
    N44      N        0.14750    0.89390    0.41660    1.000
    N45      N        0.22530    0.00530    0.57870    1.000
    N46      N        0.38810    0.26450    0.72500    1.000
    N47      N        0.42400    0.40740    0.80760    1.000
    N48      N        0.45060    0.31000    0.03360    1.000
    N49      N        0.42920    0.18840    0.91010    1.000
    O50      O        0.56260    0.30980    0.43790    1.000
    O51      O        0.45630    0.17170    0.34990    1.000
    O52      O        0.65640    0.16320    0.35720    1.000
    O53      O        0.57880    0.06320    0.17600    1.000
    Ag65     Ag       0.89716    0.23272    0.70352    1.000
    Ag66     Ag       0.45326    0.50656    0.61471    1.000
    C67      C        0.96310    0.59010    0.87490    1.000
    H68      H        0.01820    0.60500    0.85750    1.000
    H69      H        0.97820    0.62680    0.95120    1.000
    C70      C        0.94590    0.43290    0.80070    1.000
    H71      H        0.97900    0.44400    0.75410    1.000
    C72      C        0.88090    0.45450    0.92200    1.000
    H73      H        0.85990    0.48050    0.97420    1.000
    C74      C        0.87030    0.36870    0.88820    1.000
    H75      H        0.83930    0.32490    0.91380    1.000
    C76      C        0.08010    0.79810    0.98160    1.000
    H77      H        0.11830    0.77730    0.95350    1.000
    C78      C        0.03200    0.86760    0.08670    1.000
    H79      H        0.02880    0.90600    0.14780    1.000
    C80      C        0.96300    0.81920    0.98880    1.000
    H81      H        0.90510    0.81710    0.97170    1.000
    C82      C        0.94680    0.71240    0.80890    1.000
    H83      H        0.98970    0.71470    0.77030    1.000
    H84      H        0.90410    0.73250    0.77190    1.000
    C85      C        0.89630    0.61530    0.79730    1.000
    C86      C        0.81580    0.60000    0.83490    1.000
    H87      H        0.79430    0.53870    0.83570    1.000
    H88      H        0.83770    0.63950    0.91140    1.000
    C89      C        0.72930    0.68650    0.75950    1.000
    H90      H        0.77680    0.74240    0.78040    1.000
    C91      C        0.64130    0.66510    0.70810    1.000
    H92      H        0.61760    0.70400    0.68700    1.000
    C93      C        0.65230    0.54690    0.73300    1.000
    H94      H        0.63830    0.48810    0.73240    1.000
    C95      C        0.75720    0.62660    0.47600    1.000
    H96      H        0.75140    0.66460    0.43600    1.000
    C97      C        0.83210    0.63930    0.55130    1.000
    H98      H        0.88830    0.68670    0.57320    1.000
    C99      C        0.72380    0.51500    0.53680    1.000
    H100     H        0.69270    0.46210    0.54790    1.000
    C101     C        0.87060    0.55100    0.67580    1.000
    C102     C        0.76920    0.47480    0.16100    1.000
    C103     C        0.74920    0.44560    0.23700    1.000
    C104     C        0.78930    0.40770    0.29100    1.000
    C105     C        0.86110    0.37170    0.24570    1.000
    N106     N        0.92820    0.49580    0.86570    1.000
    N107     N        0.91020    0.35380    0.81220    1.000
    N108     N        0.10610    0.85250    0.08340    1.000
    N109     N        0.99470    0.77470    0.92130    1.000
    N110     N        0.73550    0.61190    0.77500    1.000
    N111     N        0.59260    0.57600    0.69240    1.000
    N112     N        0.69000    0.54940    0.46640    1.000
    N113     N        0.81160    0.57080    0.58990    1.000
    O114     O        0.69020    0.43740    0.06210    1.000
    O115     O        0.82830    0.54370    0.15010    1.000
    O116     O        0.83680    0.34360    0.14280    1.000
    O117     O        0.93680    0.42120    0.32400    1.000
    Ag129    Ag       0.23272    0.89716    0.20352    1.000
    Ag130    Ag       0.50656    0.45326    0.11471    1.000
    C131     C        0.59010    0.96310    0.37490    1.000
    H132     H        0.60500    0.01820    0.35750    1.000
    H133     H        0.62680    0.97820    0.45120    1.000
    C134     C        0.43290    0.94590    0.30070    1.000
    H135     H        0.44400    0.97900    0.25410    1.000
    C136     C        0.45450    0.88090    0.42200    1.000
    H137     H        0.48050    0.85990    0.47420    1.000
    C138     C        0.36870    0.87030    0.38820    1.000
    H139     H        0.32490    0.83930    0.41380    1.000
    C140     C        0.79810    0.08010    0.48160    1.000
    H141     H        0.77730    0.11830    0.45350    1.000
    C142     C        0.86760    0.03200    0.58670    1.000
    H143     H        0.90600    0.02880    0.64780    1.000
    C144     C        0.81920    0.96300    0.48880    1.000
    H145     H        0.81710    0.90510    0.47170    1.000
    C146     C        0.71240    0.94680    0.30890    1.000
    H147     H        0.71470    0.98970    0.27030    1.000
    H148     H        0.73250    0.90410    0.27190    1.000
    C149     C        0.61530    0.89630    0.29730    1.000
    C150     C        0.60000    0.81580    0.33490    1.000
    H151     H        0.53870    0.79430    0.33570    1.000
    H152     H        0.63950    0.83770    0.41140    1.000
    C153     C        0.68650    0.72930    0.25950    1.000
    H154     H        0.74240    0.77680    0.28040    1.000
    C155     C        0.66510    0.64130    0.20810    1.000
    H156     H        0.70400    0.61760    0.18700    1.000
    C157     C        0.54690    0.65230    0.23300    1.000
    H158     H        0.48810    0.63830    0.23240    1.000
    C159     C        0.62660    0.75720    0.97600    1.000
    H160     H        0.66460    0.75140    0.93600    1.000
    C161     C        0.63930    0.83210    0.05130    1.000
    H162     H        0.68670    0.88830    0.07320    1.000
    C163     C        0.51500    0.72380    0.03680    1.000
    H164     H        0.46210    0.69270    0.04790    1.000
    C165     C        0.55100    0.87060    0.17580    1.000
    C166     C        0.47480    0.76920    0.66100    1.000
    C167     C        0.44560    0.74920    0.73700    1.000
    C168     C        0.40770    0.78930    0.79100    1.000
    C169     C        0.37170    0.86110    0.74570    1.000
    N170     N        0.49580    0.92820    0.36570    1.000
    N171     N        0.35380    0.91020    0.31220    1.000
    N172     N        0.85250    0.10610    0.58340    1.000
    N173     N        0.77470    0.99470    0.42130    1.000
    N174     N        0.61190    0.73550    0.27500    1.000
    N175     N        0.57600    0.59260    0.19240    1.000
    N176     N        0.54940    0.69000    0.96640    1.000
    N177     N        0.57080    0.81160    0.08990    1.000
    O178     O        0.43740    0.69020    0.56210    1.000
    O179     O        0.54370    0.82830    0.65010    1.000
    O180     O        0.34360    0.83680    0.64280    1.000
    O181     O        0.42120    0.93680    0.82400    1.000
    Ag193    Ag       0.10284    0.76728    0.29648    1.000
    Ag194    Ag       0.54674    0.49344    0.38529    1.000
    C195     C        0.03690    0.40990    0.12510    1.000
    H196     H        0.98180    0.39500    0.14250    1.000
    H197     H        0.02180    0.37320    0.04880    1.000
    C198     C        0.05410    0.56710    0.19930    1.000
    H199     H        0.02100    0.55600    0.24590    1.000
    C200     C        0.11910    0.54550    0.07800    1.000
    H201     H        0.14010    0.51950    0.02580    1.000
    C202     C        0.12970    0.63130    0.11180    1.000
    H203     H        0.16070    0.67510    0.08620    1.000
    C204     C        0.91990    0.20190    0.01840    1.000
    H205     H        0.88170    0.22270    0.04650    1.000
    C206     C        0.96800    0.13240    0.91330    1.000
    H207     H        0.97120    0.09400    0.85220    1.000
    C208     C        0.03700    0.18080    0.01120    1.000
    H209     H        0.09490    0.18290    0.02830    1.000
    C210     C        0.05320    0.28760    0.19110    1.000
    H211     H        0.01030    0.28530    0.22970    1.000
    H212     H        0.09590    0.26750    0.22810    1.000
    C213     C        0.10370    0.38470    0.20270    1.000
    C214     C        0.18420    0.40000    0.16510    1.000
    H215     H        0.20570    0.46130    0.16430    1.000
    H216     H        0.16230    0.36050    0.08860    1.000
    C217     C        0.27070    0.31350    0.24050    1.000
    H218     H        0.22320    0.25760    0.21960    1.000
    C219     C        0.35870    0.33490    0.29190    1.000
    H220     H        0.38240    0.29600    0.31300    1.000
    C221     C        0.34770    0.45310    0.26700    1.000
    H222     H        0.36170    0.51190    0.26760    1.000
    C223     C        0.24280    0.37340    0.52400    1.000
    H224     H        0.24860    0.33540    0.56400    1.000
    C225     C        0.16790    0.36070    0.44870    1.000
    H226     H        0.11170    0.31330    0.42680    1.000
    C227     C        0.27620    0.48500    0.46320    1.000
    H228     H        0.30730    0.53790    0.45210    1.000
    C229     C        0.12940    0.44900    0.32420    1.000
    C230     C        0.23080    0.52520    0.83900    1.000
    C231     C        0.25080    0.55440    0.76300    1.000
    C232     C        0.21070    0.59230    0.70900    1.000
    C233     C        0.13890    0.62830    0.75430    1.000
    N234     N        0.07180    0.50420    0.13430    1.000
    N235     N        0.08980    0.64620    0.18780    1.000
    N236     N        0.89390    0.14750    0.91660    1.000
    N237     N        0.00530    0.22530    0.07870    1.000
    N238     N        0.26450    0.38810    0.22500    1.000
    N239     N        0.40740    0.42400    0.30760    1.000
    N240     N        0.31000    0.45060    0.53360    1.000
    N241     N        0.18840    0.42920    0.41010    1.000
    O242     O        0.30980    0.56260    0.93790    1.000
    O243     O        0.17170    0.45630    0.84990    1.000
    O244     O        0.16320    0.65640    0.85720    1.000
    O245     O        0.06320    0.57880    0.67600    1.000
