data_functionalizedCrystal
_audit_creation_method	'EQeq! by Chris Wilmer'
_symmetry_space_group_name_H-M	'P1'
_symmetry_Int_Tables_number	1
_symmetry_cell_setting	triclinic
loop_
_symmetry_equiv_pos_as_xyz
  x,y,z
_cell_length_a	11.2337
_cell_length_b	11.2337
_cell_length_c	22.245
_cell_angle_alpha	96.2337
_cell_angle_beta	96.2337
_cell_angle_gamma	100.981
loop_
_atom_site_label
_atom_site_type_symbol
_atom_site_fract_x
_atom_site_fract_y
_atom_site_fract_z
_atom_site_charge
Mof_Cd	Cd	0.70165	0.8463	0.36744	0.294
Mof_Cd	Cd	0.84629	0.70165	0.86744	0.294
Mof_H 	H 	0.7881	0.2967	0.5022	0.11
Mof_H 	H 	0.8427	0.6195	0.6117	0.099
Mof_H 	H 	0.1204	0.4402	0.5988	0.105
Mof_H 	H 	0.0788	0.2314	0.5517	0.077
Mof_H 	H 	0.0513	0.2661	0.4844	0.08
Mof_H 	H 	0.9148	0.0934	0.413	-0.002
Mof_H 	H 	0.7191	0.9169	0.5251	0.02
Mof_H 	H 	0.8634	0.0912	0.5872	0.031
Mof_H 	H 	0.6368	0.5186	0.5681	0.078
Mof_H 	H 	0.6123	0.3853	0.5297	0.079
Mof_H 	H 	0.7025	0.7053	0.5077	0.002
Mof_H 	H 	0.6206	0.5342	0.3394	0.016
Mof_H 	H 	0.602	0.3754	0.4083	0.029
Mof_H 	H 	0.0652	0.7296	0.6403	0.078
Mof_H 	H 	0.1663	0.6475	0.6467	0.079
Mof_H 	H 	0.9343	0.7455	0.7297	-0.004
Mof_H 	H 	0.1213	0.5963	0.8503	0.019
Mof_H 	H 	0.1989	0.5573	0.7523	0.029
Mof_H 	H 	0.2967	0.7881	0.0022	0.107
Mof_H 	H 	0.6195	0.8427	0.1117	0.098
Mof_H 	H 	0.4402	0.1204	0.0988	0.103
Mof_H 	H 	0.2314	0.0788	0.0517	0.075
Mof_H 	H 	0.2661	0.0513	0.9844	0.077
Mof_H 	H 	0.0934	0.9148	0.913	-0.002
Mof_H 	H 	0.9169	0.7191	0.0251	0.02
Mof_H 	H 	0.0912	0.8634	0.0872	0.031
Mof_H 	H 	0.5186	0.6368	0.0681	0.077
Mof_H 	H 	0.3853	0.6123	0.0297	0.078
Mof_H 	H 	0.7053	0.7025	0.0077	0.001
Mof_H 	H 	0.5342	0.6206	0.8394	0.016
Mof_H 	H 	0.3754	0.602	0.9083	0.029
Mof_H 	H 	0.7296	0.0652	0.1403	0.077
Mof_H 	H 	0.6475	0.1663	0.1467	0.078
Mof_H 	H 	0.7455	0.9343	0.2297	-0.004
Mof_H 	H 	0.5963	0.1213	0.3503	0.019
Mof_H 	H 	0.5573	0.1989	0.2523	0.029
Mof_C 	C 	0.96111	0.35131	0.54672	0.168
Mof_C 	C 	0.84067	0.35953	0.53026	-0.22
Mof_C 	C 	0.79602	0.45944	0.55466	0.165
Mof_C 	C 	0.87338	0.55176	0.59495	-0.224
Mof_C 	C 	0.99531	0.54671	0.6113	0.166
Mof_C 	C 	0.03771	0.44543	0.58731	-0.224
Mof_C 	C 	0.01356	0.24488	0.52103	-0.164
Mof_C 	C 	0.88298	0.07068	0.4489	0.083
Mof_C 	C 	0.77745	0.97515	0.50997	0.006
Mof_C 	C 	0.85571	0.07061	0.54423	-0.012
Mof_C 	C 	0.66494	0.46812	0.53538	-0.167
Mof_C 	C 	0.67941	0.64281	0.47374	0.073
Mof_C 	C 	0.6352	0.5493	0.38265	-0.003
Mof_C 	C 	0.62416	0.46138	0.42005	-0.015
Mof_C 	C 	0.081	0.65142	0.65273	-0.165
Mof_C 	C 	0.99064	0.70236	0.74794	0.077
Mof_C 	C 	0.09218	0.62162	0.81301	0.006
Mof_C 	C 	0.13543	0.59997	0.75958	-0.012
Mof_C 	C 	0.35131	0.96111	0.04672	0.161
Mof_C 	C 	0.35953	0.84067	0.03026	-0.216
Mof_C 	C 	0.45944	0.79602	0.05466	0.162
Mof_C 	C 	0.55176	0.87338	0.09495	-0.22
Mof_C 	C 	0.54671	0.99531	0.1113	0.16
Mof_C 	C 	0.44543	0.03771	0.08731	-0.216
Mof_C 	C 	0.24488	0.01356	0.02103	-0.155
Mof_C 	C 	0.07068	0.88298	0.9489	0.085
Mof_C 	C 	0.97515	0.77745	0.00997	0.005
Mof_C 	C 	0.07061	0.85571	0.04423	-0.012
Mof_C 	C 	0.46812	0.66494	0.03538	-0.165
Mof_C 	C 	0.64281	0.67941	0.97374	0.074
Mof_C 	C 	0.5493	0.6352	0.88265	-0.003
Mof_C 	C 	0.46138	0.62416	0.92005	-0.015
Mof_C 	C 	0.65142	0.081	0.15273	-0.161
Mof_C 	C 	0.70236	0.99064	0.24794	0.076
Mof_C 	C 	0.62162	0.09218	0.31301	0.006
Mof_C 	C 	0.59997	0.13543	0.25958	-0.012
Mof_N 	N 	0.92193	0.13193	0.50463	-0.101
Mof_N 	N 	0.79522	0.97518	0.4497	-0.153
Mof_N 	N 	0.65176	0.52228	0.47837	-0.099
Mof_N 	N 	0.67056	0.66336	0.41614	-0.152
Mof_N 	N 	0.06937	0.65163	0.71776	-0.099
Mof_N 	N 	0.0005	0.68552	0.80583	-0.151
Mof_N 	N 	0.13193	0.92193	0.00463	-0.104
Mof_N 	N 	0.97518	0.79522	0.9497	-0.153
Mof_N 	N 	0.52228	0.65176	0.97837	-0.099
Mof_N 	N 	0.66336	0.67056	0.91614	-0.152
Mof_N 	N 	0.65163	0.06937	0.21776	-0.099
Mof_N 	N 	0.68552	0.0005	0.30583	-0.151
Mof_Cd	Cd	0.1537	0.29835	0.13256	0.293
Mof_Cd	Cd	0.29835	0.15371	0.63256	0.293
Mof_H 	H 	0.7033	0.2119	0.9978	0.107
Mof_H 	H 	0.3805	0.1573	0.8883	0.098
Mof_H 	H 	0.5598	0.8796	0.9012	0.103
Mof_H 	H 	0.7686	0.9212	0.9483	0.075
Mof_H 	H 	0.7339	0.9487	0.0156	0.077
Mof_H 	H 	0.9066	0.0852	0.087	-0.002
Mof_H 	H 	0.0831	0.2809	0.9749	0.02
Mof_H 	H 	0.9088	0.1366	0.9128	0.031
Mof_H 	H 	0.4814	0.3632	0.9319	0.077
Mof_H 	H 	0.6147	0.3877	0.9703	0.078
Mof_H 	H 	0.2947	0.2975	0.9923	0.001
Mof_H 	H 	0.4658	0.3794	0.1606	0.016
Mof_H 	H 	0.6246	0.398	0.0917	0.029
Mof_H 	H 	0.2704	0.9348	0.8597	0.077
Mof_H 	H 	0.3525	0.8337	0.8533	0.078
Mof_H 	H 	0.2545	0.0657	0.7703	-0.004
Mof_H 	H 	0.4037	0.8787	0.6497	0.019
Mof_H 	H 	0.4427	0.8011	0.7477	0.029
Mof_H 	H 	0.2119	0.7033	0.4978	0.109
Mof_H 	H 	0.1573	0.3805	0.3883	0.099
Mof_H 	H 	0.8796	0.5598	0.4012	0.105
Mof_H 	H 	0.9212	0.7686	0.4483	0.077
Mof_H 	H 	0.9487	0.7339	0.5156	0.08
Mof_H 	H 	0.0852	0.9066	0.587	-0.002
Mof_H 	H 	0.2809	0.0831	0.4749	0.02
Mof_H 	H 	0.1366	0.9088	0.4128	0.031
Mof_H 	H 	0.3632	0.4814	0.4319	0.078
Mof_H 	H 	0.3877	0.6147	0.4703	0.079
Mof_H 	H 	0.2975	0.2947	0.4923	0.002
Mof_H 	H 	0.3794	0.4658	0.6606	0.016
Mof_H 	H 	0.398	0.6246	0.5917	0.029
Mof_H 	H 	0.9348	0.2704	0.3597	0.078
Mof_H 	H 	0.8337	0.3525	0.3533	0.079
Mof_H 	H 	0.0657	0.2545	0.2703	-0.004
Mof_H 	H 	0.8787	0.4037	0.1497	0.019
Mof_H 	H 	0.8011	0.4427	0.2477	0.029
Mof_C 	C 	0.64869	0.03889	0.95328	0.161
Mof_C 	C 	0.64047	0.15933	0.96974	-0.216
Mof_C 	C 	0.54056	0.20398	0.94534	0.162
Mof_C 	C 	0.44824	0.12662	0.90505	-0.22
Mof_C 	C 	0.45329	0.00469	0.8887	0.16
Mof_C 	C 	0.55457	0.96229	0.91269	-0.216
Mof_C 	C 	0.75512	0.98644	0.97897	-0.155
Mof_C 	C 	0.92932	0.11702	0.0511	0.085
Mof_C 	C 	0.02485	0.22255	0.99003	0.005
Mof_C 	C 	0.92939	0.14429	0.95577	-0.012
Mof_C 	C 	0.53188	0.33506	0.96462	-0.165
Mof_C 	C 	0.35719	0.32059	0.02626	0.074
Mof_C 	C 	0.4507	0.3648	0.11735	-0.003
Mof_C 	C 	0.53862	0.37584	0.07995	-0.015
Mof_C 	C 	0.34858	0.919	0.84727	-0.161
Mof_C 	C 	0.29764	0.00936	0.75206	0.076
Mof_C 	C 	0.37838	0.90782	0.68699	0.006
Mof_C 	C 	0.40003	0.86457	0.74042	-0.012
Mof_C 	C 	0.03889	0.64869	0.45328	0.168
Mof_C 	C 	0.15933	0.64047	0.46974	-0.22
Mof_C 	C 	0.20398	0.54056	0.44534	0.165
Mof_C 	C 	0.12662	0.44824	0.40505	-0.224
Mof_C 	C 	0.00469	0.45329	0.3887	0.166
Mof_C 	C 	0.96229	0.55457	0.41269	-0.223
Mof_C 	C 	0.98644	0.75512	0.47897	-0.164
Mof_C 	C 	0.11702	0.92932	0.5511	0.083
Mof_C 	C 	0.22255	0.02485	0.49003	0.006
Mof_C 	C 	0.14429	0.92939	0.45577	-0.012
Mof_C 	C 	0.33506	0.53188	0.46462	-0.167
Mof_C 	C 	0.32059	0.35719	0.52626	0.073
Mof_C 	C 	0.3648	0.4507	0.61735	-0.003
Mof_C 	C 	0.37584	0.53862	0.57995	-0.015
Mof_C 	C 	0.919	0.34858	0.34727	-0.165
Mof_C 	C 	0.00936	0.29764	0.25206	0.077
Mof_C 	C 	0.90782	0.37838	0.18699	0.006
Mof_C 	C 	0.86457	0.40003	0.24042	-0.012
Mof_N 	N 	0.86807	0.07807	0.99537	-0.104
Mof_N 	N 	0.02482	0.20478	0.0503	-0.153
Mof_N 	N 	0.47772	0.34824	0.02163	-0.099
Mof_N 	N 	0.33664	0.32944	0.08386	-0.152
Mof_N 	N 	0.34837	0.93063	0.78224	-0.099
Mof_N 	N 	0.31448	0.9995	0.69417	-0.151
Mof_N 	N 	0.07807	0.86807	0.49537	-0.101
Mof_N 	N 	0.20478	0.02482	0.5503	-0.153
Mof_N 	N 	0.34824	0.47772	0.52163	-0.099
Mof_N 	N 	0.32944	0.33664	0.58386	-0.152
Mof_N 	N 	0.93063	0.34837	0.28224	-0.099
Mof_N 	N 	0.9995	0.31448	0.19417	-0.151
_end
