data_functionalizedCrystal
_audit_creation_method	'EQeq! by Chris Wilmer'
_symmetry_space_group_name_H-M	'P1'
_symmetry_Int_Tables_number	1
_symmetry_cell_setting	triclinic
loop_
_symmetry_equiv_pos_as_xyz
  x,y,z
_cell_length_a	14.823
_cell_length_b	14.823
_cell_length_c	16.0286
_cell_angle_alpha	83.2547
_cell_angle_beta	83.2547
_cell_angle_gamma	86.8758
loop_
_atom_site_label
_atom_site_type_symbol
_atom_site_fract_x
_atom_site_fract_y
_atom_site_fract_z
_atom_site_charge
Mof_Zn	Zn	0.12328	0.89604	0.15597	1.214
Mof_Zn	Zn	0.10396	0.87672	0.34403	1.214
Mof_B 	B 	0.0809	0.4051	0.1419	1.878
Mof_B 	B 	0.5949	0.9191	0.3581	1.88
Mof_H 	H 	0.1266	0.6206	0.0572	0.385
Mof_H 	H 	0.131	0.146	0.4174	0.283
Mof_H 	H 	0.4322	0.9636	0.4293	0.409
Mof_H 	H 	0.4511	0.7977	0.0897	0.294
Mof_H 	H 	0.2241	0.6931	0.5835	0.123
Mof_H 	H 	0.2023	0.5489	0.4103	0.295
Mof_H 	H 	0.106	0.772	0.77	0.161
Mof_H 	H 	0.2098	0.7518	0.4471	-0.027
Mof_H 	H 	0.2063	0.0965	0.3599	0.284
Mof_H 	H 	0.2864	0.7428	0.702	-0.045
Mof_H 	H 	0.0364	0.5678	0.0707	0.406
Mof_H 	H 	0.9035	0.7937	0.1401	0.284
Mof_H 	H 	0.809	0.7756	0.1118	0.285
Mof_H 	H 	0.2289	0.2957	0.6218	0.066
Mof_H 	H 	0.0719	0.9761	0.9763	-0.055
Mof_H 	H 	0.0382	0.321	0.4627	0.068
Mof_H 	H 	0.854	0.869	0.0826	0.281
Mof_H 	H 	0.1209	0.6211	0.4131	0.31
Mof_H 	H 	0.6557	0.6631	0.9885	0.032
Mof_H 	H 	0.3222	0.8616	0.761	0.174
Mof_H 	H 	0.3369	0.3443	0.5115	0.035
Mof_H 	H 	0.6193	0.7039	0.124	0.074
Mof_H 	H 	0.228	0.894	0.73	0.159
Mof_H 	H 	0.3794	0.8734	0.4428	0.387
Mof_H 	H 	0.0686	0.1604	0.0683	0.359
Mof_H 	H 	0.9958	0.2394	0.0831	0.354
Mof_H 	H 	0.0239	0.9281	0.5237	-0.055
Mof_H 	H 	0.1037	0.5183	0.4434	0.29
Mof_H 	H 	0.1203	0.9593	0.8373	0.137
Mof_H 	H 	0.2572	0.7136	0.798	-0.045
Mof_H 	H 	0.2482	0.7902	0.0529	-0.025
Mof_H 	H 	0.0932	0.2614	0.0383	0.362
Mof_H 	H 	0.1384	0.6778	0.739	0.174
Mof_H 	H 	0.2961	0.3807	0.376	0.072
Mof_H 	H 	0.3346	0.963	0.401	0.363
Mof_H 	H 	0.2244	0.191	0.3882	0.285
Mof_H 	H 	0.4817	0.8963	0.0566	0.288
Mof_H 	H 	0.679	0.9618	0.0373	0.07
Mof_H 	H 	0.7386	0.9068	0.4617	0.357
Mof_H 	H 	0.7606	0.0042	0.4169	0.347
Mof_H 	H 	0.7043	0.7711	0.8782	0.068
Mof_H 	H 	0.7098	0.9214	0.9019	0.029
Mof_H 	H 	0.037	0.6654	0.099	0.361
Mof_H 	H 	0.3789	0.8791	0.0869	0.309
Mof_H 	H 	0.0407	0.8797	0.6627	0.136
Mof_H 	H 	0.0786	0.2902	0.5981	0.031
Mof_H 	H 	0.8396	0.9314	0.4317	0.354
Mof_H 	H 	0.3069	0.7759	0.9165	0.119
Mof_C 	C 	0.6886	0.788	0.9323	-0.104
Mof_C 	C 	0.7702	0.909	0.3353	0.492
Mof_C 	C 	0.6471	0.8369	0.0948	0.057
Mof_C 	C 	0.5396	0.8794	0.2176	-0.026
Mof_C 	C 	0.1736	0.7768	0.4907	0.123
Mof_C 	C 	0.1344	0.7804	0.6396	0.259
Mof_C 	C 	0.1086	0.612	0.2497	-0.416
Mof_C 	C 	0.7983	0.8583	0.205	0.321
Mof_C 	C 	0.3907	0.9285	0.4061	-1.131
Mof_C 	C 	0.1293	0.2967	0.2722	-0.024
Mof_C 	C 	0.6934	0.8774	0.9467	0.02
Mof_C 	C 	0.1792	0.1546	0.3721	-0.86
Mof_C 	C 	0.2577	0.8161	0.9272	-0.263
Mof_C 	C 	0.8454	0.8208	0.1279	-0.859
Mof_C 	C 	0.11212	0.71212	0.2496	0.489
Mof_C 	C 	0.388	0.8914	0.2503	-0.416
Mof_C 	C 	0.639	0.7474	0.0798	-0.14
Mof_C 	C 	0.4404	0.861	0.0965	-0.888
Mof_C 	C 	0.212	0.3114	0.5677	-0.098
Mof_C 	C 	0.1113	0.0609	0.2247	0.482
Mof_C 	C 	0.7033	0.8707	0.2278	-0.023
Mof_C 	C 	0.0749	0.8513	0.62	-0.304
Mof_C 	C 	0.0982	0.326	0.4724	-0.134
Mof_C 	C 	0.0659	0.8807	0.5356	0.152
Mof_C 	C 	0.091	0.2298	0.1647	0.496
Mof_C 	C 	0.1487	0.9251	0.88	-0.304
Mof_C 	C 	0.8395	0.8843	0.2727	-0.403
Mof_C 	C 	0.1839	0.7423	0.5728	-0.273
Mof_C 	C 	0.6603	0.7231	0.9986	0.027
Mof_C 	C 	0.1226	0.3066	0.5533	0.012
Mof_C 	C 	0.2196	0.8656	0.8604	0.257
Mof_C 	C 	0.1417	0.2017	0.295	0.322
Mof_C 	C 	0.9391	0.8887	0.2753	0.481
Mof_C 	C 	0.0715	0.6093	0.0939	-1.126
Mof_C 	C 	0.1631	0.3529	0.4052	0.052
Mof_C 	C 	0.1495	0.7423	0.7308	-0.439
Mof_C 	C 	0.0594	0.222	0.0812	-1.082
Mof_C 	C 	0.2769	0.3397	0.5014	0.021
Mof_C 	C 	0.2526	0.361	0.4202	-0.135
Mof_C 	C 	0.1193	0.9341	0.9644	0.158
Mof_C 	C 	0.2577	0.8505	0.7692	-0.438
Mof_C 	C 	0.778	0.9406	0.4188	-1.066
Mof_C 	C 	0.1374	0.3716	0.3178	-0.041
Mof_C 	C 	0.674	0.9018	0.0276	-0.141
Mof_C 	C 	0.1236	0.5448	0.3159	0.337
Mof_C 	C 	0.2437	0.7563	0.75	0.251
Mof_C 	C 	0.1206	0.4604	0.2824	-0.027
Mof_C 	C 	0.1157	0.1605	0.2273	-0.405
Mof_C 	C 	0.6284	0.8626	0.1822	-0.043
Mof_C 	C 	0.0939	0.5691	0.1785	0.514
Mof_C 	C 	0.4552	0.8764	0.1841	0.336
Mof_C 	C 	0.28788	0.88788	0.2504	0.489
Mof_C 	C 	0.2232	0.8264	0.0093	0.113
Mof_C 	C 	0.139	0.5596	0.4035	-0.891
Mof_C 	C 	0.4309	0.9061	0.3215	0.515
Mof_N 	N 	0.15462	0.88652	0.029	-0.286
Mof_N 	N 	0.11348	0.84538	0.471	-0.284
Mof_N 	N 	0.68866	0.9011	0.3082	-0.477
Mof_N 	N 	0.10021	0.47795	0.1993	-0.472
Mof_N 	N 	0.0989	0.31134	0.1918	-0.477
Mof_N 	N 	0.52205	0.89979	0.3007	-0.473
Mof_O 	O 	0.09659	0.74469	0.3199	-0.501
Mof_O 	O 	0.9887	0.89006	0.2057	-0.515
Mof_O 	O 	0.10994	0.0113	0.2943	-0.515
Mof_O 	O 	0.96734	0.89104	0.3469	-0.494
Mof_O 	O 	0.13006	0.75828	0.1788	-0.506
Mof_O 	O 	0.24172	0.86994	0.3212	-0.506
Mof_O 	O 	0.10896	0.03266	0.1531	-0.494
Mof_O 	O 	0.25531	0.90341	0.1801	-0.501
Mof_F 	F 	0.99086	0.41354	0.1257	-0.841
Mof_F 	F 	0.13815	0.41451	0.067	-0.839
Mof_F 	F 	0.58549	0.86185	0.433	-0.839
Mof_F 	F 	0.58646	0.00914	0.3743	-0.844
Mof_Zn	Zn	0.87672	0.10396	0.84403	1.213
Mof_Zn	Zn	0.89604	0.12328	0.65597	1.213
Mof_B 	B 	0.9191	0.5949	0.8581	1.877
Mof_B 	B 	0.4051	0.0809	0.6419	1.879
Mof_H 	H 	0.2394	0.9958	0.5831	0.347
Mof_H 	H 	0.0042	0.7606	0.9169	0.354
Mof_H 	H 	0.6631	0.6557	0.4885	0.035
Mof_H 	H 	0.9761	0.0719	0.4763	-0.055
Mof_H 	H 	0.8963	0.4817	0.5566	0.29
Mof_H 	H 	0.146	0.131	0.9174	0.281
Mof_H 	H 	0.3807	0.2961	0.876	0.074
Mof_H 	H 	0.0965	0.2063	0.8599	0.284
Mof_H 	H 	0.5183	0.1037	0.9434	0.288
Mof_H 	H 	0.9314	0.8396	0.9317	0.359
Mof_H 	H 	0.963	0.3346	0.901	0.361
Mof_H 	H 	0.9618	0.679	0.5373	0.068
Mof_H 	H 	0.7518	0.2098	0.9471	-0.025
Mof_H 	H 	0.9593	0.1203	0.3373	0.136
Mof_H 	H 	0.7977	0.4511	0.5897	0.294
Mof_H 	H 	0.2614	0.0932	0.5383	0.357
Mof_H 	H 	0.7711	0.7043	0.3782	0.066
Mof_H 	H 	0.321	0.0382	0.9627	0.07
Mof_H 	H 	0.7759	0.3069	0.4165	0.122
Mof_H 	H 	0.6778	0.1384	0.239	0.174
Mof_H 	H 	0.7039	0.6193	0.624	0.072
Mof_H 	H 	0.894	0.228	0.23	0.16
Mof_H 	H 	0.6654	0.037	0.599	0.363
Mof_H 	H 	0.2902	0.0786	0.0981	0.029
Mof_H 	H 	0.6206	0.1266	0.5572	0.387
Mof_H 	H 	0.191	0.2244	0.8882	0.285
Mof_H 	H 	0.9214	0.7098	0.4019	0.031
Mof_H 	H 	0.7937	0.9035	0.6401	0.284
Mof_H 	H 	0.2957	0.2289	0.1218	0.068
Mof_H 	H 	0.8734	0.3794	0.9428	0.384
Mof_H 	H 	0.5678	0.0364	0.5707	0.408
Mof_H 	H 	0.8797	0.0407	0.1627	0.137
Mof_H 	H 	0.1604	0.0686	0.5683	0.354
Mof_H 	H 	0.7902	0.2482	0.5529	-0.028
Mof_H 	H 	0.7756	0.809	0.6118	0.285
Mof_H 	H 	0.3443	0.3369	0.0115	0.032
Mof_H 	H 	0.7428	0.2864	0.202	-0.045
Mof_H 	H 	0.9281	0.0239	0.0237	-0.055
Mof_H 	H 	0.9068	0.7386	0.9617	0.362
Mof_H 	H 	0.772	0.106	0.27	0.159
Mof_H 	H 	0.6931	0.2241	0.0835	0.119
Mof_H 	H 	0.869	0.854	0.5826	0.282
Mof_H 	H 	0.7136	0.2572	0.298	-0.045
Mof_H 	H 	0.8791	0.3789	0.5869	0.31
Mof_H 	H 	0.6211	0.1209	0.9131	0.309
Mof_H 	H 	0.8616	0.3222	0.261	0.174
Mof_H 	H 	0.9636	0.4322	0.9293	0.406
Mof_H 	H 	0.5489	0.2023	0.9103	0.293
Mof_C 	C 	0.0609	0.1113	0.7247	0.481
Mof_C 	C 	0.1546	0.1792	0.8721	-0.859
Mof_C 	C 	0.9018	0.674	0.5276	-0.134
Mof_C 	C 	0.861	0.4404	0.5965	-0.891
Mof_C 	C 	0.71212	0.11212	0.7496	0.489
Mof_C 	C 	0.9061	0.4309	0.8215	0.514
Mof_C 	C 	0.7768	0.1736	0.9907	0.113
Mof_C 	C 	0.7231	0.6603	0.4986	0.021
Mof_C 	C 	0.8656	0.2196	0.3604	0.259
Mof_C 	C 	0.8369	0.6471	0.5948	0.052
Mof_C 	C 	0.8774	0.6934	0.4467	0.012
Mof_C 	C 	0.8707	0.7033	0.7278	-0.024
Mof_C 	C 	0.9406	0.778	0.9188	-1.082
Mof_C 	C 	0.5596	0.139	0.9035	-0.888
Mof_C 	C 	0.3114	0.212	0.0677	-0.104
Mof_C 	C 	0.9341	0.1193	0.4644	0.152
Mof_C 	C 	0.8887	0.9391	0.7753	0.482
Mof_C 	C 	0.5448	0.1236	0.8159	0.336
Mof_C 	C 	0.88788	0.28788	0.7504	0.489
Mof_C 	C 	0.8161	0.2577	0.4272	-0.273
Mof_C 	C 	0.7474	0.639	0.5798	-0.135
Mof_C 	C 	0.2298	0.091	0.6647	0.492
Mof_C 	C 	0.7423	0.1839	0.0728	-0.263
Mof_C 	C 	0.8764	0.4552	0.6841	0.337
Mof_C 	C 	0.7804	0.1344	0.1396	0.257
Mof_C 	C 	0.361	0.2526	0.9202	-0.14
Mof_C 	C 	0.8626	0.6284	0.6822	-0.041
Mof_C 	C 	0.3397	0.2769	0.0014	0.027
Mof_C 	C 	0.8843	0.8395	0.7727	-0.405
Mof_C 	C 	0.6093	0.0715	0.5939	-1.131
Mof_C 	C 	0.8264	0.2232	0.5093	0.123
Mof_C 	C 	0.8583	0.7983	0.705	0.322
Mof_C 	C 	0.2017	0.1417	0.795	0.321
Mof_C 	C 	0.3529	0.1631	0.9052	0.057
Mof_C 	C 	0.4604	0.1206	0.7824	-0.026
Mof_C 	C 	0.8794	0.5396	0.7176	-0.027
Mof_C 	C 	0.8513	0.0749	0.12	-0.304
Mof_C 	C 	0.8807	0.0659	0.0356	0.158
Mof_C 	C 	0.788	0.6886	0.4323	-0.098
Mof_C 	C 	0.9251	0.1487	0.38	-0.304
Mof_C 	C 	0.909	0.7702	0.8353	0.496
Mof_C 	C 	0.2967	0.1293	0.7722	-0.023
Mof_C 	C 	0.3066	0.1226	0.0533	0.02
Mof_C 	C 	0.612	0.1086	0.7497	-0.416
Mof_C 	C 	0.222	0.0594	0.5812	-1.066
Mof_C 	C 	0.3716	0.1374	0.8178	-0.043
Mof_C 	C 	0.7423	0.1495	0.2308	-0.438
Mof_C 	C 	0.9285	0.3907	0.9061	-1.126
Mof_C 	C 	0.326	0.0982	0.9724	-0.141
Mof_C 	C 	0.7563	0.2437	0.25	0.251
Mof_C 	C 	0.8208	0.8454	0.6279	-0.86
Mof_C 	C 	0.5691	0.0939	0.6785	0.515
Mof_C 	C 	0.8914	0.388	0.7503	-0.416
Mof_C 	C 	0.1605	0.1157	0.7273	-0.403
Mof_C 	C 	0.8505	0.2577	0.2692	-0.439
Mof_N 	N 	0.9011	0.68866	0.8082	-0.477
Mof_N 	N 	0.31134	0.0989	0.6918	-0.477
Mof_N 	N 	0.47795	0.10021	0.6993	-0.473
Mof_N 	N 	0.88652	0.15462	0.529	-0.284
Mof_N 	N 	0.84538	0.11348	0.971	-0.286
Mof_N 	N 	0.89979	0.52205	0.8007	-0.472
Mof_O 	O 	0.74469	0.09659	0.8199	-0.501
Mof_O 	O 	0.03266	0.10896	0.6531	-0.494
Mof_O 	O 	0.86994	0.24172	0.8212	-0.506
Mof_O 	O 	0.75828	0.13006	0.6788	-0.506
Mof_O 	O 	0.90341	0.25531	0.6801	-0.501
Mof_O 	O 	0.0113	0.10994	0.7943	-0.515
Mof_O 	O 	0.89104	0.96734	0.8469	-0.494
Mof_O 	O 	0.89006	0.9887	0.7057	-0.515
Mof_F 	F 	0.41354	0.99086	0.6257	-0.844
Mof_F 	F 	0.00914	0.58646	0.8743	-0.841
Mof_F 	F 	0.41451	0.13815	0.567	-0.839
Mof_F 	F 	0.86185	0.58549	0.933	-0.839
_end
