data_functionalizedCrystal
_audit_creation_method	'EQeq! by Chris Wilmer'
_symmetry_space_group_name_H-M	'P1'
_symmetry_Int_Tables_number	1
_symmetry_cell_setting	triclinic
loop_
_symmetry_equiv_pos_as_xyz
  x,y,z
_cell_length_a	9.9736
_cell_length_b	12.7051
_cell_length_c	12.8489
_cell_angle_alpha	90
_cell_angle_beta	90
_cell_angle_gamma	90
loop_
_atom_site_label
_atom_site_type_symbol
_atom_site_fract_x
_atom_site_fract_y
_atom_site_fract_z
_atom_site_charge
Mof_U 	U 	0.59489	0.18686	0.2014	0.023
Mof_U 	U 	0.09489	0.31314	0.2986	0.024
Mof_U 	U 	0.90511	0.18686	0.7986	0.024
Mof_U 	U 	0.40511	0.31314	0.7014	0.024
Mof_U 	U 	0.40511	0.81314	0.7986	0.023
Mof_U 	U 	0.90511	0.68686	0.7014	0.024
Mof_U 	U 	0.09489	0.81314	0.2014	0.023
Mof_U 	U 	0.59489	0.68686	0.2986	0.023
Mof_H 	H 	0.8495	0.9381	0.3777	0.09
Mof_H 	H 	0.3495	0.5619	0.1223	0.09
Mof_H 	H 	0.6505	0.9381	0.6223	0.09
Mof_H 	H 	0.1505	0.5619	0.8777	0.09
Mof_H 	H 	0.1505	0.0619	0.6223	0.09
Mof_H 	H 	0.6505	0.4381	0.8777	0.09
Mof_H 	H 	0.3495	0.0619	0.3777	0.09
Mof_H 	H 	0.8495	0.4381	0.1223	0.09
Mof_C 	C 	0.8452	0.1418	0.3696	0.276
Mof_C 	C 	0.0306	0.2225	0.5458	0.27
Mof_C 	C 	0.0163	0.1086	0.5144	-0.003
Mof_C 	C 	0.9255	0.0713	0.4397	-0.011
Mof_C 	C 	0.9102	0.9631	0.4268	-0.022
Mof_C 	C 	0.3452	0.3582	0.1304	0.276
Mof_C 	C 	0.5306	0.2775	0.9542	0.272
Mof_C 	C 	0.5163	0.3914	0.9856	-0.004
Mof_C 	C 	0.4255	0.4287	0.0603	-0.012
Mof_C 	C 	0.4102	0.5369	0.0732	-0.021
Mof_C 	C 	0.6548	0.1418	0.6304	0.276
Mof_C 	C 	0.4694	0.2225	0.4542	0.271
Mof_C 	C 	0.4837	0.1086	0.4856	-0.003
Mof_C 	C 	0.5745	0.0713	0.5603	-0.012
Mof_C 	C 	0.5898	0.9631	0.5732	-0.021
Mof_C 	C 	0.1548	0.3582	0.8696	0.276
Mof_C 	C 	0.9694	0.2775	0.0458	0.265
Mof_C 	C 	0.9837	0.3914	0.0144	-0.003
Mof_C 	C 	0.0745	0.4287	0.9397	-0.013
Mof_C 	C 	0.0898	0.5369	0.9268	-0.021
Mof_C 	C 	0.1548	0.8582	0.6304	0.276
Mof_C 	C 	0.9694	0.7775	0.4542	0.27
Mof_C 	C 	0.9837	0.8914	0.4856	-0.003
Mof_C 	C 	0.0745	0.9287	0.5603	-0.011
Mof_C 	C 	0.0898	0.0369	0.5732	-0.022
Mof_C 	C 	0.6548	0.6418	0.8696	0.276
Mof_C 	C 	0.4694	0.7225	0.0458	0.272
Mof_C 	C 	0.4837	0.6086	0.0144	-0.004
Mof_C 	C 	0.5745	0.5713	0.9397	-0.012
Mof_C 	C 	0.5898	0.4631	0.9268	-0.021
Mof_C 	C 	0.3452	0.8582	0.3696	0.276
Mof_C 	C 	0.5306	0.7775	0.5458	0.271
Mof_C 	C 	0.5163	0.8914	0.5144	-0.003
Mof_C 	C 	0.4255	0.9287	0.4397	-0.012
Mof_C 	C 	0.4102	0.0369	0.4268	-0.021
Mof_C 	C 	0.8452	0.6418	0.1304	0.276
Mof_C 	C 	0.0306	0.7225	0.9542	0.265
Mof_C 	C 	0.0163	0.6086	0.9856	-0.003
Mof_C 	C 	0.9255	0.5713	0.0603	-0.013
Mof_C 	C 	0.9102	0.4631	0.0732	-0.021
Mof_O 	O 	0.7331	0.11023	0.33834	-0.175
Mof_O 	O 	0.0785	0.29115	0.48574	-0.146
Mof_O 	O 	0.9996	0.24492	0.63774	-0.15
Mof_O 	O 	0.8937	0.2301	0.3444	-0.152
Mof_O 	O 	0.2331	0.38977	0.16166	-0.174
Mof_O 	O 	0.5785	0.20885	0.01426	-0.147
Mof_O 	O 	0.4996	0.25508	0.86226	-0.151
Mof_O 	O 	0.3937	0.2699	0.1556	-0.152
Mof_O 	O 	0.7669	0.11023	0.66166	-0.175
Mof_O 	O 	0.4215	0.29115	0.51426	-0.147
Mof_O 	O 	0.5004	0.24492	0.36226	-0.151
Mof_O 	O 	0.6063	0.2301	0.6556	-0.152
Mof_O 	O 	0.2669	0.38977	0.83834	-0.175
Mof_O 	O 	0.9215	0.20885	0.98574	-0.143
Mof_O 	O 	0.0004	0.25508	0.13774	-0.147
Mof_O 	O 	0.1063	0.2699	0.8444	-0.153
Mof_O 	O 	0.2669	0.88977	0.66166	-0.175
Mof_O 	O 	0.9215	0.70885	0.51426	-0.146
Mof_O 	O 	0.0004	0.75508	0.36226	-0.15
Mof_O 	O 	0.1063	0.7699	0.6556	-0.152
Mof_O 	O 	0.7669	0.61023	0.83834	-0.174
Mof_O 	O 	0.4215	0.79115	0.98574	-0.147
Mof_O 	O 	0.5004	0.74492	0.13774	-0.151
Mof_O 	O 	0.6063	0.7301	0.8444	-0.152
Mof_O 	O 	0.2331	0.88977	0.33834	-0.175
Mof_O 	O 	0.5785	0.70885	0.48574	-0.147
Mof_O 	O 	0.4996	0.75508	0.63774	-0.151
Mof_O 	O 	0.3937	0.7699	0.3444	-0.152
Mof_O 	O 	0.7331	0.61023	0.16166	-0.175
Mof_O 	O 	0.0785	0.79115	0.01426	-0.143
Mof_O 	O 	0.9996	0.74492	0.86226	-0.147
Mof_O 	O 	0.8937	0.7301	0.1556	-0.153
_end
