data_functionalizedCrystal
_audit_creation_method	'EQeq! by Chris Wilmer'
_symmetry_space_group_name_H-M	'P1'
_symmetry_Int_Tables_number	1
_symmetry_cell_setting	triclinic
loop_
_symmetry_equiv_pos_as_xyz
  x,y,z
_cell_length_a	20.627
_cell_length_b	20.627
_cell_length_c	20.627
_cell_angle_alpha	60
_cell_angle_beta	60
_cell_angle_gamma	60
loop_
_atom_site_label
_atom_site_type_symbol
_atom_site_fract_x
_atom_site_fract_y
_atom_site_fract_z
_atom_site_charge
Mof_Zn	Zn	0.13471	0.28843	0.28843	1.217
Mof_Zn	Zn	0.28843	0.13471	0.28843	1.218
Mof_Zn	Zn	0.28843	0.28843	0.13471	1.217
Mof_Zn	Zn	0.28843	0.28843	0.28843	1.217
Mof_Zn	Zn	0.71157	0.86529	0.71157	1.216
Mof_Zn	Zn	0.86529	0.71157	0.71157	1.216
Mof_Zn	Zn	0.71157	0.71157	0.86529	1.217
Mof_Zn	Zn	0.71157	0.71157	0.71157	1.216
Mof_C 	C 	0.969	0.031	0.5	-0.049
Mof_C 	C 	0.031	0.969	0.5	0.006
Mof_C 	C 	0.5	0.5	0.969	0.007
Mof_C 	C 	0.5	0.5	0.031	-0.047
Mof_C 	C 	0.969	0.5	0.5	-0.058
Mof_C 	C 	0.031	0.5	0.5	0.013
Mof_C 	C 	0.5	0.969	0.031	0
Mof_C 	C 	0.5	0.031	0.969	-0.051
Mof_C 	C 	0.969	0.5	0.031	-0.004
Mof_C 	C 	0.031	0.5	0.969	-0.043
Mof_C 	C 	0.5	0.031	0.5	0.011
Mof_C 	C 	0.5	0.969	0.5	-0.056
Mof_C 	C 	0.1272	0.1272	0.3728	0.451
Mof_C 	C 	0.078	0.078	0.422	-0.147
Mof_C 	C 	0.3728	0.3728	0.1272	0.454
Mof_C 	C 	0.422	0.422	0.078	-0.159
Mof_C 	C 	0.1272	0.3728	0.3728	0.451
Mof_C 	C 	0.078	0.422	0.422	-0.149
Mof_C 	C 	0.3728	0.1272	0.1272	0.458
Mof_C 	C 	0.422	0.078	0.078	-0.159
Mof_C 	C 	0.1272	0.3728	0.1272	0.453
Mof_C 	C 	0.078	0.422	0.078	-0.154
Mof_C 	C 	0.3728	0.1272	0.3728	0.451
Mof_C 	C 	0.422	0.078	0.422	-0.15
Mof_C 	C 	0.8728	0.8728	0.6272	0.457
Mof_C 	C 	0.922	0.922	0.578	-0.168
Mof_C 	C 	0.6272	0.6272	0.8728	0.452
Mof_C 	C 	0.578	0.578	0.922	-0.154
Mof_C 	C 	0.6272	0.8728	0.6272	0.456
Mof_C 	C 	0.578	0.922	0.578	-0.163
Mof_C 	C 	0.8728	0.6272	0.8728	0.461
Mof_C 	C 	0.922	0.578	0.922	-0.165
Mof_C 	C 	0.6272	0.8728	0.8728	0.461
Mof_C 	C 	0.578	0.922	0.922	-0.164
Mof_C 	C 	0.8728	0.6272	0.6272	0.456
Mof_C 	C 	0.922	0.578	0.578	-0.165
Mof_C 	C 	0.9764	0.1288	0.4474	0.119
Mof_S 	S 	0.1288	0.9764	0.4474	0.026
Mof_S 	S 	0.4474	0.4474	0.9764	0.032
Mof_C 	C 	0.4474	0.4474	0.1288	0.127
Mof_C 	C 	0.9764	0.4474	0.4474	0.114
Mof_S 	S 	0.1288	0.4474	0.4474	0.031
Mof_S 	S 	0.4474	0.9764	0.1288	0.027
Mof_C 	C 	0.4474	0.1288	0.9764	0.135
Mof_S 	S 	0.9764	0.4474	0.1288	0.023
Mof_C 	C 	0.1288	0.4474	0.9764	0.132
Mof_S 	S 	0.4474	0.1288	0.4474	0.031
Mof_C 	C 	0.4474	0.9764	0.4474	0.117
Mof_C 	C 	0.8712	0.0236	0.5526	0.134
Mof_S 	S 	0.0236	0.8712	0.5526	0.039
Mof_C 	C 	0.5526	0.5526	0.0236	0.123
Mof_S 	S 	0.5526	0.5526	0.8712	0.029
Mof_S 	S 	0.5526	0.0236	0.5526	0.034
Mof_C 	C 	0.5526	0.8712	0.5526	0.134
Mof_C 	C 	0.0236	0.5526	0.8712	0.139
Mof_S 	S 	0.8712	0.5526	0.0236	0.031
Mof_C 	C 	0.5526	0.0236	0.8712	0.142
Mof_S 	S 	0.5526	0.8712	0.0236	0.031
Mof_C 	C 	0.8712	0.5526	0.5526	0.134
Mof_S 	S 	0.0236	0.5526	0.5526	0.039
Mof_O 	O 	0.25	0.25	0.25	-0.955
Mof_O 	O 	0.75	0.75	0.75	-0.954
Mof_O 	O 	0.0945	0.2005	0.3525	-0.531
Mof_O 	O 	0.2005	0.0945	0.3525	-0.527
Mof_O 	O 	0.3525	0.3525	0.0945	-0.531
Mof_O 	O 	0.3525	0.3525	0.2005	-0.532
Mof_O 	O 	0.0945	0.3525	0.3525	-0.535
Mof_O 	O 	0.2005	0.3525	0.3525	-0.527
Mof_O 	O 	0.3525	0.0945	0.2005	-0.529
Mof_O 	O 	0.3525	0.2005	0.0945	-0.554
Mof_O 	O 	0.0945	0.3525	0.2005	-0.528
Mof_O 	O 	0.2005	0.3525	0.0945	-0.535
Mof_O 	O 	0.3525	0.2005	0.3525	-0.527
Mof_O 	O 	0.3525	0.0945	0.3525	-0.535
Mof_O 	O 	0.7995	0.9055	0.6475	-0.538
Mof_O 	O 	0.9055	0.7995	0.6475	-0.533
Mof_O 	O 	0.6475	0.6475	0.9055	-0.53
Mof_O 	O 	0.6475	0.6475	0.7995	-0.529
Mof_O 	O 	0.6475	0.9055	0.6475	-0.533
Mof_O 	O 	0.6475	0.7995	0.6475	-0.536
Mof_O 	O 	0.9055	0.6475	0.7995	-0.56
Mof_O 	O 	0.7995	0.6475	0.9055	-0.53
Mof_O 	O 	0.6475	0.9055	0.7995	-0.561
Mof_O 	O 	0.6475	0.7995	0.9055	-0.529
Mof_O 	O 	0.7995	0.6475	0.6475	-0.535
Mof_O 	O 	0.9055	0.6475	0.6475	-0.532
Mof_C 	C 	0.44828	0.44828	0.18318	-0.24
Mof_C 	C 	0.55172	0.55172	0.07973	-0.236
Mof_H 	H 	0.48116	0.48941	0.16342	0.057
Mof_H 	H 	0.47978	0.38569	0.21764	0.077
Mof_H 	H 	0.38476	0.4706	0.22285	0.079
Mof_H 	H 	0.52027	0.50933	0.13391	0.055
Mof_H 	H 	0.51879	0.61401	0.08395	0.076
Mof_H 	H 	0.61524	0.53096	0.07746	0.077
Mof_C 	C 	0.95328	0.42512	0.42512	-0.24
Mof_C 	C 	0.81682	0.55172	0.55172	-0.258
Mof_H 	H 	0.9707	0.3577	0.45232	0.08
Mof_H 	H 	0.98017	0.44279	0.35767	0.085
Mof_H 	H 	0.88584	0.45258	0.44309	0.066
Mof_H 	H 	0.81035	0.49054	0.58974	0.075
Mof_H 	H 	0.8242	0.56535	0.48808	0.072
Mof_H 	H 	0.76154	0.59841	0.57648	0.083
Mof_C 	C 	0.42512	0.19649	0.95328	-0.277
Mof_C 	C 	0.57488	0.04672	0.80351	-0.287
Mof_H 	H 	0.40567	0.21863	0.90076	0.075
Mof_H 	H 	0.47484	0.21893	0.93345	0.082
Mof_H 	H 	0.52267	0.09167	0.7813	0.08
Mof_H 	H 	0.6196	0.07653	0.78116	0.08
Mof_C 	C 	0.42512	0.95328	0.42512	-0.243
Mof_C 	C 	0.55172	0.81682	0.55172	-0.259
Mof_H 	H 	0.44327	0.88582	0.45242	0.068
Mof_H 	H 	0.45215	0.97089	0.35768	0.083
Mof_H 	H 	0.35765	0.98	0.44298	0.087
Mof_H 	H 	0.58352	0.76084	0.59273	0.083
Mof_H 	H 	0.58316	0.81471	0.48866	0.074
Mof_H 	H 	0.48762	0.82053	0.57291	0.074
Mof_C 	C 	0.18318	0.44828	0.92027	-0.254
Mof_C 	C 	0.04672	0.57488	0.80351	-0.284
Mof_H 	H 	0.16407	0.47422	0.86662	0.072
Mof_H 	H 	0.22651	0.38514	0.92522	0.078
Mof_H 	H 	0.21333	0.48634	0.91285	0.078
Mof_H 	H 	0.07679	0.52267	0.78116	0.082
Mof_H 	H 	0.09145	0.60463	0.7813	0.079
Mof_C 	C 	0.92027	0.18318	0.44828	-0.24
Mof_C 	C 	0.81682	0.07973	0.55172	-0.252
Mof_H 	H 	0.86812	0.16567	0.50121	0.063
Mof_H 	H 	0.90755	0.20768	0.39102	0.074
Mof_H 	H 	0.92902	0.23056	0.45347	0.074
Mof_H 	H 	0.76327	0.06519	0.60463	0.081
Mof_H 	H 	0.8045	0.10388	0.49432	0.075
Mof_H 	H 	0.82832	0.12625	0.55535	0.062
Mof_H 	H 	0.37256	0.21958	0.0025	0.12
Mof_H 	H 	0.99505	0.61963	0.7804	0.13
Mof_H 	H 	0.60466	0.99509	0.7804	0.13
_end
