data_functionalizedCrystal
_audit_creation_method	'EQeq! by Chris Wilmer'
_symmetry_space_group_name_H-M	'P1'
_symmetry_Int_Tables_number	1
_symmetry_cell_setting	triclinic
loop_
_symmetry_equiv_pos_as_xyz
  x,y,z
_cell_length_a	8.2319
_cell_length_b	9.165
_cell_length_c	17.58
_cell_angle_alpha	90
_cell_angle_beta	90
_cell_angle_gamma	90
loop_
_atom_site_label
_atom_site_type_symbol
_atom_site_fract_x
_atom_site_fract_y
_atom_site_fract_z
_atom_site_charge
Mof_Al	Al	0.8613	0.8688	0.56605	5.148
Mof_Al	Al	0.9397	0.4122	0.46845	8.548
Mof_Al	Al	0.4426	0.5853	0.667	7.444
Mof_P 	P 	0.1335	0.6311	0.57117	1.688
Mof_P 	P 	0.0707	0.0905	0.47317	2.152
Mof_P 	P 	0.5641	0.9154	0.67268	2.096
Mof_O 	O 	0.9643	0.0331	0.536	-1.892
Mof_O 	O 	0.0143	0.242	0.4505	-2.666
Mof_O 	O 	0.2446	0.0979	0.5011	-2.672
Mof_O 	O 	0.4514	0.9877	0.6146	-2.609
Mof_O 	O 	0.5075	0.7587	0.6826	-2.414
Mof_O 	O 	0.7384	0.9211	0.6459	-1.858
Mof_O 	O 	0.5481	0.9892	0.7483	-2.28
Mof_O 	O 	0.0662	0.9949	0.4024	-2.32
Mof_O 	O 	0.2348	0.587	0.6402	-2.135
Mof_O 	O 	0.0555	0.4943	0.5386	-2.563
Mof_O 	O 	0.2385	0.705	0.5112	-1.897
Mof_O 	O 	0.0018	0.7332	0.5999	-1.705
Mof_Al	Al	0.6387	0.1312	0.06605	5.256
Mof_Al	Al	0.5603	0.5878	0.96845	8.622
Mof_Al	Al	0.0574	0.4147	0.167	7.395
Mof_P 	P 	0.3665	0.3689	0.07117	1.693
Mof_P 	P 	0.4293	0.9095	0.97317	2.206
Mof_P 	P 	0.9359	0.0846	0.17268	2.111
Mof_O 	O 	0.5357	0.9669	0.036	-1.922
Mof_O 	O 	0.4857	0.758	0.9505	-2.691
Mof_O 	O 	0.2554	0.9021	0.0011	-2.689
Mof_O 	O 	0.0486	0.0123	0.1146	-2.64
Mof_O 	O 	0.9925	0.2413	0.1826	-2.4
Mof_O 	O 	0.7616	0.0789	0.1459	-1.878
Mof_O 	O 	0.9519	0.0108	0.2483	-2.272
Mof_O 	O 	0.4338	0.0051	0.9024	-2.379
Mof_O 	O 	0.2652	0.413	0.1402	-2.129
Mof_O 	O 	0.4445	0.5057	0.0386	-2.583
Mof_O 	O 	0.2615	0.295	0.0112	-1.89
Mof_O 	O 	0.4982	0.2668	0.0999	-1.739
Mof_Al	Al	0.1387	0.3688	0.93395	5.137
Mof_Al	Al	0.0603	0.9122	0.03155	8.598
Mof_Al	Al	0.5574	0.0853	0.833	7.385
Mof_P 	P 	0.8665	0.1311	0.92883	1.681
Mof_P 	P 	0.9293	0.5905	0.02683	2.185
Mof_P 	P 	0.4359	0.4154	0.82732	2.1
Mof_O 	O 	0.0357	0.5331	0.964	-1.894
Mof_O 	O 	0.9857	0.742	0.0495	-2.684
Mof_O 	O 	0.7554	0.5979	0.9989	-2.691
Mof_O 	O 	0.5486	0.4877	0.8854	-2.633
Mof_O 	O 	0.4925	0.2587	0.8174	-2.407
Mof_O 	O 	0.2616	0.4211	0.8541	-1.86
Mof_O 	O 	0.4519	0.4892	0.7517	-2.303
Mof_O 	O 	0.9338	0.4949	0.0976	-2.35
Mof_O 	O 	0.7652	0.087	0.8598	-2.131
Mof_O 	O 	0.9445	0.9943	0.9614	-2.568
Mof_O 	O 	0.7615	0.205	0.9888	-1.922
Mof_O 	O 	0.9982	0.2332	0.9001	-1.712
Mof_Al	Al	0.3613	0.6312	0.43395	5.185
Mof_Al	Al	0.4397	0.0878	0.53155	8.549
Mof_Al	Al	0.9426	0.9147	0.333	7.316
Mof_P 	P 	0.6335	0.8689	0.42883	1.687
Mof_P 	P 	0.5707	0.4095	0.52683	2.169
Mof_P 	P 	0.0641	0.5846	0.32732	2.097
Mof_O 	O 	0.4643	0.4669	0.464	-1.895
Mof_O 	O 	0.5143	0.258	0.5495	-2.676
Mof_O 	O 	0.7446	0.4021	0.4989	-2.67
Mof_O 	O 	0.9514	0.5123	0.3854	-2.621
Mof_O 	O 	0.0075	0.7413	0.3174	-2.381
Mof_O 	O 	0.2384	0.5789	0.3541	-1.865
Mof_O 	O 	0.0481	0.5108	0.2517	-2.292
Mof_O 	O 	0.5662	0.5051	0.5976	-2.365
Mof_O 	O 	0.7348	0.913	0.3598	-2.114
Mof_O 	O 	0.5555	0.0057	0.4614	-2.573
Mof_O 	O 	0.7385	0.795	0.4888	-1.894
Mof_O 	O 	0.5018	0.7668	0.4001	-1.724
_end
