data_functionalizedCrystal
_audit_creation_method	'EQeq! by Chris Wilmer'
_symmetry_space_group_name_H-M	'P1'
_symmetry_Int_Tables_number	1
_symmetry_cell_setting	triclinic
loop_
_symmetry_equiv_pos_as_xyz
  x,y,z
_cell_length_a	8.849
_cell_length_b	8.849
_cell_length_c	11.553
_cell_angle_alpha	67.4821
_cell_angle_beta	67.4821
_cell_angle_gamma	60
loop_
_atom_site_label
_atom_site_type_symbol
_atom_site_fract_x
_atom_site_fract_y
_atom_site_fract_z
_atom_site_charge
Mof_Cd	Cd	-0	0	-0	0.25
Mof_Cd	Cd	0.40985	0.40985	0.77045	0.286
Mof_Cd	Cd	0.59015	0.59015	0.22955	0.282
Mof_C 	C 	0.48013	0.48013	0.55961	-0.064
Mof_C 	C 	0.51987	0.51987	0.44039	-0.064
Mof_C 	C 	0.2516	0.6627	0.8341	0.007
Mof_C 	C 	0.6627	0.2516	0.8341	0.007
Mof_C 	C 	0.2516	0.2516	0.8341	-0.009
Mof_C 	C 	0.7484	0.7484	0.1659	0.006
Mof_C 	C 	0.3373	0.7484	0.1659	-0.01
Mof_C 	C 	0.7484	0.3373	0.1659	-0.01
Mof_N 	N 	0.1688	0.786	0.8764	-0.104
Mof_N 	N 	0.786	0.1688	0.8764	-0.104
Mof_N 	N 	0.1688	0.1688	0.8764	-0.125
Mof_N 	N 	0.8312	0.8312	0.1236	-0.102
Mof_N 	N 	0.214	0.8312	0.1236	-0.123
Mof_N 	N 	0.8312	0.214	0.1236	-0.123
_end
