data_functionalizedCrystal
_audit_creation_method	'EQeq! by Chris Wilmer'
_symmetry_space_group_name_H-M	'P1'
_symmetry_Int_Tables_number	1
_symmetry_cell_setting	triclinic
loop_
_symmetry_equiv_pos_as_xyz
  x,y,z
_cell_length_a	12.9521
_cell_length_b	12.9521
_cell_length_c	12.9521
_cell_angle_alpha	90
_cell_angle_beta	90
_cell_angle_gamma	90
loop_
_atom_site_label
_atom_site_type_symbol
_atom_site_fract_x
_atom_site_fract_y
_atom_site_fract_z
_atom_site_charge
Mof_N 	N 	0.4667	0.1419	0.9417	0.002
Mof_N 	N 	0.4667	0.6419	0.4417	-0.06
Mof_N 	N 	0.9667	0.1419	0.4417	-0.092
Mof_N 	N 	0.9667	0.6419	0.9417	-0.051
Mof_N 	N 	0.5333	0.8581	0.9417	-0.01
Mof_N 	N 	0.5333	0.3581	0.4417	-0.069
Mof_N 	N 	0.0333	0.8581	0.4417	-0.023
Mof_N 	N 	0.0333	0.3581	0.9417	0.037
Mof_N 	N 	0.5333	0.1419	0.0583	-0.115
Mof_N 	N 	0.5333	0.6419	0.5583	-0.076
Mof_N 	N 	0.0333	0.1419	0.5583	-0.024
Mof_N 	N 	0.0333	0.6419	0.0583	-0.07
Mof_N 	N 	0.4667	0.8581	0.0583	-0.125
Mof_N 	N 	0.4667	0.3581	0.5583	-0.06
Mof_N 	N 	0.9667	0.8581	0.5583	-0.106
Mof_N 	N 	0.9667	0.3581	0.0583	-0.16
Mof_N 	N 	0.9417	0.4667	0.1419	0.003
Mof_N 	N 	0.9417	0.9667	0.6419	-0.05
Mof_N 	N 	0.4417	0.4667	0.6419	-0.059
Mof_N 	N 	0.4417	0.9667	0.1419	-0.091
Mof_N 	N 	0.9417	0.5333	0.8581	-0.009
Mof_N 	N 	0.9417	0.0333	0.3581	0.037
Mof_N 	N 	0.4417	0.5333	0.3581	-0.069
Mof_N 	N 	0.4417	0.0333	0.8581	-0.023
Mof_N 	N 	0.0583	0.5333	0.1419	-0.115
Mof_N 	N 	0.0583	0.0333	0.6419	-0.07
Mof_N 	N 	0.5583	0.5333	0.6419	-0.076
Mof_N 	N 	0.5583	0.0333	0.1419	-0.024
Mof_N 	N 	0.0583	0.4667	0.8581	-0.125
Mof_N 	N 	0.0583	0.9667	0.3581	-0.16
Mof_N 	N 	0.5583	0.4667	0.3581	-0.06
Mof_N 	N 	0.5583	0.9667	0.8581	-0.106
Mof_N 	N 	0.1419	0.9417	0.4667	0.003
Mof_N 	N 	0.1419	0.4417	0.9667	-0.091
Mof_N 	N 	0.6419	0.9417	0.9667	-0.05
Mof_N 	N 	0.6419	0.4417	0.4667	-0.059
Mof_N 	N 	0.8581	0.9417	0.5333	-0.009
Mof_N 	N 	0.8581	0.4417	0.0333	-0.023
Mof_N 	N 	0.3581	0.9417	0.0333	0.037
Mof_N 	N 	0.3581	0.4417	0.5333	-0.069
Mof_N 	N 	0.1419	0.0583	0.5333	-0.115
Mof_N 	N 	0.1419	0.5583	0.0333	-0.024
Mof_N 	N 	0.6419	0.0583	0.0333	-0.07
Mof_N 	N 	0.6419	0.5583	0.5333	-0.076
Mof_N 	N 	0.8581	0.0583	0.4667	-0.125
Mof_N 	N 	0.8581	0.5583	0.9667	-0.106
Mof_N 	N 	0.3581	0.0583	0.9667	-0.16
Mof_N 	N 	0.3581	0.5583	0.4667	-0.06
Mof_N 	N 	0.1419	0.4667	0.0583	-0.105
Mof_N 	N 	0.1419	0.9667	0.5583	-0.092
Mof_N 	N 	0.6419	0.4667	0.5583	-0.061
Mof_N 	N 	0.6419	0.9667	0.0583	-0.168
Mof_N 	N 	0.8581	0.5333	0.0583	-0.139
Mof_N 	N 	0.8581	0.0333	0.5583	-0.023
Mof_N 	N 	0.3581	0.5333	0.5583	-0.067
Mof_N 	N 	0.3581	0.0333	0.0583	-0.064
Mof_N 	N 	0.1419	0.5333	0.9417	-0.006
Mof_N 	N 	0.1419	0.0333	0.4417	-0.024
Mof_N 	N 	0.6419	0.5333	0.4417	-0.075
Mof_N 	N 	0.6419	0.0333	0.9417	0.039
Mof_N 	N 	0.8581	0.4667	0.9417	0.003
Mof_N 	N 	0.8581	0.9667	0.4417	-0.106
Mof_N 	N 	0.3581	0.4667	0.4417	-0.061
Mof_N 	N 	0.3581	0.9667	0.9417	-0.051
Mof_N 	N 	0.4667	0.9417	0.8581	0.003
Mof_N 	N 	0.4667	0.4417	0.3581	-0.061
Mof_N 	N 	0.9667	0.9417	0.3581	-0.051
Mof_N 	N 	0.9667	0.4417	0.8581	-0.106
Mof_N 	N 	0.5333	0.9417	0.1419	-0.006
Mof_N 	N 	0.5333	0.4417	0.6419	-0.075
Mof_N 	N 	0.0333	0.9417	0.6419	0.039
Mof_N 	N 	0.0333	0.4417	0.1419	-0.024
Mof_N 	N 	0.5333	0.0583	0.8581	-0.139
Mof_N 	N 	0.5333	0.5583	0.3581	-0.067
Mof_N 	N 	0.0333	0.0583	0.3581	-0.064
Mof_N 	N 	0.0333	0.5583	0.8581	-0.023
Mof_N 	N 	0.4667	0.0583	0.1419	-0.105
Mof_N 	N 	0.4667	0.5583	0.6419	-0.061
Mof_N 	N 	0.9667	0.0583	0.6419	-0.168
Mof_N 	N 	0.9667	0.5583	0.1419	-0.092
Mof_N 	N 	0.9417	0.1419	0.5333	-0.006
Mof_N 	N 	0.9417	0.6419	0.0333	0.039
Mof_N 	N 	0.4417	0.1419	0.0333	-0.024
Mof_N 	N 	0.4417	0.6419	0.5333	-0.075
Mof_N 	N 	0.9417	0.8581	0.4667	0.003
Mof_N 	N 	0.9417	0.3581	0.9667	-0.051
Mof_N 	N 	0.4417	0.8581	0.9667	-0.106
Mof_N 	N 	0.4417	0.3581	0.4667	-0.061
Mof_N 	N 	0.0583	0.1419	0.4667	-0.105
Mof_N 	N 	0.0583	0.6419	0.9667	-0.168
Mof_N 	N 	0.5583	0.1419	0.9667	-0.092
Mof_N 	N 	0.5583	0.6419	0.4667	-0.061
Mof_N 	N 	0.0583	0.8581	0.5333	-0.139
Mof_N 	N 	0.0583	0.3581	0.0333	-0.064
Mof_N 	N 	0.5583	0.8581	0.0333	-0.023
Mof_N 	N 	0.5583	0.3581	0.5333	-0.067
Mof_N 	N 	0.5333	0.8581	0.0583	-0.139
Mof_N 	N 	0.5333	0.3581	0.5583	-0.067
Mof_N 	N 	0.0333	0.8581	0.5583	-0.023
Mof_N 	N 	0.0333	0.3581	0.0583	-0.064
Mof_N 	N 	0.4667	0.1419	0.0583	-0.105
Mof_N 	N 	0.4667	0.6419	0.5583	-0.061
Mof_N 	N 	0.9667	0.1419	0.5583	-0.092
Mof_N 	N 	0.9667	0.6419	0.0583	-0.168
Mof_N 	N 	0.4667	0.8581	0.9417	0.003
Mof_N 	N 	0.4667	0.3581	0.4417	-0.061
Mof_N 	N 	0.9667	0.8581	0.4417	-0.106
Mof_N 	N 	0.9667	0.3581	0.9417	-0.051
Mof_N 	N 	0.5333	0.1419	0.9417	-0.006
Mof_N 	N 	0.5333	0.6419	0.4417	-0.075
Mof_N 	N 	0.0333	0.1419	0.4417	-0.024
Mof_N 	N 	0.0333	0.6419	0.9417	0.039
Mof_N 	N 	0.0583	0.5333	0.8581	-0.139
Mof_N 	N 	0.0583	0.0333	0.3581	-0.064
Mof_N 	N 	0.5583	0.5333	0.3581	-0.067
Mof_N 	N 	0.5583	0.0333	0.8581	-0.023
Mof_N 	N 	0.0583	0.4667	0.1419	-0.105
Mof_N 	N 	0.0583	0.9667	0.6419	-0.168
Mof_N 	N 	0.5583	0.4667	0.6419	-0.061
Mof_N 	N 	0.5583	0.9667	0.1419	-0.092
Mof_N 	N 	0.9417	0.4667	0.8581	0.003
Mof_N 	N 	0.9417	0.9667	0.3581	-0.051
Mof_N 	N 	0.4417	0.4667	0.3581	-0.061
Mof_N 	N 	0.4417	0.9667	0.8581	-0.106
Mof_N 	N 	0.9417	0.5333	0.1419	-0.006
Mof_N 	N 	0.9417	0.0333	0.6419	0.039
Mof_N 	N 	0.4417	0.5333	0.6419	-0.075
Mof_N 	N 	0.4417	0.0333	0.1419	-0.024
Mof_N 	N 	0.8581	0.0583	0.5333	-0.139
Mof_N 	N 	0.8581	0.5583	0.0333	-0.023
Mof_N 	N 	0.3581	0.0583	0.0333	-0.064
Mof_N 	N 	0.3581	0.5583	0.5333	-0.067
Mof_N 	N 	0.1419	0.0583	0.4667	-0.105
Mof_N 	N 	0.1419	0.5583	0.9667	-0.092
Mof_N 	N 	0.6419	0.0583	0.9667	-0.168
Mof_N 	N 	0.6419	0.5583	0.4667	-0.061
Mof_N 	N 	0.8581	0.9417	0.4667	0.003
Mof_N 	N 	0.8581	0.4417	0.9667	-0.106
Mof_N 	N 	0.3581	0.9417	0.9667	-0.051
Mof_N 	N 	0.3581	0.4417	0.4667	-0.061
Mof_N 	N 	0.1419	0.9417	0.5333	-0.006
Mof_N 	N 	0.1419	0.4417	0.0333	-0.024
Mof_N 	N 	0.6419	0.9417	0.0333	0.039
Mof_N 	N 	0.6419	0.4417	0.5333	-0.075
Mof_N 	N 	0.8581	0.5333	0.9417	-0.009
Mof_N 	N 	0.8581	0.0333	0.4417	-0.023
Mof_N 	N 	0.3581	0.5333	0.4417	-0.069
Mof_N 	N 	0.3581	0.0333	0.9417	0.037
Mof_N 	N 	0.1419	0.4667	0.9417	0.003
Mof_N 	N 	0.1419	0.9667	0.4417	-0.091
Mof_N 	N 	0.6419	0.4667	0.4417	-0.059
Mof_N 	N 	0.6419	0.9667	0.9417	-0.05
Mof_N 	N 	0.8581	0.4667	0.0583	-0.125
Mof_N 	N 	0.8581	0.9667	0.5583	-0.106
Mof_N 	N 	0.3581	0.4667	0.5583	-0.06
Mof_N 	N 	0.3581	0.9667	0.0583	-0.16
Mof_N 	N 	0.1419	0.5333	0.0583	-0.115
Mof_N 	N 	0.1419	0.0333	0.5583	-0.024
Mof_N 	N 	0.6419	0.5333	0.5583	-0.076
Mof_N 	N 	0.6419	0.0333	0.0583	-0.07
Mof_N 	N 	0.5333	0.0583	0.1419	-0.115
Mof_N 	N 	0.5333	0.5583	0.6419	-0.076
Mof_N 	N 	0.0333	0.0583	0.6419	-0.07
Mof_N 	N 	0.0333	0.5583	0.1419	-0.024
Mof_N 	N 	0.4667	0.0583	0.8581	-0.125
Mof_N 	N 	0.4667	0.5583	0.3581	-0.06
Mof_N 	N 	0.9667	0.0583	0.3581	-0.16
Mof_N 	N 	0.9667	0.5583	0.8581	-0.106
Mof_N 	N 	0.4667	0.9417	0.1419	0.003
Mof_N 	N 	0.4667	0.4417	0.6419	-0.059
Mof_N 	N 	0.9667	0.9417	0.6419	-0.05
Mof_N 	N 	0.9667	0.4417	0.1419	-0.091
Mof_N 	N 	0.5333	0.9417	0.8581	-0.009
Mof_N 	N 	0.5333	0.4417	0.3581	-0.069
Mof_N 	N 	0.0333	0.9417	0.3581	0.037
Mof_N 	N 	0.0333	0.4417	0.8581	-0.023
Mof_N 	N 	0.0583	0.8581	0.4667	-0.125
Mof_N 	N 	0.0583	0.3581	0.9667	-0.16
Mof_N 	N 	0.5583	0.8581	0.9667	-0.106
Mof_N 	N 	0.5583	0.3581	0.4667	-0.06
Mof_N 	N 	0.0583	0.1419	0.5333	-0.115
Mof_N 	N 	0.0583	0.6419	0.0333	-0.07
Mof_N 	N 	0.5583	0.1419	0.0333	-0.024
Mof_N 	N 	0.5583	0.6419	0.5333	-0.076
Mof_N 	N 	0.9417	0.8581	0.5333	-0.009
Mof_N 	N 	0.9417	0.3581	0.0333	0.037
Mof_N 	N 	0.4417	0.8581	0.0333	-0.023
Mof_N 	N 	0.4417	0.3581	0.5333	-0.069
Mof_N 	N 	0.9417	0.1419	0.4667	0.003
Mof_N 	N 	0.9417	0.6419	0.9667	-0.05
Mof_N 	N 	0.4417	0.1419	0.9667	-0.091
Mof_N 	N 	0.4417	0.6419	0.4667	-0.059
Mof_Na	Na	0.5	0.5	-0	2.181
Mof_Na	Na	1.8747e-33	0.5	0.5	2.181
Mof_Na	Na	0.5	0	0.5	2.181
Mof_Na	Na	-0	0	-0	2.077
Mof_N 	N 	0.4808	0.2242	0.9808	-0.233
Mof_N 	N 	0.4808	0.7242	0.4808	-0.061
Mof_N 	N 	0.5192	0.7758	0.9808	-0.233
Mof_N 	N 	0.5192	0.2758	0.4808	0.013
Mof_N 	N 	0.0192	0.7758	0.4808	0.254
Mof_N 	N 	0.5192	0.2242	0.0192	0.257
Mof_N 	N 	0.5192	0.7242	0.5192	0.079
Mof_N 	N 	0.0192	0.7242	0.0192	0.356
Mof_N 	N 	0.4808	0.7758	0.0192	0.254
Mof_N 	N 	0.4808	0.2758	0.5192	0.013
Mof_N 	N 	0.9808	0.4808	0.2242	-0.233
Mof_N 	N 	0.9808	0.9808	0.7242	-0.354
Mof_N 	N 	0.4808	0.4808	0.7242	-0.061
Mof_N 	N 	0.9808	0.5192	0.7758	-0.233
Mof_N 	N 	0.9808	0.0192	0.2758	0.022
Mof_N 	N 	0.4808	0.0192	0.7758	0.254
Mof_N 	N 	0.0192	0.5192	0.2242	0.257
Mof_N 	N 	0.0192	0.0192	0.7242	0.356
Mof_N 	N 	0.0192	0.4808	0.7758	0.254
Mof_N 	N 	0.0192	0.9808	0.2758	0.022
Mof_N 	N 	0.2242	0.9808	0.4808	-0.233
Mof_N 	N 	0.7242	0.9808	0.9808	-0.354
Mof_N 	N 	0.7242	0.4808	0.4808	-0.061
Mof_N 	N 	0.7758	0.9808	0.5192	-0.233
Mof_N 	N 	0.7758	0.4808	0.0192	0.254
Mof_N 	N 	0.2758	0.9808	0.0192	0.022
Mof_N 	N 	0.2242	0.0192	0.5192	0.257
Mof_N 	N 	0.7242	0.0192	0.0192	0.356
Mof_N 	N 	0.7758	0.0192	0.4808	0.254
Mof_N 	N 	0.2758	0.0192	0.9808	0.022
Mof_N 	N 	0.2242	0.4808	0.0192	0.216
Mof_N 	N 	0.7242	0.4808	0.5192	0.009
Mof_N 	N 	0.7758	0.5192	0.0192	0.298
Mof_N 	N 	0.2758	0.5192	0.5192	0.017
Mof_N 	N 	0.2758	0.0192	0.0192	0.297
Mof_N 	N 	0.2242	0.5192	0.9808	-0.193
Mof_N 	N 	0.2242	0.0192	0.4808	0.216
Mof_N 	N 	0.7242	0.5192	0.4808	0.009
Mof_N 	N 	0.7758	0.4808	0.9808	-0.277
Mof_N 	N 	0.2758	0.4808	0.4808	0.01
Mof_N 	N 	0.4808	0.9808	0.7758	-0.277
Mof_N 	N 	0.4808	0.4808	0.2758	0.01
Mof_N 	N 	0.5192	0.9808	0.2242	-0.193
Mof_N 	N 	0.5192	0.4808	0.7242	0.009
Mof_N 	N 	0.0192	0.4808	0.2242	0.216
Mof_N 	N 	0.5192	0.0192	0.7758	0.298
Mof_N 	N 	0.5192	0.5192	0.2758	0.017
Mof_N 	N 	0.0192	0.0192	0.2758	0.297
Mof_N 	N 	0.4808	0.0192	0.2242	0.216
Mof_N 	N 	0.4808	0.5192	0.7242	0.009
Mof_N 	N 	0.9808	0.2242	0.5192	-0.193
Mof_N 	N 	0.9808	0.7242	0.0192	0.02
Mof_N 	N 	0.4808	0.2242	0.0192	0.216
Mof_N 	N 	0.9808	0.7758	0.4808	-0.277
Mof_N 	N 	0.9808	0.2758	0.9808	-0.287
Mof_N 	N 	0.4808	0.2758	0.4808	0.01
Mof_N 	N 	0.0192	0.2242	0.4808	0.216
Mof_N 	N 	0.0192	0.7242	0.9808	0.02
Mof_N 	N 	0.0192	0.7758	0.5192	0.298
Mof_N 	N 	0.0192	0.2758	0.0192	0.297
Mof_N 	N 	0.5192	0.7758	0.0192	0.298
Mof_N 	N 	0.5192	0.2758	0.5192	0.017
Mof_N 	N 	0.4808	0.7242	0.5192	0.009
Mof_N 	N 	0.4808	0.7758	0.9808	-0.277
Mof_N 	N 	0.5192	0.2242	0.9808	-0.193
Mof_N 	N 	0.5192	0.7242	0.4808	0.009
Mof_N 	N 	0.0192	0.5192	0.7758	0.298
Mof_N 	N 	0.0192	0.9808	0.7242	0.02
Mof_N 	N 	0.9808	0.4808	0.7758	-0.277
Mof_N 	N 	0.9808	0.9808	0.2758	-0.287
Mof_N 	N 	0.9808	0.5192	0.2242	-0.193
Mof_N 	N 	0.9808	0.0192	0.7242	0.02
Mof_N 	N 	0.7758	0.0192	0.5192	0.298
Mof_N 	N 	0.7242	0.0192	0.9808	0.02
Mof_N 	N 	0.7758	0.9808	0.4808	-0.277
Mof_N 	N 	0.2758	0.9808	0.9808	-0.287
Mof_N 	N 	0.2242	0.9808	0.5192	-0.193
Mof_N 	N 	0.7242	0.9808	0.0192	0.02
Mof_N 	N 	0.7758	0.5192	0.9808	-0.233
Mof_N 	N 	0.2758	0.5192	0.4808	0.013
Mof_N 	N 	0.2242	0.4808	0.9808	-0.233
Mof_N 	N 	0.2758	0.4808	0.5192	0.013
Mof_N 	N 	0.2242	0.5192	0.0192	0.257
Mof_N 	N 	0.7242	0.5192	0.5192	0.079
Mof_N 	N 	0.5192	0.0192	0.2242	0.257
Mof_N 	N 	0.5192	0.5192	0.7242	0.079
Mof_N 	N 	0.4808	0.5192	0.2758	0.013
Mof_N 	N 	0.4808	0.9808	0.2242	-0.233
Mof_N 	N 	0.5192	0.9808	0.7758	-0.233
Mof_N 	N 	0.5192	0.4808	0.2758	0.013
Mof_N 	N 	0.0192	0.2758	0.9808	0.022
Mof_N 	N 	0.0192	0.2242	0.5192	0.257
Mof_N 	N 	0.9808	0.7758	0.5192	-0.233
Mof_N 	N 	0.9808	0.2758	0.0192	0.022
Mof_N 	N 	0.9808	0.2242	0.4808	-0.233
Mof_N 	N 	0.9808	0.7242	0.9808	-0.354
Mof_N 	N 	0.5	0.306	0.019	-1.032
Mof_N 	N 	0.5	0.806	0.519	-0.21
Mof_N 	N 	-3.86304e-33	0.306	0.519	-0.112
Mof_N 	N 	2.06808e-33	0.806	0.019	-0.862
Mof_N 	N 	0.5	0.694	0.019	-1.204
Mof_N 	N 	0.5	0.194	0.519	-0.068
Mof_N 	N 	7.75492e-33	0.694	0.519	-0.118
Mof_N 	N 	6.1583e-34	0.194	0.019	-0.719
Mof_N 	N 	0.5	0.306	0.981	0.839
Mof_N 	N 	0.5	0.806	0.481	0.063
Mof_N 	N 	-4.00552e-33	0.306	0.481	0.046
Mof_N 	N 	3.67816e-33	0.806	0.981	0.719
Mof_N 	N 	0.5	0.694	0.981	1.002
Mof_N 	N 	0.5	0.194	0.481	-0.038
Mof_N 	N 	7.61244e-33	0.694	0.481	0.056
Mof_N 	N 	-7.9398e-33	0.194	0.981	0.606
Mof_N 	N 	0.019	0.5	0.306	-1.032
Mof_N 	N 	0.019	0	0.806	-0.862
Mof_N 	N 	0.519	0.5	0.806	-0.21
Mof_N 	N 	0.519	0	0.306	-0.112
Mof_N 	N 	0.019	0.5	0.694	-1.204
Mof_N 	N 	0.019	0	0.194	-0.719
Mof_N 	N 	0.519	0.5	0.194	-0.068
Mof_N 	N 	0.519	5.80898e-33	0.694	-0.118
Mof_N 	N 	0.981	0.5	0.306	0.839
Mof_N 	N 	0.981	0	0.806	0.719
Mof_N 	N 	0.481	0.5	0.806	0.063
Mof_N 	N 	0.481	0	0.306	0.046
Mof_N 	N 	0.981	0.5	0.694	1.002
Mof_N 	N 	0.981	0	0.194	0.606
Mof_N 	N 	0.481	0.5	0.194	-0.038
Mof_N 	N 	0.481	5.80898e-33	0.694	0.056
Mof_N 	N 	0.306	0.019	0.5	-1.032
Mof_N 	N 	0.306	0.519	-0	-0.112
Mof_N 	N 	0.806	0.019	-0	-0.862
Mof_N 	N 	0.806	0.519	0.5	-0.21
Mof_N 	N 	0.694	0.019	0.5	-1.204
Mof_N 	N 	0.694	0.519	-0	-0.118
Mof_N 	N 	0.194	0.019	-0	-0.719
Mof_N 	N 	0.194	0.519	0.5	-0.068
Mof_N 	N 	0.306	0.981	0.5	0.839
Mof_N 	N 	0.306	0.481	-0	0.046
Mof_N 	N 	0.806	0.981	-0	0.719
Mof_N 	N 	0.806	0.481	0.5	0.063
Mof_N 	N 	0.694	0.981	0.5	1.002
Mof_N 	N 	0.694	0.481	-0	0.056
Mof_N 	N 	0.194	0.981	-0	0.606
Mof_N 	N 	0.194	0.481	0.5	-0.038
Mof_N 	N 	0.306	0.5	0.981	0.839
Mof_N 	N 	0.306	0	0.481	0.046
Mof_N 	N 	0.806	0.5	0.481	0.063
Mof_N 	N 	0.806	0	0.981	0.719
Mof_N 	N 	0.694	0.5	0.981	1.002
Mof_N 	N 	0.694	0	0.481	0.056
Mof_N 	N 	0.194	0.5	0.481	-0.038
Mof_N 	N 	0.194	0	0.981	0.606
Mof_N 	N 	0.306	0.5	0.019	-1.032
Mof_N 	N 	0.306	0	0.519	-0.112
Mof_N 	N 	0.806	0.5	0.519	-0.21
Mof_N 	N 	0.806	-1.81531e-34	0.019	-0.862
Mof_N 	N 	0.694	0.5	0.019	-1.204
Mof_N 	N 	0.694	0	0.519	-0.118
Mof_N 	N 	0.194	0.5	0.519	-0.068
Mof_N 	N 	0.194	-1.81531e-34	0.019	-0.719
Mof_N 	N 	0.5	0.019	0.694	-1.204
Mof_N 	N 	0.5	0.519	0.194	-0.068
Mof_N 	N 	7.27383e-34	0.019	0.194	-0.719
Mof_N 	N 	8.41106e-33	0.519	0.694	-0.118
Mof_N 	N 	0.5	0.019	0.306	-1.032
Mof_N 	N 	0.5	0.519	0.806	-0.21
Mof_N 	N 	3.02202e-33	0.019	0.806	-0.862
Mof_N 	N 	1.14732e-33	0.519	0.306	-0.112
Mof_N 	N 	0.5	0.981	0.694	1.002
Mof_N 	N 	0.5	0.481	0.194	-0.038
Mof_N 	N 	-2.17711e-33	0.981	0.194	0.606
Mof_N 	N 	8.41106e-33	0.481	0.694	0.056
Mof_N 	N 	0.5	0.981	0.306	0.839
Mof_N 	N 	0.5	0.481	0.806	0.063
Mof_N 	N 	-2.78696e-33	0.981	0.806	0.719
Mof_N 	N 	1.14732e-33	0.481	0.306	0.046
Mof_N 	N 	0.019	0.306	0.5	-1.032
Mof_N 	N 	0.019	0.806	-0	-0.862
Mof_N 	N 	0.519	0.306	-0	-0.112
Mof_N 	N 	0.519	0.806	0.5	-0.21
Mof_N 	N 	0.019	0.694	0.5	-1.204
Mof_N 	N 	0.019	0.194	-0	-0.719
Mof_N 	N 	0.519	0.694	-0	-0.118
Mof_N 	N 	0.519	0.194	0.5	-0.068
Mof_N 	N 	0.981	0.306	0.5	0.839
Mof_N 	N 	0.981	0.806	-0	0.719
Mof_N 	N 	0.481	0.306	-0	0.046
Mof_N 	N 	0.481	0.806	0.5	0.063
Mof_N 	N 	0.981	0.694	0.5	1.002
Mof_N 	N 	0.981	0.194	-0	0.606
Mof_N 	N 	0.481	0.694	-0	0.056
Mof_N 	N 	0.481	0.194	0.5	-0.038
Mof_Cr	Cr	0.5	0	-0	2.069
Mof_Cr	Cr	0.5	0.5	0.5	2.263
Mof_Cr	Cr	1.8747e-33	0	0.5	2.069
Mof_Cr	Cr	-0	0.5	-0	2.069
_end
