data_functionalizedCrystal
_audit_creation_method	'EQeq! by Chris Wilmer'
_symmetry_space_group_name_H-M	'P1'
_symmetry_Int_Tables_number	1
_symmetry_cell_setting	triclinic
loop_
_symmetry_equiv_pos_as_xyz
  x,y,z
_cell_length_a	6.8431
_cell_length_b	8.9881
_cell_length_c	9.9755
_cell_angle_alpha	102.096
_cell_angle_beta	100.554
_cell_angle_gamma	110.17
loop_
_atom_site_label
_atom_site_type_symbol
_atom_site_fract_x
_atom_site_fract_y
_atom_site_fract_z
_atom_site_charge
Mof_O 	O 	0.57877	0.85261	0.26684	-0.417
Mof_C 	C 	0.65591	0.9259	0.39436	0.376
Mof_O 	O 	0.36966	0.47957	0.86504	-0.526
Mof_O 	O 	0.03347	0.40874	0.87783	-0.532
Mof_C 	C 	0.16814	0.41054	0.80693	0.434
Mof_C 	C 	0.08447	0.32821	0.64917	-0.184
Mof_C 	C 	0.91053	0.17428	0.59723	0.109
Mof_C 	C 	0.83334	0.09416	0.45087	-0.145
Mof_Ca	Ca	0.31483	0.58486	0.10992	1.423
Mof_O 	O 	0.32522	0.55818	0.3531	-0.34
Mof_O 	O 	0.14025	0.32791	0.17662	-0.377
Mof_O 	O 	0.59329	0.86312	0.49468	-0.24
Mof_C 	C 	0.09664	0.32568	0.40844	-0.123
Mof_C 	C 	0.19407	0.40883	0.30724	0.323
Mof_C 	C 	0.17772	0.40415	0.55519	0.098
Mof_H 	H 	0.2939	0.507	0.5902	0.023
Mof_H 	H 	0.846	0.125	0.66	0.001
Mof_C 	C 	0.92582	0.17007	0.35647	0.079
Mof_H 	H 	0.8734	0.1168	0.2588	0.018
Mof_O 	O 	0.42123	0.14739	0.73316	-0.417
Mof_C 	C 	0.34409	0.0741	0.60564	0.376
Mof_O 	O 	0.63034	0.52043	0.13496	-0.526
Mof_O 	O 	0.96653	0.59126	0.12217	-0.532
Mof_C 	C 	0.83186	0.58946	0.19307	0.434
Mof_C 	C 	0.91553	0.67179	0.35083	-0.184
Mof_C 	C 	0.08947	0.82572	0.40277	0.109
Mof_C 	C 	0.16666	0.90584	0.54913	-0.145
Mof_Ca	Ca	0.68517	0.41514	0.89008	1.423
Mof_O 	O 	0.67478	0.44182	0.6469	-0.34
Mof_O 	O 	0.85975	0.67209	0.82338	-0.377
Mof_O 	O 	0.40671	0.13688	0.50532	-0.24
Mof_C 	C 	0.90336	0.67432	0.59156	-0.123
Mof_C 	C 	0.80593	0.59117	0.69276	0.323
Mof_C 	C 	0.82228	0.59585	0.44481	0.098
Mof_H 	H 	0.7061	0.493	0.4098	0.023
Mof_H 	H 	0.154	0.875	0.34	0.001
Mof_C 	C 	0.07418	0.82993	0.64353	0.079
Mof_H 	H 	0.1266	0.8832	0.7412	0.018
_end
