data_functionalizedCrystal
_audit_creation_method	'EQeq! by Chris Wilmer'
_symmetry_space_group_name_H-M	'P1'
_symmetry_Int_Tables_number	1
_symmetry_cell_setting	triclinic
loop_
_symmetry_equiv_pos_as_xyz
  x,y,z
_cell_length_a	8.4375
_cell_length_b	9.7423
_cell_length_c	19.512
_cell_angle_alpha	90
_cell_angle_beta	90
_cell_angle_gamma	101.824
loop_
_atom_site_label
_atom_site_type_symbol
_atom_site_fract_x
_atom_site_fract_y
_atom_site_fract_z
_atom_site_charge
Mof_Mn	Mn	0.27853	0.15882	0.29386	1.352
Mof_Mn	Mn	0.64043	0.04638	0.24178	0.962
Mof_Mn	Mn	0.72147	0.84118	0.79386	1.344
Mof_Mn	Mn	0.35957	0.95362	0.74178	0.976
Mof_H 	H 	0.1366	0.2062	0.33	-1.378
Mof_H 	H 	0.0038	0.407	0.3668	3.787
Mof_H 	H 	0.9923	0.2678	0.4068	3.908
Mof_H 	H 	0.2307	0.4914	0.406	-5.03
Mof_H 	H 	0.2563	0.3457	0.4325	-4.873
Mof_H 	H 	0.1265	0.4175	0.4672	-5.075
Mof_H 	H 	0.8634	0.7938	0.83	-1.34
Mof_H 	H 	0.9962	0.593	0.8668	3.683
Mof_H 	H 	0.0077	0.7322	0.9068	3.819
Mof_H 	H 	0.7693	0.5086	0.906	-4.877
Mof_H 	H 	0.7437	0.6543	0.9325	-4.723
Mof_H 	H 	0.8735	0.5825	0.9672	-4.918
Mof_C 	C 	0.4727	0.1834	0.0472	0.265
Mof_C 	C 	0.5203	0.1491	0.9835	0.367
Mof_C 	C 	0.4757	0.0145	0.9587	-0.183
Mof_C 	C 	0.3796	0.9182	0.9994	0.342
Mof_C 	C 	0.3302	0.9529	0.063	0.25
Mof_C 	C 	0.3772	0.0873	0.0886	-0.198
Mof_C 	C 	0.3289	0.1204	0.1602	0.503
Mof_C 	C 	0.5278	0.9767	0.8882	0.453
Mof_C 	C 	0.869	0.7075	0.2307	0.31
Mof_C 	C 	0.7907	0.5682	0.2297	0.279
Mof_C 	C 	0.7063	0.5067	0.2851	-0.267
Mof_C 	C 	0.7085	0.5894	0.3427	0.256
Mof_C 	C 	0.7886	0.7269	0.344	0.319
Mof_C 	C 	0.8704	0.7884	0.2875	-0.266
Mof_C 	C 	0.958	0.9421	0.2888	0.55
Mof_C 	C 	0.6135	0.357	0.2825	0.513
Mof_C 	C 	0.0654	0.337	0.3801	-12.764
Mof_C 	C 	0.178	0.403	0.4246	17.196
Mof_C 	C 	0.5273	0.8166	0.5472	0.342
Mof_C 	C 	0.4797	0.8509	0.4835	0.296
Mof_C 	C 	0.5243	0.9855	0.4587	-0.151
Mof_C 	C 	0.6204	0.0818	0.4994	0.286
Mof_C 	C 	0.6698	0.0471	0.563	0.306
Mof_C 	C 	0.6228	0.9127	0.5886	-0.23
Mof_C 	C 	0.6711	0.8796	0.6602	0.516
Mof_C 	C 	0.4722	0.0233	0.3882	0.442
Mof_C 	C 	0.131	0.2925	0.7307	0.318
Mof_C 	C 	0.2093	0.4318	0.7297	0.282
Mof_C 	C 	0.2937	0.4933	0.7851	-0.262
Mof_C 	C 	0.2915	0.4106	0.8427	0.257
Mof_C 	C 	0.2114	0.2731	0.844	0.324
Mof_C 	C 	0.1296	0.2116	0.7875	-0.27
Mof_C 	C 	0.042	0.0579	0.7888	0.578
Mof_C 	C 	0.3865	0.643	0.7825	0.513
Mof_C 	C 	0.9346	0.663	0.8801	-12.419
Mof_C 	C 	0.822	0.597	0.9246	16.693
Mof_O 	O 	0.4015	0.0758	0.20845	-0.48
Mof_O 	O 	0.2258	0.191	0.1693	-0.331
Mof_O 	O 	0.6272	0.8985	0.8873	-0.143
Mof_O 	O 	0.4679	0.0219	0.838	-0.341
Mof_O 	O 	0.106	0.9642	0.2966	-0.343
Mof_O 	O 	0.8749	0.0327	0.2812	-0.481
Mof_O 	O 	0.6942	0.2644	0.2724	-0.449
Mof_O 	O 	0.4646	0.3419	0.2904	-0.288
Mof_O 	O 	0.0924	0.2716	0.321	3.616
Mof_O 	O 	0.5985	0.9242	0.70845	-0.483
Mof_O 	O 	0.7742	0.809	0.6693	-0.332
Mof_O 	O 	0.3728	0.1015	0.3873	-0.136
Mof_O 	O 	0.5321	0.9781	0.338	-0.338
Mof_O 	O 	0.894	0.0358	0.7966	-0.363
Mof_O 	O 	0.1251	0.9673	0.7812	-0.479
Mof_O 	O 	0.3058	0.7356	0.7724	-0.442
Mof_O 	O 	0.5354	0.6581	0.7904	-0.289
Mof_O 	O 	0.9076	0.7284	0.821	3.506
Mof_F 	F 	0.525	0.3148	0.0694	-0.283
Mof_F 	F 	0.6153	0.2473	0.9454	-0.175
Mof_F 	F 	0.3294	0.7858	0.9772	-0.378
Mof_F 	F 	0.235	0.8548	0.1009	-0.323
Mof_F 	F 	0.9435	0.7639	0.1734	-0.325
Mof_F 	F 	0.7913	0.4968	0.1716	-0.312
Mof_F 	F 	0.6322	0.5349	0.4	-0.239
Mof_F 	F 	0.7875	0.802	0.402	-0.373
Mof_F 	F 	0.475	0.6852	0.5694	-0.279
Mof_F 	F 	0.3847	0.7527	0.4454	-0.164
Mof_F 	F 	0.6706	0.2142	0.4772	-0.378
Mof_F 	F 	0.765	0.1452	0.6009	-0.329
Mof_F 	F 	0.0565	0.2361	0.6734	-0.309
Mof_F 	F 	0.2087	0.5032	0.6716	-0.298
Mof_F 	F 	0.3678	0.4651	0.9	-0.236
Mof_F 	F 	0.2125	0.198	0.902	-0.366
_end
