data_functionalizedCrystal
_audit_creation_method	'EQeq! by Chris Wilmer'
_symmetry_space_group_name_H-M	'P1'
_symmetry_Int_Tables_number	1
_symmetry_cell_setting	triclinic
loop_
_symmetry_equiv_pos_as_xyz
  x,y,z
_cell_length_a	14.4388
_cell_length_b	16.4128
_cell_length_c	19.331
_cell_angle_alpha	90
_cell_angle_beta	107.606
_cell_angle_gamma	90
loop_
_atom_site_label
_atom_site_type_symbol
_atom_site_fract_x
_atom_site_fract_y
_atom_site_fract_z
_atom_site_charge
Mof_C 	C 	0.8673	0.3252	0.8872	-0.235
Mof_C 	C 	0.9477	0.2968	0.9425	0.123
Mof_H 	H 	0.0093	0.3035	0.9375	0.007
Mof_C 	C 	0.9394	0.2593	0.0041	-0.153
Mof_C 	C 	0.8473	0.247	0.0107	0.009
Mof_H 	H 	0.8397	0.2202	0.0511	0.035
Mof_C 	C 	0.7659	0.2753	0.9562	-0.036
Mof_C 	C 	0.7748	0.3141	0.8945	0.043
Mof_H 	H 	0.72	0.3323	0.8587	0.014
Mof_C 	C 	0.8742	0.3729	0.8238	0.604
Mof_C 	C 	0.0219	0.2227	0.0597	0.376
Mof_C 	C 	0.6693	0.2623	0.9628	-0.021
Mof_C 	C 	0.5915	0.2517	0.9697	-0.011
Mof_C 	C 	0.4967	0.2512	0.9782	-0.055
Mof_C 	C 	0.4848	0.2173	0.042	0.063
Mof_H 	H 	0.5377	0.1942	0.0766	-0.011
Mof_C 	C 	0.3948	0.2182	0.0532	-0.215
Mof_C 	C 	0.3133	0.2544	0.0051	0.104
Mof_H 	H 	0.2539	0.2567	0.0145	0.012
Mof_C 	C 	0.3268	0.288	0.9399	-0.171
Mof_C 	C 	0.4154	0.2852	0.9293	0.038
Mof_H 	H 	0.4218	0.3073	0.8867	0.031
Mof_C 	C 	0.3828	0.1873	0.1221	0.499
Mof_C 	C 	0.2457	0.322	0.8852	0.443
Mof_C 	C 	0.5434	0.4927	0.789	-0.067
Mof_C 	C 	0.5368	0.473	0.8593	-0.042
Mof_H 	H 	0.5571	0.4218	0.8785	0.061
Mof_C 	C 	0.5021	0.5259	0.899	0.023
Mof_C 	C 	0.4682	0.6008	0.8687	-0.039
Mof_H 	H 	0.4417	0.6372	0.8944	0.059
Mof_C 	C 	0.4736	0.6224	0.7984	-0.078
Mof_C 	C 	0.5099	0.5697	0.7594	0.005
Mof_H 	H 	0.5128	0.584	0.7136	0.045
Mof_C 	C 	0.5834	0.4372	0.7433	0.35
Mof_C 	C 	0.4458	0.7017	0.7655	0.331
Mof_C 	C 	0.5004	0.509	0.9705	-0.014
Mof_C 	C 	0.1282	0.5545	0.8814	0.132
Mof_H 	H 	0.0883	0.5376	0.9105	-0.004
Mof_H 	H 	0.1075	0.6072	0.861	-0.016
Mof_H 	H 	0.1947	0.5573	0.9112	-0.003
Mof_Sm	Sm	0.67709	0.34347	0.66893	2.187
Mof_Sm	Sm	0.07834	0.36427	0.77097	2.441
Mof_O 	O 	0.7999	0.3861	0.7728	-0.609
Mof_O 	O 	0.9572	0.3884	0.8217	-0.626
Mof_O 	O 	0.1067	0.2428	0.0619	-0.482
Mof_O 	O 	0.0074	0.1807	0.1065	-0.512
Mof_O 	O 	0.4482	0.1381	0.1617	-0.603
Mof_O 	O 	0.3079	0.2059	0.141	-0.609
Mof_O 	O 	0.1667	0.3248	0.8983	-0.464
Mof_O 	O 	0.2459	0.3476	0.8265	-0.562
Mof_O 	O 	0.592	0.3648	0.7621	-0.454
Mof_O 	O 	0.6156	0.4663	0.6958	-0.525
Mof_O 	O 	0.4768	0.7294	0.7205	-0.509
Mof_O 	O 	0.3847	0.7448	0.7911	-0.47
Mof_O 	O 	0.1187	0.4924	0.8196	-0.6
Mof_H 	H 	0.1356	0.5038	0.7822	0.155
Mof_C 	C 	0.6327	0.8252	0.6128	-0.231
Mof_C 	C 	0.5523	0.7968	0.5575	0.115
Mof_H 	H 	0.4907	0.8035	0.5625	0.013
Mof_C 	C 	0.5606	0.7593	0.4959	-0.146
Mof_C 	C 	0.6527	0.747	0.4893	0.008
Mof_H 	H 	0.6603	0.7202	0.4489	0.037
Mof_C 	C 	0.7341	0.7753	0.5438	-0.035
Mof_C 	C 	0.7252	0.8141	0.6055	0.042
Mof_H 	H 	0.78	0.8323	0.6413	0.014
Mof_C 	C 	0.6258	0.8729	0.6762	0.602
Mof_C 	C 	0.4781	0.7227	0.4403	0.373
Mof_C 	C 	0.8307	0.7623	0.5372	-0.022
Mof_C 	C 	0.9085	0.7517	0.5303	-0.011
Mof_C 	C 	0.0033	0.7512	0.5218	-0.055
Mof_C 	C 	0.0152	0.7173	0.458	0.064
Mof_H 	H 	0.9623	0.6942	0.4234	-0.011
Mof_C 	C 	0.1052	0.7182	0.4468	-0.214
Mof_C 	C 	0.1867	0.7544	0.4949	0.103
Mof_H 	H 	0.2461	0.7567	0.4855	0.012
Mof_C 	C 	0.1732	0.788	0.5601	-0.17
Mof_C 	C 	0.0846	0.7852	0.5707	0.038
Mof_H 	H 	0.0782	0.8073	0.6133	0.031
Mof_C 	C 	0.1172	0.6873	0.3779	0.499
Mof_C 	C 	0.2543	0.822	0.6148	0.443
Mof_C 	C 	0.9566	0.9927	0.711	-0.069
Mof_C 	C 	0.9632	0.973	0.6407	-0.044
Mof_H 	H 	0.9429	0.9218	0.6215	0.061
Mof_C 	C 	0.9979	0.0259	0.601	0.026
Mof_C 	C 	0.0318	0.1008	0.6313	-0.041
Mof_H 	H 	0.0583	0.1372	0.6056	0.059
Mof_C 	C 	0.0264	0.1224	0.7016	-0.08
Mof_C 	C 	0.9901	0.0697	0.7406	0.009
Mof_H 	H 	0.9872	0.084	0.7864	0.045
Mof_C 	C 	0.9166	0.9372	0.7567	0.35
Mof_C 	C 	0.0542	0.2017	0.7345	0.332
Mof_C 	C 	0.9996	0.009	0.5295	-0.015
Mof_C 	C 	0.3718	0.0545	0.6186	0.13
Mof_H 	H 	0.4117	0.0376	0.5895	-0.003
Mof_H 	H 	0.3925	0.1072	0.639	-0.015
Mof_H 	H 	0.3053	0.0573	0.5888	-0.003
Mof_Sm	Sm	0.82291	0.84347	0.83107	2.187
Mof_Sm	Sm	0.42166	0.86427	0.72903	2.443
Mof_O 	O 	0.7001	0.8861	0.7272	-0.609
Mof_O 	O 	0.5428	0.8884	0.6783	-0.626
Mof_O 	O 	0.3933	0.7428	0.4381	-0.481
Mof_O 	O 	0.4926	0.6807	0.3935	-0.511
Mof_O 	O 	0.0518	0.6381	0.3383	-0.602
Mof_O 	O 	0.1921	0.7059	0.359	-0.609
Mof_O 	O 	0.3333	0.8248	0.6017	-0.464
Mof_O 	O 	0.2541	0.8476	0.6735	-0.562
Mof_O 	O 	0.908	0.8648	0.7379	-0.455
Mof_O 	O 	0.8844	0.9663	0.8042	-0.525
Mof_O 	O 	0.0232	0.2294	0.7795	-0.51
Mof_O 	O 	0.1153	0.2448	0.7089	-0.47
Mof_O 	O 	0.3813	0.9924	0.6804	-0.599
Mof_H 	H 	0.3644	0.0038	0.7178	0.154
Mof_C 	C 	0.1327	0.6748	0.1128	-0.234
Mof_C 	C 	0.0523	0.7032	0.0575	0.124
Mof_H 	H 	0.9907	0.6965	0.0625	0.008
Mof_C 	C 	0.0606	0.7407	0.9959	-0.152
Mof_C 	C 	0.1527	0.753	0.9893	0.01
Mof_H 	H 	0.1603	0.7798	0.9489	0.036
Mof_C 	C 	0.2341	0.7247	0.0438	-0.035
Mof_C 	C 	0.2252	0.6859	0.1055	0.044
Mof_H 	H 	0.28	0.6677	0.1413	0.014
Mof_C 	C 	0.1258	0.6271	0.1762	0.604
Mof_C 	C 	0.9781	0.7773	0.9403	0.376
Mof_C 	C 	0.3307	0.7377	0.0372	-0.021
Mof_C 	C 	0.4085	0.7483	0.0303	-0.011
Mof_C 	C 	0.5033	0.7488	0.0218	-0.055
Mof_C 	C 	0.5152	0.7827	0.958	0.063
Mof_H 	H 	0.4623	0.8058	0.9234	-0.011
Mof_C 	C 	0.6052	0.7818	0.9468	-0.215
Mof_C 	C 	0.6867	0.7456	0.9949	0.104
Mof_H 	H 	0.7461	0.7433	0.9855	0.012
Mof_C 	C 	0.6732	0.712	0.0601	-0.171
Mof_C 	C 	0.5846	0.7148	0.0707	0.038
Mof_H 	H 	0.5782	0.6927	0.1133	0.031
Mof_C 	C 	0.6172	0.8127	0.8779	0.499
Mof_C 	C 	0.7543	0.678	0.1148	0.443
Mof_C 	C 	0.4566	0.5073	0.211	-0.067
Mof_C 	C 	0.4632	0.527	0.1407	-0.042
Mof_H 	H 	0.4429	0.5782	0.1215	0.061
Mof_C 	C 	0.4979	0.4741	0.101	0.023
Mof_C 	C 	0.5318	0.3992	0.1313	-0.039
Mof_H 	H 	0.5583	0.3628	0.1056	0.059
Mof_C 	C 	0.5264	0.3776	0.2016	-0.078
Mof_C 	C 	0.4901	0.4303	0.2406	0.005
Mof_H 	H 	0.4872	0.416	0.2864	0.045
Mof_C 	C 	0.4166	0.5628	0.2567	0.35
Mof_C 	C 	0.5542	0.2983	0.2345	0.331
Mof_C 	C 	0.4996	0.491	0.0295	-0.014
Mof_C 	C 	0.8718	0.4455	0.1186	0.132
Mof_H 	H 	0.9117	0.4624	0.0895	-0.004
Mof_H 	H 	0.8925	0.3928	0.139	-0.016
Mof_H 	H 	0.8053	0.4427	0.0888	-0.003
Mof_Sm	Sm	0.32291	0.65653	0.33107	2.187
Mof_Sm	Sm	0.92166	0.63573	0.22903	2.441
Mof_O 	O 	0.2001	0.6139	0.2272	-0.609
Mof_O 	O 	0.0428	0.6116	0.1783	-0.626
Mof_O 	O 	0.8933	0.7572	0.9381	-0.482
Mof_O 	O 	0.9926	0.8193	0.8935	-0.512
Mof_O 	O 	0.5518	0.8619	0.8383	-0.603
Mof_O 	O 	0.6921	0.7941	0.859	-0.609
Mof_O 	O 	0.8333	0.6752	0.1017	-0.464
Mof_O 	O 	0.7541	0.6524	0.1735	-0.562
Mof_O 	O 	0.408	0.6352	0.2379	-0.454
Mof_O 	O 	0.3844	0.5337	0.3042	-0.525
Mof_O 	O 	0.5232	0.2706	0.2795	-0.509
Mof_O 	O 	0.6153	0.2552	0.2089	-0.47
Mof_O 	O 	0.8813	0.5076	0.1804	-0.6
Mof_H 	H 	0.8644	0.4962	0.2178	0.155
Mof_C 	C 	0.3673	0.1748	0.3872	-0.231
Mof_C 	C 	0.4477	0.2032	0.4425	0.115
Mof_H 	H 	0.5093	0.1965	0.4375	0.013
Mof_C 	C 	0.4394	0.2407	0.5041	-0.146
Mof_C 	C 	0.3473	0.253	0.5107	0.008
Mof_H 	H 	0.3397	0.2798	0.5511	0.037
Mof_C 	C 	0.2659	0.2247	0.4562	-0.035
Mof_C 	C 	0.2748	0.1859	0.3945	0.042
Mof_H 	H 	0.22	0.1677	0.3587	0.014
Mof_C 	C 	0.3742	0.1271	0.3238	0.602
Mof_C 	C 	0.5219	0.2773	0.5597	0.373
Mof_C 	C 	0.1693	0.2377	0.4628	-0.022
Mof_C 	C 	0.0915	0.2483	0.4697	-0.011
Mof_C 	C 	0.9967	0.2488	0.4782	-0.055
Mof_C 	C 	0.9848	0.2827	0.542	0.064
Mof_H 	H 	0.0377	0.3058	0.5766	-0.011
Mof_C 	C 	0.8948	0.2818	0.5532	-0.214
Mof_C 	C 	0.8133	0.2456	0.5051	0.103
Mof_H 	H 	0.7539	0.2433	0.5145	0.012
Mof_C 	C 	0.8268	0.212	0.4399	-0.17
Mof_C 	C 	0.9154	0.2148	0.4293	0.038
Mof_H 	H 	0.9218	0.1927	0.3867	0.031
Mof_C 	C 	0.8828	0.3127	0.6221	0.499
Mof_C 	C 	0.7457	0.178	0.3852	0.443
Mof_C 	C 	0.0434	0.0073	0.289	-0.069
Mof_C 	C 	0.0368	0.027	0.3593	-0.044
Mof_H 	H 	0.0571	0.0782	0.3785	0.061
Mof_C 	C 	0.0021	0.9741	0.399	0.026
Mof_C 	C 	0.9682	0.8992	0.3687	-0.041
Mof_H 	H 	0.9417	0.8628	0.3944	0.059
Mof_C 	C 	0.9736	0.8776	0.2984	-0.08
Mof_C 	C 	0.0099	0.9303	0.2594	0.009
Mof_H 	H 	0.0128	0.916	0.2136	0.045
Mof_C 	C 	0.0834	0.0628	0.2433	0.35
Mof_C 	C 	0.9458	0.7983	0.2655	0.332
Mof_C 	C 	0.0004	0.991	0.4705	-0.015
Mof_C 	C 	0.6282	0.9455	0.3814	0.13
Mof_H 	H 	0.5883	0.9624	0.4105	-0.003
Mof_H 	H 	0.6075	0.8928	0.361	-0.015
Mof_H 	H 	0.6947	0.9427	0.4112	-0.003
Mof_Sm	Sm	0.17709	0.15653	0.16893	2.187
Mof_Sm	Sm	0.57834	0.13573	0.27097	2.443
Mof_O 	O 	0.2999	0.1139	0.2728	-0.609
Mof_O 	O 	0.4572	0.1116	0.3217	-0.626
Mof_O 	O 	0.6067	0.2572	0.5619	-0.481
Mof_O 	O 	0.5074	0.3193	0.6065	-0.511
Mof_O 	O 	0.9482	0.3619	0.6617	-0.602
Mof_O 	O 	0.8079	0.2941	0.641	-0.609
Mof_O 	O 	0.6667	0.1752	0.3983	-0.464
Mof_O 	O 	0.7459	0.1524	0.3265	-0.562
Mof_O 	O 	0.092	0.1352	0.2621	-0.455
Mof_O 	O 	0.1156	0.0337	0.1958	-0.525
Mof_O 	O 	0.9768	0.7706	0.2205	-0.51
Mof_O 	O 	0.8847	0.7552	0.2911	-0.47
Mof_O 	O 	0.6187	0.0076	0.3196	-0.599
Mof_H 	H 	0.6356	0.9962	0.2822	0.154
_end
