# CIF file generated by openbabel 3.1.0, see https://openbabel.org
data_I
_chemical_name_common 'image0'
_cell_length_a 17.098
_cell_length_b 26.435
_cell_length_c 12.838
_cell_angle_alpha 90
_cell_angle_beta 129.166
_cell_angle_gamma 90
_space_group_name_H-M_alt 'P 1'
_space_group_name_Hall 'P 1'
loop_
    _symmetry_equiv_pos_as_xyz
    x,y,z
loop_
    _atom_site_label
    _atom_site_type_symbol
    _atom_site_fract_x
    _atom_site_fract_y
    _atom_site_fract_z
    _atom_site_occupancy
    O1       O        0.17940    0.81790    0.40820    1.000
    O2       O        0.01650    0.76190    0.08020    1.000
    N1       N        0.35820    0.98590    0.60520    1.000
    N2       N        0.01070    0.58790    0.89660    1.000
    C1       C        0.35320    0.95050    0.52730    1.000
    H1       H        0.40900    0.94580    0.53150    1.000
    C2       C        0.26810    0.92000    0.43920    1.000
    H2       H        0.26830    0.89570    0.38700    1.000
    C3       C        0.18520    0.92630    0.43070    1.000
    C4       C        0.19010    0.96440    0.50920    1.000
    H3       H        0.13410    0.97110    0.50340    1.000
    C5       C        0.27560    0.99210    0.59420    1.000
    H4       H        0.27670    0.01660    0.64720    1.000
    C6       C        0.09090    0.89730    0.33470    1.000
    C7       C        0.09000    0.84460    0.33150    1.000
    C8       C        0.00890    0.73520    0.16320    1.000
    C9       C        0.11660    0.76330    0.12020    1.000
    H5       H        0.16300    0.77660    0.20960    1.000
    H6       H        0.11650    0.78450    0.05940    1.000
    H7       H        0.13680    0.72970    0.11810    1.000
    C10      C        0.21880    0.80910    0.54330    1.000
    H8       H        0.23460    0.84080    0.58900    1.000
    H9       H        0.27880    0.78890    0.58890    1.000
    H10      H        0.16940    0.79150    0.54290    1.000
    C11      C        0.07550    0.58120    0.02820    1.000
    H11      H        0.12030    0.55420    0.06240    1.000
    C12      C        0.07880    0.61180    0.11410    1.000
    H12      H        0.12730    0.60600    0.20590    1.000
    C13      C        0.01290    0.65160    0.07170    1.000
    C14      C        0.94690    0.66010    0.93110    1.000
    H13      H        0.90300    0.68760    0.89460    1.000
    C15      C        0.94860    0.62770    0.85000    1.000
    H14      H        0.90440    0.63340    0.75780    1.000
    C16      C        0.00790    0.68210    0.16330    1.000
    O3       O        0.67940    0.31790    0.40820    1.000
    O4       O        0.51650    0.26190    0.08020    1.000
    N3       N        0.85820    0.48590    0.60520    1.000
    N4       N        0.51070    0.08790    0.89660    1.000
    C17      C        0.85320    0.45050    0.52730    1.000
    H15      H        0.90900    0.44580    0.53150    1.000
    C18      C        0.76810    0.42000    0.43920    1.000
    H16      H        0.76830    0.39570    0.38700    1.000
    C19      C        0.68520    0.42630    0.43070    1.000
    C20      C        0.69010    0.46440    0.50920    1.000
    H17      H        0.63410    0.47110    0.50340    1.000
    C21      C        0.77560    0.49210    0.59420    1.000
    H18      H        0.77670    0.51660    0.64720    1.000
    C22      C        0.59090    0.39730    0.33470    1.000
    C23      C        0.59000    0.34460    0.33150    1.000
    C24      C        0.50890    0.23520    0.16320    1.000
    C25      C        0.61660    0.26330    0.12020    1.000
    H19      H        0.66300    0.27660    0.20960    1.000
    H20      H        0.61650    0.28450    0.05940    1.000
    H21      H        0.63680    0.22970    0.11810    1.000
    C26      C        0.71880    0.30910    0.54330    1.000
    H22      H        0.73460    0.34080    0.58900    1.000
    H23      H        0.77880    0.28890    0.58890    1.000
    H24      H        0.66940    0.29150    0.54290    1.000
    C27      C        0.57550    0.08120    0.02820    1.000
    H25      H        0.62030    0.05420    0.06240    1.000
    C28      C        0.57880    0.11180    0.11410    1.000
    H26      H        0.62730    0.10600    0.20590    1.000
    C29      C        0.51290    0.15160    0.07170    1.000
    C30      C        0.44690    0.16010    0.93110    1.000
    H27      H        0.40300    0.18760    0.89460    1.000
    C31      C        0.44860    0.12770    0.85000    1.000
    H28      H        0.40440    0.13340    0.75780    1.000
    C32      C        0.50790    0.18210    0.16330    1.000
    O5       O        0.82060    0.81790    0.09180    1.000
    O6       O        0.98350    0.76190    0.41980    1.000
    N5       N        0.64180    0.98590    0.89480    1.000
    N6       N        0.98930    0.58790    0.60340    1.000
    C33      C        0.64680    0.95050    0.97270    1.000
    H29      H        0.59100    0.94580    0.96850    1.000
    C34      C        0.73190    0.92000    0.06080    1.000
    H30      H        0.73170    0.89570    0.11300    1.000
    C35      C        0.81480    0.92630    0.06930    1.000
    C36      C        0.80990    0.96440    0.99080    1.000
    H31      H        0.86590    0.97110    0.99660    1.000
    C37      C        0.72440    0.99210    0.90580    1.000
    H32      H        0.72330    0.01660    0.85280    1.000
    C38      C        0.90910    0.89730    0.16530    1.000
    C39      C        0.91000    0.84460    0.16850    1.000
    C40      C        0.99110    0.73520    0.33680    1.000
    C41      C        0.88340    0.76330    0.37980    1.000
    H33      H        0.83700    0.77660    0.29040    1.000
    H34      H        0.88350    0.78450    0.44060    1.000
    H35      H        0.86320    0.72970    0.38190    1.000
    C42      C        0.78120    0.80910    0.95670    1.000
    H36      H        0.76540    0.84080    0.91100    1.000
    H37      H        0.72120    0.78890    0.91110    1.000
    H38      H        0.83060    0.79150    0.95710    1.000
    C43      C        0.92450    0.58120    0.47180    1.000
    H39      H        0.87970    0.55420    0.43760    1.000
    C44      C        0.92120    0.61180    0.38590    1.000
    H40      H        0.87270    0.60600    0.29410    1.000
    C45      C        0.98710    0.65160    0.42830    1.000
    C46      C        0.05310    0.66010    0.56890    1.000
    H41      H        0.09700    0.68760    0.60540    1.000
    C47      C        0.05140    0.62770    0.65000    1.000
    H42      H        0.09560    0.63340    0.74220    1.000
    C48      C        0.99210    0.68210    0.33670    1.000
    O7       O        0.32060    0.31790    0.09180    1.000
    O8       O        0.48350    0.26190    0.41980    1.000
    N7       N        0.14180    0.48590    0.89480    1.000
    N8       N        0.48930    0.08790    0.60340    1.000
    C49      C        0.14680    0.45050    0.97270    1.000
    H43      H        0.09100    0.44580    0.96850    1.000
    C50      C        0.23190    0.42000    0.06080    1.000
    H44      H        0.23170    0.39570    0.11300    1.000
    C51      C        0.31480    0.42630    0.06930    1.000
    C52      C        0.30990    0.46440    0.99080    1.000
    H45      H        0.36590    0.47110    0.99660    1.000
    C53      C        0.22440    0.49210    0.90580    1.000
    H46      H        0.22330    0.51660    0.85280    1.000
    C54      C        0.40910    0.39730    0.16530    1.000
    C55      C        0.41000    0.34460    0.16850    1.000
    C56      C        0.49110    0.23520    0.33680    1.000
    C57      C        0.38340    0.26330    0.37980    1.000
    H47      H        0.33700    0.27660    0.29040    1.000
    H48      H        0.38350    0.28450    0.44060    1.000
    H49      H        0.36320    0.22970    0.38190    1.000
    C58      C        0.28120    0.30910    0.95670    1.000
    H50      H        0.26540    0.34080    0.91100    1.000
    H51      H        0.22120    0.28890    0.91110    1.000
    H52      H        0.33060    0.29150    0.95710    1.000
    C59      C        0.42450    0.08120    0.47180    1.000
    H53      H        0.37970    0.05420    0.43760    1.000
    C60      C        0.42120    0.11180    0.38590    1.000
    H54      H        0.37270    0.10600    0.29410    1.000
    C61      C        0.48710    0.15160    0.42830    1.000
    C62      C        0.55310    0.16010    0.56890    1.000
    H55      H        0.59700    0.18760    0.60540    1.000
    C63      C        0.55140    0.12770    0.65000    1.000
    H56      H        0.59560    0.13340    0.74220    1.000
    C64      C        0.49210    0.18210    0.33670    1.000
    Ag1      Ag       0.50000    0.03243    0.75000    1.000
    Ag2      Ag       0.00000    0.53243    0.75000    1.000
    C65      C        0.00000    0.92240    0.25000    1.000
    H57      H        0.00000    0.95760    0.25000    1.000
    C66      C        0.00000    0.81730    0.25000    1.000
    C67      C        0.00000    0.76050    0.25000    1.000
    C68      C        0.00000    0.65840    0.25000    1.000
    H58      H        0.00000    0.62320    0.25000    1.000
    C69      C        0.50000    0.42240    0.25000    1.000
    H59      H        0.50000    0.45760    0.25000    1.000
    C70      C        0.50000    0.31730    0.25000    1.000
    C71      C        0.50000    0.26050    0.25000    1.000
    C72      C        0.50000    0.15840    0.25000    1.000
    H60      H        0.50000    0.12320    0.25000    1.000
    O9       O        0.82060    0.18210    0.59180    1.000
    O10      O        0.98350    0.23810    0.91980    1.000
    N9       N        0.64180    0.01410    0.39480    1.000
    N10      N        0.98930    0.41210    0.10340    1.000
    C73      C        0.64680    0.04950    0.47270    1.000
    H61      H        0.59100    0.05420    0.46850    1.000
    C74      C        0.73190    0.08000    0.56080    1.000
    H62      H        0.73170    0.10430    0.61300    1.000
    C75      C        0.81480    0.07370    0.56930    1.000
    C76      C        0.80990    0.03560    0.49080    1.000
    H63      H        0.86590    0.02890    0.49660    1.000
    C77      C        0.72440    0.00790    0.40580    1.000
    H64      H        0.72330    0.98340    0.35280    1.000
    C78      C        0.90910    0.10270    0.66530    1.000
    C79      C        0.91000    0.15540    0.66850    1.000
    C80      C        0.99110    0.26480    0.83680    1.000
    C81      C        0.88340    0.23670    0.87980    1.000
    H65      H        0.83700    0.22340    0.79040    1.000
    H66      H        0.88350    0.21550    0.94060    1.000
    H67      H        0.86320    0.27030    0.88190    1.000
    C82      C        0.78120    0.19090    0.45670    1.000
    H68      H        0.76540    0.15920    0.41100    1.000
    H69      H        0.72120    0.21110    0.41110    1.000
    H70      H        0.83060    0.20850    0.45710    1.000
    C83      C        0.92450    0.41880    0.97180    1.000
    H71      H        0.87970    0.44580    0.93760    1.000
    C84      C        0.92120    0.38820    0.88590    1.000
    H72      H        0.87270    0.39400    0.79410    1.000
    C85      C        0.98710    0.34840    0.92830    1.000
    C86      C        0.05310    0.33990    0.06890    1.000
    H73      H        0.09700    0.31240    0.10540    1.000
    C87      C        0.05140    0.37230    0.15000    1.000
    H74      H        0.09560    0.36660    0.24220    1.000
    C88      C        0.99210    0.31790    0.83670    1.000
    O11      O        0.32060    0.68210    0.59180    1.000
    O12      O        0.48350    0.73810    0.91980    1.000
    N11      N        0.14180    0.51410    0.39480    1.000
    N12      N        0.48930    0.91210    0.10340    1.000
    C89      C        0.14680    0.54950    0.47270    1.000
    H75      H        0.09100    0.55420    0.46850    1.000
    C90      C        0.23190    0.58000    0.56080    1.000
    H76      H        0.23170    0.60430    0.61300    1.000
    C91      C        0.31480    0.57370    0.56930    1.000
    C92      C        0.30990    0.53560    0.49080    1.000
    H77      H        0.36590    0.52890    0.49660    1.000
    C93      C        0.22440    0.50790    0.40580    1.000
    H78      H        0.22330    0.48340    0.35280    1.000
    C94      C        0.40910    0.60270    0.66530    1.000
    C95      C        0.41000    0.65540    0.66850    1.000
    C96      C        0.49110    0.76480    0.83680    1.000
    C97      C        0.38340    0.73670    0.87980    1.000
    H79      H        0.33700    0.72340    0.79040    1.000
    H80      H        0.38350    0.71550    0.94060    1.000
    H81      H        0.36320    0.77030    0.88190    1.000
    C98      C        0.28120    0.69090    0.45670    1.000
    H82      H        0.26540    0.65920    0.41100    1.000
    H83      H        0.22120    0.71110    0.41110    1.000
    H84      H        0.33060    0.70850    0.45710    1.000
    C99      C        0.42450    0.91880    0.97180    1.000
    H85      H        0.37970    0.94580    0.93760    1.000
    C100     C        0.42120    0.88820    0.88590    1.000
    H86      H        0.37270    0.89400    0.79410    1.000
    C101     C        0.48710    0.84840    0.92830    1.000
    C102     C        0.55310    0.83990    0.06890    1.000
    H87      H        0.59700    0.81240    0.10540    1.000
    C103     C        0.55140    0.87230    0.15000    1.000
    H88      H        0.59560    0.86660    0.24220    1.000
    C104     C        0.49210    0.81790    0.83670    1.000
    O13      O        0.17940    0.18210    0.90820    1.000
    O14      O        0.01650    0.23810    0.58020    1.000
    N13      N        0.35820    0.01410    0.10520    1.000
    N14      N        0.01070    0.41210    0.39660    1.000
    C105     C        0.35320    0.04950    0.02730    1.000
    H89      H        0.40900    0.05420    0.03150    1.000
    C106     C        0.26810    0.08000    0.93920    1.000
    H90      H        0.26830    0.10430    0.88700    1.000
    C107     C        0.18520    0.07370    0.93070    1.000
    C108     C        0.19010    0.03560    0.00920    1.000
    H91      H        0.13410    0.02890    0.00340    1.000
    C109     C        0.27560    0.00790    0.09420    1.000
    H92      H        0.27670    0.98340    0.14720    1.000
    C110     C        0.09090    0.10270    0.83470    1.000
    C111     C        0.09000    0.15540    0.83150    1.000
    C112     C        0.00890    0.26480    0.66320    1.000
    C113     C        0.11660    0.23670    0.62020    1.000
    H93      H        0.16300    0.22340    0.70960    1.000
    H94      H        0.11650    0.21550    0.55940    1.000
    H95      H        0.13680    0.27030    0.61810    1.000
    C114     C        0.21880    0.19090    0.04330    1.000
    H96      H        0.23460    0.15920    0.08900    1.000
    H97      H        0.27880    0.21110    0.08890    1.000
    H98      H        0.16940    0.20850    0.04290    1.000
    C115     C        0.07550    0.41880    0.52820    1.000
    H99      H        0.12030    0.44580    0.56240    1.000
    C116     C        0.07880    0.38820    0.61410    1.000
    H100     H        0.12730    0.39400    0.70590    1.000
    C117     C        0.01290    0.34840    0.57170    1.000
    C118     C        0.94690    0.33990    0.43110    1.000
    H101     H        0.90300    0.31240    0.39460    1.000
    C119     C        0.94860    0.37230    0.35000    1.000
    H102     H        0.90440    0.36660    0.25780    1.000
    C120     C        0.00790    0.31790    0.66330    1.000
    O15      O        0.67940    0.68210    0.90820    1.000
    O16      O        0.51650    0.73810    0.58020    1.000
    N15      N        0.85820    0.51410    0.10520    1.000
    N16      N        0.51070    0.91210    0.39660    1.000
    C121     C        0.85320    0.54950    0.02730    1.000
    H103     H        0.90900    0.55420    0.03150    1.000
    C122     C        0.76810    0.58000    0.93920    1.000
    H104     H        0.76830    0.60430    0.88700    1.000
    C123     C        0.68520    0.57370    0.93070    1.000
    C124     C        0.69010    0.53560    0.00920    1.000
    H105     H        0.63410    0.52890    0.00340    1.000
    C125     C        0.77560    0.50790    0.09420    1.000
    H106     H        0.77670    0.48340    0.14720    1.000
    C126     C        0.59090    0.60270    0.83470    1.000
    C127     C        0.59000    0.65540    0.83150    1.000
    C128     C        0.50890    0.76480    0.66320    1.000
    C129     C        0.61660    0.73670    0.62020    1.000
    H107     H        0.66300    0.72340    0.70960    1.000
    H108     H        0.61650    0.71550    0.55940    1.000
    H109     H        0.63680    0.77030    0.61810    1.000
    C130     C        0.71880    0.69090    0.04330    1.000
    H110     H        0.73460    0.65920    0.08900    1.000
    H111     H        0.77880    0.71110    0.08890    1.000
    H112     H        0.66940    0.70850    0.04290    1.000
    C131     C        0.57550    0.91880    0.52820    1.000
    H113     H        0.62030    0.94580    0.56240    1.000
    C132     C        0.57880    0.88820    0.61410    1.000
    H114     H        0.62730    0.89400    0.70590    1.000
    C133     C        0.51290    0.84840    0.57170    1.000
    C134     C        0.44690    0.83990    0.43110    1.000
    H115     H        0.40300    0.81240    0.39460    1.000
    C135     C        0.44860    0.87230    0.35000    1.000
    H116     H        0.40440    0.86660    0.25780    1.000
    C136     C        0.50790    0.81790    0.66330    1.000
    Ag3      Ag       0.50000    0.96757    0.25000    1.000
    Ag4      Ag       0.00000    0.46757    0.25000    1.000
    C137     C        0.00000    0.07760    0.75000    1.000
    H117     H        0.00000    0.04240    0.75000    1.000
    C138     C        0.00000    0.18270    0.75000    1.000
    C139     C        0.00000    0.23950    0.75000    1.000
    C140     C        0.00000    0.34160    0.75000    1.000
    H118     H        0.00000    0.37680    0.75000    1.000
    C141     C        0.50000    0.57760    0.75000    1.000
    H119     H        0.50000    0.54240    0.75000    1.000
    C142     C        0.50000    0.68270    0.75000    1.000
    C143     C        0.50000    0.73950    0.75000    1.000
    C144     C        0.50000    0.84160    0.75000    1.000
    H120     H        0.50000    0.87680    0.75000    1.000
