data_functionalizedCrystal
_audit_creation_method	'EQeq! by Chris Wilmer'
_symmetry_space_group_name_H-M	'P1'
_symmetry_Int_Tables_number	1
_symmetry_cell_setting	triclinic
loop_
_symmetry_equiv_pos_as_xyz
  x,y,z
_cell_length_a	6.5677
_cell_length_b	16.4037
_cell_length_c	13.174
_cell_angle_alpha	90
_cell_angle_beta	90
_cell_angle_gamma	90
loop_
_atom_site_label
_atom_site_type_symbol
_atom_site_fract_x
_atom_site_fract_y
_atom_site_fract_z
_atom_site_charge
Mof_O 	O 	0.1687	0.16826	0.8389	-1.756
Mof_C 	C 	0.8065	0.0298	0.9583	0.019
Mof_O 	O 	0.6687	0.66826	0.3389	-1.745
Mof_C 	C 	0.3065	0.5298	0.4583	0.071
Mof_O 	O 	0.8313	0.33174	0.8389	-1.778
Mof_C 	C 	0.1935	0.4702	0.9583	0.056
Mof_O 	O 	0.3313	0.83174	0.3389	-1.746
Mof_C 	C 	0.6935	0.9702	0.4583	0.046
Mof_O 	O 	0.8313	0.66826	0.1611	-1.777
Mof_C 	C 	0.1935	0.5298	0.0417	0.057
Mof_O 	O 	0.3313	0.16826	0.6611	-1.745
Mof_C 	C 	0.6935	0.0298	0.5417	0.047
Mof_O 	O 	0.1687	0.83174	0.1611	-1.755
Mof_C 	C 	0.8065	0.9702	0.0417	0.02
Mof_O 	O 	0.6687	0.33174	0.6611	-1.744
Mof_C 	C 	0.3065	0.4702	0.5417	0.072
Mof_O 	O 	0.8313	0.83174	0.1611	-1.777
Mof_C 	C 	0.1935	0.9702	0.0417	0.057
Mof_O 	O 	0.3313	0.33174	0.6611	-1.745
Mof_C 	C 	0.6935	0.4702	0.5417	0.048
Mof_O 	O 	0.1687	0.66826	0.1611	-1.755
Mof_C 	C 	0.8065	0.5298	0.0417	0.02
Mof_O 	O 	0.6687	0.16826	0.6611	-1.744
Mof_C 	C 	0.3065	0.0298	0.5417	0.071
Mof_O 	O 	0.1687	0.33174	0.8389	-1.755
Mof_C 	C 	0.8065	0.4702	0.9583	0.02
Mof_O 	O 	0.6687	0.83174	0.3389	-1.744
Mof_C 	C 	0.3065	0.9702	0.4583	0.071
Mof_O 	O 	0.8313	0.16826	0.8389	-1.777
Mof_C 	C 	0.1935	0.0298	0.9583	0.057
Mof_O 	O 	0.3313	0.66826	0.3389	-1.745
Mof_C 	C 	0.6935	0.5298	0.4583	0.048
Mof_Al	Al	0.25	0.25	0.75	7.422
Mof_Al	Al	0.75	0.25	0.75	7.318
Mof_Al	Al	0.75	0.75	0.25	7.318
Mof_Al	Al	0.25	0.75	0.25	7.422
Mof_F 	F 	-1.25665e-32	0.25	0.694	-2.446
Mof_F 	F 	0.5	0.75	0.194	-2.471
Mof_F 	F 	-2.14512e-33	0.75	0.306	-2.446
Mof_F 	F 	0.5	0.25	0.806	-2.471
Mof_C 	C 	7.11546e-33	0.0622	0.9461	-0.269
Mof_C 	C 	6.56118e-33	0.1387	0.8724	1.272
Mof_C 	C 	0.5	0.5622	0.4461	-0.312
Mof_C 	C 	0.5	0.6387	0.3724	1.224
Mof_C 	C 	-1.06705e-32	0.4378	0.9461	-0.268
Mof_C 	C 	-1.12248e-32	0.3613	0.8724	1.272
Mof_C 	C 	0.5	0.9378	0.4461	-0.312
Mof_C 	C 	0.5	0.8613	0.3724	1.224
Mof_C 	C 	-7.37599e-33	0.5622	0.0539	-0.268
Mof_C 	C 	-1.68263e-32	0.6387	0.1276	1.272
Mof_C 	C 	0.5	0.0622	0.5539	-0.312
Mof_C 	C 	0.5	0.1387	0.6276	1.224
Mof_C 	C 	1.041e-32	0.9378	0.0539	-0.269
Mof_C 	C 	9.59659e-34	0.8613	0.1276	1.272
Mof_C 	C 	0.5	0.4378	0.5539	-0.312
Mof_C 	C 	0.5	0.3613	0.6276	1.224
_end
