# CIF file generated by openbabel 3.1.0, see https://openbabel.org
data_I
_chemical_name_common 'image0'
_cell_length_a 12.0576
_cell_length_b 17.8073
_cell_length_c 9.7855
_cell_angle_alpha 90
_cell_angle_beta 95.306
_cell_angle_gamma 90
_space_group_name_H-M_alt 'P 1'
_space_group_name_Hall 'P 1'
loop_
    _symmetry_equiv_pos_as_xyz
    x,y,z
loop_
    _atom_site_label
    _atom_site_type_symbol
    _atom_site_fract_x
    _atom_site_fract_y
    _atom_site_fract_z
    _atom_site_occupancy
    Cu1      Cu       0.00329    0.62510    0.62345    1.000
    Cu2      Cu       0.39469    0.65285    0.83165    1.000
    N1       N        0.97889    0.71731    0.51245    1.000
    N2       N        0.99831    0.52923    0.52640    1.000
    N3       N        0.23882    0.63516    0.77464    1.000
    C1       C        0.95480    0.76851    0.44470    1.000
    C2       C        0.00169    0.47077    0.47360    1.000
    C3       C        0.14506    0.63147    0.75403    1.000
    Cu3      Cu       0.50329    0.12510    0.62345    1.000
    Cu4      Cu       0.89469    0.15285    0.83165    1.000
    N4       N        0.47889    0.21731    0.51245    1.000
    N5       N        0.49831    0.02923    0.52640    1.000
    N6       N        0.73882    0.13516    0.77464    1.000
    C4       C        0.45480    0.26851    0.44470    1.000
    C5       C        0.50169    0.97077    0.47360    1.000
    C6       C        0.64506    0.13147    0.75403    1.000
    Cu5      Cu       0.99671    0.62510    0.87655    1.000
    Cu6      Cu       0.60531    0.65285    0.66835    1.000
    N7       N        0.02111    0.71731    0.98755    1.000
    N8       N        0.00169    0.52923    0.97360    1.000
    N9       N        0.76118    0.63516    0.72536    1.000
    C7       C        0.04520    0.76851    0.05530    1.000
    C8       C        0.99831    0.47077    0.02640    1.000
    C9       C        0.85494    0.63147    0.74597    1.000
    Cu7      Cu       0.49671    0.12510    0.87655    1.000
    Cu8      Cu       0.10531    0.15285    0.66835    1.000
    N10      N        0.52111    0.21731    0.98755    1.000
    N11      N        0.50169    0.02923    0.97360    1.000
    N12      N        0.26118    0.13516    0.72536    1.000
    C10      C        0.54520    0.26851    0.05530    1.000
    C11      C        0.49831    0.97077    0.02640    1.000
    C12      C        0.35494    0.13147    0.74597    1.000
    Cu9      Cu       0.99671    0.37490    0.37655    1.000
    Cu10     Cu       0.60531    0.34715    0.16835    1.000
    N13      N        0.02111    0.28269    0.48755    1.000
    N14      N        0.76118    0.36484    0.22536    1.000
    C13      C        0.04520    0.23149    0.55530    1.000
    C14      C        0.85494    0.36853    0.24597    1.000
    Cu11     Cu       0.49671    0.87490    0.37655    1.000
    Cu12     Cu       0.10531    0.84715    0.16835    1.000
    N15      N        0.52111    0.78269    0.48755    1.000
    N16      N        0.26118    0.86484    0.22536    1.000
    C15      C        0.54520    0.73149    0.55530    1.000
    C16      C        0.35494    0.86853    0.24597    1.000
    Cu13     Cu       0.00329    0.37490    0.12345    1.000
    Cu14     Cu       0.39469    0.34715    0.33165    1.000
    N17      N        0.97889    0.28269    0.01245    1.000
    N18      N        0.23882    0.36484    0.27464    1.000
    C17      C        0.95480    0.23149    0.94470    1.000
    C18      C        0.14506    0.36853    0.25403    1.000
    Cu15     Cu       0.50329    0.87490    0.12345    1.000
    Cu16     Cu       0.89469    0.84715    0.33165    1.000
    N19      N        0.47889    0.78269    0.01245    1.000
    N20      N        0.73882    0.86484    0.27464    1.000
    C19      C        0.45480    0.73149    0.94470    1.000
    C20      C        0.64506    0.86853    0.25403    1.000
    Cl1      Cl       0.50000    0.55648    0.75000    1.000
    Cl2      Cl       0.00000    0.05648    0.75000    1.000
    Cl3      Cl       0.50000    0.44352    0.25000    1.000
    Cl4      Cl       0.00000    0.94352    0.25000    1.000
