# CIF file generated by openbabel 3.1.0, see https://openbabel.org
data_I
_chemical_name_common 'MANLAP_ion_b'
_cell_length_a 13.5835
_cell_length_b 13.5835
_cell_length_c 16.501
_cell_angle_alpha 119.802
_cell_angle_beta 119.802
_cell_angle_gamma 77.622
_space_group_name_H-M_alt 'P 1'
_space_group_name_Hall 'P 1'
loop_
    _symmetry_equiv_pos_as_xyz
    x,y,z
loop_
    _atom_site_label
    _atom_site_type_symbol
    _atom_site_fract_x
    _atom_site_fract_y
    _atom_site_fract_z
    _atom_site_occupancy
    N1       N        0.11370    0.12270    0.86670    1.000
    N2       N        0.10950    0.82170    0.83490    1.000
    C3       C        0.04030    0.19690    0.88850    1.000
    H4       H        0.96780    0.16920    0.86550    1.000
    C5       C        0.06200    0.31600    0.94430    1.000
    H6       H        0.00550    0.36630    0.95780    1.000
    C7       C        0.21780    0.16420    0.90480    1.000
    H8       H        0.27420    0.11240    0.89300    1.000
    C9       C        0.24580    0.27980    0.96060    1.000
    H10      H        0.32050    0.30510    0.98670    1.000
    C11      C        0.16680    0.35720    0.97830    1.000
    C12      C        0.19320    0.48260    0.03200    1.000
    C13      C        0.16270    0.53730    0.97090    1.000
    C14      C        0.19030    0.65270    0.02010    1.000
    C15      C        0.24820    0.71400    0.13000    1.000
    C16      C        0.27840    0.65860    0.19120    1.000
    C17      C        0.25110    0.54210    0.14130    1.000
    C18      C        0.10030    0.47250    0.85080    1.000
    H19      H        0.11420    0.39140    0.82790    1.000
    H20      H        0.12800    0.50080    0.82120    1.000
    H21      H        0.01860    0.48380    0.82640    1.000
    C22      C        0.28590    0.47930    0.20550    1.000
    H23      H        0.22370    0.42670    0.17570    1.000
    H24      H        0.30300    0.53400    0.27840    1.000
    H25      H        0.35350    0.43650    0.20400    1.000
    C26      C        0.27850    0.83830    0.18010    1.000
    H27      H        0.30580    0.87240    0.25610    1.000
    H28      H        0.21110    0.87690    0.15000    1.000
    H29      H        0.33810    0.84650    0.16660    1.000
    C30      C        0.16050    0.71290    0.95500    1.000
    C31      C        0.05350    0.74630    0.90960    1.000
    H32      H        0.99450    0.73070    0.91720    1.000
    C33      C        0.03070    0.80350    0.85160    1.000
    H34      H        0.95680    0.83020    0.82340    1.000
    C35      C        0.24080    0.73140    0.93630    1.000
    H36      H        0.31590    0.70710    0.96460    1.000
    C37      C        0.21180    0.78580    0.87580    1.000
    H38      H        0.26820    0.79780    0.86320    1.000
    N57      N        0.87730    0.88630    0.63330    1.000
    N58      N        0.17830    0.89050    0.66510    1.000
    C59      C        0.80310    0.95970    0.61150    1.000
    H60      H        0.83080    0.03220    0.63450    1.000
    C61      C        0.68400    0.93800    0.55570    1.000
    H62      H        0.63370    0.99450    0.54220    1.000
    C63      C        0.83580    0.78220    0.59520    1.000
    H64      H        0.88760    0.72580    0.60700    1.000
    C65      C        0.72020    0.75420    0.53940    1.000
    H66      H        0.69490    0.67950    0.51330    1.000
    C67      C        0.64280    0.83320    0.52170    1.000
    C68      C        0.51740    0.80680    0.46800    1.000
    C69      C        0.46270    0.83730    0.52910    1.000
    C70      C        0.34730    0.80970    0.47990    1.000
    C71      C        0.28600    0.75180    0.37000    1.000
    C72      C        0.34140    0.72160    0.30880    1.000
    C73      C        0.45790    0.74890    0.35870    1.000
    C74      C        0.52750    0.89970    0.64920    1.000
    H75      H        0.60860    0.88580    0.67210    1.000
    H76      H        0.49920    0.87200    0.67880    1.000
    H77      H        0.51620    0.98140    0.67360    1.000
    C78      C        0.52070    0.71410    0.29450    1.000
    H79      H        0.57330    0.77630    0.32430    1.000
    H80      H        0.46600    0.69700    0.22160    1.000
    H81      H        0.56350    0.64650    0.29600    1.000
    C82      C        0.16170    0.72150    0.31990    1.000
    H83      H        0.12760    0.69420    0.24390    1.000
    H84      H        0.12310    0.78890    0.35000    1.000
    H85      H        0.15350    0.66190    0.33340    1.000
    C86      C        0.28710    0.83950    0.54500    1.000
    C87      C        0.25370    0.94650    0.59040    1.000
    H88      H        0.26930    0.00550    0.58280    1.000
    C89      C        0.19650    0.96930    0.64840    1.000
    H90      H        0.16980    0.04320    0.67660    1.000
    C91      C        0.26860    0.75920    0.56370    1.000
    H92      H        0.29290    0.68410    0.53540    1.000
    C93      C        0.21420    0.78820    0.62420    1.000
    H94      H        0.20220    0.73180    0.63680    1.000
    N113     N        0.88630    0.87730    0.13330    1.000
    N114     N        0.89050    0.17830    0.16510    1.000
    C115     C        0.95970    0.80310    0.11150    1.000
    H116     H        0.03220    0.83080    0.13450    1.000
    C117     C        0.93800    0.68400    0.05570    1.000
    H118     H        0.99450    0.63370    0.04220    1.000
    C119     C        0.78220    0.83580    0.09520    1.000
    H120     H        0.72580    0.88760    0.10700    1.000
    C121     C        0.75420    0.72020    0.03940    1.000
    H122     H        0.67950    0.69490    0.01330    1.000
    C123     C        0.83320    0.64280    0.02170    1.000
    C124     C        0.80680    0.51740    0.96800    1.000
    C125     C        0.83730    0.46270    0.02910    1.000
    C126     C        0.80970    0.34730    0.97990    1.000
    C127     C        0.75180    0.28600    0.87000    1.000
    C128     C        0.72160    0.34140    0.80880    1.000
    C129     C        0.74890    0.45790    0.85870    1.000
    C130     C        0.89970    0.52750    0.14920    1.000
    H131     H        0.88580    0.60860    0.17210    1.000
    H132     H        0.87200    0.49920    0.17880    1.000
    H133     H        0.98140    0.51620    0.17360    1.000
    C134     C        0.71410    0.52070    0.79450    1.000
    H135     H        0.77630    0.57330    0.82430    1.000
    H136     H        0.69700    0.46600    0.72160    1.000
    H137     H        0.64650    0.56350    0.79600    1.000
    C138     C        0.72150    0.16170    0.81990    1.000
    H139     H        0.69420    0.12760    0.74390    1.000
    H140     H        0.78890    0.12310    0.85000    1.000
    H141     H        0.66190    0.15350    0.83340    1.000
    C142     C        0.83950    0.28710    0.04500    1.000
    C143     C        0.94650    0.25370    0.09040    1.000
    H144     H        0.00550    0.26930    0.08280    1.000
    C145     C        0.96930    0.19650    0.14840    1.000
    H146     H        0.04320    0.16980    0.17660    1.000
    C147     C        0.75920    0.26860    0.06370    1.000
    H148     H        0.68410    0.29290    0.03540    1.000
    C149     C        0.78820    0.21420    0.12420    1.000
    H150     H        0.73180    0.20220    0.13680    1.000
    N169     N        0.12270    0.11370    0.36670    1.000
    N170     N        0.82170    0.10950    0.33490    1.000
    C171     C        0.19690    0.04030    0.38850    1.000
    H172     H        0.16920    0.96780    0.36550    1.000
    C173     C        0.31600    0.06200    0.44430    1.000
    H174     H        0.36630    0.00550    0.45780    1.000
    C175     C        0.16420    0.21780    0.40480    1.000
    H176     H        0.11240    0.27420    0.39300    1.000
    C177     C        0.27980    0.24580    0.46060    1.000
    H178     H        0.30510    0.32050    0.48670    1.000
    C179     C        0.35720    0.16680    0.47830    1.000
    C180     C        0.48260    0.19320    0.53200    1.000
    C181     C        0.53730    0.16270    0.47090    1.000
    C182     C        0.65270    0.19030    0.52010    1.000
    C183     C        0.71400    0.24820    0.63000    1.000
    C184     C        0.65860    0.27840    0.69120    1.000
    C185     C        0.54210    0.25110    0.64130    1.000
    C186     C        0.47250    0.10030    0.35080    1.000
    H187     H        0.39140    0.11420    0.32790    1.000
    H188     H        0.50080    0.12800    0.32120    1.000
    H189     H        0.48380    0.01860    0.32640    1.000
    C190     C        0.47930    0.28590    0.70550    1.000
    H191     H        0.42670    0.22370    0.67570    1.000
    H192     H        0.53400    0.30300    0.77840    1.000
    H193     H        0.43650    0.35350    0.70400    1.000
    C194     C        0.83830    0.27850    0.68010    1.000
    H195     H        0.87240    0.30580    0.75610    1.000
    H196     H        0.87690    0.21110    0.65000    1.000
    H197     H        0.84650    0.33810    0.66660    1.000
    C198     C        0.71290    0.16050    0.45500    1.000
    C199     C        0.74630    0.05350    0.40960    1.000
    H200     H        0.73070    0.99450    0.41720    1.000
    C201     C        0.80350    0.03070    0.35160    1.000
    H202     H        0.83020    0.95680    0.32340    1.000
    C203     C        0.73140    0.24080    0.43630    1.000
    H204     H        0.70710    0.31590    0.46460    1.000
    C205     C        0.78580    0.21180    0.37580    1.000
    H206     H        0.79780    0.26820    0.36320    1.000
    Ag225    Ag       0.06900    0.93100    0.75000    1.000
    Ag226    Ag       0.93100    0.06900    0.25000    1.000
