data_functionalizedCrystal
_audit_creation_method	'EQeq! by Chris Wilmer'
_symmetry_space_group_name_H-M	'P1'
_symmetry_Int_Tables_number	1
_symmetry_cell_setting	triclinic
loop_
_symmetry_equiv_pos_as_xyz
  x,y,z
_cell_length_a	16.789
_cell_length_b	17.1578
_cell_length_c	23.3749
_cell_angle_alpha	79.8801
_cell_angle_beta	68.9532
_cell_angle_gamma	60.7085
loop_
_atom_site_label
_atom_site_type_symbol
_atom_site_fract_x
_atom_site_fract_y
_atom_site_fract_z
_atom_site_charge
Mof_Zn	Zn	0.16235	0.72518	0.18976	1.221
Mof_Zn	Zn	0.1813	0.59114	0.10828	1.219
Mof_Zn	Zn	0.95576	0.20696	0.92724	1.222
Mof_Zn	Zn	0.63753	0.77482	0.68976	1.22
Mof_Zn	Zn	0.34659	0.5	0.5	1.254
Mof_Zn	Zn	0.633	0.70696	0.57276	1.218
Mof_Zn	Zn	0.03958	0.09114	0.39172	1.213
Mof_Zn	Zn	0.07729	0.27482	0.81024	1.219
Mof_Zn	Zn	0.11815	0.19274	0.44384	1.215
Mof_Zn	Zn	0.52244	0.90886	0.60828	1.221
Mof_Zn	Zn	0.75473	0.80726	0.55616	1.216
Mof_Zn	Zn	0.06089	0.30726	0.94384	1.219
Mof_Zn	Zn	0.59659	0	-0	1.239
Mof_Zn	Zn	0.31199	0.69274	0.05616	1.212
Mof_Zn	Zn	0.88072	0.40886	0.89172	1.219
Mof_Zn	Zn	0.91272	0.29304	0.42724	1.219
Mof_Zn	Zn	0.08996	0.79304	0.07276	1.214
Mof_Zn	Zn	0.10211	0.22518	0.31024	1.219
Mof_H 	H 	0.8653	0.8008	0.0304	0.075
Mof_H 	H 	0.0212	0.5146	0.2568	0.031
Mof_H 	H 	0.4424	0.844	0.0966	0.033
Mof_H 	H 	0.0117	0.041	0.0734	0.01
Mof_H 	H 	0.507	0.1522	0.5314	0.041
Mof_H 	H 	0.9104	0.7312	0.3598	0.049
Mof_H 	H 	0.3195	0.965	0.513	0.063
Mof_H 	H 	0.8351	0.541	0.4266	0.032
Mof_H 	H 	0.2193	0.3744	0.2514	0.035
Mof_H 	H 	0.3916	0.7688	0.8598	0.055
Mof_H 	H 	0.6006	0.9816	0.7758	0.069
Mof_H 	H 	0.028	0.0146	0.2432	0.022
Mof_H 	H 	0.8027	0.459	0.5734	0.03
Mof_H 	H 	0.5825	0.465	0.987	0.031
Mof_H 	H 	0.7884	0.6522	0.9686	0.07
Mof_H 	H 	0.1261	0.959	0.9266	0.055
Mof_H 	H 	0.3437	0.1256	0.7514	0.033
Mof_H 	H 	0.4092	0.3478	0.0314	0.031
Mof_H 	H 	0.383	0.156	0.9034	0.048
Mof_H 	H 	0.0014	0.2688	0.6402	0.034
Mof_H 	H 	0.7926	0.4854	0.7432	0.038
Mof_H 	H 	0.6965	0.1992	0.9696	0.036
Mof_H 	H 	0.3322	0.5184	0.2758	0.036
Mof_H 	H 	0.0364	0.656	0.5966	0.045
Mof_H 	H 	0.1264	0.4816	0.7242	0.042
Mof_H 	H 	0.6457	0.3008	0.4696	0.052
Mof_H 	H 	0.2207	0.8744	0.2486	0.041
Mof_H 	H 	0.0345	0.535	0.013	0.055
Mof_H 	H 	0.1906	0.8478	0.4686	0.063
Mof_H 	H 	0.2858	0.9854	0.7568	0.058
Mof_H 	H 	0.4161	0.6992	0.5304	0.059
Mof_H 	H 	0.0202	0.2312	0.1402	0.039
Mof_H 	H 	0.289	0.344	0.4034	0.039
Mof_H 	H 	0.7975	0.035	0.487	0.036
Mof_H 	H 	0.8451	0.6256	0.7486	0.041
Mof_H 	H 	0.358	0.0184	0.2242	0.002
Mof_C 	C 	0.3738	0.7546	0.519	0.039
Mof_C 	C 	0.9445	0.3222	0.6458	0.077
Mof_C 	C 	0.8202	0.4526	0.7074	0.066
Mof_C 	C 	0.3502	0.9754	0.2108	0.124
Mof_C 	C 	0.4072	0.1296	0.8654	0.068
Mof_C 	C 	0.201	0.5418	0.6182	0.381
Mof_C 	C 	0.34942	0.8706	0.79776	-0.082
Mof_C 	C 	0.311	0.4754	0.2892	0.077
Mof_C 	C 	0.4707	0.343	0.0184	0.099
Mof_C 	C 	0.01778	0.1294	0.20224	-0.119
Mof_C 	C 	0.2014	0.0146	0.2996	0.332
Mof_C 	C 	0.8321	0.657	0.9816	0.001
Mof_C 	C 	0.0256	0.1632	0.2554	0.341
Mof_C 	C 	0.9802	0.5474	0.2926	0.074
Mof_C 	C 	0.0274	0.675	0.0504	0.382
Mof_C 	C 	0.9509	0.306	0.5388	0.405
Mof_C 	C 	0.8784	0.7454	0.019	-0.017
Mof_C 	C 	0.9849	0.5428	0.7438	-0.116
Mof_C 	C 	0.361	0.4582	0.3818	0.385
Mof_C 	C 	0.9798	0.5864	0.0092	0.007
Mof_C 	C 	0.0756	0.5246	0.7108	0.061
Mof_C 	C 	0.0228	0.0474	0.2074	0.081
Mof_C 	C 	0.6539	0.9894	0.531	0.401
Mof_C 	C 	0.7078	0.5802	0.659	0.352
Mof_C 	C 	0.031	0.6632	0.2446	0.343
Mof_C 	C 	0.1168	0.0802	0.841	0.316
Mof_C 	C 	0.6474	0.2454	0.481	0.059
Mof_C 	C 	0.6525	0.334	0.9754	-0.16
Mof_C 	C 	0.0069	0.194	0.0388	0.39
Mof_C 	C 	0.9125	0.6778	0.3542	0.059
Mof_C 	C 	0.6529	0.0808	0.513	-0.131
Mof_C 	C 	0.8697	0.5634	0.3938	0.077
Mof_C 	C 	0.9281	0.512	0.3416	-0.135
Mof_C 	C 	0.9349	0.4894	0.969	0.366
Mof_C 	C 	0.2445	0.2196	0.85	0.387
Mof_C 	C 	0.1743	0.0106	0.469	0.346
Mof_C 	C 	0.5493	0.263	0.0044	-0.161
Mof_C 	C 	0.5377	0.1792	0.0114	0.367
Mof_C 	C 	0.97002	0.6294	0.29776	-0.101
Mof_C 	C 	0.2776	0.9526	0.7926	0.034
Mof_C 	C 	0.2482	0.3482	0.3296	-0.146
Mof_C 	C 	0.8278	0.175	0.4496	0.407
Mof_C 	C 	0.038	0.9198	0.159	0.385
Mof_C 	C 	0.2534	0.857	0.8998	-0.096
Mof_C 	C 	0.739	0.0864	0.4908	0.079
Mof_C 	C 	0.2141	0.2804	0.35	0.39
Mof_C 	C 	0.4442	0.8368	0.7446	0.341
Mof_C 	C 	0.0167	0.1778	0.1458	0.07
Mof_C 	C 	0.0197	0.012	0.1584	-0.177
Mof_C 	C 	0.8167	0.737	0.9956	-0.031
Mof_C 	C 	0.2715	0.4572	0.2562	-0.132
Mof_C 	C 	0.8269	0.4366	0.6062	0.081
Mof_C 	C 	0.5156	0.9854	0.7004	0.427
Mof_C 	C 	0.0226	0.6296	0.6346	0.065
Mof_C 	C 	0.4837	0.4192	0.013	-0.163
Mof_C 	C 	0.3464	0.1518	0.8296	-0.139
Mof_C 	C 	0.7365	0.166	0.4754	-0.128
Mof_C 	C 	0.2397	0.806	0.9612	0.386
Mof_C 	C 	0.3141	0.7804	0.15	0.392
Mof_C 	C 	0.1831	0.9366	0.8938	0.043
Mof_C 	C 	0.2684	0.89	0.2242	0.081
Mof_C 	C 	0.4022	0.8704	0.1346	0.092
Mof_C 	C 	0.3933	0.5106	0.031	0.391
Mof_C 	C 	0.9032	0.357	0.6002	-0.133
Mof_C 	C 	0.4928	0.9582	0.1182	0.393
Mof_C 	C 	0.3779	0.834	0.5246	-0.102
Mof_C 	C 	0.7283	0.8208	0.9886	0.326
Mof_C 	C 	0.7957	0.694	0.4612	0.394
Mof_C 	C 	0.2991	0.6792	0.4886	0.342
Mof_C 	C 	0.5692	0.0418	0.8818	0.375
Mof_C 	C 	0.0102	0.143	0.1002	-0.143
Mof_C 	C 	0.2426	0.39	0.2758	0.083
Mof_C 	C 	0.3201	0.4306	0.3434	-0.121
Mof_C 	C 	0.9619	0.666	0.0246	-0.074
Mof_C 	C 	0.5754	0.4136	0.9908	0.139
Mof_C 	C 	0.3037	0.763	0.4956	-0.081
Mof_C 	C 	0.1901	0.988	0.8416	-0.079
Mof_C 	C 	0.4135	0.9306	0.1566	-0.137
Mof_C 	C 	0.926	0.6518	0.6704	-0.129
Mof_C 	C 	0.5007	0.0694	0.8434	-0.101
Mof_C 	C 	0.7817	0.488	0.6584	-0.133
Mof_C 	C 	0.6428	0.2546	0.981	0.123
Mof_C 	C 	0.947	0.4198	0.341	0.361
Mof_C 	C 	0.966	0.4854	0.7996	0.383
Mof_C 	C 	0.251	0.5146	0.2004	0.381
Mof_C 	C 	0.0941	0.5694	0.6566	-0.109
Mof_C 	C 	0.9388	0.3368	0.7554	0.355
Mof_C 	C 	0.7528	0.325	0.9496	0.421
Mof_C 	C 	0.4524	0.825	0.5504	0.398
Mof_C 	C 	0.2391	0.843	0.4816	0.028
Mof_C 	C 	0.3403	0.8222	0.8542	0.041
Mof_C 	C 	0.0135	0.0634	0.1062	0.099
Mof_C 	C 	0.9084	0.61	0.7242	0.072
Mof_C 	C 	0.3278	0.8482	0.1704	-0.147
Mof_C 	C 	0.5637	0.157	0.5184	0.063
Mof_C 	C 	0.9159	0.5808	0.987	-0.045
Mof_C 	C 	0.3162	0.9136	0.5092	0.042
Mof_C 	C 	0.2868	0.3704	0.3654	0.081
Mof_C 	C 	0.2777	0.9572	0.2438	-0.116
Mof_C 	C 	0.3826	0.11	0.7758	0.082
Mof_C 	C 	0.2467	0.9192	0.487	-0.063
Mof_C 	C 	0.4669	0.3208	0.5114	0.349
Mof_C 	C 	0.8445	0.7196	0.65	0.386
Mof_C 	C 	0.8604	0.643	0.3998	-0.122
Mof_C 	C 	0.89718	0.3706	0.70224	-0.112
Mof_C 	C 	0.5364	0.0246	0.7892	0.031
Mof_C 	C 	0.5623	0.237	0.5044	-0.104
Mof_C 	C 	0.4787	0.0428	0.7562	-0.142
Mof_O 	O 	0.5079	0.968	0.0614	-0.441
Mof_O 	O 	0.0328	0.4242	0.8124	-0.47
Mof_O 	O 	0.31316	0.5178	0.04168	-0.468
Mof_O 	O 	0.90632	0.1052	0.43956	-0.472
Mof_O 	O 	0.81597	0.254	0.44206	-0.484
Mof_O 	O 	0.02203	0.4282	0.96474	-0.449
Mof_O 	O 	0.20023	0.0718	0.46474	-0.461
Mof_O 	O 	0.15191	0.8314	0.99298	-0.475
Mof_O 	O 	0.5416	0.9636	0.1432	-0.275
Mof_O 	O 	0.07626	0.8638	0.19728	-0.435
Mof_O 	O 	0.2552	0.5364	0.6432	-0.277
Mof_O 	O 	0.2181	0.4914	0.168	-0.431
Mof_O 	O 	0.20451	0.2558	0.80898	-0.462
Mof_O 	O 	0.69006	0.6362	0.69728	-0.431
Mof_O 	O 	0.8775	0.5086	0.832	-0.429
Mof_O 	O 	0.6484	0.0364	0.8568	-0.28
Mof_O 	O 	0.52197	0.797	0.75966	-0.436
Mof_O 	O 	0.10484	0.0178	0.45832	-0.463
Mof_O 	O 	0.73677	0.9282	0.53526	-0.456
Mof_O 	O 	0.00949	0.9016	0.12142	-0.467
Mof_O 	O 	0.26929	0.7442	0.19102	-0.463
Mof_O 	O 	0.03251	0.0984	0.87858	-0.46
Mof_O 	O 	0.19142	0.2598	0.40636	-0.477
Mof_O 	O 	0.81997	0.246	0.94206	-0.484
Mof_O 	O 	0.458	0.1874	0.0188	-0.295
Mof_O 	O 	0.4595	0.0086	0.668	-0.464
Mof_O 	O 	0.85758	0.7402	0.59364	-0.47
Mof_O 	O 	0.6642	0.8126	0.9812	-0.26
Mof_O 	O 	0.207	0.0758	0.3124	-0.459
Mof_O 	O 	0.51203	0.746	0.55794	-0.482
Mof_O 	O 	0.76152	0.3948	0.93956	-0.469
Mof_O 	O 	0.41497	0.5718	0.03526	-0.471
Mof_O 	O 	0.87264	0.4822	0.95832	-0.45
Mof_O 	O 	0.03232	0.2524	0.02836	-0.489
Mof_O 	O 	0.89489	0.3314	0.50702	-0.497
Mof_O 	O 	0.09588	0.6052	0.06044	-0.468
Mof_O 	O 	0.2259	0.532	0.5614	-0.441
Mof_O 	O 	0.44269	0.849	0.69082	-0.423
Mof_O 	O 	0.31308	0.7476	0.97164	-0.458
Mof_O 	O 	0.63995	0.7972	0.6045	-0.938
Mof_O 	O 	0.00803	0.754	0.05794	-0.484
Mof_O 	O 	0.06897	0.703	0.25966	-0.44
Mof_O 	O 	0.58096	0.9822	0.54168	-0.456
Mof_O 	O 	0.5373	0.032	0.9386	-0.435
Mof_O 	O 	0.03163	0.297	0.74034	-0.448
Mof_O 	O 	0.2268	0.6874	0.4812	-0.276
Mof_O 	O 	0.61331	0.1048	0.00318	-0.443
Mof_O 	O 	0.88351	0.349	0.80918	-0.429
Mof_O 	O 	0.5952	0.9242	0.6876	-0.475
Mof_O 	O 	0.4348	0.4636	0.3568	-0.28
Mof_O 	O 	0.3193	0.468	0.4386	-0.443
Mof_O 	O 	0.72129	0.8952	0.99682	-0.391
Mof_O 	O 	0.13734	0.1362	0.80272	-0.429
Mof_O 	O 	0.36649	0.6048	0.49682	-0.419
Mof_O 	O 	0.88091	0.4016	0.37858	-0.463
Mof_O 	O 	0.1361	0.9914	0.332	-0.395
Mof_O 	O 	0.81068	0.7524	0.47164	-0.472
Mof_O 	O 	0.76349	0.7558	0.69102	-0.459
Mof_O 	O 	0.04165	0.2028	0.3955	-0.943
Mof_O 	O 	0.46811	0.3952	0.50318	-0.421
Mof_O 	O 	0.02354	0.3638	0.30272	-0.439
Mof_O 	O 	0.45108	0.8948	0.56044	-0.463
Mof_O 	O 	0.04169	0.651	0.19082	-0.428
Mof_O 	O 	0.98251	0.151	0.30918	-0.423
Mof_O 	O 	0.3954	0.3126	0.5188	-0.281
Mof_O 	O 	0.20122	0.2402	0.90636	-0.469
Mof_O 	O 	0.18715	0.7028	0.1045	-0.942
Mof_O 	O 	0.66109	0.5984	0.62142	-0.462
Mof_O 	O 	0.2694	0.5758	0.1876	-0.467
Mof_O 	O 	0.03472	0.2476	0.52836	-0.483
Mof_O 	O 	0.34778	0.7598	0.09364	-0.479
Mof_O 	O 	0.99445	0.2972	0.8955	-0.932
Mof_O 	O 	0.73331	0.6686	0.49298	-0.494
Mof_O 	O 	0.07863	0.203	0.24034	-0.444
Mof_O 	O 	0.21031	0.2442	0.30898	-0.465
Mof_O 	O 	0.97629	0.1686	0.00702	-0.504
_end
