data_functionalizedCrystal
_audit_creation_method	'EQeq! by Chris Wilmer'
_symmetry_space_group_name_H-M	'P1'
_symmetry_Int_Tables_number	1
_symmetry_cell_setting	triclinic
loop_
_symmetry_equiv_pos_as_xyz
  x,y,z
_cell_length_a	10.1417
_cell_length_b	14.2238
_cell_length_c	10.5474
_cell_angle_alpha	91.795
_cell_angle_beta	90
_cell_angle_gamma	90
loop_
_atom_site_label
_atom_site_type_symbol
_atom_site_fract_x
_atom_site_fract_y
_atom_site_fract_z
_atom_site_charge
Mof_Cu	Cu	0.84576	0.00095	0.23646	0.873
Mof_Cu	Cu	0.50226	0.89868	0.47415	0.901
Mof_Cu	Cu	0.34576	0.99905	0.26354	0.94
Mof_Cu	Cu	0.00226	0.10132	0.02585	0.773
Mof_Cu	Cu	0.15424	0.99905	0.76354	0.943
Mof_Cu	Cu	0.49774	0.10132	0.52585	0.862
Mof_Cu	Cu	0.65424	0.00095	0.73646	0.88
Mof_Cu	Cu	0.99774	0.89868	0.97415	0.967
Mof_Cu	Cu	-9.59651e-33	0.5	0.5	0.918
Mof_Cu	Cu	0.5	0.5	-0	0.901
Mof_Cu	Cu	-5.44667e-33	-2.33615e-18	0.5	0.844
Mof_Cu	Cu	0.5	0	-0	0.827
Mof_Cu	Cu	-0	0.5	-0	0.851
Mof_Cu	Cu	0.5	0.5	0.5	0.943
Mof_H 	H 	0.823	0.064	0.425	0.672
Mof_H 	H 	0.823	0.997	0.017	0.473
Mof_H 	H 	0.878	0.684	0.345	-0.007
Mof_H 	H 	0.065	0.74	0.199	0.175
Mof_H 	H 	0.237	0.68	0.287	0.031
Mof_H 	H 	0.18	0.718	0.538	0.061
Mof_H 	H 	0.323	0.936	0.075	0.602
Mof_H 	H 	0.323	0.003	0.483	0.473
Mof_H 	H 	0.378	0.316	0.155	0.01
Mof_H 	H 	0.565	0.26	0.301	0.134
Mof_H 	H 	0.737	0.32	0.213	0.072
Mof_H 	H 	0.68	0.282	0.962	0.183
Mof_H 	H 	0.177	0.936	0.575	0.636
Mof_H 	H 	0.177	0.003	0.983	0.52
Mof_H 	H 	0.122	0.316	0.655	0.085
Mof_H 	H 	0.935	0.26	0.801	0.055
Mof_H 	H 	0.763	0.32	0.713	0.131
Mof_H 	H 	0.82	0.282	0.462	0.051
Mof_H 	H 	0.677	0.064	0.925	0.7
Mof_H 	H 	0.677	0.997	0.517	0.517
Mof_H 	H 	0.622	0.684	0.845	0.066
Mof_H 	H 	0.435	0.74	0.699	0.099
Mof_H 	H 	0.263	0.68	0.787	0.091
Mof_H 	H 	0.32	0.718	0.038	-0.072
Mof_C 	C 	0.9721	0.66696	0.3358	0.19
Mof_C 	C 	0.0574	0.74399	0.2799	-0.471
Mof_C 	C 	0.1926	0.72375	0.3381	-0.003
Mof_C 	C 	0.1618	0.6757	0.463	-0.043
Mof_C 	C 	0.9818	0.57419	0.2591	0.385
Mof_C 	C 	0.9996	0.8391	0.3196	0.629
Mof_C 	C 	0.2822	0.80884	0.3528	0.336
Mof_C 	C 	0.2436	0.58624	0.4823	0.336
Mof_C 	C 	0.4721	0.33304	0.1642	0.025
Mof_C 	C 	0.5574	0.25601	0.2201	-0.232
Mof_C 	C 	0.6926	0.27625	0.1619	-0.053
Mof_C 	C 	0.6618	0.3243	0.037	-0.153
Mof_C 	C 	0.4818	0.42581	0.2409	0.32
Mof_C 	C 	0.4996	0.1609	0.1804	0.422
Mof_C 	C 	0.7822	0.19116	0.1472	0.344
Mof_C 	C 	0.7436	0.41376	0.0177	0.215
Mof_C 	C 	0.0279	0.33304	0.6642	-0.186
Mof_C 	C 	0.9426	0.25601	0.7201	0.106
Mof_C 	C 	0.8074	0.27625	0.6619	-0.205
Mof_C 	C 	0.8382	0.3243	0.537	0.004
Mof_C 	C 	0.0182	0.42581	0.7409	0.264
Mof_C 	C 	0.0004	0.1609	0.6804	0.165
Mof_C 	C 	0.7178	0.19116	0.6472	0.404
Mof_C 	C 	0.7564	0.41376	0.5177	0.325
Mof_C 	C 	0.5279	0.66696	0.8358	-0.019
Mof_C 	C 	0.4426	0.74399	0.7799	-0.137
Mof_C 	C 	0.3074	0.72375	0.8381	-0.154
Mof_C 	C 	0.3382	0.6757	0.963	0.116
Mof_C 	C 	0.5182	0.57419	0.7591	0.327
Mof_C 	C 	0.5004	0.8391	0.8196	0.377
Mof_C 	C 	0.2178	0.80884	0.8528	0.393
Mof_C 	C 	0.2564	0.58624	0.9823	0.445
Mof_O 	O 	0.02191	0.65649	0.46266	-0.309
Mof_O 	O 	0.01526	0.50104	0.31305	-0.465
Mof_O 	O 	0.95516	0.58129	0.14385	-0.386
Mof_O 	O 	0.92496	0.87522	0.23955	-0.5
Mof_O 	O 	0.0268	0.87094	0.42871	-0.526
Mof_O 	O 	0.27266	0.8691	0.26954	-0.468
Mof_O 	O 	0.36114	0.80975	0.44521	-0.433
Mof_O 	O 	0.36352	0.59449	0.46428	-0.379
Mof_O 	O 	0.18787	0.51273	0.5192	-0.404
Mof_O 	O 	0.83324	0.0186	0.41868	-1.183
Mof_O 	O 	0.88401	0.99403	0.05244	-0.938
Mof_O 	O 	0.52191	0.34351	0.03734	-0.258
Mof_O 	O 	0.51526	0.49896	0.18695	-0.389
Mof_O 	O 	0.45516	0.41871	0.35615	-0.387
Mof_O 	O 	0.42496	0.12478	0.26045	-0.524
Mof_O 	O 	0.5268	0.12906	0.07129	-0.511
Mof_O 	O 	0.77266	0.1309	0.23046	-0.477
Mof_O 	O 	0.86114	0.19025	0.05479	-0.462
Mof_O 	O 	0.86352	0.40551	0.03572	-0.346
Mof_O 	O 	0.68787	0.48727	0.9808	-0.244
Mof_O 	O 	0.33324	0.9814	0.08132	-1.096
Mof_O 	O 	0.38401	0.00597	0.44756	-1.063
Mof_O 	O 	0.97809	0.34351	0.53734	-0.153
Mof_O 	O 	0.98474	0.49896	0.68695	-0.276
Mof_O 	O 	0.04484	0.41871	0.85615	-0.338
Mof_O 	O 	0.07504	0.12478	0.76045	-0.437
Mof_O 	O 	0.9732	0.12906	0.57129	-0.329
Mof_O 	O 	0.72734	0.1309	0.73046	-0.469
Mof_O 	O 	0.63886	0.19025	0.55479	-0.468
Mof_O 	O 	0.63648	0.40551	0.53572	-0.37
Mof_O 	O 	0.81213	0.48727	0.4808	-0.364
Mof_O 	O 	0.16676	0.9814	0.58132	-1.076
Mof_O 	O 	0.11599	0.00597	0.94756	-1.056
Mof_O 	O 	0.47809	0.65649	0.96266	-0.203
Mof_O 	O 	0.48474	0.50104	0.81305	-0.342
Mof_O 	O 	0.54484	0.58129	0.64385	-0.378
Mof_O 	O 	0.57504	0.87522	0.73955	-0.423
Mof_O 	O 	0.4732	0.87094	0.92871	-0.35
Mof_O 	O 	0.22734	0.8691	0.76954	-0.461
Mof_O 	O 	0.13886	0.80975	0.94521	-0.432
Mof_O 	O 	0.13648	0.59449	0.96428	-0.365
Mof_O 	O 	0.31213	0.51273	0.0192	-0.517
Mof_O 	O 	0.66676	0.0186	0.91868	-1.148
Mof_O 	O 	0.61599	0.99403	0.55244	-0.95
_end
