data_functionalizedCrystal
_audit_creation_method	'EQeq! by Chris Wilmer'
_symmetry_space_group_name_H-M	'P1'
_symmetry_Int_Tables_number	1
_symmetry_cell_setting	triclinic
loop_
_symmetry_equiv_pos_as_xyz
  x,y,z
_cell_length_a	14.143
_cell_length_b	15.7178
_cell_length_c	16.0889
_cell_angle_alpha	90
_cell_angle_beta	90
_cell_angle_gamma	90
loop_
_atom_site_label
_atom_site_type_symbol
_atom_site_fract_x
_atom_site_fract_y
_atom_site_fract_z
_atom_site_charge
Mof_Cd	Cd	0.35462	0.07033	0.22131	0.468
Mof_Cd	Cd	0.12015	0.98652	0.31101	0.479
Mof_Cd	Cd	0.14538	0.92967	0.72131	0.471
Mof_Cd	Cd	0.37985	0.01348	0.81101	0.465
Mof_Cd	Cd	0.64538	0.57033	0.27869	0.473
Mof_Cd	Cd	0.87985	0.48652	0.18899	0.483
Mof_Cd	Cd	0.85462	0.42967	0.77869	0.48
Mof_Cd	Cd	0.62015	0.51348	0.68899	0.476
Mof_Cd	Cd	0.64538	0.92967	0.77869	0.479
Mof_Cd	Cd	0.87985	0.01348	0.68899	0.471
Mof_Cd	Cd	0.85462	0.07033	0.27869	0.475
Mof_Cd	Cd	0.62015	0.98652	0.18899	0.486
Mof_Cd	Cd	0.35462	0.42967	0.72131	0.472
Mof_Cd	Cd	0.12015	0.51348	0.81101	0.469
Mof_Cd	Cd	0.14538	0.57033	0.22131	0.464
Mof_Cd	Cd	0.37985	0.48652	0.31101	0.475
Mof_Cd	Cd	-0	0	-0	0.408
Mof_Cd	Cd	0.5	0	0.5	0.452
Mof_Cd	Cd	2.13263e-33	0.5	0.5	0.439
Mof_Cd	Cd	0.5	0.5	-0	0.44
Mof_H 	H 	0.4494	0.0733	0.0188	0.017
Mof_H 	H 	0.2827	0.2706	0.2979	0.032
Mof_H 	H 	0.624	0.3164	0.177	0.279
Mof_H 	H 	0.0506	0.9267	0.5188	0.01
Mof_H 	H 	0.2173	0.7294	0.7979	0.033
Mof_H 	H 	0.876	0.6836	0.677	0.286
Mof_H 	H 	0.5506	0.5733	0.4812	0.017
Mof_H 	H 	0.7173	0.7706	0.2021	0.033
Mof_H 	H 	0.376	0.8164	0.323	0.279
Mof_H 	H 	0.9494	0.4267	0.9812	0.023
Mof_H 	H 	0.7827	0.2294	0.7021	0.033
Mof_H 	H 	0.124	0.1836	0.823	0.275
Mof_H 	H 	0.5506	0.9267	0.9812	0.017
Mof_H 	H 	0.7173	0.7294	0.7021	0.034
Mof_H 	H 	0.376	0.6836	0.823	0.281
Mof_H 	H 	0.9494	0.0733	0.4812	0.023
Mof_H 	H 	0.7827	0.2706	0.2021	0.032
Mof_H 	H 	0.124	0.3164	0.323	0.273
Mof_H 	H 	0.4494	0.4267	0.5188	0.017
Mof_H 	H 	0.2827	0.2294	0.7979	0.033
Mof_H 	H 	0.624	0.1836	0.677	0.28
Mof_H 	H 	0.0506	0.5733	0.0188	0.011
Mof_H 	H 	0.2173	0.7706	0.2979	0.033
Mof_H 	H 	0.876	0.8164	0.177	0.285
Mof_C 	C 	0.1748	0.9969	0.1198	0.331
Mof_C 	C 	0.2472	0.0108	0.0578	-0.082
Mof_C 	C 	0.3882	0.0516	0.0175	0.072
Mof_C 	C 	0.2564	0.9979	0.9739	0.056
Mof_C 	C 	0.194	0.9636	0.9075	0.282
Mof_C 	C 	0.3435	0.2741	0.2763	0.102
Mof_C 	C 	0.4744	0.2399	0.2179	-0.005
Mof_C 	C 	0.554	0.3875	0.2323	0.362
Mof_C 	C 	0.4781	0.3253	0.2395	-0.044
Mof_C 	C 	0.5464	0.1834	0.1802	0.292
Mof_C 	C 	0.3252	0.0031	0.6198	0.26
Mof_C 	C 	0.2528	0.9892	0.5578	0.013
Mof_C 	C 	0.1118	0.9484	0.5175	0.101
Mof_C 	C 	0.2436	0.0021	0.4739	-0.035
Mof_C 	C 	0.306	0.0364	0.4075	0.307
Mof_C 	C 	0.1565	0.7259	0.7763	0.105
Mof_C 	C 	0.0256	0.7601	0.7179	-0.02
Mof_C 	C 	0.946	0.6125	0.7323	0.389
Mof_C 	C 	0.0219	0.6747	0.7395	-0.063
Mof_C 	C 	0.9536	0.8166	0.6802	0.313
Mof_C 	C 	0.8252	0.4969	0.3802	0.292
Mof_C 	C 	0.7528	0.5108	0.4422	-0.017
Mof_C 	C 	0.6118	0.5516	0.4825	0.101
Mof_C 	C 	0.7436	0.4979	0.5261	-0.005
Mof_C 	C 	0.806	0.4636	0.5925	0.298
Mof_C 	C 	0.6565	0.7741	0.2237	0.103
Mof_C 	C 	0.5256	0.7399	0.2821	-0.003
Mof_C 	C 	0.446	0.8875	0.2677	0.362
Mof_C 	C 	0.5219	0.8253	0.2605	-0.043
Mof_C 	C 	0.4536	0.6834	0.3198	0.291
Mof_C 	C 	0.6748	0.5031	0.8802	0.284
Mof_C 	C 	0.7472	0.4892	0.9422	0.012
Mof_C 	C 	0.8882	0.4484	0.9825	0.128
Mof_C 	C 	0.7564	0.5021	0.0261	-0.036
Mof_C 	C 	0.694	0.5364	0.0925	0.307
Mof_C 	C 	0.8435	0.2259	0.7237	0.105
Mof_C 	C 	0.9744	0.2601	0.7821	0.016
Mof_C 	C 	0.054	0.1125	0.7677	0.341
Mof_C 	C 	0.9781	0.1747	0.7605	-0.024
Mof_C 	C 	0.0464	0.3166	0.8198	0.271
Mof_C 	C 	0.8252	0.0031	0.8802	0.248
Mof_C 	C 	0.7528	0.9892	0.9422	0.048
Mof_C 	C 	0.6118	0.9484	0.9825	0.131
Mof_C 	C 	0.7436	0.0021	0.0261	-0.063
Mof_C 	C 	0.806	0.0364	0.0925	0.313
Mof_C 	C 	0.6565	0.7259	0.7237	0.105
Mof_C 	C 	0.5256	0.7601	0.7821	-0.001
Mof_C 	C 	0.446	0.6125	0.7677	0.364
Mof_C 	C 	0.5219	0.6747	0.7605	-0.043
Mof_C 	C 	0.4536	0.8166	0.8198	0.291
Mof_C 	C 	0.6748	0.9969	0.3802	0.326
Mof_C 	C 	0.7472	0.0108	0.4422	-0.053
Mof_C 	C 	0.8882	0.0516	0.4825	0.1
Mof_C 	C 	0.7564	0.9979	0.5261	0.024
Mof_C 	C 	0.694	0.9636	0.5925	0.291
Mof_C 	C 	0.8435	0.2741	0.2237	0.103
Mof_C 	C 	0.9744	0.2399	0.2821	0.015
Mof_C 	C 	0.054	0.3875	0.2677	0.337
Mof_C 	C 	0.9781	0.3253	0.2605	-0.022
Mof_C 	C 	0.0464	0.1834	0.3198	0.27
Mof_C 	C 	0.1748	0.5031	0.6198	0.293
Mof_C 	C 	0.2472	0.4892	0.5578	-0.02
Mof_C 	C 	0.3882	0.4484	0.5175	0.1
Mof_C 	C 	0.2564	0.5021	0.4739	-0.007
Mof_C 	C 	0.194	0.5364	0.4075	0.299
Mof_C 	C 	0.3435	0.2259	0.7763	0.104
Mof_C 	C 	0.4744	0.2601	0.7179	-0.002
Mof_C 	C 	0.554	0.1125	0.7323	0.364
Mof_C 	C 	0.4781	0.1747	0.7395	-0.044
Mof_C 	C 	0.5464	0.3166	0.6802	0.292
Mof_C 	C 	0.3252	0.4969	0.1198	0.301
Mof_C 	C 	0.2528	0.5108	0.0578	-0.052
Mof_C 	C 	0.1118	0.5516	0.0175	0.071
Mof_C 	C 	0.2436	0.4979	0.9739	0.027
Mof_C 	C 	0.306	0.4636	0.9075	0.29
Mof_C 	C 	0.1565	0.7741	0.2763	0.103
Mof_C 	C 	0.0256	0.7399	0.2179	-0.024
Mof_C 	C 	0.946	0.8875	0.2323	0.388
Mof_C 	C 	0.0219	0.8253	0.2395	-0.064
Mof_C 	C 	0.9536	0.6834	0.1802	0.315
Mof_N 	N 	0.333	0.0452	0.0855	-0.121
Mof_N 	N 	0.3463	0.0235	0.9477	-0.132
Mof_N 	N 	0.3888	0.2081	0.2422	-0.133
Mof_N 	N 	0.3951	0.3462	0.2762	-0.123
Mof_N 	N 	0.167	0.9548	0.5855	-0.134
Mof_N 	N 	0.1537	0.9765	0.4477	-0.126
Mof_N 	N 	0.1112	0.7919	0.7422	-0.132
Mof_N 	N 	0.1049	0.6538	0.7762	-0.121
Mof_N 	N 	0.667	0.5452	0.4145	-0.129
Mof_N 	N 	0.6537	0.5235	0.5523	-0.133
Mof_N 	N 	0.6112	0.7081	0.2578	-0.133
Mof_N 	N 	0.6049	0.8462	0.2238	-0.123
Mof_N 	N 	0.833	0.4548	0.9145	-0.133
Mof_N 	N 	0.8463	0.4765	0.0523	-0.14
Mof_N 	N 	0.8888	0.2919	0.7578	-0.133
Mof_N 	N 	0.8951	0.1538	0.7238	-0.124
Mof_N 	N 	0.667	0.9548	0.9145	-0.138
Mof_N 	N 	0.6537	0.9765	0.0523	-0.134
Mof_N 	N 	0.6112	0.7919	0.7578	-0.132
Mof_N 	N 	0.6049	0.6538	0.7238	-0.122
Mof_N 	N 	0.833	0.0452	0.4145	-0.124
Mof_N 	N 	0.8463	0.0235	0.5523	-0.14
Mof_N 	N 	0.8888	0.2081	0.2578	-0.133
Mof_N 	N 	0.8951	0.3462	0.2238	-0.125
Mof_N 	N 	0.333	0.4548	0.5855	-0.13
Mof_N 	N 	0.3463	0.4765	0.4477	-0.133
Mof_N 	N 	0.3888	0.2919	0.7422	-0.133
Mof_N 	N 	0.3951	0.1538	0.7762	-0.122
Mof_N 	N 	0.167	0.5452	0.0855	-0.125
Mof_N 	N 	0.1537	0.5235	0.9477	-0.124
Mof_N 	N 	0.1112	0.7081	0.2422	-0.132
Mof_N 	N 	0.1049	0.8462	0.2762	-0.122
Mof_O 	O 	0.1928	0.0245	0.192	-0.297
Mof_O 	O 	0.0969	0.9608	0.1022	-0.281
Mof_O 	O 	0.2313	0.9536	0.8367	-0.265
Mof_O 	O 	0.109	0.9418	0.9201	-0.25
Mof_O 	O 	0.6316	0.3664	0.1975	-0.448
Mof_O 	O 	0.5263	0.1067	0.1732	-0.281
Mof_O 	O 	0.6245	0.2159	0.1586	-0.267
Mof_O 	O 	0.5408	0.4596	0.2638	-0.295
Mof_O 	O 	0.3072	0.9755	0.692	-0.26
Mof_O 	O 	0.4031	0.0392	0.6022	-0.261
Mof_O 	O 	0.2687	0.0464	0.3367	-0.279
Mof_O 	O 	0.391	0.0582	0.4201	-0.273
Mof_O 	O 	0.8684	0.6336	0.6975	-0.453
Mof_O 	O 	0.9737	0.8933	0.6732	-0.264
Mof_O 	O 	0.8755	0.7841	0.6586	-0.264
Mof_O 	O 	0.9592	0.5404	0.7638	-0.288
Mof_O 	O 	0.8072	0.5245	0.308	-0.275
Mof_O 	O 	0.9031	0.4608	0.3978	-0.255
Mof_O 	O 	0.7687	0.4536	0.6633	-0.274
Mof_O 	O 	0.891	0.4418	0.5799	-0.258
Mof_O 	O 	0.3684	0.8664	0.3025	-0.444
Mof_O 	O 	0.4737	0.6067	0.3268	-0.276
Mof_O 	O 	0.3755	0.7159	0.3414	-0.264
Mof_O 	O 	0.4592	0.9596	0.2362	-0.29
Mof_O 	O 	0.6928	0.4755	0.808	-0.274
Mof_O 	O 	0.5969	0.5392	0.8978	-0.254
Mof_O 	O 	0.7313	0.5464	0.1633	-0.277
Mof_O 	O 	0.609	0.5582	0.0799	-0.275
Mof_O 	O 	0.1316	0.1336	0.8025	-0.443
Mof_O 	O 	0.0263	0.3933	0.8268	-0.28
Mof_O 	O 	0.1245	0.2841	0.8414	-0.26
Mof_O 	O 	0.0408	0.0404	0.7362	-0.305
Mof_O 	O 	0.8072	0.9755	0.808	-0.253
Mof_O 	O 	0.9031	0.0392	0.8978	-0.237
Mof_O 	O 	0.7687	0.0464	0.1633	-0.281
Mof_O 	O 	0.891	0.0582	0.0799	-0.268
Mof_O 	O 	0.3684	0.6336	0.8025	-0.446
Mof_O 	O 	0.4737	0.8933	0.8268	-0.269
Mof_O 	O 	0.3755	0.7841	0.8414	-0.26
Mof_O 	O 	0.4592	0.5404	0.7362	-0.294
Mof_O 	O 	0.6928	0.0245	0.308	-0.294
Mof_O 	O 	0.5969	0.9608	0.3978	-0.27
Mof_O 	O 	0.7313	0.9536	0.6633	-0.268
Mof_O 	O 	0.609	0.9418	0.5799	-0.261
Mof_O 	O 	0.1316	0.3664	0.3025	-0.44
Mof_O 	O 	0.0263	0.1067	0.3268	-0.286
Mof_O 	O 	0.1245	0.2159	0.3414	-0.263
Mof_O 	O 	0.0408	0.4596	0.2362	-0.301
Mof_O 	O 	0.1928	0.4755	0.692	-0.279
Mof_O 	O 	0.0969	0.5392	0.6022	-0.272
Mof_O 	O 	0.2313	0.5464	0.3367	-0.274
Mof_O 	O 	0.109	0.5582	0.4201	-0.272
Mof_O 	O 	0.6316	0.1336	0.6975	-0.451
Mof_O 	O 	0.5263	0.3933	0.6732	-0.275
Mof_O 	O 	0.6245	0.2841	0.6586	-0.264
Mof_O 	O 	0.5408	0.0404	0.7638	-0.3
Mof_O 	O 	0.3072	0.5245	0.192	-0.28
Mof_O 	O 	0.4031	0.4608	0.1022	-0.273
Mof_O 	O 	0.2687	0.4536	0.8367	-0.271
Mof_O 	O 	0.391	0.4418	0.9201	-0.255
Mof_O 	O 	0.8684	0.8664	0.1975	-0.451
Mof_O 	O 	0.9737	0.6067	0.1732	-0.27
Mof_O 	O 	0.8755	0.7159	0.1586	-0.268
Mof_O 	O 	0.9592	0.9596	0.2638	-0.283
_end
