# CIF file generated by openbabel 3.1.0, see https://openbabel.org
data_I
_chemical_name_common 'QOWLEU_clean_h'
_cell_length_a 6.7923
_cell_length_b 15.1003
_cell_length_c 15.1003
_cell_angle_alpha 62.207
_cell_angle_beta 81.3768
_cell_angle_gamma 98.6232
_space_group_name_H-M_alt 'P 1'
_space_group_name_Hall 'P 1'
loop_
    _symmetry_equiv_pos_as_xyz
    x,y,z
loop_
    _atom_site_label
    _atom_site_type_symbol
    _atom_site_fract_x
    _atom_site_fract_y
    _atom_site_fract_z
    _atom_site_occupancy
    Co1      Co       0.29880    0.26750    0.31590    1.000
    Co2      Co       0.61470    0.31590    0.41660    1.000
    Co3      Co       0.03130    0.41660    0.26750    1.000
    Co4      Co       0.70120    0.73250    0.68410    1.000
    Co5      Co       0.38530    0.68410    0.58340    1.000
    Co6      Co       0.96870    0.58340    0.73250    1.000
    C1       C        0.23990    0.38720    0.43740    1.000
    C2       C        0.11350    0.44700    0.46570    1.000
    C3       C        0.92880    0.46700    0.43380    1.000
    C4       C        0.17900    0.48130    0.52910    1.000
    C5       C        0.67730    0.43740    0.17540    1.000
    C6       C        0.57920    0.46570    0.08730    1.000
    C7       C        0.36260    0.43380    0.09920    1.000
    C8       C        0.70810    0.52910    0.98960    1.000
    C9       C        0.85270    0.17540    0.38720    1.000
    C10      C        0.66650    0.08730    0.44700    1.000
    C11      C        0.46180    0.09920    0.46700    1.000
    C12      C        0.69770    0.98960    0.48130    1.000
    C13      C        0.76010    0.61280    0.56260    1.000
    C14      C        0.88650    0.55300    0.53430    1.000
    C15      C        0.07120    0.53300    0.56620    1.000
    C16      C        0.82100    0.51870    0.47090    1.000
    C17      C        0.32270    0.56260    0.82460    1.000
    C18      C        0.42080    0.53430    0.91270    1.000
    C19      C        0.63740    0.56620    0.90080    1.000
    C20      C        0.29190    0.47090    0.01040    1.000
    C21      C        0.14730    0.82460    0.61280    1.000
    C22      C        0.33350    0.91270    0.55300    1.000
    C23      C        0.53820    0.90080    0.53300    1.000
    C24      C        0.30230    0.01040    0.51870    1.000
    N1       N        0.38100    0.17670    0.24370    1.000
    N2       N        0.62470    0.24370    0.57960    1.000
    N3       N        0.20430    0.57960    0.17670    1.000
    N4       N        0.61900    0.82330    0.75630    1.000
    N5       N        0.37530    0.75630    0.42040    1.000
    N6       N        0.79570    0.42040    0.82330    1.000
    O1       O        0.17300    0.34800    0.38500    1.000
    O2       O        0.37540    0.35850    0.47830    1.000
    O3       O        0.86240    0.45260    0.35940    1.000
    O4       O        0.46260    0.18980    0.14400    1.000
    O5       O        0.55800    0.38500    0.26700    1.000
    O6       O        0.85370    0.47830    0.16320    1.000
    O7       O        0.22180    0.35940    0.18800    1.000
    O8       O        0.60660    0.14400    0.66620    1.000
    O9       O        0.82500    0.26700    0.34800    1.000
    O10      O        0.01690    0.16320    0.35850    1.000
    O11      O        0.40980    0.18800    0.45260    1.000
    O12      O        0.27280    0.66620    0.18980    1.000
    O13      O        0.82700    0.65200    0.61500    1.000
    O14      O        0.62460    0.64150    0.52170    1.000
    O15      O        0.13760    0.54740    0.64060    1.000
    O16      O        0.53740    0.81020    0.85600    1.000
    O17      O        0.44200    0.61500    0.73300    1.000
    O18      O        0.14630    0.52170    0.83680    1.000
    O19      O        0.77820    0.64060    0.81200    1.000
    O20      O        0.39340    0.85600    0.33380    1.000
    O21      O        0.17500    0.73300    0.65200    1.000
    O22      O        0.98310    0.83680    0.64150    1.000
    O23      O        0.59020    0.81200    0.54740    1.000
    O24      O        0.72720    0.33380    0.81020    1.000
    H1       H        0.32784    0.46742    0.55308    1.000
    H2       H        0.88092    0.55308    0.97950    1.000
    H3       H        0.86042    0.97950    0.46742    1.000
    H4       H        0.67216    0.53258    0.44692    1.000
    H5       H        0.11018    0.82536    0.54132    1.000
    H6       H        0.13958    0.02050    0.53258    1.000
