# CIF file generated by openbabel 3.1.0, see https://openbabel.org
data_I
_chemical_name_common 'QEKLUP_clean'
_cell_length_a 5.0483
_cell_length_b 10.2114
_cell_length_c 10.2114
_cell_angle_alpha 97.6989
_cell_angle_beta 96.6359
_cell_angle_gamma 83.3641
_space_group_name_H-M_alt 'P 1'
_space_group_name_Hall 'P 1'
loop_
    _symmetry_equiv_pos_as_xyz
    x,y,z
loop_
    _atom_site_label
    _atom_site_type_symbol
    _atom_site_fract_x
    _atom_site_fract_y
    _atom_site_fract_z
    _atom_site_occupancy
    Ba1      Ba       0.66105    0.10554    0.89446    1.000
    Ba2      Ba       0.33895    0.89446    0.10554    1.000
    U1       U        0.50000    0.00000    0.50000    1.000
    U2       U        0.50000    0.50000    0.00000    1.000
    P1       P        0.09730    0.88009    0.70393    1.000
    P2       P        0.90270    0.70393    0.88009    1.000
    P3       P        0.90270    0.11991    0.29607    1.000
    P4       P        0.09730    0.29607    0.11991    1.000
    H1       H        0.14860    0.65250    0.70030    1.000
    H2       H        0.85140    0.70030    0.65250    1.000
    H3       H        0.85140    0.34750    0.29970    1.000
    H4       H        0.14860    0.29970    0.34750    1.000
    C1       C        0.00000    0.71900    0.71900    1.000
    C2       C        0.00000    0.28100    0.28100    1.000
    O1       O        0.36500    0.13226    0.61426    1.000
    O2       O        0.27480    0.85951    0.58771    1.000
    O3       O        0.22520    0.94442    0.83262    1.000
    O4       O        0.83180    0.96435    0.66375    1.000
    O5       O        0.63500    0.61426    0.13226    1.000
    O6       O        0.72520    0.58771    0.85951    1.000
    O7       O        0.77480    0.83262    0.94442    1.000
    O8       O        0.16820    0.66375    0.96435    1.000
    O9       O        0.63500    0.86774    0.38574    1.000
    O10      O        0.72520    0.14049    0.41229    1.000
    O11      O        0.77480    0.05558    0.16738    1.000
    O12      O        0.16820    0.03565    0.33625    1.000
    O13      O        0.36500    0.38574    0.86774    1.000
    O14      O        0.27480    0.41229    0.14049    1.000
    O15      O        0.22520    0.16738    0.05558    1.000
    O16      O        0.83180    0.33625    0.03565    1.000
