data_functionalizedCrystal
_audit_creation_method	'EQeq! by Chris Wilmer'
_symmetry_space_group_name_H-M	'P1'
_symmetry_Int_Tables_number	1
_symmetry_cell_setting	triclinic
loop_
_symmetry_equiv_pos_as_xyz
  x,y,z
_cell_length_a	14.7928
_cell_length_b	14.7928
_cell_length_c	14.7928
_cell_angle_alpha	104.264
_cell_angle_beta	112.136
_cell_angle_gamma	112.136
loop_
_atom_site_label
_atom_site_type_symbol
_atom_site_fract_x
_atom_site_fract_y
_atom_site_fract_z
_atom_site_charge
Mof_Co	Co	0.56667	0.90718	0.49317	1.099
Mof_Co	Co	0.93333	0.4265	0.34051	1.099
Mof_Co	Co	0.58599	0.49317	0.4265	1.097
Mof_Co	Co	0.91401	0.34051	0.90718	1.097
Mof_Co	Co	0.43333	0.09282	0.50683	1.098
Mof_Co	Co	0.06667	0.5735	0.65949	1.098
Mof_Co	Co	0.41401	0.50683	0.5735	1.097
Mof_Co	Co	0.08599	0.65949	0.09282	1.097
Mof_H 	H 	0.3616	0.7334	0.5382	0.027
Mof_H 	H 	0.4596	0.7584	0.6506	0.006
Mof_H 	H 	0.571	0.6811	0.3005	0.035
Mof_H 	H 	0.6883	0.7637	0.4118	0.037
Mof_H 	H 	0.572	0.894	0.638	0.161
Mof_H 	H 	0.1384	0.6766	0.3718	0.027
Mof_H 	H 	0.0404	0.691	0.2988	0.006
Mof_H 	H 	0.929	0.2295	0.1101	0.034
Mof_H 	H 	0.8117	0.2235	0.0754	0.037
Mof_H 	H 	0.928	0.566	0.322	0.161
Mof_H 	H 	0.8048	0.5382	0.6766	0.026
Mof_H 	H 	0.8922	0.6506	0.691	0.005
Mof_H 	H 	0.6194	0.3005	0.2295	0.035
Mof_H 	H 	0.6481	0.4118	0.2235	0.037
Mof_H 	H 	0.744	0.638	0.566	0.161
Mof_H 	H 	0.6952	0.3718	0.7334	0.026
Mof_H 	H 	0.6078	0.2988	0.7584	0.005
Mof_H 	H 	0.8806	0.1101	0.6811	0.034
Mof_H 	H 	0.8519	0.0754	0.7637	0.037
Mof_H 	H 	0.756	0.322	0.894	0.161
Mof_H 	H 	0.6384	0.2666	0.4618	0.027
Mof_H 	H 	0.5404	0.2416	0.3494	0.006
Mof_H 	H 	0.429	0.3189	0.6995	0.035
Mof_H 	H 	0.3117	0.2363	0.5882	0.037
Mof_H 	H 	0.428	0.106	0.362	0.161
Mof_H 	H 	0.8616	0.3234	0.6282	0.027
Mof_H 	H 	0.9596	0.309	0.7012	0.006
Mof_H 	H 	0.071	0.7705	0.8899	0.034
Mof_H 	H 	0.1883	0.7765	0.9246	0.037
Mof_H 	H 	0.072	0.434	0.678	0.161
Mof_H 	H 	0.1952	0.4618	0.3234	0.026
Mof_H 	H 	0.1078	0.3494	0.309	0.005
Mof_H 	H 	0.3806	0.6995	0.7705	0.035
Mof_H 	H 	0.3519	0.5882	0.7765	0.037
Mof_H 	H 	0.256	0.362	0.434	0.161
Mof_H 	H 	0.3048	0.6282	0.2666	0.026
Mof_H 	H 	0.3922	0.7012	0.2416	0.005
Mof_H 	H 	0.1194	0.8899	0.3189	0.034
Mof_H 	H 	0.1481	0.9246	0.2363	0.037
Mof_H 	H 	0.244	0.678	0.106	0.161
Mof_C 	C 	0.483	0.7074	0.5242	0.075
Mof_C 	C 	0.5589	0.6803	0.4332	0.096
Mof_C 	C 	0.4435	0.7652	0.5835	-0.007
Mof_C 	C 	0.6201	0.6912	0.3725	-0.071
Mof_C 	C 	0.017	0.5412	0.2244	0.074
Mof_C 	C 	0.9411	0.3743	0.1214	0.096
Mof_C 	C 	0.0565	0.64	0.3217	-0.008
Mof_C 	C 	0.8799	0.2524	0.0711	-0.068
Mof_C 	C 	0.8168	0.5242	0.5412	0.075
Mof_C 	C 	0.7529	0.4332	0.3743	0.096
Mof_C 	C 	0.8183	0.5835	0.64	-0.007
Mof_C 	C 	0.6813	0.3725	0.2524	-0.071
Mof_C 	C 	0.6832	0.2244	0.7074	0.075
Mof_C 	C 	0.7471	0.1214	0.6803	0.096
Mof_C 	C 	0.6817	0.3217	0.7652	-0.007
Mof_C 	C 	0.8187	0.0711	0.6912	-0.072
Mof_C 	C 	0.517	0.2926	0.4758	0.075
Mof_C 	C 	0.4411	0.3197	0.5668	0.096
Mof_C 	C 	0.5565	0.2348	0.4165	-0.007
Mof_C 	C 	0.3799	0.3088	0.6275	-0.071
Mof_C 	C 	0.983	0.4588	0.7756	0.074
Mof_C 	C 	0.0589	0.6257	0.8786	0.096
Mof_C 	C 	0.9435	0.36	0.6783	-0.008
Mof_C 	C 	0.1201	0.7476	0.9289	-0.068
Mof_C 	C 	0.1832	0.4758	0.4588	0.075
Mof_C 	C 	0.2471	0.5668	0.6257	0.096
Mof_C 	C 	0.1817	0.4165	0.36	-0.007
Mof_C 	C 	0.3187	0.6275	0.7476	-0.071
Mof_C 	C 	0.3168	0.7756	0.2926	0.075
Mof_C 	C 	0.2529	0.8786	0.3197	0.096
Mof_C 	C 	0.3183	0.6783	0.2348	-0.007
Mof_C 	C 	0.1813	0.9289	0.3088	-0.072
Mof_N 	N 	0.5323	0.7528	0.4737	-0.26
Mof_N 	N 	0.4792	0.6153	0.5171	-0.23
Mof_N 	N 	0.5293	0.5972	0.4569	-0.235
Mof_N 	N 	0.9677	0.4414	0.2205	-0.259
Mof_N 	N 	0.0208	0.5379	0.1361	-0.23
Mof_N 	N 	0.9707	0.4276	0.0679	-0.233
Mof_N 	N 	0.7209	0.4737	0.4414	-0.26
Mof_N 	N 	0.9018	0.5171	0.5379	-0.23
Mof_N 	N 	0.8597	0.4569	0.4276	-0.235
Mof_N 	N 	0.7791	0.2205	0.7528	-0.26
Mof_N 	N 	0.5982	0.1361	0.6153	-0.23
Mof_N 	N 	0.6403	0.0679	0.5972	-0.235
Mof_N 	N 	0.4677	0.2472	0.5263	-0.26
Mof_N 	N 	0.5208	0.3847	0.4829	-0.23
Mof_N 	N 	0.4707	0.4028	0.5431	-0.235
Mof_N 	N 	0.0323	0.5586	0.7795	-0.259
Mof_N 	N 	0.9792	0.4621	0.8639	-0.23
Mof_N 	N 	0.0293	0.5724	0.9321	-0.233
Mof_N 	N 	0.2791	0.5263	0.5586	-0.26
Mof_N 	N 	0.0982	0.4829	0.4621	-0.23
Mof_N 	N 	0.1403	0.5431	0.5724	-0.235
Mof_N 	N 	0.2209	0.7795	0.2472	-0.26
Mof_N 	N 	0.4018	0.8639	0.3847	-0.23
Mof_N 	N 	0.3597	0.9321	0.4028	-0.235
Mof_O 	O 	0.5027	0.876	0.6075	-0.426
Mof_O 	O 	0.6504	0.6113	0.3627	-0.305
Mof_O 	O 	0.9973	0.6048	0.3733	-0.425
Mof_O 	O 	0.8496	0.2123	0.9609	-0.307
Mof_O 	O 	0.7315	0.6075	0.6048	-0.426
Mof_O 	O 	0.7514	0.3627	0.2123	-0.305
Mof_O 	O 	0.7685	0.3733	0.876	-0.426
Mof_O 	O 	0.7486	0.9609	0.6113	-0.304
Mof_O 	O 	0.4973	0.124	0.3925	-0.426
Mof_O 	O 	0.3496	0.3887	0.6373	-0.305
Mof_O 	O 	0.0027	0.3952	0.6267	-0.425
Mof_O 	O 	0.1504	0.7877	0.0391	-0.307
Mof_O 	O 	0.2685	0.3925	0.3952	-0.426
Mof_O 	O 	0.2486	0.6373	0.7877	-0.305
Mof_O 	O 	0.2315	0.6267	0.124	-0.426
Mof_O 	O 	0.2514	0.0391	0.3887	-0.304
_end
