data_functionalizedCrystal
_audit_creation_method	'EQeq! by Chris Wilmer'
_symmetry_space_group_name_H-M	'P1'
_symmetry_Int_Tables_number	1
_symmetry_cell_setting	triclinic
loop_
_symmetry_equiv_pos_as_xyz
  x,y,z
_cell_length_a	12.115
_cell_length_b	25.751
_cell_length_c	35.588
_cell_angle_alpha	90
_cell_angle_beta	90.639
_cell_angle_gamma	90
loop_
_atom_site_label
_atom_site_type_symbol
_atom_site_fract_x
_atom_site_fract_y
_atom_site_fract_z
_atom_site_charge
Mof_Zn	Zn	0.78299	0.79148	0.33474	1.209
Mof_Zn	Zn	0.77465	0.82646	0.19303	1.212
Mof_Zn	Zn	0.10025	0.71289	0.48166	1.11
Mof_N 	N 	0.7882	0.78607	0.39055	-0.269
Mof_N 	N 	0.748	0.76501	0.44843	-0.164
Mof_N 	N 	0.7931	0.69391	0.63895	-0.263
Mof_N 	N 	0.7595	0.71153	0.57915	-0.162
Mof_N 	N 	0.2512	0.68589	0.49521	-0.308
Mof_N 	N 	0.4288	0.68246	0.50441	-0.16
Mof_N 	N 	0.6296	0.80543	0.31485	-0.262
Mof_N 	N 	0.453	0.80686	0.30239	-0.16
Mof_N 	N 	0.0988	0.71553	0.42481	-0.303
Mof_N 	N 	0.1375	0.73364	0.36641	-0.158
Mof_N 	N 	0.9357	0.82633	0.21128	-0.256
Mof_N 	N 	0.0867	0.81296	0.2442	-0.157
Mof_N 	N 	0.7548	0.5025	0.29816	0.001
Mof_N 	N 	0.7453	0.4857	0.20811	0.002
Mof_N 	N 	0.2593	0.6644	0.22524	0.002
Mof_N 	N 	0.2675	0.62034	0.31099	0.007
Mof_O 	O 	0.6609	0.50689	0.30947	-0.114
Mof_O 	O 	0.8026	0.4621	0.29668	-0.119
Mof_O 	O 	0.712	0.5285	0.21409	-0.116
Mof_O 	O 	0.6834	0.4514	0.1978	-0.121
Mof_O 	O 	0.7073	0.76614	0.21721	-0.45
Mof_O 	O 	0.5578	0.79228	0.18652	-0.31
Mof_O 	O 	0.2922	0.39005	0.28922	-0.457
Mof_O 	O 	0.1936	0.43126	0.33133	-0.317
Mof_O 	O 	0.2091	0.7033	0.21586	-0.122
Mof_O 	O 	0.2145	0.6236	0.2263	-0.117
Mof_O 	O 	0.3296	0.6575	0.31417	-0.113
Mof_O 	O 	0.1849	0.6191	0.3248	-0.122
Mof_O 	O 	0.8519	0.7325	0.30687	-0.441
Mof_O 	O 	0.719	0.6913	0.33605	-0.322
Mof_O 	O 	0.1458	0.35205	0.18708	-0.467
Mof_O 	O 	0.9985	0.35338	0.14924	-0.305
Mof_C 	C 	0.3068	0.48134	0.29163	-0.06
Mof_C 	C 	0.5888	0.72191	0.47564	-0.274
Mof_H 	H 	0.5508	0.7246	0.4529	0.129
Mof_C 	C 	0.6955	0.74046	0.47975	0.201
Mof_C 	C 	0.753	0.73694	0.51336	-0.269
Mof_H 	H 	0.8246	0.7497	0.5155	0.086
Mof_C 	C 	0.7025	0.71425	0.54365	0.206
Mof_C 	C 	0.5956	0.69471	0.5408	-0.274
Mof_H 	H 	0.562	0.679	0.5612	0.133
Mof_C 	C 	0.541	0.69932	0.50665	0.217
Mof_C 	C 	0.7256	0.75668	0.412	0.095
Mof_H 	H 	0.673	0.7333	0.403	-0.012
Mof_C 	C 	0.853	0.8134	0.41439	-0.015
Mof_H 	H 	0.906	0.8375	0.4074	0.028
Mof_C 	C 	0.829	0.8001	0.45002	-0.002
Mof_H 	H 	0.8626	0.8131	0.4717	-0.003
Mof_C 	C 	0.72	0.691	0.6113	0.11
Mof_H 	H 	0.65	0.6766	0.6136	-0.015
Mof_C 	C 	0.8819	0.7168	0.62392	-0.002
Mof_H 	H 	0.9473	0.7235	0.6369	0.014
Mof_C 	C 	0.8637	0.7288	0.5872	0.009
Mof_H 	H 	0.912	0.7453	0.571	-0.011
Mof_C 	C 	0.3443	0.70996	0.49018	0.107
Mof_H 	H 	0.3512	0.7419	0.4783	-0.045
Mof_C 	C 	0.276	0.6405	0.51355	-0.006
Mof_H 	H 	0.2249	0.6156	0.5207	-0.009
Mof_C 	C 	0.3852	0.63761	0.51966	0.002
Mof_H 	H 	0.4237	0.611	0.5317	0.03
Mof_C 	C 	0.271	0.80789	0.27264	-0.275
Mof_H 	H 	0.3005	0.8241	0.2516	0.146
Mof_C 	C 	0.3371	0.79493	0.30337	0.243
Mof_C 	C 	0.2953	0.77038	0.33459	-0.283
Mof_H 	H 	0.3403	0.7625	0.3551	0.141
Mof_C 	C 	0.1843	0.75797	0.33434	0.256
Mof_C 	C 	0.115	0.77081	0.3045	-0.287
Mof_H 	H 	0.0403	0.7625	0.305	0.149
Mof_C 	C 	0.1588	0.79584	0.27434	0.249
Mof_C 	C 	0.534	0.78375	0.3217	0.123
Mof_H 	H 	0.524	0.7559	0.3379	-0.013
Mof_C 	C 	0.6081	0.8437	0.28913	-0.004
Mof_H 	H 	0.661	0.8655	0.2789	0.032
Mof_C 	C 	0.5015	0.84521	0.2809	0.019
Mof_H 	H 	0.4662	0.8675	0.2641	0.044
Mof_C 	C 	0.1638	0.7419	0.40232	0.117
Mof_H 	H 	0.2207	0.7635	0.4105	-0.041
Mof_C 	C 	0.0266	0.6896	0.40203	-0.004
Mof_H 	H 	0.9703	0.6679	0.4102	-0.005
Mof_C 	C 	0.0493	0.7	0.3662	0.01
Mof_H 	H 	0.0125	0.6871	0.3451	0.045
Mof_C 	C 	0.9808	0.80036	0.23943	0.119
Mof_H 	H 	0.9435	0.7763	0.2541	-0.01
Mof_C 	C 	0.0174	0.85711	0.19737	0.005
Mof_H 	H 	0.0096	0.88	0.1773	0.031
Mof_C 	C 	0.1115	0.8491	0.21734	0.019
Mof_H 	H 	0.1795	0.865	0.2136	0.047
Mof_C 	C 	0.7985	0.6913	0.31443	0.308
Mof_C 	C 	0.8349	0.64177	0.29636	-0.054
Mof_C 	C 	0.7844	0.59533	0.30506	-0.062
Mof_H 	H 	0.7303	0.5945	0.3234	0.084
Mof_C 	C 	0.813	0.55067	0.28698	0.072
Mof_C 	C 	0.8939	0.54889	0.25912	0.02
Mof_C 	C 	0.9457	0.59535	0.2514	-0.069
Mof_H 	H 	0.001	0.5959	0.2335	0.08
Mof_C 	C 	0.9184	0.64072	0.2693	0.003
Mof_H 	H 	0.9558	0.6712	0.2634	0.056
Mof_C 	C 	0.9283	0.5014	0.23801	0.022
Mof_C 	C 	0.0366	0.4848	0.24265	-0.075
Mof_H 	H 	0.0833	0.5026	0.2591	0.075
Mof_C 	C 	0.0762	0.4424	0.22325	0.007
Mof_H 	H 	0.1488	0.4319	0.2273	0.044
Mof_C 	C 	0.0112	0.41548	0.19821	-0.063
Mof_C 	C 	0.9024	0.43087	0.19396	-0.051
Mof_H 	H 	0.8557	0.4129	0.1776	0.081
Mof_C 	C 	0.8636	0.47241	0.2137	0.066
Mof_C 	C 	0.0533	0.36994	0.17584	0.34
Mof_C 	C 	0.606	0.76198	0.20743	0.32
Mof_C 	C 	0.5459	0.71489	0.22267	-0.05
Mof_C 	C 	0.6024	0.67546	0.24088	0.002
Mof_H 	H 	0.6783	0.6783	0.2446	0.053
Mof_C 	C 	0.548	0.632	0.25352	-0.068
Mof_H 	H 	0.5884	0.6056	0.2651	0.08
Mof_C 	C 	0.4345	0.62657	0.24948	0.021
Mof_C 	C 	0.3795	0.66639	0.23107	0.07
Mof_C 	C 	0.4333	0.71058	0.21856	-0.055
Mof_H 	H 	0.3931	0.7373	0.2074	0.082
Mof_C 	C 	0.3861	0.57729	0.26429	0.025
Mof_C 	C 	0.424	0.5302	0.25011	-0.074
Mof_H 	H 	0.4773	0.5303	0.2315	0.083
Mof_C 	C 	0.384	0.48322	0.26304	0.012
Mof_H 	H 	0.4092	0.4525	0.2525	0.05
Mof_C 	C 	0.2719	0.52679	0.30679	-0.052
Mof_H 	H 	0.2218	0.5263	0.3264	0.082
Mof_C 	C 	0.3103	0.5738	0.29337	0.069
Mof_C 	C 	0.2608	0.43082	0.30596	0.332
Mof_Zn	Zn	0.21701	0.29148	0.16526	1.208
Mof_Zn	Zn	0.22535	0.32646	0.30697	1.211
Mof_Zn	Zn	0.89975	0.21289	0.01834	1.109
Mof_N 	N 	0.2118	0.28607	0.10945	-0.27
Mof_N 	N 	0.252	0.26501	0.05157	-0.165
Mof_N 	N 	0.2069	0.19391	0.86105	-0.264
Mof_N 	N 	0.2405	0.21153	0.92085	-0.163
Mof_N 	N 	0.7488	0.18589	0.00479	-0.309
Mof_N 	N 	0.5712	0.18246	0.99559	-0.161
Mof_N 	N 	0.3704	0.30543	0.18515	-0.263
Mof_N 	N 	0.547	0.30686	0.19761	-0.161
Mof_N 	N 	0.9012	0.21553	0.07519	-0.304
Mof_N 	N 	0.8625	0.23364	0.13359	-0.159
Mof_N 	N 	0.0643	0.32633	0.28872	-0.257
Mof_N 	N 	0.9133	0.31296	0.2558	-0.158
Mof_N 	N 	0.2452	0.0025	0.20184	0
Mof_N 	N 	0.2547	0.9857	0.29189	0
Mof_N 	N 	0.7407	0.1644	0.27476	0.001
Mof_N 	N 	0.7325	0.12034	0.18901	0.006
Mof_O 	O 	0.3391	0.00689	0.19053	-0.116
Mof_O 	O 	0.1974	0.9621	0.20332	-0.119
Mof_O 	O 	0.288	0.0285	0.28591	-0.116
Mof_O 	O 	0.3166	0.9514	0.3022	-0.121
Mof_O 	O 	0.2927	0.26614	0.28279	-0.45
Mof_O 	O 	0.4422	0.29228	0.31348	-0.31
Mof_O 	O 	0.7078	0.89005	0.21078	-0.457
Mof_O 	O 	0.8064	0.93126	0.16867	-0.317
Mof_O 	O 	0.7909	0.2033	0.28414	-0.122
Mof_O 	O 	0.7855	0.1236	0.2737	-0.117
Mof_O 	O 	0.6704	0.1575	0.18583	-0.113
Mof_O 	O 	0.8151	0.1191	0.1752	-0.122
Mof_O 	O 	0.1481	0.2325	0.19313	-0.441
Mof_O 	O 	0.281	0.1913	0.16395	-0.322
Mof_O 	O 	0.8542	0.85205	0.31292	-0.467
Mof_O 	O 	0.0015	0.85338	0.35076	-0.305
Mof_C 	C 	0.6932	0.98134	0.20837	-0.06
Mof_C 	C 	0.4112	0.22191	0.02436	-0.274
Mof_H 	H 	0.4492	0.2246	0.0471	0.129
Mof_C 	C 	0.3045	0.24046	0.02025	0.201
Mof_C 	C 	0.247	0.23694	0.98664	-0.269
Mof_H 	H 	0.1754	0.2497	0.9845	0.086
Mof_C 	C 	0.2975	0.21425	0.95635	0.206
Mof_C 	C 	0.4044	0.19471	0.9592	-0.274
Mof_H 	H 	0.438	0.179	0.9388	0.133
Mof_C 	C 	0.459	0.19932	0.99335	0.217
Mof_C 	C 	0.2744	0.25668	0.088	0.095
Mof_H 	H 	0.327	0.2333	0.097	-0.012
Mof_C 	C 	0.147	0.3134	0.08561	-0.015
Mof_H 	H 	0.094	0.3375	0.0926	0.028
Mof_C 	C 	0.171	0.3001	0.04998	-0.002
Mof_H 	H 	0.1374	0.3131	0.0283	-0.003
Mof_C 	C 	0.28	0.191	0.8887	0.11
Mof_H 	H 	0.35	0.1766	0.8864	-0.015
Mof_C 	C 	0.1181	0.2168	0.87608	-0.002
Mof_H 	H 	0.0527	0.2235	0.8631	0.014
Mof_C 	C 	0.1363	0.2288	0.9128	0.009
Mof_H 	H 	0.088	0.2453	0.929	-0.011
Mof_C 	C 	0.6557	0.20996	0.00982	0.107
Mof_H 	H 	0.6488	0.2419	0.0217	-0.045
Mof_C 	C 	0.724	0.1405	0.98645	-0.006
Mof_H 	H 	0.7751	0.1156	0.9793	-0.009
Mof_C 	C 	0.6148	0.13761	0.98034	0.002
Mof_H 	H 	0.5763	0.111	0.9683	0.03
Mof_C 	C 	0.729	0.30789	0.22736	-0.275
Mof_H 	H 	0.6995	0.3241	0.2484	0.146
Mof_C 	C 	0.6629	0.29493	0.19663	0.243
Mof_C 	C 	0.7047	0.27038	0.16541	-0.283
Mof_H 	H 	0.6597	0.2625	0.1449	0.141
Mof_C 	C 	0.8157	0.25797	0.16566	0.256
Mof_C 	C 	0.885	0.27081	0.1955	-0.287
Mof_H 	H 	0.9597	0.2625	0.195	0.149
Mof_C 	C 	0.8412	0.29584	0.22566	0.249
Mof_C 	C 	0.466	0.28375	0.1783	0.123
Mof_H 	H 	0.476	0.2559	0.1621	-0.013
Mof_C 	C 	0.3919	0.3437	0.21087	-0.004
Mof_H 	H 	0.339	0.3655	0.2211	0.032
Mof_C 	C 	0.4985	0.34521	0.2191	0.019
Mof_H 	H 	0.5338	0.3675	0.2359	0.044
Mof_C 	C 	0.8362	0.2419	0.09768	0.117
Mof_H 	H 	0.7793	0.2635	0.0895	-0.041
Mof_C 	C 	0.9734	0.1896	0.09797	-0.004
Mof_H 	H 	0.0297	0.1679	0.0898	-0.005
Mof_C 	C 	0.9507	0.2	0.1338	0.01
Mof_H 	H 	0.9875	0.1871	0.1549	0.045
Mof_C 	C 	0.0192	0.30036	0.26057	0.119
Mof_H 	H 	0.0565	0.2763	0.2459	-0.01
Mof_C 	C 	0.9826	0.35711	0.30263	0.005
Mof_H 	H 	0.9904	0.38	0.3227	0.031
Mof_C 	C 	0.8885	0.3491	0.28266	0.019
Mof_H 	H 	0.8205	0.365	0.2864	0.047
Mof_C 	C 	0.2015	0.1913	0.18557	0.308
Mof_C 	C 	0.1651	0.14177	0.20364	-0.054
Mof_C 	C 	0.2156	0.09533	0.19494	-0.062
Mof_H 	H 	0.2697	0.0945	0.1766	0.084
Mof_C 	C 	0.187	0.05067	0.21302	0.072
Mof_C 	C 	0.1061	0.04889	0.24088	0.02
Mof_C 	C 	0.0543	0.09535	0.2486	-0.069
Mof_H 	H 	0.999	0.0959	0.2665	0.08
Mof_C 	C 	0.0816	0.14072	0.2307	0.003
Mof_H 	H 	0.0442	0.1712	0.2366	0.056
Mof_C 	C 	0.0717	0.0014	0.26199	0.022
Mof_C 	C 	0.9634	0.9848	0.25735	-0.074
Mof_H 	H 	0.9167	0.0026	0.2409	0.074
Mof_C 	C 	0.9238	0.9424	0.27675	0.006
Mof_H 	H 	0.8512	0.9319	0.2727	0.044
Mof_C 	C 	0.9888	0.91548	0.30179	-0.062
Mof_C 	C 	0.0976	0.93087	0.30604	-0.052
Mof_H 	H 	0.1443	0.9129	0.3224	0.081
Mof_C 	C 	0.1364	0.97241	0.2863	0.066
Mof_C 	C 	0.9467	0.86994	0.32416	0.34
Mof_C 	C 	0.394	0.26198	0.29257	0.32
Mof_C 	C 	0.4541	0.21489	0.27733	-0.05
Mof_C 	C 	0.3976	0.17546	0.25912	0.002
Mof_H 	H 	0.3217	0.1783	0.2554	0.053
Mof_C 	C 	0.452	0.132	0.24648	-0.068
Mof_H 	H 	0.4116	0.1056	0.2349	0.08
Mof_C 	C 	0.5655	0.12657	0.25052	0.021
Mof_C 	C 	0.6205	0.16639	0.26893	0.07
Mof_C 	C 	0.5667	0.21058	0.28144	-0.055
Mof_H 	H 	0.6069	0.2373	0.2926	0.082
Mof_C 	C 	0.6139	0.07729	0.23571	0.025
Mof_C 	C 	0.576	0.0302	0.24989	-0.074
Mof_H 	H 	0.5227	0.0303	0.2685	0.083
Mof_C 	C 	0.616	0.98322	0.23696	0.012
Mof_H 	H 	0.5908	0.9525	0.2475	0.05
Mof_C 	C 	0.7281	0.02679	0.19321	-0.053
Mof_H 	H 	0.7782	0.0263	0.1736	0.082
Mof_C 	C 	0.6897	0.0738	0.20663	0.069
Mof_C 	C 	0.7392	0.93082	0.19404	0.332
Mof_Zn	Zn	0.21701	0.20852	0.66526	1.208
Mof_Zn	Zn	0.22535	0.17354	0.80697	1.211
Mof_Zn	Zn	0.89975	0.28711	0.51834	1.109
Mof_N 	N 	0.2118	0.21393	0.60945	-0.27
Mof_N 	N 	0.252	0.23499	0.55157	-0.165
Mof_N 	N 	0.2069	0.30609	0.36105	-0.264
Mof_N 	N 	0.2405	0.28847	0.42085	-0.163
Mof_N 	N 	0.7488	0.31411	0.50479	-0.309
Mof_N 	N 	0.5712	0.31754	0.49559	-0.161
Mof_N 	N 	0.3704	0.19457	0.68515	-0.263
Mof_N 	N 	0.547	0.19314	0.69761	-0.161
Mof_N 	N 	0.9012	0.28447	0.57519	-0.304
Mof_N 	N 	0.8625	0.26636	0.63359	-0.159
Mof_N 	N 	0.0643	0.17367	0.78872	-0.257
Mof_N 	N 	0.9133	0.18704	0.7558	-0.158
Mof_N 	N 	0.2452	0.4975	0.70184	0
Mof_N 	N 	0.2547	0.5143	0.79189	0.001
Mof_N 	N 	0.7407	0.3356	0.77476	0.001
Mof_N 	N 	0.7325	0.37966	0.68901	0.006
Mof_O 	O 	0.3391	0.49311	0.69053	-0.115
Mof_O 	O 	0.1974	0.5379	0.70332	-0.119
Mof_O 	O 	0.288	0.4715	0.78591	-0.116
Mof_O 	O 	0.3166	0.5486	0.8022	-0.121
Mof_O 	O 	0.2927	0.23386	0.78279	-0.45
Mof_O 	O 	0.4422	0.20772	0.81348	-0.31
Mof_O 	O 	0.7078	0.60995	0.71078	-0.457
Mof_O 	O 	0.8064	0.56874	0.66867	-0.317
Mof_O 	O 	0.7909	0.2967	0.78414	-0.122
Mof_O 	O 	0.7855	0.3764	0.7737	-0.117
Mof_O 	O 	0.6704	0.3425	0.68583	-0.113
Mof_O 	O 	0.8151	0.3809	0.6752	-0.122
Mof_O 	O 	0.1481	0.2675	0.69313	-0.441
Mof_O 	O 	0.281	0.3087	0.66395	-0.322
Mof_O 	O 	0.8542	0.64795	0.81292	-0.467
Mof_O 	O 	0.0015	0.64662	0.85076	-0.305
Mof_C 	C 	0.6932	0.51866	0.70837	-0.06
Mof_C 	C 	0.4112	0.27809	0.52436	-0.274
Mof_H 	H 	0.4492	0.2754	0.5471	0.129
Mof_C 	C 	0.3045	0.25954	0.52025	0.201
Mof_C 	C 	0.247	0.26306	0.48664	-0.269
Mof_H 	H 	0.1754	0.2503	0.4845	0.086
Mof_C 	C 	0.2975	0.28575	0.45635	0.206
Mof_C 	C 	0.4044	0.30529	0.4592	-0.274
Mof_H 	H 	0.438	0.321	0.4388	0.133
Mof_C 	C 	0.459	0.30068	0.49335	0.217
Mof_C 	C 	0.2744	0.24332	0.588	0.095
Mof_H 	H 	0.327	0.2667	0.597	-0.012
Mof_C 	C 	0.147	0.1866	0.58561	-0.015
Mof_H 	H 	0.094	0.1625	0.5926	0.028
Mof_C 	C 	0.171	0.1999	0.54998	-0.002
Mof_H 	H 	0.1374	0.1869	0.5283	-0.003
Mof_C 	C 	0.28	0.309	0.3887	0.11
Mof_H 	H 	0.35	0.3234	0.3864	-0.015
Mof_C 	C 	0.1181	0.2832	0.37608	-0.002
Mof_H 	H 	0.0527	0.2765	0.3631	0.014
Mof_C 	C 	0.1363	0.2712	0.4128	0.009
Mof_H 	H 	0.088	0.2547	0.429	-0.011
Mof_C 	C 	0.6557	0.29004	0.50982	0.107
Mof_H 	H 	0.6488	0.2581	0.5217	-0.045
Mof_C 	C 	0.724	0.3595	0.48645	-0.006
Mof_H 	H 	0.7751	0.3844	0.4793	-0.009
Mof_C 	C 	0.6148	0.36239	0.48034	0.002
Mof_H 	H 	0.5763	0.389	0.4683	0.03
Mof_C 	C 	0.729	0.19211	0.72736	-0.275
Mof_H 	H 	0.6995	0.1759	0.7484	0.146
Mof_C 	C 	0.6629	0.20507	0.69663	0.243
Mof_C 	C 	0.7047	0.22962	0.66541	-0.283
Mof_H 	H 	0.6597	0.2375	0.6449	0.141
Mof_C 	C 	0.8157	0.24203	0.66566	0.256
Mof_C 	C 	0.885	0.22919	0.6955	-0.287
Mof_H 	H 	0.9597	0.2375	0.695	0.149
Mof_C 	C 	0.8412	0.20416	0.72566	0.249
Mof_C 	C 	0.466	0.21625	0.6783	0.123
Mof_H 	H 	0.476	0.2441	0.6621	-0.013
Mof_C 	C 	0.3919	0.1563	0.71087	-0.004
Mof_H 	H 	0.339	0.1345	0.7211	0.032
Mof_C 	C 	0.4985	0.15479	0.7191	0.019
Mof_H 	H 	0.5338	0.1325	0.7359	0.044
Mof_C 	C 	0.8362	0.2581	0.59768	0.117
Mof_H 	H 	0.7793	0.2365	0.5895	-0.041
Mof_C 	C 	0.9734	0.3104	0.59797	-0.004
Mof_H 	H 	0.0297	0.3321	0.5898	-0.005
Mof_C 	C 	0.9507	0.3	0.6338	0.01
Mof_H 	H 	0.9875	0.3129	0.6549	0.045
Mof_C 	C 	0.0192	0.19964	0.76057	0.119
Mof_H 	H 	0.0565	0.2237	0.7459	-0.01
Mof_C 	C 	0.9826	0.14289	0.80263	0.005
Mof_H 	H 	0.9904	0.12	0.8227	0.031
Mof_C 	C 	0.8885	0.1509	0.78266	0.019
Mof_H 	H 	0.8205	0.135	0.7864	0.047
Mof_C 	C 	0.2015	0.3087	0.68557	0.308
Mof_C 	C 	0.1651	0.35823	0.70364	-0.054
Mof_C 	C 	0.2156	0.40467	0.69494	-0.062
Mof_H 	H 	0.2697	0.4055	0.6766	0.084
Mof_C 	C 	0.187	0.44933	0.71302	0.072
Mof_C 	C 	0.1061	0.45111	0.74088	0.02
Mof_C 	C 	0.0543	0.40465	0.7486	-0.069
Mof_H 	H 	0.999	0.4041	0.7665	0.08
Mof_C 	C 	0.0816	0.35928	0.7307	0.003
Mof_H 	H 	0.0442	0.3288	0.7366	0.056
Mof_C 	C 	0.0717	0.4986	0.76199	0.022
Mof_C 	C 	0.9634	0.5152	0.75735	-0.075
Mof_H 	H 	0.9167	0.4974	0.7409	0.075
Mof_C 	C 	0.9238	0.5576	0.77675	0.007
Mof_H 	H 	0.8512	0.5681	0.7727	0.044
Mof_C 	C 	0.9888	0.58452	0.80179	-0.063
Mof_C 	C 	0.0976	0.56913	0.80604	-0.051
Mof_H 	H 	0.1443	0.5871	0.8224	0.081
Mof_C 	C 	0.1364	0.52759	0.7863	0.066
Mof_C 	C 	0.9467	0.63006	0.82416	0.34
Mof_C 	C 	0.394	0.23802	0.79257	0.32
Mof_C 	C 	0.4541	0.28511	0.77733	-0.05
Mof_C 	C 	0.3976	0.32454	0.75912	0.002
Mof_H 	H 	0.3217	0.3217	0.7554	0.053
Mof_C 	C 	0.452	0.368	0.74648	-0.068
Mof_H 	H 	0.4116	0.3944	0.7349	0.08
Mof_C 	C 	0.5655	0.37343	0.75052	0.021
Mof_C 	C 	0.6205	0.33361	0.76893	0.07
Mof_C 	C 	0.5667	0.28942	0.78144	-0.055
Mof_H 	H 	0.6069	0.2627	0.7926	0.082
Mof_C 	C 	0.6139	0.42271	0.73571	0.025
Mof_C 	C 	0.576	0.4698	0.74989	-0.074
Mof_H 	H 	0.5227	0.4697	0.7685	0.083
Mof_C 	C 	0.616	0.51678	0.73696	0.012
Mof_H 	H 	0.5908	0.5475	0.7475	0.05
Mof_C 	C 	0.7281	0.47321	0.69321	-0.052
Mof_H 	H 	0.7782	0.4737	0.6736	0.082
Mof_C 	C 	0.6897	0.4262	0.70663	0.069
Mof_C 	C 	0.7392	0.56918	0.69404	0.332
Mof_Zn	Zn	0.78299	0.70852	0.83474	1.208
Mof_Zn	Zn	0.77465	0.67354	0.69303	1.211
Mof_Zn	Zn	0.10025	0.78711	0.98166	1.109
Mof_N 	N 	0.7882	0.71393	0.89055	-0.27
Mof_N 	N 	0.748	0.73499	0.94843	-0.165
Mof_N 	N 	0.7931	0.80609	0.13895	-0.264
Mof_N 	N 	0.7595	0.78847	0.07915	-0.163
Mof_N 	N 	0.2512	0.81411	0.99521	-0.309
Mof_N 	N 	0.4288	0.81754	0.00441	-0.161
Mof_N 	N 	0.6296	0.69457	0.81485	-0.263
Mof_N 	N 	0.453	0.69314	0.80239	-0.161
Mof_N 	N 	0.0988	0.78447	0.92481	-0.304
Mof_N 	N 	0.1375	0.76636	0.86641	-0.159
Mof_N 	N 	0.9357	0.67367	0.71128	-0.257
Mof_N 	N 	0.0867	0.68704	0.7442	-0.158
Mof_N 	N 	0.7548	0.9975	0.79816	0
Mof_N 	N 	0.7453	0.0143	0.70811	0
Mof_N 	N 	0.2593	0.8356	0.72524	0.001
Mof_N 	N 	0.2675	0.87966	0.81099	0.006
Mof_O 	O 	0.6609	0.99311	0.80947	-0.116
Mof_O 	O 	0.8026	0.0379	0.79668	-0.119
Mof_O 	O 	0.712	0.9715	0.71409	-0.116
Mof_O 	O 	0.6834	0.0486	0.6978	-0.121
Mof_O 	O 	0.7073	0.73386	0.71721	-0.45
Mof_O 	O 	0.5578	0.70772	0.68652	-0.31
Mof_O 	O 	0.2922	0.10995	0.78922	-0.457
Mof_O 	O 	0.1936	0.06874	0.83133	-0.317
Mof_O 	O 	0.2091	0.7967	0.71586	-0.122
Mof_O 	O 	0.2145	0.8764	0.7263	-0.117
Mof_O 	O 	0.3296	0.8425	0.81417	-0.113
Mof_O 	O 	0.1849	0.8809	0.8248	-0.122
Mof_O 	O 	0.8519	0.7675	0.80687	-0.441
Mof_O 	O 	0.719	0.8087	0.83605	-0.322
Mof_O 	O 	0.1458	0.14795	0.68708	-0.467
Mof_O 	O 	0.9985	0.14662	0.64924	-0.305
Mof_C 	C 	0.3068	0.01866	0.79163	-0.06
Mof_C 	C 	0.5888	0.77809	0.97564	-0.274
Mof_H 	H 	0.5508	0.7754	0.9529	0.129
Mof_C 	C 	0.6955	0.75954	0.97975	0.201
Mof_C 	C 	0.753	0.76306	0.01336	-0.269
Mof_H 	H 	0.8246	0.7503	0.0155	0.086
Mof_C 	C 	0.7025	0.78575	0.04365	0.206
Mof_C 	C 	0.5956	0.80529	0.0408	-0.274
Mof_H 	H 	0.562	0.821	0.0612	0.133
Mof_C 	C 	0.541	0.80068	0.00665	0.217
Mof_C 	C 	0.7256	0.74332	0.912	0.095
Mof_H 	H 	0.673	0.7667	0.903	-0.012
Mof_C 	C 	0.853	0.6866	0.91439	-0.015
Mof_H 	H 	0.906	0.6625	0.9074	0.028
Mof_C 	C 	0.829	0.6999	0.95002	-0.002
Mof_H 	H 	0.8626	0.6869	0.9717	-0.003
Mof_C 	C 	0.72	0.809	0.1113	0.11
Mof_H 	H 	0.65	0.8234	0.1136	-0.015
Mof_C 	C 	0.8819	0.7832	0.12392	-0.002
Mof_H 	H 	0.9473	0.7765	0.1369	0.014
Mof_C 	C 	0.8637	0.7712	0.0872	0.009
Mof_H 	H 	0.912	0.7547	0.071	-0.011
Mof_C 	C 	0.3443	0.79004	0.99018	0.107
Mof_H 	H 	0.3512	0.7581	0.9783	-0.045
Mof_C 	C 	0.276	0.8595	0.01355	-0.006
Mof_H 	H 	0.2249	0.8844	0.0207	-0.009
Mof_C 	C 	0.3852	0.86239	0.01966	0.002
Mof_H 	H 	0.4237	0.889	0.0317	0.03
Mof_C 	C 	0.271	0.69211	0.77264	-0.275
Mof_H 	H 	0.3005	0.6759	0.7516	0.146
Mof_C 	C 	0.3371	0.70507	0.80337	0.243
Mof_C 	C 	0.2953	0.72962	0.83459	-0.283
Mof_H 	H 	0.3403	0.7375	0.8551	0.141
Mof_C 	C 	0.1843	0.74203	0.83434	0.256
Mof_C 	C 	0.115	0.72919	0.8045	-0.287
Mof_H 	H 	0.0403	0.7375	0.805	0.149
Mof_C 	C 	0.1588	0.70416	0.77434	0.249
Mof_C 	C 	0.534	0.71625	0.8217	0.123
Mof_H 	H 	0.524	0.7441	0.8379	-0.013
Mof_C 	C 	0.6081	0.6563	0.78913	-0.004
Mof_H 	H 	0.661	0.6345	0.7789	0.032
Mof_C 	C 	0.5015	0.65479	0.7809	0.019
Mof_H 	H 	0.4662	0.6325	0.7641	0.044
Mof_C 	C 	0.1638	0.7581	0.90232	0.117
Mof_H 	H 	0.2207	0.7365	0.9105	-0.041
Mof_C 	C 	0.0266	0.8104	0.90203	-0.004
Mof_H 	H 	0.9703	0.8321	0.9102	-0.005
Mof_C 	C 	0.0493	0.8	0.8662	0.01
Mof_H 	H 	0.0125	0.8129	0.8451	0.045
Mof_C 	C 	0.9808	0.69964	0.73943	0.119
Mof_H 	H 	0.9435	0.7237	0.7541	-0.01
Mof_C 	C 	0.0174	0.64289	0.69737	0.005
Mof_H 	H 	0.0096	0.62	0.6773	0.031
Mof_C 	C 	0.1115	0.6509	0.71734	0.019
Mof_H 	H 	0.1795	0.635	0.7136	0.047
Mof_C 	C 	0.7985	0.8087	0.81443	0.308
Mof_C 	C 	0.8349	0.85823	0.79636	-0.054
Mof_C 	C 	0.7844	0.90467	0.80506	-0.062
Mof_H 	H 	0.7303	0.9055	0.8234	0.084
Mof_C 	C 	0.813	0.94933	0.78698	0.072
Mof_C 	C 	0.8939	0.95111	0.75912	0.02
Mof_C 	C 	0.9457	0.90465	0.7514	-0.069
Mof_H 	H 	0.001	0.9041	0.7335	0.08
Mof_C 	C 	0.9184	0.85928	0.7693	0.003
Mof_H 	H 	0.9558	0.8288	0.7634	0.056
Mof_C 	C 	0.9283	0.9986	0.73801	0.022
Mof_C 	C 	0.0366	0.0152	0.74265	-0.074
Mof_H 	H 	0.0833	0.9974	0.7591	0.074
Mof_C 	C 	0.0762	0.0576	0.72325	0.006
Mof_H 	H 	0.1488	0.0681	0.7273	0.044
Mof_C 	C 	0.0112	0.08452	0.69821	-0.062
Mof_C 	C 	0.9024	0.06913	0.69396	-0.052
Mof_H 	H 	0.8557	0.0871	0.6776	0.081
Mof_C 	C 	0.8636	0.02759	0.7137	0.066
Mof_C 	C 	0.0533	0.13006	0.67584	0.34
Mof_C 	C 	0.606	0.73802	0.70743	0.32
Mof_C 	C 	0.5459	0.78511	0.72267	-0.05
Mof_C 	C 	0.6024	0.82454	0.74088	0.002
Mof_H 	H 	0.6783	0.8217	0.7446	0.053
Mof_C 	C 	0.548	0.868	0.75352	-0.068
Mof_H 	H 	0.5884	0.8944	0.7651	0.08
Mof_C 	C 	0.4345	0.87343	0.74948	0.021
Mof_C 	C 	0.3795	0.83361	0.73107	0.07
Mof_C 	C 	0.4333	0.78942	0.71856	-0.055
Mof_H 	H 	0.3931	0.7627	0.7074	0.082
Mof_C 	C 	0.3861	0.92271	0.76429	0.025
Mof_C 	C 	0.424	0.9698	0.75011	-0.074
Mof_H 	H 	0.4773	0.9697	0.7315	0.083
Mof_C 	C 	0.384	0.01678	0.76304	0.012
Mof_H 	H 	0.4092	0.0475	0.7525	0.05
Mof_C 	C 	0.2719	0.97321	0.80679	-0.053
Mof_H 	H 	0.2218	0.9737	0.8264	0.082
Mof_C 	C 	0.3103	0.9262	0.79337	0.069
Mof_C 	C 	0.2608	0.06918	0.80596	0.332
_end
