# CIF file generated by openbabel 3.1.0, see https://openbabel.org
data_I
_chemical_name_common 'MIYGIL_clean'
_cell_length_a 7.8719
_cell_length_b 7.9657
_cell_length_c 10.4754
_cell_angle_alpha 70.1635
_cell_angle_beta 67.9304
_cell_angle_gamma 60.3887
_space_group_name_H-M_alt 'P 1'
_space_group_name_Hall 'P 1'
loop_
    _symmetry_equiv_pos_as_xyz
    x,y,z
loop_
    _atom_site_label
    _atom_site_type_symbol
    _atom_site_fract_x
    _atom_site_fract_y
    _atom_site_fract_z
    _atom_site_occupancy
    Th1      Th       0.23758    0.25000    0.75000    1.000
    Th2      Th       0.76242    0.75000    0.25000    1.000
    C1       C        0.07500    0.42070    0.04370    1.000
    C2       C        0.10130    0.91690    0.01210    1.000
    C3       C        0.53940    0.07930    0.45630    1.000
    C4       C        0.03030    0.58310    0.48790    1.000
    C5       C        0.92500    0.57930    0.95630    1.000
    C6       C        0.89870    0.08310    0.98790    1.000
    C7       C        0.46060    0.92070    0.54370    1.000
    C8       C        0.96970    0.41690    0.51210    1.000
    O1       O        0.25690    0.93860    0.93820    1.000
    O2       O        0.22046    0.28388    0.98420    1.000
    O3       O        0.08901    0.77178    0.10600    1.000
    O4       O        0.04067    0.44186    0.16440    1.000
    O5       O        0.13370    0.56140    0.56180    1.000
    O6       O        0.48854    0.21612    0.51580    1.000
    O7       O        0.96679    0.72822    0.39400    1.000
    O8       O        0.64693    0.05814    0.33560    1.000
    O9       O        0.74310    0.06140    0.06180    1.000
    O10      O        0.77954    0.71612    0.01580    1.000
    O11      O        0.91099    0.22822    0.89400    1.000
    O12      O        0.95933    0.55814    0.83560    1.000
    O13      O        0.86630    0.43860    0.43820    1.000
    O14      O        0.51146    0.78388    0.48420    1.000
    O15      O        0.03321    0.27178    0.60600    1.000
    O16      O        0.35307    0.94186    0.66440    1.000
