# CIF file generated by openbabel 3.1.0, see https://openbabel.org
data_I
_chemical_name_common 'image0'
_cell_length_a 21.4934
_cell_length_b 21.4934
_cell_length_c 21.4934
_cell_angle_alpha 90
_cell_angle_beta 90
_cell_angle_gamma 90
_space_group_name_H-M_alt 'P 1'
_space_group_name_Hall 'P 1'
loop_
    _symmetry_equiv_pos_as_xyz
    x,y,z
loop_
    _atom_site_label
    _atom_site_type_symbol
    _atom_site_fract_x
    _atom_site_fract_y
    _atom_site_fract_z
    _atom_site_occupancy
    Al1      Al       0.26072    0.19852    0.31923    1.000
    C1       C        0.45670    0.21435    0.33007    1.000
    C2       C        0.51089    0.21889    0.29435    1.000
    H1       H        0.50890    0.23010    0.25160    1.000
    C3       C        0.56837    0.20653    0.32299    1.000
    C4       C        0.57052    0.19520    0.38539    1.000
    H2       H        0.60960    0.18870    0.40500    1.000
    C5       C        0.51682    0.19300    0.42029    1.000
    C6       C        0.45909    0.20230    0.39172    1.000
    H3       H        0.42190    0.20030    0.41550    1.000
    C7       C        0.39346    0.22341    0.30089    1.000
    C8       C        0.62813    0.20719    0.28809    1.000
    N1       N        0.52400    0.19120    0.48586    1.000
    O1       O        0.34830    0.19978    0.33058    1.000
    O2       O        0.38945    0.25297    0.25128    1.000
    O3       O        0.67323    0.18120    0.31413    1.000
    O4       O        0.62961    0.23320    0.23604    1.000
    Al2      Al       0.73928    0.80148    0.31923    1.000
    C9       C        0.54330    0.78565    0.33007    1.000
    C10      C        0.48911    0.78111    0.29435    1.000
    H4       H        0.49110    0.76990    0.25160    1.000
    C11      C        0.43163    0.79347    0.32299    1.000
    C12      C        0.42948    0.80480    0.38539    1.000
    H5       H        0.39040    0.81130    0.40500    1.000
    C13      C        0.48318    0.80700    0.42029    1.000
    C14      C        0.54091    0.79770    0.39172    1.000
    H6       H        0.57810    0.79970    0.41550    1.000
    C15      C        0.60654    0.77659    0.30089    1.000
    C16      C        0.37187    0.79281    0.28809    1.000
    N2       N        0.47600    0.80880    0.48586    1.000
    O5       O        0.65170    0.80022    0.33058    1.000
    O6       O        0.61055    0.74703    0.25128    1.000
    O7       O        0.32677    0.81880    0.31413    1.000
    O8       O        0.37039    0.76680    0.23604    1.000
    Al3      Al       0.73928    0.19852    0.68077    1.000
    C17      C        0.54330    0.21435    0.66993    1.000
    C18      C        0.48911    0.21889    0.70565    1.000
    H7       H        0.49110    0.23010    0.74840    1.000
    C19      C        0.43163    0.20653    0.67701    1.000
    C20      C        0.42948    0.19520    0.61461    1.000
    H8       H        0.39040    0.18870    0.59500    1.000
    C21      C        0.48318    0.19300    0.57971    1.000
    C22      C        0.54091    0.20230    0.60828    1.000
    H9       H        0.57810    0.20030    0.58450    1.000
    C23      C        0.60654    0.22341    0.69911    1.000
    C24      C        0.37187    0.20719    0.71191    1.000
    N3       N        0.47600    0.19120    0.51414    1.000
    O9       O        0.65170    0.19978    0.66942    1.000
    O10      O        0.61055    0.25297    0.74872    1.000
    O11      O        0.32677    0.18120    0.68587    1.000
    O12      O        0.37039    0.23320    0.76396    1.000
    Al4      Al       0.26072    0.80148    0.68077    1.000
    C25      C        0.45670    0.78565    0.66993    1.000
    C26      C        0.51089    0.78111    0.70565    1.000
    H10      H        0.50890    0.76990    0.74840    1.000
    C27      C        0.56837    0.79347    0.67701    1.000
    C28      C        0.57052    0.80480    0.61461    1.000
    H11      H        0.60960    0.81130    0.59500    1.000
    C29      C        0.51682    0.80700    0.57971    1.000
    C30      C        0.45909    0.79770    0.60828    1.000
    H12      H        0.42190    0.79970    0.58450    1.000
    C31      C        0.39346    0.77659    0.69911    1.000
    C32      C        0.62813    0.79281    0.71191    1.000
    N4       N        0.52400    0.80880    0.51414    1.000
    O13      O        0.34830    0.80022    0.66942    1.000
    O14      O        0.38945    0.74703    0.74872    1.000
    O15      O        0.67323    0.81880    0.68587    1.000
    O16      O        0.62961    0.76680    0.76396    1.000
    Al5      Al       0.31923    0.26072    0.19852    1.000
    C33      C        0.33007    0.45670    0.21435    1.000
    C34      C        0.29435    0.51089    0.21889    1.000
    H13      H        0.25160    0.50890    0.23010    1.000
    C35      C        0.32299    0.56837    0.20653    1.000
    C36      C        0.38539    0.57052    0.19520    1.000
    H14      H        0.40500    0.60960    0.18870    1.000
    C37      C        0.42029    0.51682    0.19300    1.000
    C38      C        0.39172    0.45909    0.20230    1.000
    H15      H        0.41550    0.42190    0.20030    1.000
    C39      C        0.30089    0.39346    0.22341    1.000
    C40      C        0.28809    0.62813    0.20719    1.000
    N5       N        0.48586    0.52400    0.19120    1.000
    O17      O        0.33058    0.34830    0.19978    1.000
    O18      O        0.25128    0.38945    0.25297    1.000
    O19      O        0.31413    0.67323    0.18120    1.000
    O20      O        0.23604    0.62961    0.23320    1.000
    Al6      Al       0.31923    0.73928    0.80148    1.000
    C41      C        0.33007    0.54330    0.78565    1.000
    C42      C        0.29435    0.48911    0.78111    1.000
    H16      H        0.25160    0.49110    0.76990    1.000
    C43      C        0.32299    0.43163    0.79347    1.000
    C44      C        0.38539    0.42948    0.80480    1.000
    H17      H        0.40500    0.39040    0.81130    1.000
    C45      C        0.42029    0.48318    0.80700    1.000
    C46      C        0.39172    0.54091    0.79770    1.000
    H18      H        0.41550    0.57810    0.79970    1.000
    C47      C        0.30089    0.60654    0.77659    1.000
    C48      C        0.28809    0.37187    0.79281    1.000
    N6       N        0.48586    0.47600    0.80880    1.000
    O21      O        0.33058    0.65170    0.80022    1.000
    O22      O        0.25128    0.61055    0.74703    1.000
    O23      O        0.31413    0.32677    0.81880    1.000
    O24      O        0.23604    0.37039    0.76680    1.000
    Al7      Al       0.68077    0.73928    0.19852    1.000
    C49      C        0.66993    0.54330    0.21435    1.000
    C50      C        0.70565    0.48911    0.21889    1.000
    H19      H        0.74840    0.49110    0.23010    1.000
    C51      C        0.67701    0.43163    0.20653    1.000
    C52      C        0.61461    0.42948    0.19520    1.000
    H20      H        0.59500    0.39040    0.18870    1.000
    C53      C        0.57971    0.48318    0.19300    1.000
    C54      C        0.60828    0.54091    0.20230    1.000
    H21      H        0.58450    0.57810    0.20030    1.000
    C55      C        0.69911    0.60654    0.22341    1.000
    C56      C        0.71191    0.37187    0.20719    1.000
    N7       N        0.51414    0.47600    0.19120    1.000
    O25      O        0.66942    0.65170    0.19978    1.000
    O26      O        0.74872    0.61055    0.25297    1.000
    O27      O        0.68587    0.32677    0.18120    1.000
    O28      O        0.76396    0.37039    0.23320    1.000
    Al8      Al       0.68077    0.26072    0.80148    1.000
    C57      C        0.66993    0.45670    0.78565    1.000
    C58      C        0.70565    0.51089    0.78111    1.000
    H22      H        0.74840    0.50890    0.76990    1.000
    C59      C        0.67701    0.56837    0.79347    1.000
    C60      C        0.61461    0.57052    0.80480    1.000
    H23      H        0.59500    0.60960    0.81130    1.000
    C61      C        0.57971    0.51682    0.80700    1.000
    C62      C        0.60828    0.45909    0.79770    1.000
    H24      H        0.58450    0.42190    0.79970    1.000
    C63      C        0.69911    0.39346    0.77659    1.000
    C64      C        0.71191    0.62813    0.79281    1.000
    N8       N        0.51414    0.52400    0.80880    1.000
    O29      O        0.66942    0.34830    0.80022    1.000
    O30      O        0.74872    0.38945    0.74703    1.000
    O31      O        0.68587    0.67323    0.81880    1.000
    O32      O        0.76396    0.62961    0.76680    1.000
    Al9      Al       0.19852    0.31923    0.26072    1.000
    C65      C        0.21435    0.33007    0.45670    1.000
    C66      C        0.21889    0.29435    0.51089    1.000
    H25      H        0.23010    0.25160    0.50890    1.000
    C67      C        0.20653    0.32299    0.56837    1.000
    C68      C        0.19520    0.38539    0.57052    1.000
    H26      H        0.18870    0.40500    0.60960    1.000
    C69      C        0.19300    0.42029    0.51682    1.000
    C70      C        0.20230    0.39172    0.45909    1.000
    H27      H        0.20030    0.41550    0.42190    1.000
    C71      C        0.22341    0.30089    0.39346    1.000
    C72      C        0.20719    0.28809    0.62813    1.000
    N9       N        0.19120    0.48586    0.52400    1.000
    O33      O        0.19978    0.33058    0.34830    1.000
    O34      O        0.25297    0.25128    0.38945    1.000
    O35      O        0.18120    0.31413    0.67323    1.000
    O36      O        0.23320    0.23604    0.62961    1.000
    Al10     Al       0.80148    0.31923    0.73928    1.000
    C73      C        0.78565    0.33007    0.54330    1.000
    C74      C        0.78111    0.29435    0.48911    1.000
    H28      H        0.76990    0.25160    0.49110    1.000
    C75      C        0.79347    0.32299    0.43163    1.000
    C76      C        0.80480    0.38539    0.42948    1.000
    H29      H        0.81130    0.40500    0.39040    1.000
    C77      C        0.80700    0.42029    0.48318    1.000
    C78      C        0.79770    0.39172    0.54091    1.000
    H30      H        0.79970    0.41550    0.57810    1.000
    C79      C        0.77659    0.30089    0.60654    1.000
    C80      C        0.79281    0.28809    0.37187    1.000
    N10      N        0.80880    0.48586    0.47600    1.000
    O37      O        0.80022    0.33058    0.65170    1.000
    O38      O        0.74703    0.25128    0.61055    1.000
    O39      O        0.81880    0.31413    0.32677    1.000
    O40      O        0.76680    0.23604    0.37039    1.000
    Al11     Al       0.19852    0.68077    0.73928    1.000
    C81      C        0.21435    0.66993    0.54330    1.000
    C82      C        0.21889    0.70565    0.48911    1.000
    H31      H        0.23010    0.74840    0.49110    1.000
    C83      C        0.20653    0.67701    0.43163    1.000
    C84      C        0.19520    0.61461    0.42948    1.000
    H32      H        0.18870    0.59500    0.39040    1.000
    C85      C        0.19300    0.57971    0.48318    1.000
    C86      C        0.20230    0.60828    0.54091    1.000
    H33      H        0.20030    0.58450    0.57810    1.000
    C87      C        0.22341    0.69911    0.60654    1.000
    C88      C        0.20719    0.71191    0.37187    1.000
    N11      N        0.19120    0.51414    0.47600    1.000
    O41      O        0.19978    0.66942    0.65170    1.000
    O42      O        0.25297    0.74872    0.61055    1.000
    O43      O        0.18120    0.68587    0.32677    1.000
    O44      O        0.23320    0.76396    0.37039    1.000
    Al12     Al       0.80148    0.68077    0.26072    1.000
    C89      C        0.78565    0.66993    0.45670    1.000
    C90      C        0.78111    0.70565    0.51089    1.000
    H34      H        0.76990    0.74840    0.50890    1.000
    C91      C        0.79347    0.67701    0.56837    1.000
    C92      C        0.80480    0.61461    0.57052    1.000
    H35      H        0.81130    0.59500    0.60960    1.000
    C93      C        0.80700    0.57971    0.51682    1.000
    C94      C        0.79770    0.60828    0.45909    1.000
    H36      H        0.79970    0.58450    0.42190    1.000
    C95      C        0.77659    0.69911    0.39346    1.000
    C96      C        0.79281    0.71191    0.62813    1.000
    N12      N        0.80880    0.51414    0.52400    1.000
    O45      O        0.80022    0.66942    0.34830    1.000
    O46      O        0.74703    0.74872    0.38945    1.000
    O47      O        0.81880    0.68587    0.67323    1.000
    O48      O        0.76680    0.76396    0.62961    1.000
    Al13     Al       0.69852    0.76072    0.81923    1.000
    C97      C        0.71435    0.95670    0.83007    1.000
    C98      C        0.71889    0.01089    0.79435    1.000
    H37      H        0.73010    0.00890    0.75160    1.000
    C99      C        0.70653    0.06837    0.82299    1.000
    C100     C        0.69520    0.07052    0.88539    1.000
    H38      H        0.68870    0.10960    0.90500    1.000
    C101     C        0.69300    0.01682    0.92029    1.000
    C102     C        0.70230    0.95909    0.89172    1.000
    H39      H        0.70030    0.92190    0.91550    1.000
    C103     C        0.72341    0.89346    0.80089    1.000
    C104     C        0.70719    0.12813    0.78809    1.000
    N13      N        0.69120    0.02400    0.98586    1.000
    O49      O        0.69978    0.84830    0.83058    1.000
    O50      O        0.75297    0.88945    0.75128    1.000
    O51      O        0.68120    0.17323    0.81413    1.000
    O52      O        0.73320    0.12961    0.73604    1.000
    Al14     Al       0.30148    0.23928    0.81923    1.000
    C105     C        0.28565    0.04330    0.83007    1.000
    C106     C        0.28111    0.98911    0.79435    1.000
    H40      H        0.26990    0.99110    0.75160    1.000
    C107     C        0.29347    0.93163    0.82299    1.000
    C108     C        0.30480    0.92948    0.88539    1.000
    H41      H        0.31130    0.89040    0.90500    1.000
    C109     C        0.30700    0.98318    0.92029    1.000
    C110     C        0.29770    0.04091    0.89172    1.000
    H42      H        0.29970    0.07810    0.91550    1.000
    C111     C        0.27659    0.10654    0.80089    1.000
    C112     C        0.29281    0.87187    0.78809    1.000
    N14      N        0.30880    0.97600    0.98586    1.000
    O53      O        0.30022    0.15170    0.83058    1.000
    O54      O        0.24703    0.11055    0.75128    1.000
    O55      O        0.31880    0.82677    0.81413    1.000
    O56      O        0.26680    0.87039    0.73604    1.000
    Al15     Al       0.69852    0.23928    0.18077    1.000
    C113     C        0.71435    0.04330    0.16993    1.000
    C114     C        0.71889    0.98911    0.20565    1.000
    H43      H        0.73010    0.99110    0.24840    1.000
    C115     C        0.70653    0.93163    0.17701    1.000
    C116     C        0.69520    0.92948    0.11461    1.000
    H44      H        0.68870    0.89040    0.09500    1.000
    C117     C        0.69300    0.98318    0.07971    1.000
    C118     C        0.70230    0.04091    0.10828    1.000
    H45      H        0.70030    0.07810    0.08450    1.000
    C119     C        0.72341    0.10654    0.19911    1.000
    C120     C        0.70719    0.87187    0.21191    1.000
    N15      N        0.69120    0.97600    0.01414    1.000
    O57      O        0.69978    0.15170    0.16942    1.000
    O58      O        0.75297    0.11055    0.24872    1.000
    O59      O        0.68120    0.82677    0.18587    1.000
    O60      O        0.73320    0.87039    0.26396    1.000
    Al16     Al       0.30148    0.76072    0.18077    1.000
    C121     C        0.28565    0.95670    0.16993    1.000
    C122     C        0.28111    0.01089    0.20565    1.000
    H46      H        0.26990    0.00890    0.24840    1.000
    C123     C        0.29347    0.06837    0.17701    1.000
    C124     C        0.30480    0.07052    0.11461    1.000
    H47      H        0.31130    0.10960    0.09500    1.000
    C125     C        0.30700    0.01682    0.07971    1.000
    C126     C        0.29770    0.95909    0.10828    1.000
    H48      H        0.29970    0.92190    0.08450    1.000
    C127     C        0.27659    0.89346    0.19911    1.000
    C128     C        0.29281    0.12813    0.21191    1.000
    N16      N        0.30880    0.02400    0.01414    1.000
    O61      O        0.30022    0.84830    0.16942    1.000
    O62      O        0.24703    0.88945    0.24872    1.000
    O63      O        0.31880    0.17323    0.18587    1.000
    O64      O        0.26680    0.12961    0.26396    1.000
    Al17     Al       0.76072    0.81923    0.69852    1.000
    C129     C        0.95670    0.83007    0.71435    1.000
    C130     C        0.01089    0.79435    0.71889    1.000
    H49      H        0.00890    0.75160    0.73010    1.000
    C131     C        0.06837    0.82299    0.70653    1.000
    C132     C        0.07052    0.88539    0.69520    1.000
    H50      H        0.10960    0.90500    0.68870    1.000
    C133     C        0.01682    0.92029    0.69300    1.000
    C134     C        0.95909    0.89172    0.70230    1.000
    H51      H        0.92190    0.91550    0.70030    1.000
    C135     C        0.89346    0.80089    0.72341    1.000
    C136     C        0.12813    0.78809    0.70719    1.000
    N17      N        0.02400    0.98586    0.69120    1.000
    O65      O        0.84830    0.83058    0.69978    1.000
    O66      O        0.88945    0.75128    0.75297    1.000
    O67      O        0.17323    0.81413    0.68120    1.000
    O68      O        0.12961    0.73604    0.73320    1.000
    Al18     Al       0.23928    0.81923    0.30148    1.000
    C137     C        0.04330    0.83007    0.28565    1.000
    C138     C        0.98911    0.79435    0.28111    1.000
    H52      H        0.99110    0.75160    0.26990    1.000
    C139     C        0.93163    0.82299    0.29347    1.000
    C140     C        0.92948    0.88539    0.30480    1.000
    H53      H        0.89040    0.90500    0.31130    1.000
    C141     C        0.98318    0.92029    0.30700    1.000
    C142     C        0.04091    0.89172    0.29770    1.000
    H54      H        0.07810    0.91550    0.29970    1.000
    C143     C        0.10654    0.80089    0.27659    1.000
    C144     C        0.87187    0.78809    0.29281    1.000
    N18      N        0.97600    0.98586    0.30880    1.000
    O69      O        0.15170    0.83058    0.30022    1.000
    O70      O        0.11055    0.75128    0.24703    1.000
    O71      O        0.82677    0.81413    0.31880    1.000
    O72      O        0.87039    0.73604    0.26680    1.000
    Al19     Al       0.23928    0.18077    0.69852    1.000
    C145     C        0.04330    0.16993    0.71435    1.000
    C146     C        0.98911    0.20565    0.71889    1.000
    H55      H        0.99110    0.24840    0.73010    1.000
    C147     C        0.93163    0.17701    0.70653    1.000
    C148     C        0.92948    0.11461    0.69520    1.000
    H56      H        0.89040    0.09500    0.68870    1.000
    C149     C        0.98318    0.07971    0.69300    1.000
    C150     C        0.04091    0.10828    0.70230    1.000
    H57      H        0.07810    0.08450    0.70030    1.000
    C151     C        0.10654    0.19911    0.72341    1.000
    C152     C        0.87187    0.21191    0.70719    1.000
    N19      N        0.97600    0.01414    0.69120    1.000
    O73      O        0.15170    0.16942    0.69978    1.000
    O74      O        0.11055    0.24872    0.75297    1.000
    O75      O        0.82677    0.18587    0.68120    1.000
    O76      O        0.87039    0.26396    0.73320    1.000
    Al20     Al       0.76072    0.18077    0.30148    1.000
    C153     C        0.95670    0.16993    0.28565    1.000
    C154     C        0.01089    0.20565    0.28111    1.000
    H58      H        0.00890    0.24840    0.26990    1.000
    C155     C        0.06837    0.17701    0.29347    1.000
    C156     C        0.07052    0.11461    0.30480    1.000
    H59      H        0.10960    0.09500    0.31130    1.000
    C157     C        0.01682    0.07971    0.30700    1.000
    C158     C        0.95909    0.10828    0.29770    1.000
    H60      H        0.92190    0.08450    0.29970    1.000
    C159     C        0.89346    0.19911    0.27659    1.000
    C160     C        0.12813    0.21191    0.29281    1.000
    N20      N        0.02400    0.01414    0.30880    1.000
    O77      O        0.84830    0.16942    0.30022    1.000
    O78      O        0.88945    0.24872    0.24703    1.000
    O79      O        0.17323    0.18587    0.31880    1.000
    O80      O        0.12961    0.26396    0.26680    1.000
    Al21     Al       0.81923    0.69852    0.76072    1.000
    C161     C        0.83007    0.71435    0.95670    1.000
    C162     C        0.79435    0.71889    0.01089    1.000
    H61      H        0.75160    0.73010    0.00890    1.000
    C163     C        0.82299    0.70653    0.06837    1.000
    C164     C        0.88539    0.69520    0.07052    1.000
    H62      H        0.90500    0.68870    0.10960    1.000
    C165     C        0.92029    0.69300    0.01682    1.000
    C166     C        0.89172    0.70230    0.95909    1.000
    H63      H        0.91550    0.70030    0.92190    1.000
    C167     C        0.80089    0.72341    0.89346    1.000
    C168     C        0.78809    0.70719    0.12813    1.000
    N21      N        0.98586    0.69120    0.02400    1.000
    O81      O        0.83058    0.69978    0.84830    1.000
    O82      O        0.75128    0.75297    0.88945    1.000
    O83      O        0.81413    0.68120    0.17323    1.000
    O84      O        0.73604    0.73320    0.12961    1.000
    Al22     Al       0.81923    0.30148    0.23928    1.000
    C169     C        0.83007    0.28565    0.04330    1.000
    C170     C        0.79435    0.28111    0.98911    1.000
    H64      H        0.75160    0.26990    0.99110    1.000
    C171     C        0.82299    0.29347    0.93163    1.000
    C172     C        0.88539    0.30480    0.92948    1.000
    H65      H        0.90500    0.31130    0.89040    1.000
    C173     C        0.92029    0.30700    0.98318    1.000
    C174     C        0.89172    0.29770    0.04091    1.000
    H66      H        0.91550    0.29970    0.07810    1.000
    C175     C        0.80089    0.27659    0.10654    1.000
    C176     C        0.78809    0.29281    0.87187    1.000
    N22      N        0.98586    0.30880    0.97600    1.000
    O85      O        0.83058    0.30022    0.15170    1.000
    O86      O        0.75128    0.24703    0.11055    1.000
    O87      O        0.81413    0.31880    0.82677    1.000
    O88      O        0.73604    0.26680    0.87039    1.000
    Al23     Al       0.18077    0.69852    0.23928    1.000
    C177     C        0.16993    0.71435    0.04330    1.000
    C178     C        0.20565    0.71889    0.98911    1.000
    H67      H        0.24840    0.73010    0.99110    1.000
    C179     C        0.17701    0.70653    0.93163    1.000
    C180     C        0.11461    0.69520    0.92948    1.000
    H68      H        0.09500    0.68870    0.89040    1.000
    C181     C        0.07971    0.69300    0.98318    1.000
    C182     C        0.10828    0.70230    0.04091    1.000
    H69      H        0.08450    0.70030    0.07810    1.000
    C183     C        0.19911    0.72341    0.10654    1.000
    C184     C        0.21191    0.70719    0.87187    1.000
    N23      N        0.01414    0.69120    0.97600    1.000
    O89      O        0.16942    0.69978    0.15170    1.000
    O90      O        0.24872    0.75297    0.11055    1.000
    O91      O        0.18587    0.68120    0.82677    1.000
    O92      O        0.26396    0.73320    0.87039    1.000
    Al24     Al       0.18077    0.30148    0.76072    1.000
    C185     C        0.16993    0.28565    0.95670    1.000
    C186     C        0.20565    0.28111    0.01089    1.000
    H70      H        0.24840    0.26990    0.00890    1.000
    C187     C        0.17701    0.29347    0.06837    1.000
    C188     C        0.11461    0.30480    0.07052    1.000
    H71      H        0.09500    0.31130    0.10960    1.000
    C189     C        0.07971    0.30700    0.01682    1.000
    C190     C        0.10828    0.29770    0.95909    1.000
    H72      H        0.08450    0.29970    0.92190    1.000
    C191     C        0.19911    0.27659    0.89346    1.000
    C192     C        0.21191    0.29281    0.12813    1.000
    N24      N        0.01414    0.30880    0.02400    1.000
    O93      O        0.16942    0.30022    0.84830    1.000
    O94      O        0.24872    0.24703    0.88945    1.000
    O95      O        0.18587    0.31880    0.17323    1.000
    O96      O        0.26396    0.26680    0.12961    1.000
    O97      O        0.25938    0.25938    0.25938    1.000
    O98      O        0.74062    0.74062    0.25938    1.000
    O99      O        0.74062    0.25938    0.74062    1.000
    O100     O        0.25938    0.74062    0.74062    1.000
    O101     O        0.75938    0.75938    0.75938    1.000
    O102     O        0.24062    0.24062    0.75938    1.000
    O103     O        0.75938    0.24062    0.24062    1.000
    O104     O        0.24062    0.75938    0.24062    1.000
