# CIF file generated by openbabel 3.1.0, see https://openbabel.org
data_I
_chemical_name_common 'AQALOU_clean'
_cell_length_a 11.425
_cell_length_b 15.824
_cell_length_c 12.649
_cell_angle_alpha 90
_cell_angle_beta 90
_cell_angle_gamma 90
_space_group_name_H-M_alt 'P 1'
_space_group_name_Hall 'P 1'
loop_
    _symmetry_equiv_pos_as_xyz
    x,y,z
loop_
    _atom_site_label
    _atom_site_type_symbol
    _atom_site_fract_x
    _atom_site_fract_y
    _atom_site_fract_z
    _atom_site_occupancy
    Sr1      Sr       0.25000    0.67245    0.12874    1.000
    Sr2      Sr       0.75000    0.82755    0.62874    1.000
    Sr3      Sr       0.75000    0.32755    0.87126    1.000
    Sr4      Sr       0.25000    0.17245    0.37126    1.000
    Gd1      Gd       0.25000    0.42294    0.52233    1.000
    Gd2      Gd       0.25000    0.42622    0.02228    1.000
    Gd3      Gd       0.75000    0.07706    0.02233    1.000
    Gd4      Gd       0.75000    0.07378    0.52228    1.000
    Gd5      Gd       0.75000    0.57706    0.47767    1.000
    Gd6      Gd       0.75000    0.57378    0.97772    1.000
    Gd7      Gd       0.25000    0.92294    0.97767    1.000
    Gd8      Gd       0.25000    0.92622    0.47772    1.000
    H1       H        0.19390    0.25300    0.59560    1.000
    H2       H        0.80610    0.24700    0.09560    1.000
    H3       H        0.69390    0.74700    0.40440    1.000
    H4       H        0.30610    0.75300    0.90440    1.000
    H5       H        0.80610    0.74700    0.40440    1.000
    H6       H        0.19390    0.75300    0.90440    1.000
    H7       H        0.30610    0.25300    0.59560    1.000
    H8       H        0.69390    0.24700    0.09560    1.000
    C1       C        0.02550    0.54220    0.97970    1.000
    C2       C        0.31700    0.40760    0.77300    1.000
    C3       C        0.97710    0.45780    0.47750    1.000
    C4       C        0.97450    0.95780    0.47970    1.000
    C5       C        0.68300    0.09240    0.27300    1.000
    C6       C        0.02290    0.04220    0.97750    1.000
    C7       C        0.52550    0.45780    0.02030    1.000
    C8       C        0.81700    0.59240    0.22700    1.000
    C9       C        0.47710    0.54220    0.52250    1.000
    C10      C        0.47450    0.04220    0.52030    1.000
    C11      C        0.18300    0.90760    0.72700    1.000
    C12      C        0.52290    0.95780    0.02250    1.000
    C13      C        0.97450    0.45780    0.02030    1.000
    C14      C        0.68300    0.59240    0.22700    1.000
    C15      C        0.02290    0.54220    0.52250    1.000
    C16      C        0.02550    0.04220    0.52030    1.000
    C17      C        0.31700    0.90760    0.72700    1.000
    C18      C        0.97710    0.95780    0.02250    1.000
    C19      C        0.47450    0.54220    0.97970    1.000
    C20      C        0.18300    0.40760    0.77300    1.000
    C21      C        0.52290    0.45780    0.47750    1.000
    C22      C        0.52550    0.95780    0.47970    1.000
    C23      C        0.81700    0.09240    0.27300    1.000
    C24      C        0.47710    0.04220    0.97750    1.000
    C25      C        0.25000    0.47330    0.27180    1.000
    C26      C        0.25000    0.37670    0.26900    1.000
    C27      C        0.75000    0.02670    0.77180    1.000
    C28      C        0.75000    0.12330    0.76900    1.000
    C29      C        0.75000    0.52670    0.72820    1.000
    C30      C        0.75000    0.62330    0.73100    1.000
    C31      C        0.25000    0.97330    0.22820    1.000
    C32      C        0.25000    0.87670    0.23100    1.000
    O1       O        0.13220    0.55490    0.99530    1.000
    O2       O        0.36540    0.40630    0.86110    1.000
    O3       O        0.95450    0.59180    0.93480    1.000
    O4       O        0.05090    0.39930    0.46850    1.000
    O5       O        0.36700    0.40790    0.68460    1.000
    O6       O        0.87210    0.45340    0.45360    1.000
    O7       O        0.86780    0.94510    0.49530    1.000
    O8       O        0.63460    0.09370    0.36110    1.000
    O9       O        0.04550    0.90820    0.43480    1.000
    O10      O        0.94910    0.10070    0.96850    1.000
    O11      O        0.63300    0.09210    0.18460    1.000
    O12      O        0.12790    0.04660    0.95360    1.000
    O13      O        0.63220    0.44510    0.00470    1.000
    O14      O        0.86540    0.59370    0.13890    1.000
    O15      O        0.45450    0.40820    0.06520    1.000
    O16      O        0.55090    0.60070    0.53150    1.000
    O17      O        0.86700    0.59210    0.31540    1.000
    O18      O        0.37210    0.54660    0.54640    1.000
    O19      O        0.36780    0.05490    0.50470    1.000
    O20      O        0.13460    0.90630    0.63890    1.000
    O21      O        0.54550    0.09180    0.56520    1.000
    O22      O        0.44910    0.89930    0.03150    1.000
    O23      O        0.13300    0.90790    0.81540    1.000
    O24      O        0.62790    0.95340    0.04640    1.000
    O25      O        0.86780    0.44510    0.00470    1.000
    O26      O        0.63460    0.59370    0.13890    1.000
    O27      O        0.04550    0.40820    0.06520    1.000
    O28      O        0.94910    0.60070    0.53150    1.000
    O29      O        0.63300    0.59210    0.31540    1.000
    O30      O        0.12790    0.54660    0.54640    1.000
    O31      O        0.13220    0.05490    0.50470    1.000
    O32      O        0.36540    0.90630    0.63890    1.000
    O33      O        0.95450    0.09180    0.56520    1.000
    O34      O        0.05090    0.89930    0.03150    1.000
    O35      O        0.36700    0.90790    0.81540    1.000
    O36      O        0.87210    0.95340    0.04640    1.000
    O37      O        0.36780    0.55490    0.99530    1.000
    O38      O        0.13460    0.40630    0.86110    1.000
    O39      O        0.54550    0.59180    0.93480    1.000
    O40      O        0.44910    0.39930    0.46850    1.000
    O41      O        0.13300    0.40790    0.68460    1.000
    O42      O        0.62790    0.45340    0.45360    1.000
    O43      O        0.63220    0.94510    0.49530    1.000
    O44      O        0.86540    0.09370    0.36110    1.000
    O45      O        0.45450    0.90820    0.43480    1.000
    O46      O        0.55090    0.10070    0.96850    1.000
    O47      O        0.86700    0.09210    0.18460    1.000
    O48      O        0.37210    0.04660    0.95360    1.000
    O49      O        0.25000    0.50840    0.36050    1.000
    O50      O        0.25000    0.33820    0.35680    1.000
    O51      O        0.25000    0.34220    0.18150    1.000
    O52      O        0.25000    0.51010    0.18450    1.000
    O53      O        0.25000    0.26720    0.55670    1.000
    O54      O        0.75000    0.99160    0.86050    1.000
    O55      O        0.75000    0.16180    0.85680    1.000
    O56      O        0.75000    0.15780    0.68150    1.000
    O57      O        0.75000    0.98990    0.68450    1.000
    O58      O        0.75000    0.23280    0.05670    1.000
    O59      O        0.75000    0.49160    0.63950    1.000
    O60      O        0.75000    0.66180    0.64320    1.000
    O61      O        0.75000    0.65780    0.81850    1.000
    O62      O        0.75000    0.48990    0.81550    1.000
    O63      O        0.75000    0.73280    0.44330    1.000
    O64      O        0.25000    0.00840    0.13950    1.000
    O65      O        0.25000    0.83820    0.14320    1.000
    O66      O        0.25000    0.84220    0.31850    1.000
    O67      O        0.25000    0.01010    0.31550    1.000
    O68      O        0.25000    0.76720    0.94330    1.000
