# CIF file generated by openbabel 3.1.0, see https://openbabel.org
data_I
_chemical_name_common 'image0'
_cell_length_a 24.542
_cell_length_b 12.641
_cell_length_c 15.446
_cell_angle_alpha 90
_cell_angle_beta 90
_cell_angle_gamma 90
_space_group_name_H-M_alt 'P 1'
_space_group_name_Hall 'P 1'
loop_
    _symmetry_equiv_pos_as_xyz
    x,y,z
loop_
    _atom_site_label
    _atom_site_type_symbol
    _atom_site_fract_x
    _atom_site_fract_y
    _atom_site_fract_z
    _atom_site_occupancy
    C1       C        0.62560    0.53540    0.02630    1.000
    H1       H        0.61280    0.51720    0.97170    1.000
    C2       C        0.59080    0.57570    0.08650    1.000
    H2       H        0.55420    0.58540    0.07320    1.000
    C3       C        0.61060    0.60220    0.16810    1.000
    H3       H        0.58710    0.63090    0.20910    1.000
    C4       C        0.66410    0.58680    0.18890    1.000
    C5       C        0.69850    0.54560    0.12630    1.000
    C6       C        0.75770    0.52420    0.13920    1.000
    C7       C        0.80060    0.58840    0.11280    1.000
    C8       C        0.85290    0.55740    0.13010    1.000
    H4       H        0.88220    0.59900    0.11230    1.000
    C9       C        0.86210    0.46240    0.17490    1.000
    H5       H        0.89740    0.44240    0.18930    1.000
    C10      C        0.81960    0.40000    0.19710    1.000
    H6       H        0.82580    0.33560    0.22440    1.000
    C11      C        0.68520    0.61800    0.27750    1.000
    C12      C        0.78800    0.68720    0.06040    1.000
    C13      C        0.84300    0.52290    0.41120    1.000
    H7       H        0.81720    0.47660    0.38840    1.000
    C14      C        0.89620    0.49030    0.41220    1.000
    H8       H        0.90580    0.42520    0.38870    1.000
    C15      C        0.93490    0.55410    0.44790    1.000
    C16      C        0.91790    0.65210    0.47860    1.000
    H9       H        0.94290    0.69990    0.50110    1.000
    C17      C        0.86300    0.67720    0.47530    1.000
    H10      H        0.85180    0.74120    0.49910    1.000
    C18      C        0.99360    0.52350    0.45460    1.000
    H11      H        0.01620    0.58520    0.44470    1.000
    H12      H        0.00210    0.47160    0.41040    1.000
    Cd1      Cd       0.73548    0.67365    0.43249    1.000
    N1       N        0.82540    0.61510    0.44010    1.000
    N2       N        0.76790    0.43100    0.17980    1.000
    N3       N        0.67800    0.52220    0.04570    1.000
    O1       O        0.73300    0.59210    0.29640    1.000
    O2       O        0.65580    0.66870    0.32650    1.000
    O3       O        0.82731    0.73070    0.02050    1.000
    O4       O        0.73989    0.71850    0.05510    1.000
    O5       O        0.71210    0.49270    0.98430    1.000
    O6       O        0.72660    0.37090    0.20370    1.000
    C19      C        0.87440    0.96460    0.52630    1.000
    H13      H        0.88720    0.98280    0.47170    1.000
    C20      C        0.90920    0.92430    0.58650    1.000
    H14      H        0.94580    0.91460    0.57320    1.000
    C21      C        0.88940    0.89780    0.66810    1.000
    H15      H        0.91290    0.86910    0.70910    1.000
    C22      C        0.83590    0.91320    0.68890    1.000
    C23      C        0.80150    0.95440    0.62630    1.000
    C24      C        0.74230    0.97580    0.63920    1.000
    C25      C        0.69940    0.91160    0.61280    1.000
    C26      C        0.64710    0.94260    0.63010    1.000
    H16      H        0.61780    0.90100    0.61230    1.000
    C27      C        0.63790    0.03760    0.67490    1.000
    H17      H        0.60260    0.05760    0.68930    1.000
    C28      C        0.68040    0.10000    0.69710    1.000
    H18      H        0.67420    0.16440    0.72440    1.000
    C29      C        0.81480    0.88200    0.77750    1.000
    C30      C        0.71200    0.81280    0.56040    1.000
    C31      C        0.65700    0.97710    0.91120    1.000
    H19      H        0.68280    0.02340    0.88840    1.000
    C32      C        0.60380    0.00970    0.91220    1.000
    H20      H        0.59420    0.07480    0.88870    1.000
    C33      C        0.56510    0.94590    0.94790    1.000
    C34      C        0.58210    0.84790    0.97860    1.000
    H21      H        0.55710    0.80010    0.00110    1.000
    C35      C        0.63700    0.82280    0.97530    1.000
    H22      H        0.64820    0.75880    0.99910    1.000
    C36      C        0.50640    0.97650    0.95460    1.000
    H23      H        0.48380    0.91480    0.94470    1.000
    H24      H        0.49790    0.02840    0.91040    1.000
    Cd2      Cd       0.76452    0.82635    0.93249    1.000
    N4       N        0.67460    0.88490    0.94010    1.000
    N5       N        0.73210    0.06900    0.67980    1.000
    N6       N        0.82200    0.97780    0.54570    1.000
    O7       O        0.76700    0.90790    0.79640    1.000
    O8       O        0.84420    0.83130    0.82650    1.000
    O9       O        0.67269    0.76930    0.52050    1.000
    O10      O        0.76011    0.78150    0.55510    1.000
    O11      O        0.78790    0.00730    0.48430    1.000
    O12      O        0.77340    0.12910    0.70370    1.000
    C37      C        0.37440    0.53540    0.47370    1.000
    H25      H        0.38720    0.51720    0.52830    1.000
    C38      C        0.40920    0.57570    0.41350    1.000
    H26      H        0.44580    0.58540    0.42680    1.000
    C39      C        0.38940    0.60220    0.33190    1.000
    H27      H        0.41290    0.63090    0.29090    1.000
    C40      C        0.33590    0.58680    0.31110    1.000
    C41      C        0.30150    0.54560    0.37370    1.000
    C42      C        0.24230    0.52420    0.36080    1.000
    C43      C        0.19940    0.58840    0.38720    1.000
    C44      C        0.14710    0.55740    0.36990    1.000
    H28      H        0.11780    0.59900    0.38770    1.000
    C45      C        0.13790    0.46240    0.32510    1.000
    H29      H        0.10260    0.44240    0.31070    1.000
    C46      C        0.18040    0.40000    0.30290    1.000
    H30      H        0.17420    0.33560    0.27560    1.000
    C47      C        0.31480    0.61800    0.22250    1.000
    C48      C        0.21200    0.68720    0.43960    1.000
    C49      C        0.15700    0.52290    0.08880    1.000
    H31      H        0.18280    0.47660    0.11160    1.000
    C50      C        0.10380    0.49030    0.08780    1.000
    H32      H        0.09420    0.42520    0.11130    1.000
    C51      C        0.06510    0.55410    0.05210    1.000
    C52      C        0.08210    0.65210    0.02140    1.000
    H33      H        0.05710    0.69990    0.99890    1.000
    C53      C        0.13700    0.67720    0.02470    1.000
    H34      H        0.14820    0.74120    0.00090    1.000
    C54      C        0.00640    0.52350    0.04540    1.000
    H35      H        0.98380    0.58520    0.05530    1.000
    H36      H        0.99790    0.47160    0.08960    1.000
    Cd3      Cd       0.26452    0.67365    0.06751    1.000
    N7       N        0.17460    0.61510    0.05990    1.000
    N8       N        0.23210    0.43100    0.32020    1.000
    N9       N        0.32200    0.52220    0.45430    1.000
    O13      O        0.26700    0.59210    0.20360    1.000
    O14      O        0.34420    0.66870    0.17350    1.000
    O15      O        0.17269    0.73070    0.47950    1.000
    O16      O        0.26011    0.71850    0.44490    1.000
    O17      O        0.28790    0.49270    0.51570    1.000
    O18      O        0.27340    0.37090    0.29630    1.000
    C55      C        0.12560    0.96460    0.97370    1.000
    H37      H        0.11280    0.98280    0.02830    1.000
    C56      C        0.09080    0.92430    0.91350    1.000
    H38      H        0.05420    0.91460    0.92680    1.000
    C57      C        0.11060    0.89780    0.83190    1.000
    H39      H        0.08710    0.86910    0.79090    1.000
    C58      C        0.16410    0.91320    0.81110    1.000
    C59      C        0.19850    0.95440    0.87370    1.000
    C60      C        0.25770    0.97580    0.86080    1.000
    C61      C        0.30060    0.91160    0.88720    1.000
    C62      C        0.35290    0.94260    0.86990    1.000
    H40      H        0.38220    0.90100    0.88770    1.000
    C63      C        0.36210    0.03760    0.82510    1.000
    H41      H        0.39740    0.05760    0.81070    1.000
    C64      C        0.31960    0.10000    0.80290    1.000
    H42      H        0.32580    0.16440    0.77560    1.000
    C65      C        0.18520    0.88200    0.72250    1.000
    C66      C        0.28800    0.81280    0.93960    1.000
    C67      C        0.34300    0.97710    0.58880    1.000
    H43      H        0.31720    0.02340    0.61160    1.000
    C68      C        0.39620    0.00970    0.58780    1.000
    H44      H        0.40580    0.07480    0.61130    1.000
    C69      C        0.43490    0.94590    0.55210    1.000
    C70      C        0.41790    0.84790    0.52140    1.000
    H45      H        0.44290    0.80010    0.49890    1.000
    C71      C        0.36300    0.82280    0.52470    1.000
    H46      H        0.35180    0.75880    0.50090    1.000
    C72      C        0.49360    0.97650    0.54540    1.000
    H47      H        0.51620    0.91480    0.55530    1.000
    H48      H        0.50210    0.02840    0.58960    1.000
    Cd4      Cd       0.23548    0.82635    0.56751    1.000
    N10      N        0.32540    0.88490    0.55990    1.000
    N11      N        0.26790    0.06900    0.82020    1.000
    N12      N        0.17800    0.97780    0.95430    1.000
    O19      O        0.23300    0.90790    0.70360    1.000
    O20      O        0.15580    0.83130    0.67350    1.000
    O21      O        0.32731    0.76930    0.97950    1.000
    O22      O        0.23989    0.78150    0.94490    1.000
    O23      O        0.21210    0.00730    0.01570    1.000
    O24      O        0.22660    0.12910    0.79630    1.000
    C73      C        0.37440    0.46460    0.97370    1.000
    H49      H        0.38720    0.48280    0.02830    1.000
    C74      C        0.40920    0.42430    0.91350    1.000
    H50      H        0.44580    0.41460    0.92680    1.000
    C75      C        0.38940    0.39780    0.83190    1.000
    H51      H        0.41290    0.36910    0.79090    1.000
    C76      C        0.33590    0.41320    0.81110    1.000
    C77      C        0.30150    0.45440    0.87370    1.000
    C78      C        0.24230    0.47580    0.86080    1.000
    C79      C        0.19940    0.41160    0.88720    1.000
    C80      C        0.14710    0.44260    0.86990    1.000
    H52      H        0.11780    0.40100    0.88770    1.000
    C81      C        0.13790    0.53760    0.82510    1.000
    H53      H        0.10260    0.55760    0.81070    1.000
    C82      C        0.18040    0.60000    0.80290    1.000
    H54      H        0.17420    0.66440    0.77560    1.000
    C83      C        0.31480    0.38200    0.72250    1.000
    C84      C        0.21200    0.31280    0.93960    1.000
    C85      C        0.15700    0.47710    0.58880    1.000
    H55      H        0.18280    0.52340    0.61160    1.000
    C86      C        0.10380    0.50970    0.58780    1.000
    H56      H        0.09420    0.57480    0.61130    1.000
    C87      C        0.06510    0.44590    0.55210    1.000
    C88      C        0.08210    0.34790    0.52140    1.000
    H57      H        0.05710    0.30010    0.49890    1.000
    C89      C        0.13700    0.32280    0.52470    1.000
    H58      H        0.14820    0.25880    0.50090    1.000
    C90      C        0.00640    0.47650    0.54540    1.000
    H59      H        0.98380    0.41480    0.55530    1.000
    H60      H        0.99790    0.52840    0.58960    1.000
    Cd5      Cd       0.26452    0.32635    0.56751    1.000
    N13      N        0.17460    0.38490    0.55990    1.000
    N14      N        0.23210    0.56900    0.82020    1.000
    N15      N        0.32200    0.47780    0.95430    1.000
    O25      O        0.26700    0.40790    0.70360    1.000
    O26      O        0.34420    0.33130    0.67350    1.000
    O27      O        0.17269    0.26930    0.97950    1.000
    O28      O        0.26011    0.28150    0.94490    1.000
    O29      O        0.28790    0.50730    0.01570    1.000
    O30      O        0.27340    0.62910    0.79630    1.000
    C91      C        0.12560    0.03540    0.47370    1.000
    H61      H        0.11280    0.01720    0.52830    1.000
    C92      C        0.09080    0.07570    0.41350    1.000
    H62      H        0.05420    0.08540    0.42680    1.000
    C93      C        0.11060    0.10220    0.33190    1.000
    H63      H        0.08710    0.13090    0.29090    1.000
    C94      C        0.16410    0.08680    0.31110    1.000
    C95      C        0.19850    0.04560    0.37370    1.000
    C96      C        0.25770    0.02420    0.36080    1.000
    C97      C        0.30060    0.08840    0.38720    1.000
    C98      C        0.35290    0.05740    0.36990    1.000
    H64      H        0.38220    0.09900    0.38770    1.000
    C99      C        0.36210    0.96240    0.32510    1.000
    H65      H        0.39740    0.94240    0.31070    1.000
    C100     C        0.31960    0.90000    0.30290    1.000
    H66      H        0.32580    0.83560    0.27560    1.000
    C101     C        0.18520    0.11800    0.22250    1.000
    C102     C        0.28800    0.18720    0.43960    1.000
    C103     C        0.34300    0.02290    0.08880    1.000
    H67      H        0.31720    0.97660    0.11160    1.000
    C104     C        0.39620    0.99030    0.08780    1.000
    H68      H        0.40580    0.92520    0.11130    1.000
    C105     C        0.43490    0.05410    0.05210    1.000
    C106     C        0.41790    0.15210    0.02140    1.000
    H69      H        0.44290    0.19990    0.99890    1.000
    C107     C        0.36300    0.17720    0.02470    1.000
    H70      H        0.35180    0.24120    0.00090    1.000
    C108     C        0.49360    0.02350    0.04540    1.000
    H71      H        0.51620    0.08520    0.05530    1.000
    H72      H        0.50210    0.97160    0.08960    1.000
    Cd6      Cd       0.23548    0.17365    0.06751    1.000
    N16      N        0.32540    0.11510    0.05990    1.000
    N17      N        0.26790    0.93100    0.32020    1.000
    N18      N        0.17800    0.02220    0.45430    1.000
    O31      O        0.23300    0.09210    0.20360    1.000
    O32      O        0.15580    0.16870    0.17350    1.000
    O33      O        0.32731    0.23070    0.47950    1.000
    O34      O        0.23989    0.21850    0.44490    1.000
    O35      O        0.21210    0.99270    0.51570    1.000
    O36      O        0.22660    0.87090    0.29630    1.000
    C109     C        0.62560    0.46460    0.52630    1.000
    H73      H        0.61280    0.48280    0.47170    1.000
    C110     C        0.59080    0.42430    0.58650    1.000
    H74      H        0.55420    0.41460    0.57320    1.000
    C111     C        0.61060    0.39780    0.66810    1.000
    H75      H        0.58710    0.36910    0.70910    1.000
    C112     C        0.66410    0.41320    0.68890    1.000
    C113     C        0.69850    0.45440    0.62630    1.000
    C114     C        0.75770    0.47580    0.63920    1.000
    C115     C        0.80060    0.41160    0.61280    1.000
    C116     C        0.85290    0.44260    0.63010    1.000
    H76      H        0.88220    0.40100    0.61230    1.000
    C117     C        0.86210    0.53760    0.67490    1.000
    H77      H        0.89740    0.55760    0.68930    1.000
    C118     C        0.81960    0.60000    0.69710    1.000
    H78      H        0.82580    0.66440    0.72440    1.000
    C119     C        0.68520    0.38200    0.77750    1.000
    C120     C        0.78800    0.31280    0.56040    1.000
    C121     C        0.84300    0.47710    0.91120    1.000
    H79      H        0.81720    0.52340    0.88840    1.000
    C122     C        0.89620    0.50970    0.91220    1.000
    H80      H        0.90580    0.57480    0.88870    1.000
    C123     C        0.93490    0.44590    0.94790    1.000
    C124     C        0.91790    0.34790    0.97860    1.000
    H81      H        0.94290    0.30010    0.00110    1.000
    C125     C        0.86300    0.32280    0.97530    1.000
    H82      H        0.85180    0.25880    0.99910    1.000
    C126     C        0.99360    0.47650    0.95460    1.000
    H83      H        0.01620    0.41480    0.94470    1.000
    H84      H        0.00210    0.52840    0.91040    1.000
    Cd7      Cd       0.73548    0.32635    0.93249    1.000
    N19      N        0.82540    0.38490    0.94010    1.000
    N20      N        0.76790    0.56900    0.67980    1.000
    N21      N        0.67800    0.47780    0.54570    1.000
    O37      O        0.73300    0.40790    0.79640    1.000
    O38      O        0.65580    0.33130    0.82650    1.000
    O39      O        0.82731    0.26930    0.52050    1.000
    O40      O        0.73989    0.28150    0.55510    1.000
    O41      O        0.71210    0.50730    0.48430    1.000
    O42      O        0.72660    0.62910    0.70370    1.000
    C127     C        0.87440    0.03540    0.02630    1.000
    H85      H        0.88720    0.01720    0.97170    1.000
    C128     C        0.90920    0.07570    0.08650    1.000
    H86      H        0.94580    0.08540    0.07320    1.000
    C129     C        0.88940    0.10220    0.16810    1.000
    H87      H        0.91290    0.13090    0.20910    1.000
    C130     C        0.83590    0.08680    0.18890    1.000
    C131     C        0.80150    0.04560    0.12630    1.000
    C132     C        0.74230    0.02420    0.13920    1.000
    C133     C        0.69940    0.08840    0.11280    1.000
    C134     C        0.64710    0.05740    0.13010    1.000
    H88      H        0.61780    0.09900    0.11230    1.000
    C135     C        0.63790    0.96240    0.17490    1.000
    H89      H        0.60260    0.94240    0.18930    1.000
    C136     C        0.68040    0.90000    0.19710    1.000
    H90      H        0.67420    0.83560    0.22440    1.000
    C137     C        0.81480    0.11800    0.27750    1.000
    C138     C        0.71200    0.18720    0.06040    1.000
    C139     C        0.65700    0.02290    0.41120    1.000
    H91      H        0.68280    0.97660    0.38840    1.000
    C140     C        0.60380    0.99030    0.41220    1.000
    H92      H        0.59420    0.92520    0.38870    1.000
    C141     C        0.56510    0.05410    0.44790    1.000
    C142     C        0.58210    0.15210    0.47860    1.000
    H93      H        0.55710    0.19990    0.50110    1.000
    C143     C        0.63700    0.17720    0.47530    1.000
    H94      H        0.64820    0.24120    0.49910    1.000
    C144     C        0.50640    0.02350    0.45460    1.000
    H95      H        0.48380    0.08520    0.44470    1.000
    H96      H        0.49790    0.97160    0.41040    1.000
    Cd8      Cd       0.76452    0.17365    0.43249    1.000
    N22      N        0.67460    0.11510    0.44010    1.000
    N23      N        0.73210    0.93100    0.17980    1.000
    N24      N        0.82200    0.02220    0.04570    1.000
    O43      O        0.76700    0.09210    0.29640    1.000
    O44      O        0.84420    0.16870    0.32650    1.000
    O45      O        0.67269    0.23070    0.02050    1.000
    O46      O        0.76011    0.21850    0.05510    1.000
    O47      O        0.78790    0.99270    0.98430    1.000
    O48      O        0.77340    0.87090    0.20370    1.000
