data_functionalizedCrystal
_audit_creation_method	'EQeq! by Chris Wilmer'
_symmetry_space_group_name_H-M	'P1'
_symmetry_Int_Tables_number	1
_symmetry_cell_setting	triclinic
loop_
_symmetry_equiv_pos_as_xyz
  x,y,z
_cell_length_a	6.4505
_cell_length_b	6.4505
_cell_length_c	6.4505
_cell_angle_alpha	90
_cell_angle_beta	90
_cell_angle_gamma	90
loop_
_atom_site_label
_atom_site_type_symbol
_atom_site_fract_x
_atom_site_fract_y
_atom_site_fract_z
_atom_site_charge
Mof_Mn	Mn	-0	0	-0	0.73
Mof_N 	N 	0.5	0	-0	-0.017
Mof_N 	N 	5.87828e-33	0.5	-0	-0.017
Mof_N 	N 	7.75298e-33	5.87828e-33	0.5	-0.018
Mof_N 	N 	0.3353	0	0.0706	-0.07
Mof_N 	N 	0.6647	0	0.0706	-0.066
Mof_N 	N 	0.6647	0	0.9294	0.011
Mof_N 	N 	0.3353	0	0.9294	0.012
Mof_N 	N 	0.0706	0.3353	-0	-0.07
Mof_N 	N 	0.0706	0.6647	-0	-0.066
Mof_N 	N 	0.9294	0.6647	-0	0.011
Mof_N 	N 	0.9294	0.3353	-0	0.012
Mof_N 	N 	-1.68197e-33	0.0706	0.3353	-0.07
Mof_N 	N 	-3.38605e-33	0.0706	0.6647	-0.066
Mof_N 	N 	2.01271e-32	0.9294	0.6647	0.011
Mof_N 	N 	-4.62111e-33	0.9294	0.3353	0.012
Mof_N 	N 	-8.27187e-33	0.3353	0.9294	0.012
Mof_N 	N 	2.69978e-32	0.6647	0.9294	0.011
Mof_N 	N 	-1.93965e-33	0.6647	0.0706	-0.066
Mof_N 	N 	-1.93965e-33	0.3353	0.0706	-0.07
Mof_N 	N 	0.3353	0.0706	-0	-0.07
Mof_N 	N 	0.6647	0.0706	-0	-0.066
Mof_N 	N 	0.6647	0.9294	-0	0.011
Mof_N 	N 	0.3353	0.9294	-0	0.012
Mof_N 	N 	0.0706	0	0.6647	-0.066
Mof_N 	N 	0.0706	-2.93914e-33	0.3353	-0.07
Mof_N 	N 	0.9294	-2.93914e-33	0.3353	0.012
Mof_N 	N 	0.9294	0	0.6647	0.011
_end
