# CIF file generated by openbabel 3.1.0, see https://openbabel.org
data_I
_chemical_name_common 'image0'
_cell_length_a 15.44
_cell_length_b 15.44
_cell_length_c 10.021
_cell_angle_alpha 90
_cell_angle_beta 90
_cell_angle_gamma 90
_space_group_name_H-M_alt 'P 1'
_space_group_name_Hall 'P 1'
loop_
    _symmetry_equiv_pos_as_xyz
    x,y,z
loop_
    _atom_site_label
    _atom_site_type_symbol
    _atom_site_fract_x
    _atom_site_fract_y
    _atom_site_fract_z
    _atom_site_occupancy
    O1       O        0.53163    0.63300    0.11790    1.000
    C1       C        0.38640    0.75820    0.88100    1.000
    H1       H        0.41140    0.74160    0.80040    1.000
    C2       C        0.31010    0.80630    0.88310    1.000
    H2       H        0.28460    0.82200    0.80260    1.000
    O2       O        0.46837    0.36700    0.11790    1.000
    C3       C        0.61360    0.24180    0.88100    1.000
    H3       H        0.58860    0.25840    0.80040    1.000
    C4       C        0.68990    0.19370    0.88310    1.000
    H4       H        0.71540    0.17800    0.80260    1.000
    O3       O        0.36700    0.53163    0.11790    1.000
    C5       C        0.24180    0.38640    0.88100    1.000
    H5       H        0.25840    0.41140    0.80040    1.000
    C6       C        0.19370    0.31010    0.88310    1.000
    H6       H        0.17800    0.28460    0.80260    1.000
    O4       O        0.63300    0.46837    0.11790    1.000
    C7       C        0.75820    0.61360    0.88100    1.000
    H7       H        0.74160    0.58860    0.80040    1.000
    C8       C        0.80630    0.68990    0.88310    1.000
    H8       H        0.82200    0.71540    0.80260    1.000
    O5       O        0.46837    0.63300    0.38210    1.000
    C9       C        0.61360    0.75820    0.61900    1.000
    H9       H        0.58860    0.74160    0.69960    1.000
    C10      C        0.68990    0.80630    0.61690    1.000
    H10      H        0.71540    0.82200    0.69740    1.000
    O6       O        0.53163    0.36700    0.38210    1.000
    C11      C        0.38640    0.24180    0.61900    1.000
    H11      H        0.41140    0.25840    0.69960    1.000
    C12      C        0.31010    0.19370    0.61690    1.000
    H12      H        0.28460    0.17800    0.69740    1.000
    O7       O        0.63300    0.53163    0.38210    1.000
    C13      C        0.75820    0.38640    0.61900    1.000
    H13      H        0.74160    0.41140    0.69960    1.000
    C14      C        0.80630    0.31010    0.61690    1.000
    H14      H        0.82200    0.28460    0.69740    1.000
    O8       O        0.36700    0.46837    0.38210    1.000
    C15      C        0.24180    0.61360    0.61900    1.000
    H15      H        0.25840    0.58860    0.69960    1.000
    C16      C        0.19370    0.68990    0.61690    1.000
    H16      H        0.17800    0.71540    0.69740    1.000
    O9       O        0.46837    0.36700    0.88210    1.000
    C17      C        0.61360    0.24180    0.11900    1.000
    H17      H        0.58860    0.25840    0.19960    1.000
    C18      C        0.68990    0.19370    0.11690    1.000
    H18      H        0.71540    0.17800    0.19740    1.000
    O10      O        0.53163    0.63300    0.88210    1.000
    C19      C        0.38640    0.75820    0.11900    1.000
    H19      H        0.41140    0.74160    0.19960    1.000
    C20      C        0.31010    0.80630    0.11690    1.000
    H20      H        0.28460    0.82200    0.19740    1.000
    O11      O        0.63300    0.46837    0.88210    1.000
    C21      C        0.75820    0.61360    0.11900    1.000
    H21      H        0.74160    0.58860    0.19960    1.000
    C22      C        0.80630    0.68990    0.11690    1.000
    H22      H        0.82200    0.71540    0.19740    1.000
    O12      O        0.36700    0.53163    0.88210    1.000
    C23      C        0.24180    0.38640    0.11900    1.000
    H23      H        0.25840    0.41140    0.19960    1.000
    C24      C        0.19370    0.31010    0.11690    1.000
    H24      H        0.17800    0.28460    0.19740    1.000
    O13      O        0.53163    0.36700    0.61790    1.000
    C25      C        0.38640    0.24180    0.38100    1.000
    H25      H        0.41140    0.25840    0.30040    1.000
    C26      C        0.31010    0.19370    0.38310    1.000
    H26      H        0.28460    0.17800    0.30260    1.000
    O14      O        0.46837    0.63300    0.61790    1.000
    C27      C        0.61360    0.75820    0.38100    1.000
    H27      H        0.58860    0.74160    0.30040    1.000
    C28      C        0.68990    0.80630    0.38310    1.000
    H28      H        0.71540    0.82200    0.30260    1.000
    O15      O        0.36700    0.46837    0.61790    1.000
    C29      C        0.24180    0.61360    0.38100    1.000
    H29      H        0.25840    0.58860    0.30040    1.000
    C30      C        0.19370    0.68990    0.38310    1.000
    H30      H        0.17800    0.71540    0.30260    1.000
    O16      O        0.63300    0.53163    0.61790    1.000
    C31      C        0.75820    0.38640    0.38100    1.000
    H31      H        0.74160    0.41140    0.30040    1.000
    C32      C        0.80630    0.31010    0.38310    1.000
    H32      H        0.82200    0.28460    0.30260    1.000
    La1      La       0.50000    0.50000    0.25000    1.000
    La2      La       0.50000    0.50000    0.75000    1.000
    S1       S        0.52633    0.68505    0.00000    1.000
    N1       N        0.12900    0.03050    0.00000    1.000
    O17      O        0.58815    0.75351    0.00000    1.000
    C33      C        0.42410    0.73590    0.00000    1.000
    C34      C        0.27120    0.83110    0.00000    1.000
    C35      C        0.18980    0.88190    0.00000    1.000
    C36      C        0.19730    0.97190    0.00000    1.000
    C37      C        0.27570    0.02030    0.00000    1.000
    H33      H        0.33130    0.99710    0.00000    1.000
    C38      C        0.25620    0.10490    0.00000    1.000
    H34      H        0.29570    0.15040    0.00000    1.000
    C39      C        0.16520    0.11260    0.00000    1.000
    S2       S        0.47367    0.31495    0.00000    1.000
    N2       N        0.87100    0.96950    0.00000    1.000
    O18      O        0.41185    0.24649    0.00000    1.000
    C40      C        0.57590    0.26410    0.00000    1.000
    C41      C        0.72880    0.16890    0.00000    1.000
    C42      C        0.81020    0.11810    0.00000    1.000
    C43      C        0.80270    0.02810    0.00000    1.000
    C44      C        0.72430    0.97970    0.00000    1.000
    H35      H        0.66870    0.00290    0.00000    1.000
    C45      C        0.74380    0.89510    0.00000    1.000
    H36      H        0.70430    0.84960    0.00000    1.000
    C46      C        0.83480    0.88740    0.00000    1.000
    S3       S        0.31495    0.52633    0.00000    1.000
    N3       N        0.96950    0.12900    0.00000    1.000
    O19      O        0.24649    0.58815    0.00000    1.000
    C47      C        0.26410    0.42410    0.00000    1.000
    C48      C        0.16890    0.27120    0.00000    1.000
    C49      C        0.11810    0.18980    0.00000    1.000
    C50      C        0.02810    0.19730    0.00000    1.000
    C51      C        0.97970    0.27570    0.00000    1.000
    H37      H        0.00290    0.33130    0.00000    1.000
    C52      C        0.89510    0.25620    0.00000    1.000
    H38      H        0.84960    0.29570    0.00000    1.000
    C53      C        0.88740    0.16520    0.00000    1.000
    S4       S        0.68505    0.47367    0.00000    1.000
    N4       N        0.03050    0.87100    0.00000    1.000
    O20      O        0.75351    0.41185    0.00000    1.000
    C54      C        0.73590    0.57590    0.00000    1.000
    C55      C        0.83110    0.72880    0.00000    1.000
    C56      C        0.88190    0.81020    0.00000    1.000
    C57      C        0.97190    0.80270    0.00000    1.000
    C58      C        0.02030    0.72430    0.00000    1.000
    H39      H        0.99710    0.66870    0.00000    1.000
    C59      C        0.10490    0.74380    0.00000    1.000
    H40      H        0.15040    0.70430    0.00000    1.000
    C60      C        0.11260    0.83480    0.00000    1.000
    S5       S        0.47367    0.68505    0.50000    1.000
    N5       N        0.87100    0.03050    0.50000    1.000
    O21      O        0.41185    0.75351    0.50000    1.000
    C61      C        0.57590    0.73590    0.50000    1.000
    C62      C        0.72880    0.83110    0.50000    1.000
    C63      C        0.81020    0.88190    0.50000    1.000
    C64      C        0.80270    0.97190    0.50000    1.000
    C65      C        0.72430    0.02030    0.50000    1.000
    H41      H        0.66870    0.99710    0.50000    1.000
    C66      C        0.74380    0.10490    0.50000    1.000
    H42      H        0.70430    0.15040    0.50000    1.000
    C67      C        0.83480    0.11260    0.50000    1.000
    S6       S        0.52633    0.31495    0.50000    1.000
    N6       N        0.12900    0.96950    0.50000    1.000
    O22      O        0.58815    0.24649    0.50000    1.000
    C68      C        0.42410    0.26410    0.50000    1.000
    C69      C        0.27120    0.16890    0.50000    1.000
    C70      C        0.18980    0.11810    0.50000    1.000
    C71      C        0.19730    0.02810    0.50000    1.000
    C72      C        0.27570    0.97970    0.50000    1.000
    H43      H        0.33130    0.00290    0.50000    1.000
    C73      C        0.25620    0.89510    0.50000    1.000
    H44      H        0.29570    0.84960    0.50000    1.000
    C74      C        0.16520    0.88740    0.50000    1.000
    S7       S        0.68505    0.52633    0.50000    1.000
    N7       N        0.03050    0.12900    0.50000    1.000
    O23      O        0.75351    0.58815    0.50000    1.000
    C75      C        0.73590    0.42410    0.50000    1.000
    C76      C        0.83110    0.27120    0.50000    1.000
    C77      C        0.88190    0.18980    0.50000    1.000
    C78      C        0.97190    0.19730    0.50000    1.000
    C79      C        0.02030    0.27570    0.50000    1.000
    H45      H        0.99710    0.33130    0.50000    1.000
    C80      C        0.10490    0.25620    0.50000    1.000
    H46      H        0.15040    0.29570    0.50000    1.000
    C81      C        0.11260    0.16520    0.50000    1.000
    S8       S        0.31495    0.47367    0.50000    1.000
    N8       N        0.96950    0.87100    0.50000    1.000
    O24      O        0.24649    0.41185    0.50000    1.000
    C82      C        0.26410    0.57590    0.50000    1.000
    C83      C        0.16890    0.72880    0.50000    1.000
    C84      C        0.11810    0.81020    0.50000    1.000
    C85      C        0.02810    0.80270    0.50000    1.000
    C86      C        0.97970    0.72430    0.50000    1.000
    H47      H        0.00290    0.66870    0.50000    1.000
    C87      C        0.89510    0.74380    0.50000    1.000
    H48      H        0.84960    0.70430    0.50000    1.000
    C88      C        0.88740    0.83480    0.50000    1.000
