# CIF file generated by openbabel 3.1.0, see https://openbabel.org
data_I
_chemical_name_common 'image0'
_cell_length_a 23.4092
_cell_length_b 13.3865
_cell_length_c 25.2954
_cell_angle_alpha 90
_cell_angle_beta 114.823
_cell_angle_gamma 90
_space_group_name_H-M_alt 'P 1'
_space_group_name_Hall 'P 1'
loop_
    _symmetry_equiv_pos_as_xyz
    x,y,z
loop_
    _atom_site_label
    _atom_site_type_symbol
    _atom_site_fract_x
    _atom_site_fract_y
    _atom_site_fract_z
    _atom_site_occupancy
    Ni1      Ni       0.87948    0.35182    0.45001    1.000
    N1       N        0.98518    0.91100    0.80193    1.000
    N2       N        0.94208    0.04160    0.82405    1.000
    N3       N        0.66513    0.19551    0.63608    1.000
    N4       N        0.73734    0.20140    0.72337    1.000
    N5       N        0.90927    0.51507    0.92363    1.000
    N6       N        0.90580    0.37700    0.87763    1.000
    O1       O        0.90215    0.78762    0.69544    1.000
    O2       O        0.97176    0.69353    0.68322    1.000
    O3       O        0.46366    0.78968    0.46587    1.000
    O4       O        0.45564    0.64261    0.50309    1.000
    O5       O        0.80590    0.43873    0.45960    1.000
    O6       O        0.89846    0.41631    0.53182    1.000
    C1       C        0.92319    0.20820    0.85180    1.000
    H1       H        0.96470    0.21080    0.87940    1.000
    C2       C        0.90083    0.12420    0.81716    1.000
    C3       C        0.83882    0.11880    0.77543    1.000
    H2       H        0.82380    0.06210    0.75240    1.000
    C4       C        0.80010    0.20100    0.76930    1.000
    C5       C        0.82099    0.28450    0.80338    1.000
    H3       H        0.79410    0.33810    0.79890    1.000
    C6       C        0.88333    0.28790    0.84497    1.000
    C7       C        0.94102    0.97900    0.78207    1.000
    H4       H        0.91220    0.98350    0.74330    1.000
    C8       C        0.01669    0.93070    0.86076    1.000
    H5       H        0.05040    0.89380    0.88680    1.000
    C9       C        0.99166    0.01050    0.87485    1.000
    H6       H        0.00490    0.03940    0.91150    1.000
    C10      C        0.72230    0.17180    0.66857    1.000
    H7       H        0.74930    0.13900    0.65590    1.000
    C11      C        0.63854    0.23250    0.67000    1.000
    H8       H        0.59630    0.24880    0.65790    1.000
    C12      C        0.68424    0.24150    0.72455    1.000
    H9       H        0.68030    0.26940    0.75650    1.000
    C13      C        0.87213    0.44440    0.89227    1.000
    H10      H        0.82900    0.44110    0.88160    1.000
    C14      C        0.96762    0.49730    0.92735    1.000
    H11      H        0.00250    0.53830    0.94570    1.000
    C15      C        0.96709    0.41170    0.90049    1.000
    H12      H        0.00130    0.38110    0.89760    1.000
    C16      C        0.91566    0.71660    0.66916    1.000
    C17      C        0.86339    0.66110    0.62091    1.000
    C18      C        0.79990    0.68530    0.60543    1.000
    H13      H        0.78990    0.73700    0.62460    1.000
    C19      C        0.87775    0.58400    0.59220    1.000
    H14      H        0.91950    0.56570    0.60340    1.000
    C20      C        0.75163    0.63220    0.56144    1.000
    C21      C        0.83045    0.53340    0.54680    1.000
    C22      C        0.76764    0.55760    0.53206    1.000
    H15      H        0.73600    0.52320    0.50200    1.000
    C23      C        0.68379    0.65380    0.54444    1.000
    C24      C        0.65938    0.74990    0.52953    1.000
    H16      H        0.68620    0.80320    0.53300    1.000
    C25      C        0.64252    0.57660    0.53973    1.000
    H17      H        0.65810    0.51190    0.54870    1.000
    C26      C        0.57938    0.59280    0.52222    1.000
    H18      H        0.55300    0.53980    0.52050    1.000
    C27      C        0.59536    0.76610    0.50957    1.000
    H19      H        0.57940    0.82990    0.49770    1.000
    C28      C        0.55451    0.68950    0.50679    1.000
    C29      C        0.48581    0.70770    0.49007    1.000
    C30      C        0.84567    0.45820    0.51139    1.000
    Ni2      Ni       0.37948    0.85182    0.45001    1.000
    N7       N        0.48518    0.41100    0.80193    1.000
    N8       N        0.44208    0.54160    0.82405    1.000
    N9       N        0.16513    0.69551    0.63608    1.000
    N10      N        0.23734    0.70140    0.72337    1.000
    N11      N        0.40927    0.01507    0.92363    1.000
    N12      N        0.40580    0.87700    0.87763    1.000
    O7       O        0.40215    0.28762    0.69544    1.000
    O8       O        0.47176    0.19353    0.68322    1.000
    O9       O        0.96366    0.28968    0.46587    1.000
    O10      O        0.95564    0.14261    0.50309    1.000
    O11      O        0.30590    0.93873    0.45960    1.000
    O12      O        0.39846    0.91631    0.53182    1.000
    C31      C        0.42319    0.70820    0.85180    1.000
    H20      H        0.46470    0.71080    0.87940    1.000
    C32      C        0.40083    0.62420    0.81716    1.000
    C33      C        0.33882    0.61880    0.77543    1.000
    H21      H        0.32380    0.56210    0.75240    1.000
    C34      C        0.30010    0.70100    0.76930    1.000
    C35      C        0.32099    0.78450    0.80338    1.000
    H22      H        0.29410    0.83810    0.79890    1.000
    C36      C        0.38333    0.78790    0.84497    1.000
    C37      C        0.44102    0.47900    0.78207    1.000
    H23      H        0.41220    0.48350    0.74330    1.000
    C38      C        0.51669    0.43070    0.86076    1.000
    H24      H        0.55040    0.39380    0.88680    1.000
    C39      C        0.49166    0.51050    0.87485    1.000
    H25      H        0.50490    0.53940    0.91150    1.000
    C40      C        0.22230    0.67180    0.66857    1.000
    H26      H        0.24930    0.63900    0.65590    1.000
    C41      C        0.13854    0.73250    0.67000    1.000
    H27      H        0.09630    0.74880    0.65790    1.000
    C42      C        0.18424    0.74150    0.72455    1.000
    H28      H        0.18030    0.76940    0.75650    1.000
    C43      C        0.37213    0.94440    0.89227    1.000
    H29      H        0.32900    0.94110    0.88160    1.000
    C44      C        0.46762    0.99730    0.92735    1.000
    H30      H        0.50250    0.03830    0.94570    1.000
    C45      C        0.46709    0.91170    0.90049    1.000
    H31      H        0.50130    0.88110    0.89760    1.000
    C46      C        0.41566    0.21660    0.66916    1.000
    C47      C        0.36339    0.16110    0.62091    1.000
    C48      C        0.29990    0.18530    0.60543    1.000
    H32      H        0.28990    0.23700    0.62460    1.000
    C49      C        0.37775    0.08400    0.59220    1.000
    H33      H        0.41950    0.06570    0.60340    1.000
    C50      C        0.25163    0.13220    0.56144    1.000
    C51      C        0.33045    0.03340    0.54680    1.000
    C52      C        0.26764    0.05760    0.53206    1.000
    H34      H        0.23600    0.02320    0.50200    1.000
    C53      C        0.18379    0.15380    0.54444    1.000
    C54      C        0.15938    0.24990    0.52953    1.000
    H35      H        0.18620    0.30320    0.53300    1.000
    C55      C        0.14252    0.07660    0.53973    1.000
    H36      H        0.15810    0.01190    0.54870    1.000
    C56      C        0.07938    0.09280    0.52222    1.000
    H37      H        0.05300    0.03980    0.52050    1.000
    C57      C        0.09536    0.26610    0.50957    1.000
    H38      H        0.07940    0.32990    0.49770    1.000
    C58      C        0.05451    0.18950    0.50679    1.000
    C59      C        0.98581    0.20770    0.49007    1.000
    C60      C        0.34567    0.95820    0.51139    1.000
    Ni3      Ni       0.12052    0.35182    0.04999    1.000
    N13      N        0.01482    0.91100    0.69807    1.000
    N14      N        0.05792    0.04160    0.67595    1.000
    N15      N        0.33487    0.19551    0.86392    1.000
    N16      N        0.26266    0.20140    0.77663    1.000
    N17      N        0.09073    0.51507    0.57637    1.000
    N18      N        0.09420    0.37700    0.62237    1.000
    O13      O        0.09785    0.78762    0.80456    1.000
    O14      O        0.02824    0.69353    0.81678    1.000
    O15      O        0.53634    0.78968    0.03413    1.000
    O16      O        0.54436    0.64261    0.99691    1.000
    O17      O        0.19410    0.43873    0.04040    1.000
    O18      O        0.10154    0.41631    0.96818    1.000
    C61      C        0.07681    0.20820    0.64820    1.000
    H39      H        0.03530    0.21080    0.62060    1.000
    C62      C        0.09917    0.12420    0.68284    1.000
    C63      C        0.16118    0.11880    0.72457    1.000
    H40      H        0.17620    0.06210    0.74760    1.000
    C64      C        0.19990    0.20100    0.73070    1.000
    C65      C        0.17901    0.28450    0.69662    1.000
    H41      H        0.20590    0.33810    0.70110    1.000
    C66      C        0.11667    0.28790    0.65503    1.000
    C67      C        0.05898    0.97900    0.71793    1.000
    H42      H        0.08780    0.98350    0.75670    1.000
    C68      C        0.98331    0.93070    0.63924    1.000
    H43      H        0.94960    0.89380    0.61320    1.000
    C69      C        0.00834    0.01050    0.62515    1.000
    H44      H        0.99510    0.03940    0.58850    1.000
    C70      C        0.27770    0.17180    0.83143    1.000
    H45      H        0.25070    0.13900    0.84410    1.000
    C71      C        0.36146    0.23250    0.83000    1.000
    H46      H        0.40370    0.24880    0.84210    1.000
    C72      C        0.31576    0.24150    0.77545    1.000
    H47      H        0.31970    0.26940    0.74350    1.000
    C73      C        0.12787    0.44440    0.60773    1.000
    H48      H        0.17100    0.44110    0.61840    1.000
    C74      C        0.03238    0.49730    0.57265    1.000
    H49      H        0.99750    0.53830    0.55430    1.000
    C75      C        0.03291    0.41170    0.59951    1.000
    H50      H        0.99870    0.38110    0.60240    1.000
    C76      C        0.08434    0.71660    0.83084    1.000
    C77      C        0.13661    0.66110    0.87909    1.000
    C78      C        0.20010    0.68530    0.89457    1.000
    H51      H        0.21010    0.73700    0.87540    1.000
    C79      C        0.12225    0.58400    0.90780    1.000
    H52      H        0.08050    0.56570    0.89660    1.000
    C80      C        0.24837    0.63220    0.93856    1.000
    C81      C        0.16955    0.53340    0.95320    1.000
    C82      C        0.23236    0.55760    0.96794    1.000
    H53      H        0.26400    0.52320    0.99800    1.000
    C83      C        0.31621    0.65380    0.95556    1.000
    C84      C        0.34062    0.74990    0.97047    1.000
    H54      H        0.31380    0.80320    0.96700    1.000
    C85      C        0.35748    0.57660    0.96027    1.000
    H55      H        0.34190    0.51190    0.95130    1.000
    C86      C        0.42062    0.59280    0.97778    1.000
    H56      H        0.44700    0.53980    0.97950    1.000
    C87      C        0.40464    0.76610    0.99043    1.000
    H57      H        0.42060    0.82990    0.00230    1.000
    C88      C        0.44549    0.68950    0.99321    1.000
    C89      C        0.51419    0.70770    0.00993    1.000
    C90      C        0.15433    0.45820    0.98861    1.000
    Ni4      Ni       0.62052    0.85182    0.04999    1.000
    N19      N        0.51482    0.41100    0.69807    1.000
    N20      N        0.55792    0.54160    0.67595    1.000
    N21      N        0.83487    0.69551    0.86392    1.000
    N22      N        0.76266    0.70140    0.77663    1.000
    N23      N        0.59073    0.01507    0.57637    1.000
    N24      N        0.59420    0.87700    0.62237    1.000
    O19      O        0.59785    0.28762    0.80456    1.000
    O20      O        0.52824    0.19353    0.81678    1.000
    O21      O        0.03634    0.28968    0.03413    1.000
    O22      O        0.04436    0.14261    0.99691    1.000
    O23      O        0.69410    0.93873    0.04040    1.000
    O24      O        0.60154    0.91631    0.96818    1.000
    C91      C        0.57681    0.70820    0.64820    1.000
    H58      H        0.53530    0.71080    0.62060    1.000
    C92      C        0.59917    0.62420    0.68284    1.000
    C93      C        0.66118    0.61880    0.72457    1.000
    H59      H        0.67620    0.56210    0.74760    1.000
    C94      C        0.69990    0.70100    0.73070    1.000
    C95      C        0.67901    0.78450    0.69662    1.000
    H60      H        0.70590    0.83810    0.70110    1.000
    C96      C        0.61667    0.78790    0.65503    1.000
    C97      C        0.55898    0.47900    0.71793    1.000
    H61      H        0.58780    0.48350    0.75670    1.000
    C98      C        0.48331    0.43070    0.63924    1.000
    H62      H        0.44960    0.39380    0.61320    1.000
    C99      C        0.50834    0.51050    0.62515    1.000
    H63      H        0.49510    0.53940    0.58850    1.000
    C100     C        0.77770    0.67180    0.83143    1.000
    H64      H        0.75070    0.63900    0.84410    1.000
    C101     C        0.86146    0.73250    0.83000    1.000
    H65      H        0.90370    0.74880    0.84210    1.000
    C102     C        0.81576    0.74150    0.77545    1.000
    H66      H        0.81970    0.76940    0.74350    1.000
    C103     C        0.62787    0.94440    0.60773    1.000
    H67      H        0.67100    0.94110    0.61840    1.000
    C104     C        0.53238    0.99730    0.57265    1.000
    H68      H        0.49750    0.03830    0.55430    1.000
    C105     C        0.53291    0.91170    0.59951    1.000
    H69      H        0.49870    0.88110    0.60240    1.000
    C106     C        0.58434    0.21660    0.83084    1.000
    C107     C        0.63661    0.16110    0.87909    1.000
    C108     C        0.70010    0.18530    0.89457    1.000
    H70      H        0.71010    0.23700    0.87540    1.000
    C109     C        0.62225    0.08400    0.90780    1.000
    H71      H        0.58050    0.06570    0.89660    1.000
    C110     C        0.74837    0.13220    0.93856    1.000
    C111     C        0.66955    0.03340    0.95320    1.000
    C112     C        0.73236    0.05760    0.96794    1.000
    H72      H        0.76400    0.02320    0.99800    1.000
    C113     C        0.81621    0.15380    0.95556    1.000
    C114     C        0.84062    0.24990    0.97047    1.000
    H73      H        0.81380    0.30320    0.96700    1.000
    C115     C        0.85748    0.07660    0.96027    1.000
    H74      H        0.84190    0.01190    0.95130    1.000
    C116     C        0.92062    0.09280    0.97778    1.000
    H75      H        0.94700    0.03980    0.97950    1.000
    C117     C        0.90464    0.26610    0.99043    1.000
    H76      H        0.92060    0.32990    0.00230    1.000
    C118     C        0.94549    0.18950    0.99321    1.000
    C119     C        0.01419    0.20770    0.00993    1.000
    C120     C        0.65433    0.95820    0.98861    1.000
    Ni5      Ni       0.12052    0.64818    0.54999    1.000
    N25      N        0.01482    0.08900    0.19807    1.000
    N26      N        0.05792    0.95840    0.17595    1.000
    N27      N        0.33487    0.80449    0.36392    1.000
    N28      N        0.26266    0.79860    0.27663    1.000
    N29      N        0.09073    0.48493    0.07637    1.000
    N30      N        0.09420    0.62300    0.12237    1.000
    O25      O        0.09785    0.21238    0.30456    1.000
    O26      O        0.02824    0.30647    0.31678    1.000
    O27      O        0.53634    0.21032    0.53413    1.000
    O28      O        0.54436    0.35739    0.49691    1.000
    O29      O        0.19410    0.56127    0.54040    1.000
    O30      O        0.10154    0.58369    0.46818    1.000
    C121     C        0.07681    0.79180    0.14820    1.000
    H77      H        0.03530    0.78920    0.12060    1.000
    C122     C        0.09917    0.87580    0.18284    1.000
    C123     C        0.16118    0.88120    0.22457    1.000
    H78      H        0.17620    0.93790    0.24760    1.000
    C124     C        0.19990    0.79900    0.23070    1.000
    C125     C        0.17901    0.71550    0.19662    1.000
    H79      H        0.20590    0.66190    0.20110    1.000
    C126     C        0.11667    0.71210    0.15503    1.000
    C127     C        0.05898    0.02100    0.21793    1.000
    H80      H        0.08780    0.01650    0.25670    1.000
    C128     C        0.98331    0.06930    0.13924    1.000
    H81      H        0.94960    0.10620    0.11320    1.000
    C129     C        0.00834    0.98950    0.12515    1.000
    H82      H        0.99510    0.96060    0.08850    1.000
    C130     C        0.27770    0.82820    0.33143    1.000
    H83      H        0.25070    0.86100    0.34410    1.000
    C131     C        0.36146    0.76750    0.33000    1.000
    H84      H        0.40370    0.75120    0.34210    1.000
    C132     C        0.31576    0.75850    0.27545    1.000
    H85      H        0.31970    0.73060    0.24350    1.000
    C133     C        0.12787    0.55560    0.10773    1.000
    H86      H        0.17100    0.55890    0.11840    1.000
    C134     C        0.03238    0.50270    0.07265    1.000
    H87      H        0.99750    0.46170    0.05430    1.000
    C135     C        0.03291    0.58830    0.09951    1.000
    H88      H        0.99870    0.61890    0.10240    1.000
    C136     C        0.08434    0.28340    0.33084    1.000
    C137     C        0.13661    0.33890    0.37909    1.000
    C138     C        0.20010    0.31470    0.39457    1.000
    H89      H        0.21010    0.26300    0.37540    1.000
    C139     C        0.12225    0.41600    0.40780    1.000
    H90      H        0.08050    0.43430    0.39660    1.000
    C140     C        0.24837    0.36780    0.43856    1.000
    C141     C        0.16955    0.46660    0.45320    1.000
    C142     C        0.23236    0.44240    0.46794    1.000
    H91      H        0.26400    0.47680    0.49800    1.000
    C143     C        0.31621    0.34620    0.45556    1.000
    C144     C        0.34062    0.25010    0.47047    1.000
    H92      H        0.31380    0.19680    0.46700    1.000
    C145     C        0.35748    0.42340    0.46027    1.000
    H93      H        0.34190    0.48810    0.45130    1.000
    C146     C        0.42062    0.40720    0.47778    1.000
    H94      H        0.44700    0.46020    0.47950    1.000
    C147     C        0.40464    0.23390    0.49043    1.000
    H95      H        0.42060    0.17010    0.50230    1.000
    C148     C        0.44549    0.31050    0.49321    1.000
    C149     C        0.51419    0.29230    0.50993    1.000
    C150     C        0.15433    0.54180    0.48861    1.000
    Ni6      Ni       0.62052    0.14818    0.54999    1.000
    N31      N        0.51482    0.58900    0.19807    1.000
    N32      N        0.55792    0.45840    0.17595    1.000
    N33      N        0.83487    0.30449    0.36392    1.000
    N34      N        0.76266    0.29860    0.27663    1.000
    N35      N        0.59073    0.98493    0.07637    1.000
    N36      N        0.59420    0.12300    0.12237    1.000
    O31      O        0.59785    0.71238    0.30456    1.000
    O32      O        0.52824    0.80647    0.31678    1.000
    O33      O        0.03634    0.71032    0.53413    1.000
    O34      O        0.04436    0.85739    0.49691    1.000
    O35      O        0.69410    0.06127    0.54040    1.000
    O36      O        0.60154    0.08369    0.46818    1.000
    C151     C        0.57681    0.29180    0.14820    1.000
    H96      H        0.53530    0.28920    0.12060    1.000
    C152     C        0.59917    0.37580    0.18284    1.000
    C153     C        0.66118    0.38120    0.22457    1.000
    H97      H        0.67620    0.43790    0.24760    1.000
    C154     C        0.69990    0.29900    0.23070    1.000
    C155     C        0.67901    0.21550    0.19662    1.000
    H98      H        0.70590    0.16190    0.20110    1.000
    C156     C        0.61667    0.21210    0.15503    1.000
    C157     C        0.55898    0.52100    0.21793    1.000
    H99      H        0.58780    0.51650    0.25670    1.000
    C158     C        0.48331    0.56930    0.13924    1.000
    H100     H        0.44960    0.60620    0.11320    1.000
    C159     C        0.50834    0.48950    0.12515    1.000
    H101     H        0.49510    0.46060    0.08850    1.000
    C160     C        0.77770    0.32820    0.33143    1.000
    H102     H        0.75070    0.36100    0.34410    1.000
    C161     C        0.86146    0.26750    0.33000    1.000
    H103     H        0.90370    0.25120    0.34210    1.000
    C162     C        0.81576    0.25850    0.27545    1.000
    H104     H        0.81970    0.23060    0.24350    1.000
    C163     C        0.62787    0.05560    0.10773    1.000
    H105     H        0.67100    0.05890    0.11840    1.000
    C164     C        0.53238    0.00270    0.07265    1.000
    H106     H        0.49750    0.96170    0.05430    1.000
    C165     C        0.53291    0.08830    0.09951    1.000
    H107     H        0.49870    0.11890    0.10240    1.000
    C166     C        0.58434    0.78340    0.33084    1.000
    C167     C        0.63661    0.83890    0.37909    1.000
    C168     C        0.70010    0.81470    0.39457    1.000
    H108     H        0.71010    0.76300    0.37540    1.000
    C169     C        0.62225    0.91600    0.40780    1.000
    H109     H        0.58050    0.93430    0.39660    1.000
    C170     C        0.74837    0.86780    0.43856    1.000
    C171     C        0.66955    0.96660    0.45320    1.000
    C172     C        0.73236    0.94240    0.46794    1.000
    H110     H        0.76400    0.97680    0.49800    1.000
    C173     C        0.81621    0.84620    0.45556    1.000
    C174     C        0.84062    0.75010    0.47047    1.000
    H111     H        0.81380    0.69680    0.46700    1.000
    C175     C        0.85748    0.92340    0.46027    1.000
    H112     H        0.84190    0.98810    0.45130    1.000
    C176     C        0.92062    0.90720    0.47778    1.000
    H113     H        0.94700    0.96020    0.47950    1.000
    C177     C        0.90464    0.73390    0.49043    1.000
    H114     H        0.92060    0.67010    0.50230    1.000
    C178     C        0.94549    0.81050    0.49321    1.000
    C179     C        0.01419    0.79230    0.50993    1.000
    C180     C        0.65433    0.04180    0.48861    1.000
    Ni7      Ni       0.87948    0.64818    0.95001    1.000
    N37      N        0.98518    0.08900    0.30193    1.000
    N38      N        0.94208    0.95840    0.32405    1.000
    N39      N        0.66513    0.80449    0.13608    1.000
    N40      N        0.73734    0.79860    0.22337    1.000
    N41      N        0.90927    0.48493    0.42363    1.000
    N42      N        0.90580    0.62300    0.37763    1.000
    O37      O        0.90215    0.21238    0.19544    1.000
    O38      O        0.97176    0.30647    0.18322    1.000
    O39      O        0.46366    0.21032    0.96587    1.000
    O40      O        0.45564    0.35739    0.00309    1.000
    O41      O        0.80590    0.56127    0.95960    1.000
    O42      O        0.89846    0.58369    0.03182    1.000
    C181     C        0.92319    0.79180    0.35180    1.000
    H115     H        0.96470    0.78920    0.37940    1.000
    C182     C        0.90083    0.87580    0.31716    1.000
    C183     C        0.83882    0.88120    0.27543    1.000
    H116     H        0.82380    0.93790    0.25240    1.000
    C184     C        0.80010    0.79900    0.26930    1.000
    C185     C        0.82099    0.71550    0.30338    1.000
    H117     H        0.79410    0.66190    0.29890    1.000
    C186     C        0.88333    0.71210    0.34497    1.000
    C187     C        0.94102    0.02100    0.28207    1.000
    H118     H        0.91220    0.01650    0.24330    1.000
    C188     C        0.01669    0.06930    0.36076    1.000
    H119     H        0.05040    0.10620    0.38680    1.000
    C189     C        0.99166    0.98950    0.37485    1.000
    H120     H        0.00490    0.96060    0.41150    1.000
    C190     C        0.72230    0.82820    0.16857    1.000
    H121     H        0.74930    0.86100    0.15590    1.000
    C191     C        0.63854    0.76750    0.17000    1.000
    H122     H        0.59630    0.75120    0.15790    1.000
    C192     C        0.68424    0.75850    0.22455    1.000
    H123     H        0.68030    0.73060    0.25650    1.000
    C193     C        0.87213    0.55560    0.39227    1.000
    H124     H        0.82900    0.55890    0.38160    1.000
    C194     C        0.96762    0.50270    0.42735    1.000
    H125     H        0.00250    0.46170    0.44570    1.000
    C195     C        0.96709    0.58830    0.40049    1.000
    H126     H        0.00130    0.61890    0.39760    1.000
    C196     C        0.91566    0.28340    0.16916    1.000
    C197     C        0.86339    0.33890    0.12091    1.000
    C198     C        0.79990    0.31470    0.10543    1.000
    H127     H        0.78990    0.26300    0.12460    1.000
    C199     C        0.87775    0.41600    0.09220    1.000
    H128     H        0.91950    0.43430    0.10340    1.000
    C200     C        0.75163    0.36780    0.06144    1.000
    C201     C        0.83045    0.46660    0.04680    1.000
    C202     C        0.76764    0.44240    0.03206    1.000
    H129     H        0.73600    0.47680    0.00200    1.000
    C203     C        0.68379    0.34620    0.04444    1.000
    C204     C        0.65938    0.25010    0.02953    1.000
    H130     H        0.68620    0.19680    0.03300    1.000
    C205     C        0.64252    0.42340    0.03973    1.000
    H131     H        0.65810    0.48810    0.04870    1.000
    C206     C        0.57938    0.40720    0.02222    1.000
    H132     H        0.55300    0.46020    0.02050    1.000
    C207     C        0.59536    0.23390    0.00957    1.000
    H133     H        0.57940    0.17010    0.99770    1.000
    C208     C        0.55451    0.31050    0.00679    1.000
    C209     C        0.48581    0.29230    0.99007    1.000
    C210     C        0.84567    0.54180    0.01139    1.000
    Ni8      Ni       0.37948    0.14818    0.95001    1.000
    N43      N        0.48518    0.58900    0.30193    1.000
    N44      N        0.44208    0.45840    0.32405    1.000
    N45      N        0.16513    0.30449    0.13608    1.000
    N46      N        0.23734    0.29860    0.22337    1.000
    N47      N        0.40927    0.98493    0.42363    1.000
    N48      N        0.40580    0.12300    0.37763    1.000
    O43      O        0.40215    0.71238    0.19544    1.000
    O44      O        0.47176    0.80647    0.18322    1.000
    O45      O        0.96366    0.71032    0.96587    1.000
    O46      O        0.95564    0.85739    0.00309    1.000
    O47      O        0.30590    0.06127    0.95960    1.000
    O48      O        0.39846    0.08369    0.03182    1.000
    C211     C        0.42319    0.29180    0.35180    1.000
    H134     H        0.46470    0.28920    0.37940    1.000
    C212     C        0.40083    0.37580    0.31716    1.000
    C213     C        0.33882    0.38120    0.27543    1.000
    H135     H        0.32380    0.43790    0.25240    1.000
    C214     C        0.30010    0.29900    0.26930    1.000
    C215     C        0.32099    0.21550    0.30338    1.000
    H136     H        0.29410    0.16190    0.29890    1.000
    C216     C        0.38333    0.21210    0.34497    1.000
    C217     C        0.44102    0.52100    0.28207    1.000
    H137     H        0.41220    0.51650    0.24330    1.000
    C218     C        0.51669    0.56930    0.36076    1.000
    H138     H        0.55040    0.60620    0.38680    1.000
    C219     C        0.49166    0.48950    0.37485    1.000
    H139     H        0.50490    0.46060    0.41150    1.000
    C220     C        0.22230    0.32820    0.16857    1.000
    H140     H        0.24930    0.36100    0.15590    1.000
    C221     C        0.13854    0.26750    0.17000    1.000
    H141     H        0.09630    0.25120    0.15790    1.000
    C222     C        0.18424    0.25850    0.22455    1.000
    H142     H        0.18030    0.23060    0.25650    1.000
    C223     C        0.37213    0.05560    0.39227    1.000
    H143     H        0.32900    0.05890    0.38160    1.000
    C224     C        0.46762    0.00270    0.42735    1.000
    H144     H        0.50250    0.96170    0.44570    1.000
    C225     C        0.46709    0.08830    0.40049    1.000
    H145     H        0.50130    0.11890    0.39760    1.000
    C226     C        0.41566    0.78340    0.16916    1.000
    C227     C        0.36339    0.83890    0.12091    1.000
    C228     C        0.29990    0.81470    0.10543    1.000
    H146     H        0.28990    0.76300    0.12460    1.000
    C229     C        0.37775    0.91600    0.09220    1.000
    H147     H        0.41950    0.93430    0.10340    1.000
    C230     C        0.25163    0.86780    0.06144    1.000
    C231     C        0.33045    0.96660    0.04680    1.000
    C232     C        0.26764    0.94240    0.03206    1.000
    H148     H        0.23600    0.97680    0.00200    1.000
    C233     C        0.18379    0.84620    0.04444    1.000
    C234     C        0.15938    0.75010    0.02953    1.000
    H149     H        0.18620    0.69680    0.03300    1.000
    C235     C        0.14252    0.92340    0.03973    1.000
    H150     H        0.15810    0.98810    0.04870    1.000
    C236     C        0.07938    0.90720    0.02222    1.000
    H151     H        0.05300    0.96020    0.02050    1.000
    C237     C        0.09536    0.73390    0.00957    1.000
    H152     H        0.07940    0.67010    0.99770    1.000
    C238     C        0.05451    0.81050    0.00679    1.000
    C239     C        0.98581    0.79230    0.99007    1.000
    C240     C        0.34567    0.04180    0.01139    1.000
    Ni9      Ni       0.00000    0.80650    0.75000    1.000
    Ni10     Ni       0.50000    0.30650    0.75000    1.000
    Ni11     Ni       0.00000    0.19350    0.25000    1.000
    Ni12     Ni       0.50000    0.69350    0.25000    1.000
