data_functionalizedCrystal
_audit_creation_method	'EQeq! by Chris Wilmer'
_symmetry_space_group_name_H-M	'P1'
_symmetry_Int_Tables_number	1
_symmetry_cell_setting	triclinic
loop_
_symmetry_equiv_pos_as_xyz
  x,y,z
_cell_length_a	15.289
_cell_length_b	8.168
_cell_length_c	28.995
_cell_angle_alpha	90
_cell_angle_beta	100.646
_cell_angle_gamma	90
loop_
_atom_site_label
_atom_site_type_symbol
_atom_site_fract_x
_atom_site_fract_y
_atom_site_fract_z
_atom_site_charge
Mof_Pr	Pr	0.55017	0.25071	0.01181	2.505
Mof_Cu	Cu	0.99843	0.56998	0.17016	0.72
Mof_Cu	Cu	0.14509	0.70179	0.21415	0.74
Mof_Cu	Cu	0.42503	0.92063	0.25049	0.726
Mof_Cu	Cu	0.35247	0.89653	0.32433	0.723
Mof_I 	I 	0.12366	0.67954	0.12244	-0.578
Mof_I 	I 	0.00516	0.71975	0.25432	-0.573
Mof_I 	I 	0.24726	0.96087	0.24098	-0.763
Mof_I 	I 	0.50912	0.74941	0.32853	-0.595
Mof_O 	O 	0.3589	0.9579	0.94246	-0.591
Mof_O 	O 	0.4211	0.2068	0.9506	-0.607
Mof_O 	O 	0.5666	0.3747	0.09308	-0.511
Mof_O 	O 	0.4646	0.5059	0.04332	-0.683
Mof_O 	O 	0.6413	0.1259	0.9605	-0.584
Mof_O 	O 	0.5522	0.9123	0.9547	-0.644
Mof_N 	N 	0.1155	0.3283	0.8641	-0.211
Mof_N 	N 	0.4489	0.7716	0.1982	-0.217
Mof_N 	N 	0.7781	0.7408	0.8603	-0.213
Mof_C 	C 	0.1205	0.1699	0.8744	-0.002
Mof_H 	H 	0.0687	0.1048	0.8652	0.026
Mof_C 	C 	0.1968	0.0943	0.8976	0.015
Mof_H 	H 	0.1963	0.9808	0.9048	0.034
Mof_C 	C 	0.2734	0.184	0.9103	-0.159
Mof_C 	C 	0.2695	0.3481	0.8983	0.016
Mof_H 	H 	0.3211	0.4148	0.9057	0.005
Mof_C 	C 	0.1901	0.4143	0.8754	-0.012
Mof_H 	H 	0.1888	0.5271	0.8673	0.013
Mof_C 	C 	0.3577	0.1092	0.9362	0.525
Mof_C 	C 	0.5275	0.6983	0.2007	0.018
Mof_H 	H 	0.5714	0.7128	0.2281	0.015
Mof_C 	C 	0.5478	0.6018	0.1646	-0.014
Mof_H 	H 	0.6042	0.5499	0.1678	0.052
Mof_C 	C 	0.485	0.5821	0.1243	-0.101
Mof_C 	C 	0.4046	0.6541	0.1223	-0.01
Mof_H 	H 	0.3595	0.6403	0.0953	0.027
Mof_C 	C 	0.3878	0.7482	0.1597	0.002
Mof_H 	H 	0.3308	0.7973	0.1576	0.014
Mof_C 	C 	0.5073	0.4804	0.0846	0.41
Mof_C 	C 	0.8124	0.858	0.8908	0.003
Mof_H 	H 	0.8736	0.8848	0.8935	0.023
Mof_C 	C 	0.7628	0.9409	0.9183	-0.007
Mof_H 	H 	0.7893	0.0236	0.9393	0.049
Mof_C 	C 	0.6742	0.9025	0.9148	-0.138
Mof_C 	C 	0.6368	0.788	0.8821	-0.002
Mof_H 	H 	0.5751	0.7632	0.8776	0.037
Mof_C 	C 	0.6915	0.7103	0.8559	-0.012
Mof_H 	H 	0.6658	0.6308	0.8335	0.016
Mof_C 	C 	0.6187	0.9862	0.9457	0.508
Mof_Pr	Pr	0.94983	0.75071	0.48819	2.503
Mof_Cu	Cu	0.50157	0.06998	0.32984	0.722
Mof_Cu	Cu	0.35491	0.20179	0.28585	0.74
Mof_Cu	Cu	0.07497	0.42063	0.24951	0.727
Mof_Cu	Cu	0.14753	0.39653	0.17567	0.723
Mof_I 	I 	0.37634	0.17954	0.37756	-0.579
Mof_I 	I 	0.49484	0.21975	0.24568	-0.573
Mof_I 	I 	0.25274	0.46087	0.25902	-0.763
Mof_I 	I 	0.99088	0.24941	0.17147	-0.592
Mof_O 	O 	0.1411	0.4579	0.55754	-0.592
Mof_O 	O 	0.0789	0.7068	0.5494	-0.606
Mof_O 	O 	0.9334	0.8747	0.40692	-0.512
Mof_O 	O 	0.0354	0.0059	0.45668	-0.683
Mof_O 	O 	0.8587	0.6259	0.5395	-0.586
Mof_O 	O 	0.9478	0.4123	0.5453	-0.644
Mof_N 	N 	0.3845	0.8283	0.6359	-0.211
Mof_N 	N 	0.0511	0.2716	0.3018	-0.218
Mof_N 	N 	0.7219	0.2408	0.6397	-0.212
Mof_C 	C 	0.3795	0.6699	0.6256	-0.005
Mof_H 	H 	0.4313	0.6048	0.6348	0.028
Mof_C 	C 	0.3032	0.5943	0.6024	0.021
Mof_H 	H 	0.3037	0.4808	0.5952	0.031
Mof_C 	C 	0.2266	0.684	0.5897	-0.161
Mof_C 	C 	0.2305	0.8481	0.6017	0.015
Mof_H 	H 	0.1789	0.9148	0.5943	0.007
Mof_C 	C 	0.3099	0.9143	0.6246	-0.008
Mof_H 	H 	0.3112	0.0271	0.6327	0.01
Mof_C 	C 	0.1423	0.6092	0.5638	0.527
Mof_C 	C 	0.9725	0.1983	0.2993	0.018
Mof_H 	H 	0.9286	0.2128	0.2719	0.016
Mof_C 	C 	0.9522	0.1018	0.3354	-0.01
Mof_H 	H 	0.8958	0.0499	0.3322	0.052
Mof_C 	C 	0.015	0.0821	0.3757	-0.105
Mof_C 	C 	0.0954	0.1541	0.3777	-0.009
Mof_H 	H 	0.1405	0.1403	0.4047	0.026
Mof_C 	C 	0.1122	0.2482	0.3403	0.001
Mof_H 	H 	0.1692	0.2973	0.3424	0.014
Mof_C 	C 	0.9927	0.9804	0.4154	0.409
Mof_C 	C 	0.6876	0.358	0.6092	-0
Mof_H 	H 	0.6264	0.3848	0.6065	0.025
Mof_C 	C 	0.7372	0.4409	0.5817	0
Mof_H 	H 	0.7107	0.5236	0.5607	0.045
Mof_C 	C 	0.8258	0.4025	0.5852	-0.141
Mof_C 	C 	0.8632	0.288	0.6179	0
Mof_H 	H 	0.9249	0.2632	0.6224	0.037
Mof_C 	C 	0.8085	0.2103	0.6441	-0.013
Mof_H 	H 	0.8342	0.1308	0.6665	0.016
Mof_C 	C 	0.8813	0.4862	0.5543	0.511
Mof_Pr	Pr	0.44983	0.74929	0.98819	2.506
Mof_Cu	Cu	0.00157	0.43002	0.82984	0.721
Mof_Cu	Cu	0.85491	0.29821	0.78585	0.741
Mof_Cu	Cu	0.57497	0.07937	0.74951	0.727
Mof_Cu	Cu	0.64753	0.10347	0.67567	0.724
Mof_I 	I 	0.87634	0.32046	0.87756	-0.577
Mof_I 	I 	0.99484	0.28025	0.74568	-0.572
Mof_I 	I 	0.75274	0.03913	0.75902	-0.762
Mof_I 	I 	0.49088	0.25059	0.67147	-0.595
Mof_O 	O 	0.6411	0.0421	0.05754	-0.591
Mof_O 	O 	0.5789	0.7932	0.0494	-0.607
Mof_O 	O 	0.4334	0.6253	0.90692	-0.511
Mof_O 	O 	0.5354	0.4941	0.95668	-0.683
Mof_O 	O 	0.3587	0.8741	0.0395	-0.584
Mof_O 	O 	0.4478	0.0877	0.0453	-0.644
Mof_N 	N 	0.8845	0.6717	0.1359	-0.211
Mof_N 	N 	0.5511	0.2284	0.8018	-0.217
Mof_N 	N 	0.2219	0.2592	0.1397	-0.213
Mof_C 	C 	0.8795	0.8301	0.1256	-0.002
Mof_H 	H 	0.9313	0.8952	0.1348	0.026
Mof_C 	C 	0.8032	0.9057	0.1024	0.015
Mof_H 	H 	0.8037	0.0192	0.0952	0.034
Mof_C 	C 	0.7266	0.816	0.0897	-0.159
Mof_C 	C 	0.7305	0.6519	0.1017	0.016
Mof_H 	H 	0.6789	0.5852	0.0943	0.005
Mof_C 	C 	0.8099	0.5857	0.1246	-0.012
Mof_H 	H 	0.8112	0.4729	0.1327	0.013
Mof_C 	C 	0.6423	0.8908	0.0638	0.525
Mof_C 	C 	0.4725	0.3017	0.7993	0.018
Mof_H 	H 	0.4286	0.2872	0.7719	0.015
Mof_C 	C 	0.4522	0.3982	0.8354	-0.014
Mof_H 	H 	0.3958	0.4501	0.8322	0.052
Mof_C 	C 	0.515	0.4179	0.8757	-0.101
Mof_C 	C 	0.5954	0.3459	0.8777	-0.01
Mof_H 	H 	0.6405	0.3597	0.9047	0.027
Mof_C 	C 	0.6122	0.2518	0.8403	0.002
Mof_H 	H 	0.6692	0.2027	0.8424	0.014
Mof_C 	C 	0.4927	0.5196	0.9154	0.41
Mof_C 	C 	0.1876	0.142	0.1092	0.003
Mof_H 	H 	0.1264	0.1152	0.1065	0.023
Mof_C 	C 	0.2372	0.0591	0.0817	-0.007
Mof_H 	H 	0.2107	0.9764	0.0607	0.049
Mof_C 	C 	0.3258	0.0975	0.0852	-0.138
Mof_C 	C 	0.3632	0.212	0.1179	-0.002
Mof_H 	H 	0.4249	0.2368	0.1224	0.037
Mof_C 	C 	0.3085	0.2897	0.1441	-0.012
Mof_H 	H 	0.3342	0.3692	0.1665	0.016
Mof_C 	C 	0.3813	0.0138	0.0543	0.508
Mof_Pr	Pr	0.05017	0.24929	0.51181	2.503
Mof_Cu	Cu	0.49843	0.93002	0.67016	0.722
Mof_Cu	Cu	0.64509	0.79821	0.71415	0.74
Mof_Cu	Cu	0.92503	0.57937	0.75049	0.727
Mof_Cu	Cu	0.85247	0.60347	0.82433	0.723
Mof_I 	I 	0.62366	0.82046	0.62244	-0.579
Mof_I 	I 	0.50516	0.78025	0.75432	-0.573
Mof_I 	I 	0.74726	0.53913	0.74098	-0.763
Mof_I 	I 	0.00912	0.75059	0.82853	-0.592
Mof_O 	O 	0.8589	0.5421	0.44246	-0.592
Mof_O 	O 	0.9211	0.2932	0.4506	-0.606
Mof_O 	O 	0.0666	0.1253	0.59308	-0.512
Mof_O 	O 	0.9646	0.9941	0.54332	-0.683
Mof_O 	O 	0.1413	0.3741	0.4605	-0.586
Mof_O 	O 	0.0522	0.5877	0.4547	-0.644
Mof_N 	N 	0.6155	0.1717	0.3641	-0.211
Mof_N 	N 	0.9489	0.7284	0.6982	-0.218
Mof_N 	N 	0.2781	0.7592	0.3603	-0.212
Mof_C 	C 	0.6205	0.3301	0.3744	-0.005
Mof_H 	H 	0.5687	0.3952	0.3652	0.028
Mof_C 	C 	0.6968	0.4057	0.3976	0.021
Mof_H 	H 	0.6963	0.5192	0.4048	0.031
Mof_C 	C 	0.7734	0.316	0.4103	-0.161
Mof_C 	C 	0.7695	0.1519	0.3983	0.015
Mof_H 	H 	0.8211	0.0852	0.4057	0.007
Mof_C 	C 	0.6901	0.0857	0.3754	-0.008
Mof_H 	H 	0.6888	0.9729	0.3673	0.01
Mof_C 	C 	0.8577	0.3908	0.4362	0.527
Mof_C 	C 	0.0275	0.8017	0.7007	0.018
Mof_H 	H 	0.0714	0.7872	0.7281	0.016
Mof_C 	C 	0.0478	0.8982	0.6646	-0.01
Mof_H 	H 	0.1042	0.9501	0.6678	0.052
Mof_C 	C 	0.985	0.9179	0.6243	-0.105
Mof_C 	C 	0.9046	0.8459	0.6223	-0.009
Mof_H 	H 	0.8595	0.8597	0.5953	0.026
Mof_C 	C 	0.8878	0.7518	0.6597	0.001
Mof_H 	H 	0.8308	0.7027	0.6576	0.014
Mof_C 	C 	0.0073	0.0196	0.5846	0.409
Mof_C 	C 	0.3124	0.642	0.3908	-0
Mof_H 	H 	0.3736	0.6152	0.3935	0.025
Mof_C 	C 	0.2628	0.5591	0.4183	0
Mof_H 	H 	0.2893	0.4764	0.4393	0.045
Mof_C 	C 	0.1742	0.5975	0.4148	-0.141
Mof_C 	C 	0.1368	0.712	0.3821	0
Mof_H 	H 	0.0751	0.7368	0.3776	0.037
Mof_C 	C 	0.1915	0.7897	0.3559	-0.013
Mof_H 	H 	0.1658	0.8692	0.3335	0.016
Mof_C 	C 	0.1187	0.5138	0.4457	0.511
_end
