data_functionalizedCrystal
_audit_creation_method	'EQeq! by Chris Wilmer'
_symmetry_space_group_name_H-M	'P1'
_symmetry_Int_Tables_number	1
_symmetry_cell_setting	triclinic
loop_
_symmetry_equiv_pos_as_xyz
  x,y,z
_cell_length_a	11.064
_cell_length_b	15.957
_cell_length_c	23.362
_cell_angle_alpha	90
_cell_angle_beta	92.265
_cell_angle_gamma	90
loop_
_atom_site_label
_atom_site_type_symbol
_atom_site_fract_x
_atom_site_fract_y
_atom_site_fract_z
_atom_site_charge
Mof_Mg	Mg	0.3587	0.84676	0.25929	1.453
Mof_Mg	Mg	0.6413	0.15324	0.74071	1.453
Mof_Mg	Mg	0.55275	0.5109	0.83946	1.469
Mof_Mg	Mg	0.55275	0.9891	0.33946	1.469
Mof_Mg	Mg	0.44725	0.4891	0.16054	1.47
Mof_Mg	Mg	0.44725	0.0109	0.66054	1.47
Mof_Mg	Mg	0.6413	0.34676	0.24071	1.454
Mof_Mg	Mg	0.3587	0.65324	0.75929	1.454
Mof_H 	H 	0.3814	0.5758	0.9966	0.036
Mof_H 	H 	0.2186	0.2313	0.6106	0.039
Mof_H 	H 	0.2556	0.6166	0.5352	0.041
Mof_H 	H 	0.7959	0.9655	0.8292	0.014
Mof_H 	H 	0.1928	0.7689	0.3925	0.012
Mof_H 	H 	0.2556	0.8834	0.0352	0.041
Mof_H 	H 	0.0159	0.2609	0.5956	0.068
Mof_H 	H 	0.7444	0.3834	0.4648	0.041
Mof_H 	H 	0.3814	0.9242	0.4966	0.036
Mof_H 	H 	0.1647	0.7507	0.5622	0.027
Mof_H 	H 	0.4236	0.204	0.2489	-0.032
Mof_H 	H 	0.8072	0.2311	0.6075	0.012
Mof_H 	H 	0.8353	0.2493	0.4378	0.027
Mof_H 	H 	0.1647	0.7493	0.0622	0.027
Mof_H 	H 	0.4236	0.296	0.7489	-0.032
Mof_H 	H 	0.7444	0.1166	0.9648	0.041
Mof_H 	H 	0.7814	0.7313	0.8894	0.039
Mof_H 	H 	0.8072	0.2689	0.1075	0.012
Mof_H 	H 	0.7959	0.5345	0.3292	0.014
Mof_H 	H 	0.6186	0.4242	0.0034	0.036
Mof_H 	H 	0.7351	0.9948	0.9168	0.041
Mof_H 	H 	0.9841	0.7391	0.4044	0.068
Mof_H 	H 	0.2649	0.0052	0.0832	0.041
Mof_H 	H 	0.8353	0.2507	0.9378	0.027
Mof_H 	H 	0.5764	0.796	0.7511	-0.032
Mof_H 	H 	0.9841	0.7609	0.9044	0.068
Mof_H 	H 	0.7351	0.5052	0.4168	0.041
Mof_H 	H 	0.7814	0.7687	0.3894	0.039
Mof_H 	H 	0.0159	0.2391	0.0956	0.068
Mof_H 	H 	0.6186	0.0758	0.5034	0.036
Mof_H 	H 	0.2649	0.4948	0.5832	0.041
Mof_H 	H 	0.1928	0.7311	0.8925	0.012
Mof_H 	H 	0.2041	0.4655	0.6708	0.014
Mof_H 	H 	0.2041	0.0345	0.1708	0.014
Mof_H 	H 	0.2186	0.2687	0.1106	0.039
Mof_H 	H 	0.5764	0.704	0.2511	-0.032
Mof_C 	C 	0.3135	0.6274	0.0978	0.417
Mof_C 	C 	0.8085	0.4209	0.4689	-0.055
Mof_C 	C 	0.6266	0.9595	0.7459	0.493
Mof_C 	C 	0.7856	0.2132	0.5706	0.034
Mof_C 	C 	0.1969	0.5064	0.5598	-0.054
Mof_C 	C 	0.2356	0.4115	0.6728	0.037
Mof_C 	C 	0.6865	0.1274	0.4022	0.417
Mof_C 	C 	0.0794	0.8226	0.9652	0.027
Mof_C 	C 	0.6717	0.7496	0.3206	-0.17
Mof_C 	C 	0.9113	0.1006	0.0058	-0.008
Mof_C 	C 	0.3225	0.3913	0.7156	-0.184
Mof_C 	C 	0.1014	0.4459	0.5555	-0.008
Mof_C 	C 	0.327	0.8803	0.4914	0.083
Mof_C 	C 	0.3492	0.8916	0.3853	0.483
Mof_C 	C 	0.7221	0.342	0.9617	-0.139
Mof_C 	C 	0.7644	0.9115	0.8272	0.037
Mof_C 	C 	0.1976	0.776	0.5304	0.019
Mof_C 	C 	0.8986	0.9459	0.9445	-0.008
Mof_C 	C 	0.7053	0.1472	0.5634	-0.164
Mof_C 	C 	0.1956	0.3516	0.6331	-0.051
Mof_C 	C 	0.8986	0.5541	0.4445	-0.008
Mof_C 	C 	0.8975	0.629	0.4125	0.027
Mof_C 	C 	0.1655	0.7468	0.4756	-0.044
Mof_C 	C 	0.8044	0.8516	0.8669	-0.051
Mof_C 	C 	0.2356	0.0885	0.1728	0.037
Mof_C 	C 	0.2947	0.6472	0.9366	-0.165
Mof_C 	C 	0.6266	0.5405	0.2459	0.493
Mof_C 	C 	0.7561	0.7284	0.3629	0.029
Mof_C 	C 	0.0887	0.8994	0.9942	-0.008
Mof_C 	C 	0.7053	0.3528	0.0634	-0.165
Mof_C 	C 	0.7561	0.7716	0.8629	0.029
Mof_C 	C 	0.8031	0.0064	0.9402	-0.054
Mof_C 	C 	0.2947	0.8528	0.4366	-0.164
Mof_C 	C 	0.003	0.0388	0.0152	-0.003
Mof_C 	C 	0.0887	0.6006	0.4942	-0.009
Mof_C 	C 	0.013	0.311	0.5753	-0.107
Mof_C 	C 	0.2439	0.2716	0.6371	0.029
Mof_C 	C 	0.3283	0.2504	0.6794	-0.17
Mof_C 	C 	0.6322	0.8103	0.7803	0.097
Mof_C 	C 	0.7221	0.158	0.4617	-0.139
Mof_C 	C 	0.673	0.1197	0.5086	0.083
Mof_C 	C 	0.7644	0.5885	0.3272	0.037
Mof_C 	C 	0.6865	0.3726	0.9022	0.417
Mof_C 	C 	0.6216	0.8371	0.3207	0.402
Mof_C 	C 	0.987	0.689	0.4247	-0.107
Mof_C 	C 	0.6775	0.8913	0.7844	-0.184
Mof_C 	C 	0.6508	0.3916	0.1147	0.483
Mof_C 	C 	0.3734	0.4595	0.7541	0.493
Mof_C 	C 	0.013	0.189	0.0753	-0.107
Mof_C 	C 	0.8044	0.6484	0.3669	-0.051
Mof_C 	C 	0.2439	0.2284	0.1371	0.029
Mof_C 	C 	0.327	0.6197	0.9914	0.083
Mof_C 	C 	0.997	0.5388	0.4848	-0.003
Mof_C 	C 	0.003	0.4612	0.5152	-0.003
Mof_C 	C 	0.6216	0.6629	0.8207	0.402
Mof_C 	C 	0.3492	0.6084	0.8853	0.483
Mof_C 	C 	0.1956	0.1484	0.1331	-0.051
Mof_C 	C 	0.1969	0.9936	0.0598	-0.054
Mof_C 	C 	0.1976	0.724	0.0304	0.018
Mof_C 	C 	0.6508	0.1084	0.6147	0.483
Mof_C 	C 	0.0794	0.6774	0.4652	0.027
Mof_C 	C 	0.8085	0.0791	0.9689	-0.056
Mof_C 	C 	0.9206	0.3226	0.5348	0.027
Mof_C 	C 	0.7856	0.2868	0.0706	0.034
Mof_C 	C 	0.3784	0.3371	0.1793	0.402
Mof_C 	C 	0.8345	0.2468	0.0244	-0.044
Mof_C 	C 	0.1655	0.7532	0.9756	-0.044
Mof_C 	C 	0.2779	0.842	0.5383	-0.139
Mof_C 	C 	0.3734	0.0405	0.2541	0.493
Mof_C 	C 	0.3678	0.1897	0.2197	0.097
Mof_C 	C 	0.8031	0.4936	0.4402	-0.054
Mof_C 	C 	0.6775	0.6087	0.2844	-0.184
Mof_C 	C 	0.1014	0.0541	0.0555	-0.008
Mof_C 	C 	0.2144	0.7868	0.4294	0.034
Mof_C 	C 	0.1915	0.5791	0.5311	-0.055
Mof_C 	C 	0.8024	0.276	0.9696	0.018
Mof_C 	C 	0.9206	0.1774	0.0348	0.027
Mof_C 	C 	0.987	0.811	0.9247	-0.107
Mof_C 	C 	0.8024	0.224	0.4696	0.019
Mof_C 	C 	0.8975	0.871	0.9125	0.027
Mof_C 	C 	0.673	0.3803	0.0086	0.083
Mof_C 	C 	0.6717	0.7504	0.8206	-0.17
Mof_C 	C 	0.3784	0.1629	0.6793	0.402
Mof_C 	C 	0.8345	0.2532	0.5244	-0.044
Mof_C 	C 	0.1915	0.9209	0.0311	-0.056
Mof_C 	C 	0.3283	0.2496	0.1794	-0.17
Mof_C 	C 	0.2779	0.658	0.0383	-0.139
Mof_C 	C 	0.3678	0.3103	0.7197	0.096
Mof_C 	C 	0.9113	0.3994	0.5058	-0.009
Mof_C 	C 	0.2144	0.7132	0.9294	0.034
Mof_C 	C 	0.6322	0.6897	0.2803	0.096
Mof_C 	C 	0.1025	0.371	0.5875	0.027
Mof_C 	C 	0.1025	0.129	0.0875	0.027
Mof_C 	C 	0.3135	0.8726	0.5978	0.417
Mof_C 	C 	0.3225	0.1087	0.2156	-0.184
Mof_C 	C 	0.997	0.9612	0.9848	-0.003
Mof_O 	O 	0.461	0.3571	0.2149	-0.643
Mof_O 	O 	0.2735	0.8332	0.6393	-0.366
Mof_O 	O 	0.7265	0.1668	0.3607	-0.366
Mof_O 	O 	0.539	0.6429	0.7851	-0.643
Mof_O 	O 	0.4307	0.9448	0.39296	-0.516
Mof_O 	O 	0.6655	0.6118	0.8568	-0.483
Mof_O 	O 	0.5693	0.0552	0.60704	-0.516
Mof_O 	O 	0.691	0.1341	0.6622	-0.605
Mof_O 	O 	0.5693	0.4448	0.10704	-0.516
Mof_O 	O 	0.7265	0.3332	0.8607	-0.366
Mof_O 	O 	0.5614	0.9391	0.7049	-0.582
Mof_O 	O 	0.6522	0.0339	0.7611	-0.615
Mof_O 	O 	0.691	0.3659	0.1622	-0.606
Mof_O 	O 	0.4386	0.4391	0.7951	-0.582
Mof_O 	O 	0.379	0.9345	0.60138	-0.517
Mof_O 	O 	0.461	0.1429	0.7149	-0.643
Mof_O 	O 	0.309	0.6341	0.8378	-0.606
Mof_O 	O 	0.621	0.4345	0.89862	-0.517
Mof_O 	O 	0.621	0.0655	0.39862	-0.517
Mof_O 	O 	0.6522	0.4661	0.2611	-0.615
Mof_O 	O 	0.539	0.8571	0.2851	-0.643
Mof_O 	O 	0.4386	0.0609	0.2951	-0.582
Mof_O 	O 	0.3478	0.5339	0.7389	-0.615
Mof_O 	O 	0.5614	0.5609	0.2049	-0.582
Mof_O 	O 	0.3478	0.9661	0.2389	-0.615
Mof_O 	O 	0.379	0.5655	0.10138	-0.517
Mof_O 	O 	0.309	0.8659	0.3378	-0.605
Mof_O 	O 	0.3345	0.3882	0.1432	-0.483
Mof_O 	O 	0.2735	0.6668	0.1393	-0.366
Mof_O 	O 	0.6655	0.8882	0.3568	-0.483
Mof_O 	O 	0.3345	0.1118	0.6432	-0.483
Mof_O 	O 	0.4307	0.5552	0.89296	-0.516
_end
