# CIF file generated by openbabel 3.1.0, see https://openbabel.org
data_I
_chemical_name_common 'image0'
_cell_length_a 6.971
_cell_length_b 12.54
_cell_length_c 13.212
_cell_angle_alpha 112.62
_cell_angle_beta 96.1
_cell_angle_gamma 93.44
_space_group_name_H-M_alt 'P 1'
_space_group_name_Hall 'P 1'
loop_
    _symmetry_equiv_pos_as_xyz
    x,y,z
loop_
    _atom_site_label
    _atom_site_type_symbol
    _atom_site_fract_x
    _atom_site_fract_y
    _atom_site_fract_z
    _atom_site_occupancy
    Na1      Na       0.24860    0.53990    0.47950    1.000
    O1       O        0.28150    0.48590    0.28720    1.000
    O2       O        0.56820    0.47820    0.37290    1.000
    N1       N        0.75660    0.49070    0.18880    1.000
    C1       C        0.46110    0.48510    0.29450    1.000
    C2       C        0.54060    0.49010    0.19240    1.000
    C3       C        0.86060    0.59680    0.28090    1.000
    C4       C        0.82590    0.38220    0.19510    1.000
    C5       C        0.78710    0.49410    0.07780    1.000
    C6       C        0.99690    0.50340    0.05850    1.000
    O3       O        0.02580    0.36950    0.44510    1.000
    O4       O        0.90800    0.18400    0.36820    1.000
    N2       N        0.23580    0.12760    0.24350    1.000
    C7       C        0.03420    0.26500    0.38750    1.000
    C8       C        0.22360    0.24330    0.33650    1.000
    C9       C        0.43210    0.13610    0.20910    1.000
    C10      C        0.21930    0.02980    0.28190    1.000
    C11      C        0.07970    0.11030    0.14900    1.000
    C12      C        0.08120    0.00140    0.04380    1.000
    Na2      Na       0.75140    0.46010    0.52050    1.000
    O5       O        0.71850    0.51410    0.71280    1.000
    O6       O        0.43180    0.52180    0.62710    1.000
    N3       N        0.24340    0.50930    0.81120    1.000
    C13      C        0.53890    0.51490    0.70550    1.000
    C14      C        0.45940    0.50990    0.80760    1.000
    C15      C        0.13940    0.40320    0.71910    1.000
    C16      C        0.17410    0.61780    0.80490    1.000
    C17      C        0.21290    0.50590    0.92220    1.000
    C18      C        0.00310    0.49660    0.94150    1.000
    O7       O        0.97420    0.63050    0.55490    1.000
    O8       O        0.09200    0.81600    0.63180    1.000
    N4       N        0.76420    0.87240    0.75650    1.000
    C19      C        0.96580    0.73500    0.61250    1.000
    C20      C        0.77640    0.75670    0.66350    1.000
    C21      C        0.56790    0.86390    0.79090    1.000
    C22      C        0.78070    0.97020    0.71810    1.000
    C23      C        0.92030    0.88970    0.85100    1.000
    C24      C        0.91880    0.99860    0.95620    1.000
