data_functionalizedCrystal
_audit_creation_method	'EQeq! by Chris Wilmer'
_symmetry_space_group_name_H-M	'P1'
_symmetry_Int_Tables_number	1
_symmetry_cell_setting	triclinic
loop_
_symmetry_equiv_pos_as_xyz
  x,y,z
_cell_length_a	6.5688
_cell_length_b	16.3828
_cell_length_c	13.1723
_cell_angle_alpha	90
_cell_angle_beta	90
_cell_angle_gamma	90
loop_
_atom_site_label
_atom_site_type_symbol
_atom_site_fract_x
_atom_site_fract_y
_atom_site_fract_z
_atom_site_charge
Mof_O 	O 	0.1693	0.16838	0.83985	-1.646
Mof_C 	C 	0.8064	0.0254	0.9543	0.027
Mof_O 	O 	0.6693	0.66838	0.33985	-1.636
Mof_C 	C 	0.3064	0.5254	0.4543	0.07
Mof_O 	O 	0.8307	0.33162	0.83985	-1.664
Mof_C 	C 	0.1936	0.4746	0.9543	0.059
Mof_O 	O 	0.3307	0.83162	0.33985	-1.636
Mof_C 	C 	0.6936	0.9746	0.4543	0.05
Mof_O 	O 	0.8307	0.66838	0.16015	-1.664
Mof_C 	C 	0.1936	0.5254	0.0457	0.059
Mof_O 	O 	0.3307	0.16838	0.66015	-1.636
Mof_C 	C 	0.6936	0.0254	0.5457	0.05
Mof_O 	O 	0.1693	0.83162	0.16015	-1.645
Mof_C 	C 	0.8064	0.9746	0.0457	0.028
Mof_O 	O 	0.6693	0.33162	0.66015	-1.635
Mof_C 	C 	0.3064	0.4746	0.5457	0.071
Mof_O 	O 	0.8307	0.83162	0.16015	-1.663
Mof_C 	C 	0.1936	0.9746	0.0457	0.059
Mof_O 	O 	0.3307	0.33162	0.66015	-1.636
Mof_C 	C 	0.6936	0.4746	0.5457	0.05
Mof_O 	O 	0.1693	0.66838	0.16015	-1.645
Mof_C 	C 	0.8064	0.5254	0.0457	0.028
Mof_O 	O 	0.6693	0.16838	0.66015	-1.635
Mof_C 	C 	0.3064	0.0254	0.5457	0.07
Mof_O 	O 	0.1693	0.33162	0.83985	-1.645
Mof_C 	C 	0.8064	0.4746	0.9543	0.028
Mof_O 	O 	0.6693	0.83162	0.33985	-1.635
Mof_C 	C 	0.3064	0.9746	0.4543	0.07
Mof_O 	O 	0.8307	0.16838	0.83985	-1.663
Mof_C 	C 	0.1936	0.0254	0.9543	0.059
Mof_O 	O 	0.3307	0.66838	0.33985	-1.636
Mof_C 	C 	0.6936	0.5254	0.4543	0.05
Mof_Al	Al	0.25	0.25	0.75	6.878
Mof_Al	Al	0.75	0.25	0.75	6.789
Mof_Al	Al	0.75	0.75	0.25	6.789
Mof_Al	Al	0.25	0.75	0.25	6.878
Mof_F 	F 	2.30026e-32	0.25	0.6909	-2.25
Mof_F 	F 	0.5	0.75	0.1909	-2.271
Mof_F 	F 	1.1228e-32	0.75	0.3091	-2.25
Mof_F 	F 	0.5	0.25	0.8091	-2.271
Mof_C 	C 	-1.07021e-32	0.0644	0.9451	-0.266
Mof_C 	C 	6.566e-33	0.1396	0.8733	1.204
Mof_C 	C 	0.5	0.5644	0.4451	-0.3
Mof_C 	C 	0.5	0.6396	0.3733	1.162
Mof_C 	C 	-1.07021e-32	0.4356	0.9451	-0.266
Mof_C 	C 	-2.905e-32	0.3604	0.8733	1.204
Mof_C 	C 	0.5	0.9356	0.4451	-0.3
Mof_C 	C 	0.5	0.8604	0.3733	1.162
Mof_C 	C 	-7.37822e-33	0.5644	0.0549	-0.266
Mof_C 	C 	1.20826e-32	0.6396	0.1267	1.204
Mof_C 	C 	0.5	0.0644	0.5549	-0.3
Mof_C 	C 	0.5	0.1396	0.6267	1.162
Mof_C 	C 	-7.37822e-33	0.9356	0.0549	-0.266
Mof_C 	C 	1.20826e-32	0.8604	0.1267	1.204
Mof_C 	C 	0.5	0.4356	0.5549	-0.3
Mof_C 	C 	0.5	0.3604	0.6267	1.162
_end
