# CIF file generated by openbabel 3.1.0, see https://openbabel.org
data_I
_chemical_name_common 'image0'
_cell_length_a 13.5324
_cell_length_b 13.5324
_cell_length_c 8.0668
_cell_angle_alpha 90
_cell_angle_beta 90
_cell_angle_gamma 120
_space_group_name_H-M_alt 'P 1'
_space_group_name_Hall 'P 1'
loop_
    _symmetry_equiv_pos_as_xyz
    x,y,z
loop_
    _atom_site_label
    _atom_site_type_symbol
    _atom_site_fract_x
    _atom_site_fract_y
    _atom_site_fract_z
    _atom_site_occupancy
    Mn1      Mn       0.30192    0.33787    0.54561    1.000
    O1       O        0.23044    0.18111    0.40710    1.000
    C1       C        0.53512    0.32276    0.54840    1.000
    C2       C        0.35411    0.56029    0.77610    1.000
    O2       O        0.24610    0.05757    0.24740    1.000
    C3       C        0.26810    0.15782    0.28130    1.000
    N1       N        0.34619    0.20801    0.00060    1.000
    H1       H        0.41020    0.25590    0.94500    1.000
    H2       H        0.28560    0.19780    0.94090    1.000
    C4       C        0.34579    0.25444    0.16390    1.000
    H3       H        0.42340    0.28700    0.20770    1.000
    N2       N        0.36601    0.42703    0.30250    1.000
    H4       H        0.34840    0.48280    0.29470    1.000
    H5       H        0.44260    0.46020    0.30090    1.000
    C5       C        0.31950    0.35210    0.15620    1.000
    H6       H        0.35260    0.39640    0.05630    1.000
    H7       H        0.23760    0.32080    0.15150    1.000
    N3       N        0.45641    0.32135    0.60520    1.000
    N4       N        0.36851    0.50053    0.68970    1.000
    Mn2      Mn       0.66213    0.96405    0.54561    1.000
    O3       O        0.81889    0.04933    0.40710    1.000
    C6       C        0.67724    0.21236    0.54840    1.000
    C7       C        0.43971    0.79382    0.77610    1.000
    O4       O        0.94243    0.18853    0.24740    1.000
    C8       C        0.84218    0.11028    0.28130    1.000
    N5       N        0.79199    0.13818    0.00060    1.000
    H8       H        0.74410    0.15430    0.94500    1.000
    H9       H        0.80220    0.08780    0.94090    1.000
    C9       C        0.74556    0.09135    0.16390    1.000
    H10      H        0.71300    0.13640    0.20770    1.000
    N6       N        0.57297    0.93898    0.30250    1.000
    H11      H        0.51720    0.86560    0.29470    1.000
    H12      H        0.53980    0.98240    0.30090    1.000
    C10      C        0.64790    0.96740    0.15620    1.000
    H13      H        0.60360    0.95620    0.05630    1.000
    H14      H        0.67920    0.91680    0.15150    1.000
    N7       N        0.67865    0.13506    0.60520    1.000
    N8       N        0.49947    0.86798    0.68970    1.000
    Mn3      Mn       0.03595    0.69808    0.54561    1.000
    O5       O        0.95067    0.76956    0.40710    1.000
    C11      C        0.78764    0.46488    0.54840    1.000
    C12      C        0.20618    0.64589    0.77610    1.000
    O6       O        0.81147    0.75390    0.24740    1.000
    C13      C        0.88972    0.73190    0.28130    1.000
    N9       N        0.86182    0.65381    0.00060    1.000
    H15      H        0.84570    0.58980    0.94500    1.000
    H16      H        0.91220    0.71440    0.94090    1.000
    C14      C        0.90865    0.65421    0.16390    1.000
    H17      H        0.86360    0.57660    0.20770    1.000
    N10      N        0.06102    0.63399    0.30250    1.000
    H18      H        0.13440    0.65160    0.29470    1.000
    H19      H        0.01760    0.55740    0.30090    1.000
    C15      C        0.03260    0.68050    0.15620    1.000
    H20      H        0.04380    0.64740    0.05630    1.000
    H21      H        0.08320    0.76240    0.15150    1.000
    N11      N        0.86494    0.54359    0.60520    1.000
    N12      N        0.13202    0.63149    0.68970    1.000
    Mn4      Mn       0.69808    0.66213    0.04561    1.000
    O7       O        0.76956    0.81889    0.90710    1.000
    C16      C        0.46488    0.67724    0.04840    1.000
    C17      C        0.64589    0.43971    0.27610    1.000
    O8       O        0.75390    0.94243    0.74740    1.000
    C18      C        0.73190    0.84218    0.78130    1.000
    N13      N        0.65381    0.79199    0.50060    1.000
    H22      H        0.58980    0.74410    0.44500    1.000
    H23      H        0.71440    0.80220    0.44090    1.000
    C19      C        0.65421    0.74556    0.66390    1.000
    H24      H        0.57660    0.71300    0.70770    1.000
    N14      N        0.63399    0.57297    0.80250    1.000
    H25      H        0.65160    0.51720    0.79470    1.000
    H26      H        0.55740    0.53980    0.80090    1.000
    C20      C        0.68050    0.64790    0.65620    1.000
    H27      H        0.64740    0.60360    0.55630    1.000
    H28      H        0.76240    0.67920    0.65150    1.000
    N15      N        0.54359    0.67865    0.10520    1.000
    N16      N        0.63149    0.49947    0.18970    1.000
    Mn5      Mn       0.33787    0.03595    0.04561    1.000
    O9       O        0.18111    0.95067    0.90710    1.000
    C21      C        0.32276    0.78764    0.04840    1.000
    C22      C        0.56029    0.20618    0.27610    1.000
    O10      O        0.05757    0.81147    0.74740    1.000
    C23      C        0.15782    0.88972    0.78130    1.000
    N17      N        0.20801    0.86182    0.50060    1.000
    H29      H        0.25590    0.84570    0.44500    1.000
    H30      H        0.19780    0.91220    0.44090    1.000
    C24      C        0.25444    0.90865    0.66390    1.000
    H31      H        0.28700    0.86360    0.70770    1.000
    N18      N        0.42703    0.06102    0.80250    1.000
    H32      H        0.48280    0.13440    0.79470    1.000
    H33      H        0.46020    0.01760    0.80090    1.000
    C25      C        0.35210    0.03260    0.65620    1.000
    H34      H        0.39640    0.04380    0.55630    1.000
    H35      H        0.32080    0.08320    0.65150    1.000
    N19      N        0.32135    0.86494    0.10520    1.000
    N20      N        0.50053    0.13202    0.18970    1.000
    Mn6      Mn       0.96405    0.30192    0.04561    1.000
    O11      O        0.04933    0.23044    0.90710    1.000
    C26      C        0.21236    0.53512    0.04840    1.000
    C27      C        0.79382    0.35411    0.27610    1.000
    O12      O        0.18853    0.24610    0.74740    1.000
    C28      C        0.11028    0.26810    0.78130    1.000
    N21      N        0.13818    0.34619    0.50060    1.000
    H36      H        0.15430    0.41020    0.44500    1.000
    H37      H        0.08780    0.28560    0.44090    1.000
    C29      C        0.09135    0.34579    0.66390    1.000
    H38      H        0.13640    0.42340    0.70770    1.000
    N22      N        0.93898    0.36601    0.80250    1.000
    H39      H        0.86560    0.34840    0.79470    1.000
    H40      H        0.98240    0.44260    0.80090    1.000
    C30      C        0.96740    0.31950    0.65620    1.000
    H41      H        0.95620    0.35260    0.55630    1.000
    H42      H        0.91680    0.23760    0.65150    1.000
    N23      N        0.13506    0.45641    0.10520    1.000
    N24      N        0.86798    0.36851    0.18970    1.000
    Mn7      Mn       0.33333    0.66667    0.92101    1.000
    Mn8      Mn       0.66667    0.33333    0.42101    1.000
