data_functionalizedCrystal
_audit_creation_method	'EQeq! by Chris Wilmer'
_symmetry_space_group_name_H-M	'P1'
_symmetry_Int_Tables_number	1
_symmetry_cell_setting	triclinic
loop_
_symmetry_equiv_pos_as_xyz
  x,y,z
_cell_length_a	16.1491
_cell_length_b	20.6896
_cell_length_c	20.7592
_cell_angle_alpha	113.408
_cell_angle_beta	98.04
_cell_angle_gamma	90.077
loop_
_atom_site_label
_atom_site_type_symbol
_atom_site_fract_x
_atom_site_fract_y
_atom_site_fract_z
_atom_site_charge
Mof_Cu	Cu	0.68459	0.06955	0.57083	0.91
Mof_Cu	Cu	0.82956	0.15842	0.18945	0.866
Mof_Cu	Cu	0.93363	0.21638	0.88752	0.857
Mof_Cu	Cu	0.67032	0.05922	0.06274	0.909
Mof_Cu	Cu	0.55985	0.72086	0.8329	0.877
Mof_Cu	Cu	0.32968	0.94078	0.93726	0.908
Mof_Cu	Cu	0.6175	0.19704	0.70923	0.896
Mof_Cu	Cu	0.31901	0.3546	0.558	0.857
Mof_Cu	Cu	0.67591	0.6518	0.94278	0.869
Mof_Cu	Cu	0.3825	0.80296	0.29077	0.896
Mof_Cu	Cu	0.44124	0.28	0.65423	0.873
Mof_Cu	Cu	0.38086	0.81034	0.78999	0.898
Mof_Cu	Cu	0.14106	0.28087	0.48429	0.849
Mof_Cu	Cu	0.68099	0.6454	0.442	0.857
Mof_Cu	Cu	0.82152	0.54638	0.98048	0.856
Mof_Cu	Cu	0.88946	0.69131	0.96245	0.867
Mof_Cu	Cu	0.32409	0.3482	0.05722	0.869
Mof_Cu	Cu	0.85894	0.71913	0.51571	0.849
Mof_Cu	Cu	0.17848	0.45362	0.01952	0.856
Mof_Cu	Cu	0.50405	0.43304	0.64533	0.867
Mof_Cu	Cu	0.00131	0.09259	0.74853	0.865
Mof_Cu	Cu	0.04292	0.79882	0.6504	0.854
Mof_Cu	Cu	0.8262	0.54529	0.47719	0.877
Mof_Cu	Cu	0.49595	0.56696	0.35467	0.867
Mof_Cu	Cu	0.61914	0.18966	0.21001	0.898
Mof_Cu	Cu	0.1738	0.45471	0.52281	0.877
Mof_Cu	Cu	0.31541	0.93045	0.42917	0.909
Mof_Cu	Cu	0.1703	0.82711	0.28669	0.895
Mof_Cu	Cu	0.95708	0.20118	0.3496	0.854
Mof_Cu	Cu	0.99154	0.92346	0.79895	0.862
Mof_Cu	Cu	0.50295	0.43262	0.15985	0.867
Mof_Cu	Cu	0.06637	0.78362	0.11248	0.856
Mof_Cu	Cu	0.99869	0.90741	0.25147	0.865
Mof_Cu	Cu	0.11054	0.30869	0.03755	0.867
Mof_Cu	Cu	0.8297	0.17289	0.71331	0.895
Mof_Cu	Cu	0.44015	0.27914	0.1671	0.877
Mof_Cu	Cu	0.17044	0.84158	0.81055	0.865
Mof_Cu	Cu	0.49705	0.56738	0.84015	0.867
Mof_Cu	Cu	0.55876	0.72	0.34577	0.873
Mof_Cu	Cu	0.00846	0.07654	0.20105	0.862
Mof_H 	H 	0.7634	0.2755	0.9612	0.001
Mof_H 	H 	0.4047	0.1473	0.4953	0.022
Mof_H 	H 	0.6611	0.2534	0.3865	0.037
Mof_H 	H 	0.8015	0.8914	0.1703	0.025
Mof_H 	H 	0.2174	0.3297	0.9589	0.133
Mof_H 	H 	0.8528	0.579	0.7322	0.029
Mof_H 	H 	0.326	0.3465	0.7846	0.031
Mof_H 	H 	0.0594	0.0676	0.9515	0.015
Mof_H 	H 	0.2486	0.6775	0.7599	-0.003
Mof_H 	H 	0.2625	0.1682	0.3889	0.015
Mof_H 	H 	0.8058	0.2637	0.4472	0.035
Mof_H 	H 	0.0545	0.056	0.4008	0.013
Mof_H 	H 	0.9406	0.9324	0.0485	0.015
Mof_H 	H 	0.2366	0.7245	0.0388	0.001
Mof_H 	H 	0.6855	0.4046	0.913	0.008
Mof_H 	H 	0.9037	0.355	0.3587	0.003
Mof_H 	H 	0.272	0.196	0.1872	0.033
Mof_H 	H 	0.295	0.5766	0.789	0.005
Mof_H 	H 	0.3432	0.9223	0.6696	0.043
Mof_H 	H 	0.2796	0.816	0.8836	0.13
Mof_H 	H 	0.5468	0.4099	0.8519	0.029
Mof_H 	H 	0.6002	0.8957	0.8403	0.028
Mof_H 	H 	0.1568	0.0289	0.657	0.012
Mof_H 	H 	0.86	0.9929	0.9137	0.006
Mof_H 	H 	0.7342	0.1967	0.6276	0.164
Mof_H 	H 	0.1942	0.7363	0.5528	0.035
Mof_H 	H 	0.728	0.804	0.8128	0.033
Mof_H 	H 	0.5077	0.0583	0.4571	0.042
Mof_H 	H 	0.2532	0.6675	0.2555	0.028
Mof_H 	H 	0.0963	0.645	0.6413	0.003
Mof_H 	H 	0.6147	0.8951	0.3499	0.03
Mof_H 	H 	0.7285	0.8168	0.342	0.027
Mof_H 	H 	0.674	0.6535	0.2154	0.031
Mof_H 	H 	0.3145	0.5954	0.087	0.008
Mof_H 	H 	0.1985	0.1086	0.8297	0.025
Mof_H 	H 	0.454	0.5898	0.6306	0.028
Mof_H 	H 	0.5953	0.8527	0.5047	0.022
Mof_H 	H 	0.5853	0.9003	0.1561	0.03
Mof_H 	H 	0.8667	0.3892	0.5759	0.032
Mof_H 	H 	0.3116	0.5974	0.5777	0.023
Mof_H 	H 	0.9955	0.5419	0.0872	0.016
Mof_H 	H 	0.4532	0.5901	0.1481	0.029
Mof_H 	H 	0.9731	0.2131	0.7644	0.151
Mof_H 	H 	0.3954	0.1529	0.0049	0.015
Mof_H 	H 	0.7943	0.9251	0.9912	0.023
Mof_H 	H 	0.1823	0.3826	0.5919	0.13
Mof_H 	H 	0.2959	0.5733	0.2944	0.025
Mof_H 	H 	0.5376	0.6808	0.4581	0.148
Mof_H 	H 	0.9903	0.4634	0.4337	0.002
Mof_H 	H 	0.6568	0.0777	0.3304	0.043
Mof_H 	H 	0.6884	0.4026	0.4223	0.023
Mof_H 	H 	0.2715	0.1832	0.658	0.027
Mof_H 	H 	0.2057	0.0749	0.0088	0.023
Mof_H 	H 	0.7514	0.3225	0.2401	-0.003
Mof_H 	H 	0.8177	0.6174	0.4081	0.13
Mof_H 	H 	0.6464	0.0802	0.8272	0.038
Mof_H 	H 	0.2356	0.1888	0.956	0.01
Mof_H 	H 	0.6555	0.527	0.1366	-0.004
Mof_H 	H 	0.8114	0.9359	0.5227	0.029
Mof_H 	H 	0.6286	0.2676	0.8846	0.034
Mof_H 	H 	0.4242	0.0924	0.3497	0.028
Mof_H 	H 	0.6046	0.8471	0.9951	0.015
Mof_H 	H 	0.9771	0.1998	0.2193	0.128
Mof_H 	H 	0.2139	0.0902	0.2631	0.027
Mof_H 	H 	0.0045	0.4581	0.9128	0.016
Mof_H 	H 	0.705	0.4234	0.211	0.005
Mof_H 	H 	0.3445	0.473	0.8634	-0.004
Mof_H 	H 	0.833	0.0993	0.3936	0.044
Mof_H 	H 	0.139	0.1791	0.5793	0.016
Mof_H 	H 	0.7861	0.9098	0.7369	0.027
Mof_H 	H 	0.3998	0.1043	0.1597	0.028
Mof_H 	H 	0.7375	0.8318	0.6111	0.015
Mof_H 	H 	0.8409	0.1197	0.9574	0.016
Mof_H 	H 	0.0097	0.5366	0.5663	0.002
Mof_H 	H 	0.167	0.9007	0.6064	0.044
Mof_H 	H 	0.5087	0.9417	0.0401	0.041
Mof_H 	H 	0.0269	0.7869	0.2356	0.151
Mof_H 	H 	0.1313	0.2156	0.1375	-0.009
Mof_H 	H 	0.3536	0.9198	0.1728	0.038
Mof_H 	H 	0.7644	0.8112	0.044	0.01
Mof_H 	H 	0.8983	0.3577	0.8661	0.02
Mof_H 	H 	0.2658	0.8033	0.3724	0.164
Mof_H 	H 	0.4913	0.0583	0.9599	0.041
Mof_H 	H 	0.0919	0.5891	0.222	0.025
Mof_H 	H 	0.8432	0.9711	0.343	0.012
Mof_H 	H 	0.861	0.8209	0.4207	0.016
Mof_H 	H 	0.4923	0.9417	0.5429	0.042
Mof_H 	H 	0.6693	0.657	0.6988	0.042
Mof_H 	H 	0.9081	0.4109	0.778	0.025
Mof_H 	H 	0.652	0.5293	0.6199	0.025
Mof_H 	H 	0.4676	0.3185	0.0598	0.135
Mof_H 	H 	0.7826	0.6703	0.0411	0.133
Mof_H 	H 	0.3714	0.7324	0.1154	0.034
Mof_H 	H 	0.1333	0.6108	0.4241	0.032
Mof_H 	H 	0.1886	0.0641	0.4773	0.029
Mof_H 	H 	0.348	0.4707	0.3801	0.025
Mof_H 	H 	0.5324	0.6815	0.9402	0.135
Mof_H 	H 	0.7204	0.184	0.1164	0.13
Mof_H 	H 	0.1017	0.6423	0.1339	0.02
Mof_H 	H 	0.5758	0.9076	0.6503	0.028
Mof_H 	H 	0.7468	0.3325	0.7445	0.028
Mof_H 	H 	0.3307	0.343	0.3012	0.042
Mof_H 	H 	0.3853	0.1049	0.6501	0.03
Mof_H 	H 	0.8687	0.7844	0.8625	-0.009
Mof_H 	H 	0.0229	0.8002	0.7807	0.128
Mof_H 	H 	0.14	0.0071	0.0863	0.006
Mof_H 	H 	0.4624	0.3192	0.5419	0.148
Mof_H 	H 	0.1472	0.421	0.2678	0.029
Mof_H 	H 	0.9455	0.944	0.5992	0.013
Mof_H 	H 	0.546	0.4102	0.3694	0.028
Mof_H 	H 	0.4147	0.0997	0.8439	0.03
Mof_H 	H 	0.1591	0.8803	0.0426	0.016
Mof_H 	H 	0.3389	0.7466	0.6135	0.037
Mof_H 	H 	0.7041	0.4267	0.7056	0.025
Mof_C 	C 	0.3689	0.4504	0.8228	0.002
Mof_C 	C 	0.6292	0.9932	0.8461	-0.115
Mof_C 	C 	0.4175	0.1096	0.2596	-0.119
Mof_C 	C 	0.1047	0.5694	0.2551	0.053
Mof_C 	C 	0.8287	0.5188	0.5915	0.306
Mof_C 	C 	0.995	0.5806	0.075	-0.008
Mof_C 	C 	0.6188	0.9958	0.2365	-0.114
Mof_C 	C 	0.4062	0.112	0.7512	-0.114
Mof_C 	C 	0.1811	0.1195	0.2949	0.008
Mof_C 	C 	0.6542	0.0299	0.9252	0.323
Mof_C 	C 	0.4028	0.0761	0.7948	0.058
Mof_C 	C 	0.8655	0.074	0.3593	-0.013
Mof_C 	C 	0.4127	0.5529	0.1258	-0.002
Mof_C 	C 	0.9986	0.5819	0.57	0.015
Mof_C 	C 	0.3715	0.4484	0.339	0.002
Mof_C 	C 	0.7368	0.7947	0.3734	0.019
Mof_C 	C 	0.005	0.4194	0.925	-0.008
Mof_C 	C 	0.8537	0.4883	0.6459	-0.114
Mof_C 	C 	0.2632	0.2053	0.6266	0.019
Mof_C 	C 	0.6377	0.6226	0.7045	0.01
Mof_C 	C 	0.2449	0.7404	0.088	0.006
Mof_C 	C 	0.5102	0.0945	0.502	0.016
Mof_C 	C 	0.8675	0.0933	0.9192	-0.007
Mof_C 	C 	0.412	0.5537	0.6124	0.004
Mof_C 	C 	0.1186	0.4545	0.1535	0.362
Mof_C 	C 	0.6285	0.5516	0.661	0.002
Mof_C 	C 	0.503	0.9064	0.9945	0.011
Mof_C 	C 	0.611	0.0005	0.7325	-0.118
Mof_C 	C 	0.6672	0.442	0.4163	0.011
Mof_C 	C 	0.8189	0.8805	0.7051	0.008
Mof_C 	C 	0.8716	0.0033	0.3315	0.021
Mof_C 	C 	0.7919	0.837	0.635	0.015
Mof_C 	C 	0.3688	0.9678	0.1948	0.054
Mof_C 	C 	0.5938	0.888	0.2488	-0.114
Mof_C 	C 	0.444	0.1462	0.0308	0.02
Mof_C 	C 	0.3812	0.0042	0.7635	-0.114
Mof_C 	C 	0.9025	0.9671	0.0624	0.003
Mof_C 	C 	0.5466	0.8562	0.4768	0.023
Mof_C 	C 	0.8104	0.7973	0.4172	0.003
Mof_C 	C 	0.6967	0.3298	0.2248	-0.002
Mof_C 	C 	0.671	0.3856	0.2078	0.004
Mof_C 	C 	0.2601	0.2204	0.1581	-0.001
Mof_C 	C 	0.3807	0.9614	0.8083	0.365
Mof_C 	C 	0.9461	0.3636	0.8992	-0.006
Mof_C 	C 	0.0975	0.0329	0.9376	0.003
Mof_C 	C 	0.8813	0.5031	0.7679	-0.129
Mof_C 	C 	0.5825	0.8904	0.7404	-0.119
Mof_C 	C 	0.8164	0.8169	0.072	0.001
Mof_C 	C 	0.3966	0.078	0.1868	0.057
Mof_C 	C 	0.1325	0.9067	0.0808	-0.007
Mof_C 	C 	0.8372	0.8614	0.1422	0.01
Mof_C 	C 	0.5972	0.9239	0.2052	0.058
Mof_C 	C 	0.3623	0.3774	0.2955	0.01
Mof_C 	C 	0.68	0.2551	0.8694	0.01
Mof_C 	C 	0.329	0.6144	0.7922	0.004
Mof_C 	C 	0.6412	0.6197	0.221	-0.002
Mof_C 	C 	0.2112	0.7525	0.6016	0.005
Mof_C 	C 	0.6746	0.0298	0.4316	0.313
Mof_C 	C 	0.9084	0.9796	0.6057	0.015
Mof_C 	C 	0.3254	0.9702	0.5684	0.313
Mof_C 	C 	0.1463	0.5117	0.3541	-0.114
Mof_C 	C 	0.6641	0.4445	0.9084	0.01
Mof_C 	C 	0.8342	0.9751	0.5629	0.003
Mof_C 	C 	0.4122	0.0706	0.3005	0.061
Mof_C 	C 	0.1836	0.1831	0.928	0.001
Mof_C 	C 	0.182	0.2314	0.1307	0.017
Mof_C 	C 	0.1284	0.9967	0.6685	0.021
Mof_C 	C 	0.1387	0.4689	0.2824	0.048
Mof_C 	C 	0.6431	0.9922	0.3531	-0.103
Mof_C 	C 	0.5878	0.9294	0.6995	0.061
Mof_C 	C 	0.497	0.0936	0.0055	0.011
Mof_C 	C 	0.7086	0.242	0.3645	0.019
Mof_C 	C 	0.3569	0.0078	0.6469	-0.103
Mof_C 	C 	0.3581	0.9705	0.6901	0.044
Mof_C 	C 	0.1628	0.1386	0.8578	0.01
Mof_C 	C 	0.818	0.7686	0.8693	0.017
Mof_C 	C 	0.1211	0.9765	0.1048	0.018
Mof_C 	C 	0.0462	0.642	0.6117	0.005
Mof_C 	C 	0.8212	0.9632	0.0305	0.014
Mof_C 	C 	0.6167	0.0449	0.6898	0.354
Mof_C 	C 	0.556	0.8538	0.9692	0.02
Mof_C 	C 	0.8789	0.0235	0.8952	0.018
Mof_C 	C 	0.6932	0.3373	0.7245	0.005
Mof_C 	C 	0.3458	0.9701	0.0748	0.323
Mof_C 	C 	0.3708	0.0068	0.1539	-0.115
Mof_C 	C 	0.3068	0.6627	0.2755	0.005
Mof_C 	C 	0.6193	0.0386	0.1917	0.365
Mof_C 	C 	0.1187	0.4969	0.2321	-0.129
Mof_C 	C 	0.2914	0.758	0.6355	0.019
Mof_C 	C 	0.1302	0.5825	0.376	0.046
Mof_C 	C 	0.8953	0.4306	0.7449	0.053
Mof_C 	C 	0.3832	0.0794	0.6781	0.048
Mof_C 	C 	0.4898	0.9055	0.498	0.016
Mof_C 	C 	0.3033	0.6702	0.7752	-0.002
Mof_C 	C 	0.1896	0.2027	0.5828	0.003
Mof_C 	C 	0.1345	0.926	0.6407	-0.013
Mof_C 	C 	0.389	0.9995	0.2675	-0.118
Mof_C 	C 	0.1098	0.611	0.3265	-0.122
Mof_C 	C 	0.0916	0.0204	0.3943	0.015
Mof_C 	C 	0.3304	0.6108	0.2975	0.016
Mof_C 	C 	0.9538	0.358	0.3883	0.005
Mof_C 	C 	0.7888	0.2475	0.3984	0.005
Mof_C 	C 	0.8814	0.5455	0.8465	0.362
Mof_C 	C 	0.4534	0.1438	0.5232	0.023
Mof_C 	C 	0.8698	0.4175	0.624	0.046
Mof_C 	C 	0.3833	0.9551	0.3102	0.354
Mof_C 	C 	0.588	0.4463	0.3876	0.004
Mof_C 	C 	0.1658	0.0249	0.4371	0.003
Mof_C 	C 	0.32	0.7449	0.1306	0.01
Mof_C 	C 	0.7399	0.7796	0.8419	-0.001
Mof_C 	C 	0.3328	0.558	0.5837	0.011
Mof_C 	C 	0.3588	0.3803	0.779	-0.002
Mof_C 	C 	0.7551	0.2596	0.912	0.006
Mof_C 	C 	0.0014	0.4181	0.43	0.015
Mof_C 	C 	0.8902	0.389	0.6735	-0.122
Mof_C 	C 	0.6168	0.9206	0.3219	0.048
Mof_C 	C 	0.8613	0.5311	0.7176	0.048
Mof_C 	C 	0.6311	0.5496	0.1772	0.002
Mof_C 	C 	0.2081	0.163	0.365	0.015
Mof_C 	C 	0.6312	0.0322	0.8052	0.054
Mof_C 	C 	0.6419	0.0295	0.3099	0.044
Mof_C 	C 	0.1788	0.0368	0.9695	0.014
Mof_C 	C 	0.5873	0.4471	0.8742	-0.002
Mof_C 	C 	0.3359	0.5555	0.0916	0.01
Mof_C 	C 	0.0539	0.6364	0.1008	-0.006
Mof_C 	C 	0.6696	0.3892	0.7025	0.016
Mof_C 	C 	0.6034	0.922	0.8132	0.057
Mof_C 	C 	0.1713	0.4812	0.4085	0.306
Mof_S 	S 	0.42738	0.20552	0.79202	0.519
Mof_S 	S 	0.90741	0.29749	0.64552	0.505
Mof_S 	S 	0.09259	0.70251	0.35448	0.505
Mof_S 	S 	0.55506	0.7982	0.69614	0.518
Mof_S 	S 	0.57262	0.79448	0.20798	0.519
Mof_S 	S 	0.44494	0.2018	0.30386	0.518
Mof_N 	N 	0.2899	0.4962	0.5652	-0.189
Mof_N 	N 	0.9168	0.03	0.1172	-0.186
Mof_N 	N 	0.5212	0.8138	0.4095	-0.178
Mof_N 	N 	0.5591	0.5686	0.2624	-0.147
Mof_N 	N 	0.5577	0.57	0.7485	-0.145
Mof_N 	N 	0.1483	0.9222	0.3528	-0.166
Mof_N 	N 	0.7096	0.2177	0.2949	-0.172
Mof_N 	N 	0.7259	0.7191	0.9048	-0.163
Mof_N 	N 	0.9173	0.8543	0.1634	-0.189
Mof_N 	N 	0.9025	0.1171	0.8765	-0.188
Mof_N 	N 	0.8854	0.7831	0.0512	-0.187
Mof_N 	N 	0.2054	0.2411	0.5462	-0.198
Mof_N 	N 	0.1431	0.1962	0.3925	-0.201
Mof_N 	N 	0.6255	0.2945	0.712	-0.18
Mof_N 	N 	0.3197	0.2447	0.6163	-0.18
Mof_N 	N 	0.4287	0.8925	0.4421	-0.165
Mof_N 	N 	0.0646	0.937	0.1714	-0.137
Mof_N 	N 	0.0666	0.4004	0.4644	-0.181
Mof_N 	N 	0.5617	0.3193	0.6822	-0.158
Mof_N 	N 	0.21	0.7912	0.714	-0.167
Mof_N 	N 	0.4412	0.8971	0.9409	-0.166
Mof_N 	N 	0.6278	0.2877	0.215	-0.182
Mof_N 	N 	0.7946	0.7589	0.4538	-0.198
Mof_N 	N 	0.0832	0.97	0.8828	-0.186
Mof_N 	N 	0.4383	0.6807	0.3178	-0.158
Mof_N 	N 	0.1999	0.9623	0.4103	-0.164
Mof_N 	N 	0.5887	0.3753	0.1861	-0.191
Mof_N 	N 	0.3745	0.7055	0.288	-0.18
Mof_N 	N 	0.4196	0.4857	0.1214	-0.187
Mof_N 	N 	0.4423	0.43	0.2515	-0.145
Mof_N 	N 	0.8001	0.0377	0.5897	-0.164
Mof_N 	N 	0.0991	0.127	0.2808	-0.191
Mof_N 	N 	0.4082	0.3677	0.2431	-0.179
Mof_N 	N 	0.7101	0.5038	0.4348	-0.189
Mof_N 	N 	0.7158	0.7342	0.4326	-0.177
Mof_N 	N 	0.4409	0.4314	0.7376	-0.147
Mof_N 	N 	0.9603	0.6536	0.0259	-0.168
Mof_N 	N 	0.4113	0.6247	0.8139	-0.191
Mof_N 	N 	0.5791	0.5195	0.204	-0.191
Mof_N 	N 	0.4733	0.1867	0.0992	-0.182
Mof_N 	N 	0.5806	0.5115	0.3899	-0.186
Mof_N 	N 	0.9219	0.0054	0.8404	-0.189
Mof_N 	N 	0.6825	0.7485	0.8647	-0.178
Mof_N 	N 	0.4573	0.8418	0.8847	-0.149
Mof_N 	N 	0.5891	0.377	0.6758	-0.187
Mof_N 	N 	0.2127	0.9762	0.9342	-0.169
Mof_N 	N 	0.815	0.2368	0.8693	-0.192
Mof_N 	N 	0.8467	0.0635	0.1181	-0.173
Mof_N 	N 	0.3446	0.4553	0.5822	-0.181
Mof_N 	N 	0.0827	0.1457	0.8366	-0.189
Mof_N 	N 	0.5918	0.6323	0.7569	-0.179
Mof_N 	N 	0.8382	0.2254	0.3485	-0.189
Mof_N 	N 	0.0487	0.952	0.7177	-0.143
Mof_N 	N 	0.0975	0.8829	0.1235	-0.188
Mof_N 	N 	0.5961	0.631	0.2731	-0.187
Mof_N 	N 	0.8517	0.0778	0.6472	-0.166
Mof_N 	N 	0.6554	0.5447	0.4178	-0.181
Mof_N 	N 	0.2957	0.4918	0.0656	-0.194
Mof_N 	N 	0.2904	0.7823	0.7051	-0.172
Mof_N 	N 	0.3722	0.7123	0.785	-0.182
Mof_N 	N 	0.0818	0.9568	0.342	-0.184
Mof_N 	N 	0.9236	0.8263	0.6588	-0.173
Mof_N 	N 	0.9155	0.101	0.3278	-0.187
Mof_N 	N 	0.9354	0.063	0.8286	-0.137
Mof_N 	N 	0.9456	0.8067	0.1072	-0.169
Mof_N 	N 	0.7764	0.2192	0.8025	-0.16
Mof_N 	N 	0.0845	0.899	0.6722	-0.187
Mof_N 	N 	0.4491	0.8362	0.3884	-0.154
Mof_N 	N 	0.2741	0.2809	0.0952	-0.163
Mof_N 	N 	0.4209	0.4805	0.796	-0.191
Mof_N 	N 	0.3054	0.7704	0.1975	-0.171
Mof_N 	N 	0.0093	0.6956	0.603	-0.194
Mof_N 	N 	0.7043	0.5082	0.9344	-0.194
Mof_N 	N 	0.9009	0.873	0.7192	-0.191
Mof_N 	N 	0.7873	0.0238	0.0658	-0.169
Mof_N 	N 	0.5267	0.8133	0.9008	-0.182
Mof_N 	N 	0.6803	0.7553	0.3837	-0.18
Mof_N 	N 	0.4194	0.4885	0.6101	-0.186
Mof_N 	N 	0.1146	0.2169	0.9488	-0.187
Mof_N 	N 	0.0636	0.4077	0.9713	-0.19
Mof_N 	N 	0.6524	0.5492	0.9153	-0.171
Mof_N 	N 	0.0544	0.1933	0.8928	-0.169
Mof_N 	N 	0.9364	0.5923	0.0287	-0.19
Mof_N 	N 	0.79	0.2088	0.286	-0.167
Mof_N 	N 	0.185	0.7632	0.1307	-0.192
Mof_N 	N 	0.0602	0.3307	0.4435	-0.179
Mof_N 	N 	0.2842	0.2658	0.5674	-0.177
Mof_N 	N 	0.5427	0.1582	0.1153	-0.149
Mof_N 	N 	0.4039	0.369	0.7269	-0.187
Mof_N 	N 	0.0307	0.6806	0.0702	-0.196
Mof_N 	N 	0.3175	0.2515	0.1353	-0.178
Mof_N 	N 	0.5588	0.1029	0.0591	-0.166
Mof_N 	N 	0.9334	0.5996	0.5356	-0.181
Mof_N 	N 	0.4109	0.623	0.3242	-0.187
Mof_N 	N 	0.4215	0.4801	0.3104	-0.19
Mof_N 	N 	0.5509	0.1638	0.6116	-0.154
Mof_N 	N 	0.9907	0.3044	0.397	-0.194
Mof_N 	N 	0.9513	0.048	0.2823	-0.143
Mof_N 	N 	0.0764	0.1737	0.3412	-0.173
Mof_N 	N 	0.1533	0.9365	0.8819	-0.173
Mof_N 	N 	0.5625	0.3158	0.191	-0.156
Mof_N 	N 	0.0781	0.9946	0.1596	-0.189
Mof_N 	N 	0.2236	0.7808	0.1975	-0.16
Mof_N 	N 	0.5804	0.5143	0.8786	-0.187
Mof_N 	N 	0.6946	0.2296	0.8025	-0.171
Mof_N 	N 	0.9398	0.6693	0.5565	-0.179
Mof_N 	N 	0.9182	0.0432	0.658	-0.184
Mof_N 	N 	0.3476	0.4508	0.0847	-0.171
Mof_N 	N 	0.4375	0.6842	0.809	-0.156
Mof_N 	N 	0.1618	0.7746	0.6515	-0.189
Mof_N 	N 	0.4788	0.1862	0.5905	-0.178
Mof_N 	N 	0.8569	0.8038	0.6075	-0.201
Mof_N 	N 	0.0397	0.3464	0.9741	-0.168
Mof_N 	N 	0.5713	0.1075	0.5579	-0.165
Mof_N 	N 	0.808	0.7308	0.9079	-0.184
Mof_N 	N 	0.0744	0.0128	0.7157	-0.195
Mof_N 	N 	0.192	0.2692	0.0921	-0.184
Mof_N 	N 	0.9693	0.3194	0.9298	-0.196
Mof_N 	N 	0.9256	0.9872	0.2843	-0.195
Mof_N 	N 	0.5785	0.5199	0.6896	-0.19
Mof_O 	O 	0.3461	0.2343	0.8001	-0.292
Mof_O 	O 	0.7095	0.0899	0.4536	-0.301
Mof_O 	O 	0.0531	0.83531	0.7706	-0.622
Mof_O 	O 	0.9969	0.2913	0.6456	-0.293
Mof_O 	O 	0.8966	0.612	0.8692	-0.429
Mof_O 	O 	0.6045	0.1022	0.2222	-0.411
Mof_O 	O 	0.7275	0.16376	0.65013	-0.602
Mof_O 	O 	0.2905	0.9101	0.5464	-0.301
Mof_O 	O 	0.6375	0.0154	0.6291	-0.377
Mof_O 	O 	0.5215	0.7766	0.7464	-0.393
Mof_O 	O 	0.4939	0.7896	0.6352	-0.281
Mof_O 	O 	0.1373	0.7371	0.4258	-0.286
Mof_O 	O 	0.1359	0.4887	0.119	-0.41
Mof_O 	O 	0.4689	0.2264	0.7445	-0.387
Mof_O 	O 	0.4785	0.2234	0.2536	-0.393
Mof_O 	O 	0.4367	0.34374	0.099	-0.622
Mof_O 	O 	0.3625	0.9921	0.8697	-0.382
Mof_O 	O 	0.5061	0.2104	0.3648	-0.281
Mof_O 	O 	0.7956	0.5769	0.6095	-0.316
Mof_O 	O 	0.6539	0.7657	0.1999	-0.292
Mof_O 	O 	0.3955	0.8978	0.7778	-0.411
Mof_O 	O 	0.2168	0.35692	0.0097	-0.614
Mof_O 	O 	0.6833	0.0917	0.952	-0.318
Mof_O 	O 	0.4369	0.34465	0.5845	-0.623
Mof_O 	O 	0.5213	0.7793	0.1403	-0.285
Mof_O 	O 	0.1034	0.388	0.1308	-0.429
Mof_O 	O 	0.9375	0.17802	0.7703	-0.617
Mof_O 	O 	0.7187	0.15142	0.13998	-0.609
Mof_O 	O 	0.3377	0.002	0.5292	-0.374
Mof_O 	O 	0.5311	0.7736	0.2555	-0.387
Mof_O 	O 	0.3569	0.0061	0.0384	-0.38
Mof_O 	O 	0.2044	0.4231	0.3905	-0.316
Mof_O 	O 	0.5631	0.65535	0.4155	-0.623
Mof_O 	O 	0.3167	0.9083	0.048	-0.318
Mof_O 	O 	0.9469	0.16469	0.2294	-0.622
Mof_O 	O 	0.3654	0.2327	0.3205	-0.289
Mof_O 	O 	0.8007	0.62888	0.45477	-0.668
Mof_O 	O 	0.3985	0.8907	0.2796	-0.407
Mof_O 	O 	0.0625	0.82198	0.2297	-0.617
Mof_O 	O 	0.4787	0.2207	0.8597	-0.285
Mof_O 	O 	0.6431	0.9939	0.9616	-0.38
Mof_O 	O 	0.8421	0.4824	0.5276	-0.391
Mof_O 	O 	0.0031	0.7087	0.3544	-0.293
Mof_O 	O 	0.1579	0.5176	0.4724	-0.391
Mof_O 	O 	0.3625	0.9846	0.3709	-0.377
Mof_O 	O 	0.1993	0.37112	0.54523	-0.668
Mof_O 	O 	0.1235	0.7256	0.3036	-0.36
Mof_O 	O 	0.8641	0.5113	0.881	-0.41
Mof_O 	O 	0.8765	0.2744	0.6964	-0.36
Mof_O 	O 	0.5633	0.65626	0.901	-0.622
Mof_O 	O 	0.2725	0.83624	0.34987	-0.602
Mof_O 	O 	0.6346	0.7673	0.6795	-0.289
Mof_O 	O 	0.6623	0.998	0.4708	-0.374
Mof_O 	O 	0.2813	0.84858	0.86002	-0.609
Mof_O 	O 	0.7832	0.64308	0.9903	-0.614
Mof_O 	O 	0.6375	0.0079	0.1303	-0.382
Mof_O 	O 	0.8627	0.2629	0.5742	-0.286
Mof_O 	O 	0.6015	0.1093	0.7204	-0.407
_end
