data_functionalizedCrystal
_audit_creation_method	'EQeq! by Chris Wilmer'
_symmetry_space_group_name_H-M	'P1'
_symmetry_Int_Tables_number	1
_symmetry_cell_setting	triclinic
loop_
_symmetry_equiv_pos_as_xyz
  x,y,z
_cell_length_a	22.1211
_cell_length_b	17.5536
_cell_length_c	7.048
_cell_angle_alpha	90
_cell_angle_beta	97.06
_cell_angle_gamma	90
loop_
_atom_site_label
_atom_site_type_symbol
_atom_site_fract_x
_atom_site_fract_y
_atom_site_fract_z
_atom_site_charge
Mof_H 	H 	0.136	0.9619	0.3857	0.491
Mof_O 	O 	0.16783	0.9127	0.8081	-0.407
Mof_O 	O 	0.25393	0.91715	0.6725	-0.384
Mof_O 	O 	0.24003	0.91656	0.2586	-0.377
Mof_O 	O 	0.14284	0.88114	0.2431	-0.557
Mof_H 	H 	0.1226	0.84	0.2282	0.272
Mof_C 	C 	0.2487	0.828	0.9207	-0.11
Mof_H 	H 	0.2887	0.8464	0.9861	0.092
Mof_C 	C 	0.20876	0.806	0.0742	-0.142
Mof_H 	H 	0.1689	0.7868	0.0098	0.087
Mof_C 	C 	0.2607	0.7577	0.799	-0.04
Mof_H 	H 	0.2874	0.7724	0.7021	0.046
Mof_H 	H 	0.2217	0.739	0.7311	0.058
Mof_C 	C 	0.22078	0.8915	0.7896	0.388
Mof_C 	C 	0.1966	0.8735	0.2011	0.424
Mof_N 	N 	0.04692	0.07676	0.5904	-0.216
Mof_C 	C 	0.0474	0.1539	0.5898	-0.002
Mof_H 	H 	0.0816	0.1801	0.6535	0.114
Mof_C 	C 	0.3693	0.0645	0.4806	0.064
Mof_H 	H 	0.3475	0.1112	0.4767	0.021
Mof_C 	C 	0.4328	0.067	0.4914	-0.103
Mof_H 	H 	0.4532	0.1148	0.4953	0.074
Mof_O 	O 	0.0882	0.7567	0.686	-0.214
Mof_H 	H 	0.636	0.4619	0.3857	0.412
Mof_O 	O 	0.66783	0.4127	0.8081	-0.434
Mof_O 	O 	0.75393	0.41715	0.6725	-0.413
Mof_O 	O 	0.74003	0.41656	0.2586	-0.404
Mof_O 	O 	0.64284	0.38114	0.2431	-0.562
Mof_H 	H 	0.6226	0.34	0.2282	0.272
Mof_C 	C 	0.7487	0.328	0.9207	-0.112
Mof_H 	H 	0.7887	0.3464	0.9861	0.088
Mof_C 	C 	0.70876	0.306	0.0742	-0.144
Mof_H 	H 	0.6689	0.2868	0.0098	0.086
Mof_C 	C 	0.7607	0.2577	0.799	-0.038
Mof_H 	H 	0.7874	0.2724	0.7021	0.044
Mof_H 	H 	0.7217	0.239	0.7311	0.057
Mof_C 	C 	0.72078	0.3915	0.7896	0.391
Mof_C 	C 	0.6966	0.3735	0.2011	0.425
Mof_N 	N 	0.54692	0.57676	0.5904	-0.219
Mof_C 	C 	0.5474	0.6539	0.5898	0.003
Mof_H 	H 	0.5816	0.6801	0.6535	0.112
Mof_C 	C 	0.8693	0.5645	0.4806	0.085
Mof_H 	H 	0.8475	0.6112	0.4767	0.017
Mof_C 	C 	0.9328	0.567	0.4914	-0.12
Mof_H 	H 	0.9532	0.6148	0.4953	0.083
Mof_O 	O 	0.5882	0.2567	0.686	-0.216
Mof_H 	H 	0.864	0.9619	0.6143	0.491
Mof_O 	O 	0.83217	0.9127	0.1919	-0.407
Mof_O 	O 	0.74607	0.91715	0.3275	-0.385
Mof_O 	O 	0.75997	0.91656	0.7414	-0.378
Mof_O 	O 	0.85716	0.88114	0.7569	-0.557
Mof_H 	H 	0.8774	0.84	0.7718	0.273
Mof_C 	C 	0.7513	0.828	0.0793	-0.11
Mof_H 	H 	0.7113	0.8464	0.0139	0.092
Mof_C 	C 	0.79124	0.806	0.9258	-0.143
Mof_H 	H 	0.8311	0.7868	0.9902	0.087
Mof_C 	C 	0.7393	0.7577	0.201	-0.04
Mof_H 	H 	0.7126	0.7724	0.2979	0.046
Mof_H 	H 	0.7783	0.739	0.2689	0.058
Mof_C 	C 	0.77922	0.8915	0.2104	0.388
Mof_C 	C 	0.8034	0.8735	0.7989	0.424
Mof_N 	N 	0.95308	0.07676	0.4096	-0.214
Mof_C 	C 	0.9526	0.1539	0.4102	0.004
Mof_H 	H 	0.9184	0.1801	0.3465	0.112
Mof_C 	C 	0.6307	0.0645	0.5194	0.064
Mof_H 	H 	0.6525	0.1112	0.5233	0.021
Mof_C 	C 	0.5672	0.067	0.5086	-0.103
Mof_H 	H 	0.5468	0.1148	0.5047	0.074
Mof_O 	O 	0.9118	0.7567	0.314	-0.211
Mof_H 	H 	0.364	0.4619	0.6143	0.412
Mof_O 	O 	0.33217	0.4127	0.1919	-0.434
Mof_O 	O 	0.24607	0.41715	0.3275	-0.413
Mof_O 	O 	0.25997	0.41656	0.7414	-0.404
Mof_O 	O 	0.35716	0.38114	0.7569	-0.562
Mof_H 	H 	0.3774	0.34	0.7718	0.272
Mof_C 	C 	0.2513	0.328	0.0793	-0.112
Mof_H 	H 	0.2113	0.3464	0.0139	0.088
Mof_C 	C 	0.29124	0.306	0.9258	-0.144
Mof_H 	H 	0.3311	0.2868	0.9902	0.086
Mof_C 	C 	0.2393	0.2577	0.201	-0.038
Mof_H 	H 	0.2126	0.2724	0.2979	0.044
Mof_H 	H 	0.2783	0.239	0.2689	0.057
Mof_C 	C 	0.27922	0.3915	0.2104	0.391
Mof_C 	C 	0.3034	0.3735	0.7989	0.425
Mof_N 	N 	0.45308	0.57676	0.4096	-0.219
Mof_C 	C 	0.4526	0.6539	0.4102	0.003
Mof_H 	H 	0.4184	0.6801	0.3465	0.112
Mof_C 	C 	0.1307	0.5645	0.5194	0.08
Mof_H 	H 	0.1525	0.6112	0.5233	0.018
Mof_C 	C 	0.0672	0.567	0.5086	-0.112
Mof_H 	H 	0.0468	0.6148	0.5047	0.078
Mof_O 	O 	0.4118	0.2567	0.314	-0.216
Mof_H 	H 	0.864	0.0381	0.6143	0.438
Mof_O 	O 	0.83217	0.0873	0.1919	-0.442
Mof_O 	O 	0.74607	0.08285	0.3275	-0.421
Mof_O 	O 	0.75997	0.08344	0.7414	-0.415
Mof_O 	O 	0.85716	0.11886	0.7569	-0.574
Mof_H 	H 	0.8774	0.16	0.7718	0.275
Mof_C 	C 	0.7513	0.172	0.0793	-0.11
Mof_H 	H 	0.7113	0.1536	0.0139	0.083
Mof_C 	C 	0.79124	0.194	0.9258	-0.148
Mof_H 	H 	0.8311	0.2132	0.9902	0.088
Mof_C 	C 	0.7393	0.2423	0.201	-0.041
Mof_H 	H 	0.7126	0.2276	0.2979	0.045
Mof_H 	H 	0.7783	0.261	0.2689	0.058
Mof_C 	C 	0.77922	0.1085	0.2104	0.388
Mof_C 	C 	0.8034	0.1265	0.7989	0.428
Mof_N 	N 	0.95308	0.92324	0.4096	-0.215
Mof_C 	C 	0.9526	0.8461	0.4102	0.015
Mof_H 	H 	0.9184	0.8199	0.3465	0.111
Mof_C 	C 	0.6307	0.9355	0.5194	0.126
Mof_H 	H 	0.6525	0.8888	0.5233	0.009
Mof_C 	C 	0.5672	0.933	0.5086	-0.046
Mof_H 	H 	0.5468	0.8852	0.5047	0.067
Mof_O 	O 	0.9118	0.2433	0.314	-0.213
Mof_H 	H 	0.364	0.5381	0.6143	0.412
Mof_O 	O 	0.33217	0.5873	0.1919	-0.433
Mof_O 	O 	0.24607	0.58285	0.3275	-0.413
Mof_O 	O 	0.25997	0.58344	0.7414	-0.404
Mof_O 	O 	0.35716	0.61886	0.7569	-0.563
Mof_H 	H 	0.3774	0.66	0.7718	0.273
Mof_C 	C 	0.2513	0.672	0.0793	-0.111
Mof_H 	H 	0.2113	0.6536	0.0139	0.087
Mof_C 	C 	0.29124	0.694	0.9258	-0.145
Mof_H 	H 	0.3311	0.7132	0.9902	0.088
Mof_C 	C 	0.2393	0.7423	0.201	-0.041
Mof_H 	H 	0.2126	0.7276	0.2979	0.045
Mof_H 	H 	0.2783	0.761	0.2689	0.059
Mof_C 	C 	0.27922	0.6085	0.2104	0.391
Mof_C 	C 	0.3034	0.6265	0.7989	0.426
Mof_N 	N 	0.45308	0.42324	0.4096	-0.219
Mof_C 	C 	0.4526	0.3461	0.4102	0
Mof_H 	H 	0.4184	0.3199	0.3465	0.114
Mof_C 	C 	0.1307	0.4355	0.5194	0.08
Mof_H 	H 	0.1525	0.3888	0.5233	0.018
Mof_C 	C 	0.0672	0.433	0.5086	-0.112
Mof_H 	H 	0.0468	0.3852	0.5047	0.078
Mof_O 	O 	0.4118	0.7433	0.314	-0.211
Mof_H 	H 	0.136	0.0381	0.3857	0.437
Mof_O 	O 	0.16783	0.0873	0.8081	-0.442
Mof_O 	O 	0.25393	0.08285	0.6725	-0.421
Mof_O 	O 	0.24003	0.08344	0.2586	-0.415
Mof_O 	O 	0.14284	0.11886	0.2431	-0.575
Mof_H 	H 	0.1226	0.16	0.2282	0.274
Mof_C 	C 	0.2487	0.172	0.9207	-0.11
Mof_H 	H 	0.2887	0.1536	0.9861	0.083
Mof_C 	C 	0.20876	0.194	0.0742	-0.148
Mof_H 	H 	0.1689	0.2132	0.0098	0.087
Mof_C 	C 	0.2607	0.2423	0.799	-0.041
Mof_H 	H 	0.2874	0.2276	0.7021	0.045
Mof_H 	H 	0.2217	0.261	0.7311	0.058
Mof_C 	C 	0.22078	0.1085	0.7896	0.388
Mof_C 	C 	0.1966	0.1265	0.2011	0.428
Mof_N 	N 	0.04692	0.92324	0.5904	-0.217
Mof_C 	C 	0.0474	0.8461	0.5898	0.009
Mof_H 	H 	0.0816	0.8199	0.6535	0.112
Mof_C 	C 	0.3693	0.9355	0.4806	0.126
Mof_H 	H 	0.3475	0.8888	0.4767	0.009
Mof_C 	C 	0.4328	0.933	0.4914	-0.046
Mof_H 	H 	0.4532	0.8852	0.4953	0.067
Mof_O 	O 	0.0882	0.2433	0.686	-0.215
Mof_H 	H 	0.636	0.5381	0.3857	0.412
Mof_O 	O 	0.66783	0.5873	0.8081	-0.433
Mof_O 	O 	0.75393	0.58285	0.6725	-0.413
Mof_O 	O 	0.74003	0.58344	0.2586	-0.404
Mof_O 	O 	0.64284	0.61886	0.2431	-0.563
Mof_H 	H 	0.6226	0.66	0.2282	0.273
Mof_C 	C 	0.7487	0.672	0.9207	-0.111
Mof_H 	H 	0.7887	0.6536	0.9861	0.087
Mof_C 	C 	0.70876	0.694	0.0742	-0.145
Mof_H 	H 	0.6689	0.7132	0.0098	0.088
Mof_C 	C 	0.7607	0.7423	0.799	-0.041
Mof_H 	H 	0.7874	0.7276	0.7021	0.046
Mof_H 	H 	0.7217	0.761	0.7311	0.059
Mof_C 	C 	0.72078	0.6085	0.7896	0.391
Mof_C 	C 	0.6966	0.6265	0.2011	0.426
Mof_N 	N 	0.54692	0.42324	0.5904	-0.219
Mof_C 	C 	0.5474	0.3461	0.5898	0
Mof_H 	H 	0.5816	0.3199	0.6535	0.114
Mof_C 	C 	0.8693	0.4355	0.4806	0.085
Mof_H 	H 	0.8475	0.3888	0.4767	0.016
Mof_C 	C 	0.9328	0.433	0.4914	-0.12
Mof_H 	H 	0.9532	0.3852	0.4953	0.083
Mof_O 	O 	0.5882	0.7433	0.686	-0.211
Mof_Ni	Ni	0.24423	-2.32358e-33	0.46905	1.13
Mof_Ni	Ni	0.11447	0	0.70499	1.08
Mof_O 	O 	0.1499	-2.32358e-33	0.4517	-1.107
Mof_N 	N 	0.3382	0	0.4756	-0.247
Mof_C 	C 	0.4663	-2.32358e-33	0.4966	-0.006
Mof_Ni	Ni	0.74423	0.5	0.46905	1.148
Mof_Ni	Ni	0.61447	0.5	0.70499	1.101
Mof_O 	O 	0.6499	0.5	0.4517	-0.997
Mof_N 	N 	0.8382	0.5	0.4756	-0.212
Mof_C 	C 	0.9663	0.5	0.4966	0.064
Mof_Ni	Ni	0.75577	-2.32358e-33	0.53095	1.13
Mof_Ni	Ni	0.88553	0	0.29501	1.08
Mof_O 	O 	0.8501	-2.32358e-33	0.5483	-1.108
Mof_N 	N 	0.6618	-2.32358e-33	0.5244	-0.247
Mof_C 	C 	0.5337	-2.32358e-33	0.5034	-0.006
Mof_Ni	Ni	0.25577	0.5	0.53095	1.148
Mof_Ni	Ni	0.38553	0.5	0.29501	1.101
Mof_O 	O 	0.3501	0.5	0.5483	-0.996
Mof_N 	N 	0.1618	0.5	0.5244	-0.21
Mof_C 	C 	0.0337	0.5	0.5034	0.047
Mof_C 	C 	2.61611e-18	0.0433	0.5	-0.014
Mof_C 	C 	2.61611e-18	0.1944	0.5	-0.053
Mof_H 	H 	2.61611e-18	0.2485	0.5	0.073
Mof_C 	C 	0.5	0.5433	0.5	0.05
Mof_C 	C 	0.5	0.6944	0.5	-0.051
Mof_H 	H 	0.5	0.7485	0.5	0.077
Mof_C 	C 	2.61611e-18	0.9567	0.5	0.108
Mof_C 	C 	2.61611e-18	0.8056	0.5	-0.062
Mof_H 	H 	2.61611e-18	0.7515	0.5	0.077
Mof_C 	C 	0.5	0.4567	0.5	0.049
Mof_C 	C 	0.5	0.3056	0.5	-0.048
Mof_H 	H 	0.5	0.2515	0.5	0.073
_end
