# CIF file generated by openbabel 3.1.0, see https://openbabel.org
data_I
_chemical_name_common 'image0'
_cell_length_a 24.26
_cell_length_b 24.415
_cell_length_c 24.531
_cell_angle_alpha 83.566
_cell_angle_beta 62.292
_cell_angle_gamma 61.717
_space_group_name_H-M_alt 'P 1'
_space_group_name_Hall 'P 1'
loop_
    _symmetry_equiv_pos_as_xyz
    x,y,z
loop_
    _atom_site_label
    _atom_site_type_symbol
    _atom_site_fract_x
    _atom_site_fract_y
    _atom_site_fract_z
    _atom_site_occupancy
    Yb1      Yb       0.15864    0.27999    0.13753    1.000
    O1       O        0.06360    0.27610    0.22470    1.000
    O2       O        0.21930    0.26290    0.02510    1.000
    O3       O        0.21350    0.20430    0.19120    1.000
    O4       O        0.13100    0.38050    0.11060    1.000
    O5       O        0.26740    0.27630    0.10550    1.000
    O6       O        0.06480    0.30900    0.11380    1.000
    O7       O        0.13310    0.34270    0.22160    1.000
    O8       O        0.17730    0.18260    0.10720    1.000
    N1       N        0.04290    0.27840    0.28550    1.000
    N2       N        0.23500    0.21530    0.98990    1.000
    N3       N        0.26020    0.20350    0.20630    1.000
    N4       N        0.09450    0.41260    0.08010    1.000
    N5       N        0.31200    0.28570    0.05250    1.000
    N6       N        0.02030    0.28630    0.13570    1.000
    N7       N        0.14530    0.39060    0.21790    1.000
    N8       N        0.19130    0.13110    0.13430    1.000
    C1       C        0.07560    0.22740    0.30890    1.000
    C2       C        0.98700    0.33130    0.32370    1.000
    C3       C        0.18690    0.21940    0.97470    1.000
    C4       C        0.29690    0.16460    0.97080    1.000
    C5       C        0.23630    0.23750    0.26020    1.000
    C6       C        0.32950    0.16730    0.16920    1.000
    C7       C        0.12690    0.40240    0.01800    1.000
    C8       C        0.02710    0.45450    0.11100    1.000
    C9       C        0.37590    0.23610    0.01500    1.000
    C10      C        0.29420    0.34580    0.03800    1.000
    C11      C        0.03740    0.23210    0.10950    1.000
    C12      C        0.95610    0.31900    0.18700    1.000
    C13      C        0.09230    0.44940    0.23250    1.000
    C14      C        0.21160    0.37970    0.20210    1.000
    C15      C        0.13790    0.12480    0.18200    1.000
    C16      C        0.25820    0.08580    0.11320    1.000
    H1       H        0.11770    0.19170    0.28160    1.000
    C17      C        0.04780    0.22730    0.37180    1.000
    C18      C        0.96020    0.33220    0.38580    1.000
    H2       H        0.96640    0.36790    0.30690    1.000
    H3       H        0.14310    0.25710    0.98730    1.000
    C19      C        0.20100    0.16920    0.94120    1.000
    C20      C        0.31410    0.11220    0.93540    1.000
    H4       H        0.33070    0.16330    0.98100    1.000
    H5       H        0.18680    0.26080    0.28750    1.000
    C21      C        0.28380    0.23770    0.27440    1.000
    C22      C        0.37790    0.16670    0.18320    1.000
    H6       H        0.34500    0.14200    0.13300    1.000
    C23      C        0.08980    0.43700    0.98580    1.000
    H7       H        0.17530    0.37140    0.99580    1.000
    C24      C        0.98910    0.48830    0.08090    1.000
    H8       H        0.00460    0.46130    0.15520    1.000
    C25      C        0.42260    0.24560    0.96210    1.000
    H9       H        0.38780    0.19490    0.02600    1.000
    H10      H        0.24970    0.38020    0.06450    1.000
    C26      C        0.34140    0.35520    0.98520    1.000
    C27      C        0.99190    0.20730    0.13300    1.000
    H11      H        0.08190    0.21010    0.07360    1.000
    C28      C        0.90840    0.29540    0.21200    1.000
    H12      H        0.94400    0.35780    0.20550    1.000
    H13      H        0.04590    0.45630    0.24460    1.000
    C29      C        0.10290    0.49990    0.23060    1.000
    C30      C        0.22480    0.42900    0.19910    1.000
    H14      H        0.24900    0.33780    0.19300    1.000
    C31      C        0.15310    0.07060    0.21010    1.000
    H15      H        0.09020    0.15710    0.19640    1.000
    C32      C        0.27510    0.03180    0.13960    1.000
    H16      H        0.29500    0.09120    0.07920    1.000
    H17      H        0.07040    0.19100    0.38780    1.000
    C33      C        0.98750    0.27910    0.41240    1.000
    H18      H        0.92160    0.37010    0.41220    1.000
    H19      H        0.16630    0.17240    0.93120    1.000
    C34      C        0.26370    0.11460    0.92140    1.000
    H20      H        0.35930    0.07590    0.92130    1.000
    C35      C        0.35660    0.20320    0.23640    1.000
    H21      H        0.26690    0.26230    0.31160    1.000
    H22      H        0.42710    0.14110    0.15630    1.000
    C36      C        0.02050    0.48140    0.01630    1.000
    H23      H        0.11340    0.42940    0.94160    1.000
    H24      H        0.94010    0.51730    0.10440    1.000
    H25      H        0.46610    0.21040    0.93570    1.000
    C37      C        0.40890    0.30460    0.94540    1.000
    H26      H        0.32910    0.39650    0.97460    1.000
    H27      H        0.00550    0.16840    0.11330    1.000
    C38      C        0.92680    0.23800    0.18480    1.000
    H28      H        0.86360    0.31820    0.24740    1.000
    C39      C        0.17080    0.49090    0.21310    1.000
    H29      H        0.06420    0.54120    0.24100    1.000
    H30      H        0.27150    0.42080    0.18740    1.000
    H31      H        0.11540    0.06670    0.24440    1.000
    C40      C        0.22090    0.02290    0.18950    1.000
    H32      H        0.32330    0.00030    0.12440    1.000
    C41      C        0.95450    0.27620    0.47960    1.000
    C42      C        0.27920    0.05630    0.88870    1.000
    C43      C        0.40890    0.20680    0.24930    1.000
    C44      C        0.46200    0.31620    0.89020    1.000
    C45      C        0.87890    0.20900    0.21240    1.000
    C46      C        0.18640    0.54280    0.21020    1.000
    C47      C        0.23780    0.96380    0.21720    1.000
    C48      C        0.96080    0.21990    0.50190    1.000
    C49      C        0.91420    0.32950    0.52450    1.000
    C50      C        0.23140    0.03560    0.90930    1.000
    C51      C        0.34450    0.02230    0.83760    1.000
    C52      C        0.47600    0.19080    0.20170    1.000
    C53      C        0.39430    0.22470    0.30740    1.000
    C54      C        0.47360    0.36620    0.89500    1.000
    C55      C        0.50350    0.27780    0.83350    1.000
    C56      C        0.81660    0.23460    0.26880    1.000
    C57      C        0.89710    0.15360    0.18260    1.000
    C58      C        0.13460    0.60140    0.24650    1.000
    C59      C        0.25240    0.53700    0.17110    1.000
    C60      C        0.19260    0.96100    0.27780    1.000
    C61      C        0.29850    0.90760    0.18340    1.000
    H33      H        0.98770    0.18260    0.47320    1.000
    C62      C        0.92930    0.21640    0.56400    1.000
    C63      C        0.88330    0.32480    0.58680    1.000
    H34      H        0.90820    0.36920    0.51160    1.000
    H35      H        0.18580    0.05950    0.94350    1.000
    C64      C        0.24760    0.97960    0.88130    1.000
    H36      H        0.37870    0.03650    0.82200    1.000
    C65      C        0.35970    0.96740    0.80920    1.000
    C66      C        0.52400    0.19710    0.21220    1.000
    H37      H        0.48940    0.17540    0.16120    1.000
    C67      C        0.44280    0.23010    0.31680    1.000
    H38      H        0.34960    0.23360    0.34190    1.000
    H39      H        0.44390    0.39530    0.93210    1.000
    C68      C        0.52750    0.37330    0.84660    1.000
    H40      H        0.49560    0.24470    0.82800    1.000
    C69      C        0.55570    0.28720    0.78540    1.000
    H41      H        0.80250    0.27250    0.29060    1.000
    C70      C        0.77550    0.20550    0.29280    1.000
    H42      H        0.93950    0.13470    0.14430    1.000
    C71      C        0.85430    0.12540    0.20800    1.000
    C72      C        0.14980    0.64890    0.24310    1.000
    H43      H        0.08790    0.60810    0.27400    1.000
    H44      H        0.28900    0.49850    0.14480    1.000
    C73      C        0.26660    0.58530    0.16910    1.000
    H45      H        0.15100    0.99820    0.30300    1.000
    C74      C        0.20780    0.90530    0.30100    1.000
    C75      C        0.31210    0.85320    0.20740    1.000
    H46      H        0.33120    0.90770    0.14240    1.000
    N9       N        0.89000    0.26910    0.60570    1.000
    H47      H        0.93480    0.17710    0.57800    1.000
    H48      H        0.85710    0.36110    0.61670    1.000
    N10      N        0.31200    0.94630    0.83230    1.000
    H49      H        0.21370    0.96510    0.89660    1.000
    H50      H        0.40400    0.94460    0.77320    1.000
    N11      N        0.50680    0.21610    0.26960    1.000
    H51      H        0.56940    0.18800    0.17870    1.000
    H52      H        0.43100    0.24400    0.35730    1.000
    N12      N        0.56810    0.33360    0.79290    1.000
    H53      H        0.53630    0.40620    0.85070    1.000
    H54      H        0.58350    0.26100    0.74660    1.000
    N13      N        0.79540    0.15100    0.26240    1.000
    H55      H        0.73280    0.22370    0.33100    1.000
    H56      H        0.86690    0.08790    0.18660    1.000
    N14      N        0.21540    0.64100    0.20500    1.000
    H57      H        0.11360    0.68830    0.26800    1.000
    H58      H        0.31290    0.57950    0.14210    1.000
    H59      H        0.17650    0.90400    0.34230    1.000
    N15      N        0.26700    0.85160    0.26600    1.000
    H60      H        0.35370    0.81560    0.18300    1.000
    O9       O        0.86040    0.26410    0.66590    1.000
    O10      O        0.32840    0.89200    0.80770    1.000
    O11      O        0.55250    0.22290    0.27990    1.000
    O12      O        0.62270    0.33950    0.74790    1.000
    O13      O        0.75700    0.12180    0.28700    1.000
    O14      O        0.23120    0.68670    0.20080    1.000
    O15      O        0.27950    0.79770    0.28910    1.000
    Yb2      Yb       0.74312    0.28067    0.73040    1.000
    Yb3      Yb       0.34818    0.85676    0.71125    1.000
    O16      O        0.75490    0.28720    0.63010    1.000
    O17      O        0.82100    0.18370    0.74610    1.000
    O18      O        0.66990    0.27110    0.83180    1.000
    O19      O        0.72450    0.38270    0.71360    1.000
    O20      O        0.63230    0.11960    0.39070    1.000
    O21      O        0.56600    0.11000    0.32500    1.000
    O22      O        0.70050    0.20040    0.21400    1.000
    O23      O        0.61310    0.23650    0.34950    1.000
    O24      O        0.71930    0.03130    0.27130    1.000
    N16      N        0.73340    0.26350    0.60270    1.000
    N17      N        0.88580    0.16040    0.73990    1.000
    N18      N        0.67830    0.26230    0.88250    1.000
    N19      N        0.67490    0.42980    0.70140    1.000
    N20      N        0.64630    0.14220    0.42740    1.000
    N21      N        0.54890    0.07950    0.37330    1.000
    C76      C        0.77840    0.20660    0.56850    1.000
    C77      C        0.66810    0.29550    0.60900    1.000
    C78      C        0.89530    0.18220    0.78130    1.000
    C79      C        0.93990    0.11450    0.69330    1.000
    C80      C        0.63930    0.31020    0.92850    1.000
    C81      C        0.72380    0.20620    0.88830    1.000
    C82      C        0.61410    0.47070    0.74940    1.000
    C83      C        0.68670    0.43750    0.64280    1.000
    C84      C        0.59380    0.18860    0.47230    1.000
    C85      C        0.71270    0.11700    0.41840    1.000
    C86      C        0.49570    0.11080    0.42810    1.000
    C87      C        0.58590    0.01770    0.36690    1.000
    H61      H        0.82390    0.18330    0.56650    1.000
    C88      C        0.76040    0.18160    0.53690    1.000
    H62      H        0.63580    0.33520    0.63440    1.000
    C89      C        0.64730    0.27070    0.57800    1.000
    C90      C        0.96160    0.15350    0.77820    1.000
    H63      H        0.85680    0.21700    0.81220    1.000
    C91      C        0.00890    0.08590    0.68750    1.000
    H64      H        0.93200    0.10100    0.66400    1.000
    H65      H        0.60830    0.35030    0.92340    1.000
    C92      C        0.64370    0.30200    0.98240    1.000
    C93      C        0.73010    0.19620    0.94110    1.000
    H66      H        0.75200    0.17270    0.85500    1.000
    C94      C        0.56480    0.52140    0.73900    1.000
    H67      H        0.60570    0.46400    0.79080    1.000
    C95      C        0.63860    0.48760    0.63090    1.000
    H68      H        0.72920    0.40760    0.60930    1.000
    H69      H        0.54670    0.20500    0.47890    1.000
    C96      C        0.60670    0.21410    0.51040    1.000
    H70      H        0.74980    0.08300    0.38610    1.000
    C97      C        0.72770    0.13950    0.45470    1.000
    H71      H        0.47070    0.15530    0.43270    1.000
    C98      C        0.47540    0.08140    0.47800    1.000
    C99      C        0.56760    0.98550    0.41600    1.000
    H72      H        0.62550    0.99530    0.32790    1.000
    C100     C        0.69460    0.21370    0.53970    1.000
    H73      H        0.79360    0.14150    0.51250    1.000
    H74      H        0.60030    0.29310    0.58330    1.000
    C101     C        0.01960    0.10450    0.73080    1.000
    H75      H        0.96780    0.16730    0.80870    1.000
    H76      H        0.04760    0.05410    0.65370    1.000
    C102     C        0.69040    0.24400    0.98990    1.000
    H77      H        0.61470    0.33610    0.01510    1.000
    H78      H        0.76250    0.15590    0.94450    1.000
    H79      H        0.52180    0.54970    0.77320    1.000
    C103     C        0.57660    0.53220    0.67860    1.000
    H80      H        0.64740    0.49220    0.58910    1.000
    C104     C        0.67580    0.18930    0.50230    1.000
    H81      H        0.56850    0.24840    0.54200    1.000
    H82      H        0.77530    0.12060    0.44740    1.000
    C105     C        0.50940    0.01760    0.47360    1.000
    H83      H        0.43690    0.10570    0.51670    1.000
    H84      H        0.59470    0.94110    0.41080    1.000
    C106     C        0.08880    0.07150    0.72980    1.000
    C107     C        0.69370    0.23370    0.05000    1.000
    C108     C        0.52570    0.59090    0.66730    1.000
    C109     C        0.09300    0.05520    0.78490    1.000
    C110     C        0.15180    0.05480    0.67500    1.000
    C111     C        0.63760    0.27170    0.10530    1.000
    C112     C        0.75300    0.18560    0.05190    1.000
    C113     C        0.45170    0.61680    0.70510    1.000
    C114     C        0.54920    0.62400    0.62110    1.000
    H85      H        0.05080    0.06800    0.82350    1.000
    C115     C        0.15850    0.02040    0.78300    1.000
    C116     C        0.21620    0.02140    0.67530    1.000
    H86      H        0.15050    0.06630    0.63720    1.000
    H87      H        0.59660    0.30620    0.10530    1.000
    C117     C        0.64070    0.26000    0.15890    1.000
    C118     C        0.75460    0.17570    0.10750    1.000
    H88      H        0.79280    0.15930    0.01470    1.000
    C119     C        0.40620    0.67310    0.69760    1.000
    H89      H        0.43350    0.59430    0.73630    1.000
    C120     C        0.50190    0.68160    0.61610    1.000
    H90      H        0.59830    0.60680    0.59260    1.000
    N22      N        0.21710    0.00350    0.72950    1.000
    H91      H        0.16130    0.00850    0.82020    1.000
    H92      H        0.25920    0.01110    0.63810    1.000
    N23      N        0.69850    0.21180    0.16060    1.000
    H93      H        0.60160    0.28620    0.19640    1.000
    H94      H        0.79600    0.14290    0.10830    1.000
    H95      H        0.35650    0.68950    0.72300    1.000
    N24      N        0.43160    0.70590    0.65390    1.000
    H96      H        0.51900    0.70490    0.58530    1.000
    Yb4      Yb       0.84136    0.72001    0.86247    1.000
    O25      O        0.93640    0.72390    0.77530    1.000
    O26      O        0.78070    0.73710    0.97490    1.000
    O27      O        0.78650    0.79570    0.80880    1.000
    O28      O        0.86900    0.61950    0.88940    1.000
    O29      O        0.73260    0.72370    0.89450    1.000
    O30      O        0.93520    0.69100    0.88620    1.000
    O31      O        0.86690    0.65730    0.77840    1.000
    O32      O        0.82270    0.81740    0.89280    1.000
    N25      N        0.95710    0.72160    0.71450    1.000
    N26      N        0.76500    0.78470    0.01010    1.000
    N27      N        0.73980    0.79650    0.79370    1.000
    N28      N        0.90550    0.58740    0.91990    1.000
    N29      N        0.68800    0.71430    0.94750    1.000
    N30      N        0.97970    0.71370    0.86430    1.000
    N31      N        0.85470    0.60940    0.78210    1.000
    N32      N        0.80870    0.86890    0.86570    1.000
    C121     C        0.92440    0.77260    0.69110    1.000
    C122     C        0.01300    0.66870    0.67630    1.000
    C123     C        0.81310    0.78060    0.02530    1.000
    C124     C        0.70310    0.83540    0.02920    1.000
    C125     C        0.76370    0.76250    0.73980    1.000
    C126     C        0.67050    0.83270    0.83080    1.000
    C127     C        0.87310    0.59760    0.98200    1.000
    C128     C        0.97290    0.54550    0.88900    1.000
    C129     C        0.62410    0.76390    0.98500    1.000
    C130     C        0.70580    0.65420    0.96200    1.000
    C131     C        0.96260    0.76790    0.89050    1.000
    C132     C        0.04390    0.68100    0.81300    1.000
    C133     C        0.90770    0.55060    0.76750    1.000
    C134     C        0.78840    0.62030    0.79790    1.000
    C135     C        0.86210    0.87520    0.81800    1.000
    C136     C        0.74180    0.91420    0.88680    1.000
    H97      H        0.88230    0.80830    0.71840    1.000
    C137     C        0.95220    0.77270    0.62820    1.000
    C138     C        0.03980    0.66780    0.61420    1.000
    H98      H        0.03360    0.63210    0.69310    1.000
    H99      H        0.85690    0.74290    0.01270    1.000
    C139     C        0.79900    0.83080    0.05880    1.000
    C140     C        0.68590    0.88780    0.06460    1.000
    H100     H        0.66930    0.83670    0.01900    1.000
    H101     H        0.81320    0.73920    0.71250    1.000
    C141     C        0.71620    0.76230    0.72560    1.000
    C142     C        0.62210    0.83330    0.81680    1.000
    H102     H        0.65500    0.85800    0.86700    1.000
    C143     C        0.91020    0.56300    0.01420    1.000
    H103     H        0.82470    0.62860    0.00420    1.000
    C144     C        0.01090    0.51170    0.91910    1.000
    H104     H        0.99540    0.53870    0.84480    1.000
    C145     C        0.57740    0.75440    0.03790    1.000
    H105     H        0.61220    0.80510    0.97400    1.000
    H106     H        0.75030    0.61980    0.93550    1.000
    C146     C        0.65860    0.64480    0.01480    1.000
    C147     C        0.00810    0.79270    0.86700    1.000
    H107     H        0.91810    0.78990    0.92640    1.000
    C148     C        0.09160    0.70460    0.78800    1.000
    H108     H        0.05600    0.64220    0.79450    1.000
    H109     H        0.95410    0.54370    0.75540    1.000
    C149     C        0.89710    0.50010    0.76940    1.000
    C150     C        0.77520    0.57100    0.80090    1.000
    H110     H        0.75100    0.66220    0.80700    1.000
    C151     C        0.84690    0.92940    0.78990    1.000
    H111     H        0.90980    0.84290    0.80360    1.000
    C152     C        0.72490    0.96820    0.86040    1.000
    H112     H        0.70500    0.90880    0.92080    1.000
    H113     H        0.92960    0.80900    0.61220    1.000
    C153     C        0.01250    0.72090    0.58760    1.000
    H114     H        0.07840    0.62990    0.58780    1.000
    H115     H        0.83370    0.82760    0.06880    1.000
    C154     C        0.73630    0.88540    0.07860    1.000
    H116     H        0.64070    0.92410    0.07870    1.000
    C155     C        0.64340    0.79680    0.76360    1.000
    H117     H        0.73310    0.73770    0.68840    1.000
    H118     H        0.57290    0.85890    0.84370    1.000
    C156     C        0.97950    0.51860    0.98370    1.000
    H119     H        0.88660    0.57060    0.05840    1.000
    H120     H        0.05990    0.48270    0.89560    1.000
    H121     H        0.53390    0.78960    0.06430    1.000
    C157     C        0.59110    0.69540    0.05460    1.000
    H122     H        0.67090    0.60350    0.02540    1.000
    H123     H        0.99450    0.83160    0.88670    1.000
    C158     C        0.07320    0.76200    0.81520    1.000
    H124     H        0.13640    0.68180    0.75260    1.000
    C159     C        0.82920    0.50910    0.78690    1.000
    H125     H        0.93580    0.45880    0.75900    1.000
    H126     H        0.72850    0.57920    0.81260    1.000
    H127     H        0.88460    0.93330    0.75560    1.000
    C160     C        0.77910    0.97710    0.81050    1.000
    H128     H        0.67670    0.99970    0.87560    1.000
    C161     C        0.04550    0.72380    0.52040    1.000
    C162     C        0.72080    0.94370    0.11130    1.000
    C163     C        0.59110    0.79320    0.75070    1.000
    C164     C        0.53800    0.68380    0.10980    1.000
    C165     C        0.12110    0.79100    0.78760    1.000
    C166     C        0.81360    0.45720    0.78980    1.000
    C167     C        0.76220    0.03620    0.78280    1.000
    C168     C        0.03920    0.78010    0.49810    1.000
    C169     C        0.08580    0.67050    0.47550    1.000
    C170     C        0.76860    0.96440    0.09070    1.000
    C171     C        0.65550    0.97770    0.16240    1.000
    C172     C        0.52400    0.80920    0.79830    1.000
    C173     C        0.60570    0.77530    0.69260    1.000
    C174     C        0.52640    0.63380    0.10500    1.000
    C175     C        0.49650    0.72220    0.16650    1.000
    C176     C        0.18340    0.76540    0.73120    1.000
    C177     C        0.10290    0.84640    0.81740    1.000
    C178     C        0.86540    0.39860    0.75350    1.000
    C179     C        0.74760    0.46300    0.82890    1.000
    C180     C        0.80740    0.03900    0.72220    1.000
    C181     C        0.70150    0.09240    0.81660    1.000
    H129     H        0.01230    0.81740    0.52680    1.000
    C182     C        0.07070    0.78360    0.43600    1.000
    C183     C        0.11670    0.67520    0.41320    1.000
    H130     H        0.09180    0.63080    0.48840    1.000
    H131     H        0.81420    0.94050    0.05650    1.000
    C184     C        0.75240    0.02040    0.11870    1.000
    H132     H        0.62130    0.96350    0.17800    1.000
    C185     C        0.64030    0.03260    0.19080    1.000
    C186     C        0.47600    0.80290    0.78780    1.000
    H133     H        0.51060    0.82460    0.83880    1.000
    C187     C        0.55720    0.76990    0.68320    1.000
    H134     H        0.65040    0.76640    0.65810    1.000
    H135     H        0.55610    0.60470    0.06790    1.000
    C188     C        0.47250    0.62670    0.15340    1.000
    H136     H        0.50440    0.75530    0.17200    1.000
    C189     C        0.44430    0.71280    0.21460    1.000
    H137     H        0.19750    0.72750    0.70940    1.000
    C190     C        0.22450    0.79450    0.70720    1.000
    H138     H        0.06050    0.86530    0.85570    1.000
    C191     C        0.14570    0.87460    0.79200    1.000
    C192     C        0.85020    0.35110    0.75690    1.000
    H139     H        0.91210    0.39190    0.72600    1.000
    H140     H        0.71100    0.50150    0.85520    1.000
    C193     C        0.73340    0.41470    0.83090    1.000
    H141     H        0.84900    0.00180    0.69700    1.000
    C194     C        0.79220    0.09470    0.69900    1.000
    C195     C        0.68790    0.14680    0.79260    1.000
    H142     H        0.66880    0.09230    0.85760    1.000
    N33      N        0.11000    0.73090    0.39430    1.000
    H143     H        0.06520    0.82290    0.42200    1.000
    H144     H        0.14290    0.63890    0.38330    1.000
    N34      N        0.68800    0.05370    0.16770    1.000
    H145     H        0.78630    0.03490    0.10340    1.000
    H146     H        0.59600    0.05540    0.22680    1.000
    N35      N        0.49320    0.78390    0.73040    1.000
    H147     H        0.43060    0.81200    0.82130    1.000
    H148     H        0.56900    0.75600    0.64270    1.000
    N36      N        0.43190    0.66640    0.20710    1.000
    H149     H        0.46370    0.59380    0.14930    1.000
    H150     H        0.41650    0.73900    0.25340    1.000
    N37      N        0.20460    0.84900    0.73760    1.000
    H151     H        0.26720    0.77630    0.66900    1.000
    H152     H        0.13310    0.91210    0.81340    1.000
    N38      N        0.78460    0.35900    0.79500    1.000
    H153     H        0.88640    0.31170    0.73200    1.000
    H154     H        0.68710    0.42050    0.85790    1.000
    H155     H        0.82350    0.09600    0.65770    1.000
    N39      N        0.73300    0.14840    0.73400    1.000
    H156     H        0.64630    0.18440    0.81700    1.000
    O33      O        0.13960    0.73590    0.33410    1.000
    O34      O        0.67160    0.10800    0.19230    1.000
    O35      O        0.44750    0.77710    0.72010    1.000
    O36      O        0.37730    0.66050    0.25210    1.000
    O37      O        0.24300    0.87820    0.71300    1.000
    O38      O        0.76880    0.31330    0.79920    1.000
    O39      O        0.72050    0.20230    0.71090    1.000
    Yb5      Yb       0.25688    0.71933    0.26960    1.000
    Yb6      Yb       0.65182    0.14324    0.28875    1.000
    O40      O        0.24510    0.71280    0.36990    1.000
    O41      O        0.17900    0.81630    0.25390    1.000
    O42      O        0.33010    0.72890    0.16820    1.000
    O43      O        0.27550    0.61730    0.28640    1.000
    O44      O        0.36770    0.88040    0.60930    1.000
    O45      O        0.43400    0.89000    0.67500    1.000
    O46      O        0.29950    0.79960    0.78600    1.000
    O47      O        0.38690    0.76350    0.65050    1.000
    O48      O        0.28070    0.96870    0.72870    1.000
    N40      N        0.26660    0.73650    0.39730    1.000
    N41      N        0.11420    0.83960    0.26010    1.000
    N42      N        0.32170    0.73770    0.11750    1.000
    N43      N        0.32510    0.57020    0.29860    1.000
    N44      N        0.35370    0.85780    0.57260    1.000
    N45      N        0.45110    0.92050    0.62670    1.000
    C196     C        0.22160    0.79340    0.43150    1.000
    C197     C        0.33190    0.70450    0.39100    1.000
    C198     C        0.10470    0.81780    0.21870    1.000
    C199     C        0.06010    0.88550    0.30670    1.000
    C200     C        0.36070    0.68980    0.07150    1.000
    C201     C        0.27620    0.79380    0.11170    1.000
    C202     C        0.38590    0.52930    0.25060    1.000
    C203     C        0.31330    0.56250    0.35720    1.000
    C204     C        0.40620    0.81140    0.52770    1.000
    C205     C        0.28730    0.88300    0.58160    1.000
    C206     C        0.50430    0.88920    0.57190    1.000
    C207     C        0.41410    0.98230    0.63310    1.000
    H157     H        0.17610    0.81670    0.43350    1.000
    C208     C        0.23960    0.81840    0.46310    1.000
    H158     H        0.36420    0.66480    0.36560    1.000
    C209     C        0.35270    0.72930    0.42200    1.000
    C210     C        0.03840    0.84650    0.22180    1.000
    H159     H        0.14320    0.78300    0.18780    1.000
    C211     C        0.99110    0.91410    0.31250    1.000
    H160     H        0.06800    0.89900    0.33600    1.000
    H161     H        0.39170    0.64970    0.07660    1.000
    C212     C        0.35630    0.69800    0.01760    1.000
    C213     C        0.26990    0.80380    0.05890    1.000
    H162     H        0.24800    0.82730    0.14500    1.000
    C214     C        0.43520    0.47860    0.26100    1.000
    H163     H        0.39430    0.53600    0.20920    1.000
    C215     C        0.36140    0.51240    0.36910    1.000
    H164     H        0.27080    0.59240    0.39070    1.000
    H165     H        0.45330    0.79500    0.52110    1.000
    C216     C        0.39330    0.78590    0.48960    1.000
    H166     H        0.25020    0.91700    0.61390    1.000
    C217     C        0.27230    0.86050    0.54530    1.000
    H167     H        0.52930    0.84470    0.56730    1.000
    C218     C        0.52460    0.91860    0.52200    1.000
    C219     C        0.43240    0.01450    0.58400    1.000
    H168     H        0.37450    0.00470    0.67210    1.000
    C220     C        0.30540    0.78630    0.46030    1.000
    H169     H        0.20640    0.85850    0.48750    1.000
    H170     H        0.39970    0.70690    0.41670    1.000
    C221     C        0.98040    0.89550    0.26920    1.000
    H171     H        0.03220    0.83270    0.19130    1.000
    H172     H        0.95240    0.94590    0.34630    1.000
    C222     C        0.30960    0.75600    0.01010    1.000
    H173     H        0.38530    0.66390    0.98490    1.000
    H174     H        0.23750    0.84410    0.05550    1.000
    H175     H        0.47820    0.45030    0.22680    1.000
    C223     C        0.42340    0.46780    0.32140    1.000
    H176     H        0.35260    0.50780    0.41090    1.000
    C224     C        0.32420    0.81070    0.49770    1.000
    H177     H        0.43150    0.75160    0.45800    1.000
    H178     H        0.22470    0.87940    0.55260    1.000
    C225     C        0.49060    0.98240    0.52640    1.000
    H179     H        0.56310    0.89430    0.48330    1.000
    H180     H        0.40530    0.05890    0.58920    1.000
    C226     C        0.91120    0.92850    0.27020    1.000
    C227     C        0.30630    0.76630    0.95000    1.000
    C228     C        0.47430    0.40910    0.33270    1.000
    C229     C        0.90700    0.94480    0.21510    1.000
    C230     C        0.84820    0.94520    0.32500    1.000
    C231     C        0.36240    0.72830    0.89470    1.000
    C232     C        0.24700    0.81440    0.94810    1.000
    C233     C        0.54830    0.38320    0.29490    1.000
    C234     C        0.45080    0.37600    0.37890    1.000
    H181     H        0.94920    0.93200    0.17650    1.000
    C235     C        0.84150    0.97960    0.21700    1.000
    C236     C        0.78380    0.97860    0.32470    1.000
    H182     H        0.84950    0.93370    0.36280    1.000
    H183     H        0.40340    0.69380    0.89470    1.000
    C237     C        0.35930    0.74000    0.84110    1.000
    C238     C        0.24540    0.82430    0.89250    1.000
    H184     H        0.20720    0.84070    0.98530    1.000
    C239     C        0.59380    0.32690    0.30240    1.000
    H185     H        0.56650    0.40570    0.26370    1.000
    C240     C        0.49810    0.31840    0.38390    1.000
    H186     H        0.40170    0.39320    0.40740    1.000
    N46      N        0.78290    0.99650    0.27050    1.000
    H187     H        0.83870    0.99150    0.17980    1.000
    H188     H        0.74080    0.98890    0.36190    1.000
    N47      N        0.30150    0.78820    0.83940    1.000
    H189     H        0.39840    0.71380    0.80360    1.000
    H190     H        0.20400    0.85710    0.89170    1.000
    H191     H        0.64350    0.31050    0.27700    1.000
    N48      N        0.56840    0.29410    0.34610    1.000
    H192     H        0.48100    0.29510    0.41470    1.000
