data_functionalizedCrystal
_audit_creation_method	'EQeq! by Chris Wilmer'
_symmetry_space_group_name_H-M	'P1'
_symmetry_Int_Tables_number	1
_symmetry_cell_setting	triclinic
loop_
_symmetry_equiv_pos_as_xyz
  x,y,z
_cell_length_a	24.4616
_cell_length_b	24.4616
_cell_length_c	39.8821
_cell_angle_alpha	72.1411
_cell_angle_beta	72.1411
_cell_angle_gamma	90
loop_
_atom_site_label
_atom_site_type_symbol
_atom_site_fract_x
_atom_site_fract_y
_atom_site_fract_z
_atom_site_charge
Mof_Cu	Cu	0.903	0.89946	0.27356	0.908
Mof_Cu	Cu	0.82344	0.82698	0.27356	0.908
Mof_Cu	Cu	0.64946	0.07344	0.77356	0.908
Mof_Cu	Cu	0.57698	0.153	0.77356	0.907
Mof_Cu	Cu	0.92656	0.35054	0.22644	0.907
Mof_Cu	Cu	0.847	0.42302	0.22644	0.907
Mof_Cu	Cu	0.17302	0.17656	0.72644	0.907
Mof_Cu	Cu	0.10054	0.097	0.72644	0.907
Mof_P 	P 	0.66301	0.33699	-0	0.425
Mof_P 	P 	0.33699	0.66301	-0	0.425
Mof_P 	P 	0.08699	0.58699	0.5	0.428
Mof_P 	P 	0.41301	0.91301	0.5	0.428
Mof_H 	H 	0.7052	0.0889	0.8628	0.031
Mof_H 	H 	0.6565	0.2614	0.8852	0.09
Mof_H 	H 	0.06	0.2282	0.8158	0.041
Mof_H 	H 	0.8776	0.1294	0.8584	0.073
Mof_H 	H 	0.6231	0.23	0.8456	0.031
Mof_H 	H 	0.9864	0.2439	0.868	0.075
Mof_H 	H 	0.7306	0.1139	0.909	0.081
Mof_H 	H 	0.9489	0.1158	0.809	0.035
Mof_H 	H 	0.6431	0.2234	0.9516	0.095
Mof_H 	H 	0.8624	0.2261	0.9744	0.059
Mof_H 	H 	0.9336	0.211	0.926	0.05
Mof_H 	H 	0.8086	0.1886	0.8818	0.064
Mof_H 	H 	0.432	0.0483	0.8628	0.038
Mof_H 	H 	0.4583	0.8534	0.8852	0.086
Mof_H 	H 	0.1242	0.956	0.8158	0.039
Mof_H 	H 	0.264	0.0122	0.8584	0.077
Mof_H 	H 	0.5313	0.9244	0.8456	0.037
Mof_H 	H 	0.1456	0.8881	0.868	0.078
Mof_H 	H 	0.3604	0.9771	0.909	0.077
Mof_H 	H 	0.2421	0.0752	0.809	0.032
Mof_H 	H 	0.4053	0.825	0.9516	0.097
Mof_H 	H 	0.1632	0.7995	0.9744	0.06
Mof_H 	H 	0.1404	0.863	0.926	0.05
Mof_H 	H 	0.3096	0.9296	0.8818	0.064
Mof_H 	H 	0.8389	0.682	0.3628	0.03
Mof_H 	H 	0.0114	0.7083	0.3852	0.096
Mof_H 	H 	0.9782	0.3742	0.3158	0.04
Mof_H 	H 	0.8794	0.514	0.3584	0.074
Mof_H 	H 	0.98	0.7813	0.3456	0.028
Mof_H 	H 	0.9939	0.3956	0.368	0.074
Mof_H 	H 	0.8639	0.6104	0.409	0.083
Mof_H 	H 	0.8658	0.4921	0.309	0.035
Mof_H 	H 	0.9734	0.6553	0.4516	0.093
Mof_H 	H 	0.9761	0.4132	0.4744	0.058
Mof_H 	H 	0.961	0.3904	0.426	0.05
Mof_H 	H 	0.9386	0.5596	0.3818	0.065
Mof_H 	H 	0.7983	0.9552	0.3628	0.033
Mof_H 	H 	0.6034	0.9065	0.3852	0.089
Mof_H 	H 	0.706	0.31	0.3158	0.041
Mof_H 	H 	0.7622	0.1276	0.3584	0.074
Mof_H 	H 	0.6744	0.8731	0.3456	0.032
Mof_H 	H 	0.6381	0.2364	0.368	0.075
Mof_H 	H 	0.7271	0.9806	0.409	0.081
Mof_H 	H 	0.8252	0.1989	0.309	0.034
Mof_H 	H 	0.575	0.8931	0.4516	0.097
Mof_H 	H 	0.5495	0.1124	0.4744	0.06
Mof_H 	H 	0.613	0.1836	0.426	0.049
Mof_H 	H 	0.6796	0.0586	0.3818	0.062
Mof_H 	H 	0.318	0.1611	0.6372	0.03
Mof_H 	H 	0.2917	0.9886	0.6148	0.096
Mof_H 	H 	0.6258	0.0218	0.6842	0.04
Mof_H 	H 	0.486	0.1206	0.6416	0.074
Mof_H 	H 	0.2187	0.02	0.6544	0.028
Mof_H 	H 	0.6044	0.0061	0.632	0.074
Mof_H 	H 	0.3896	0.1361	0.591	0.084
Mof_H 	H 	0.5079	0.1342	0.691	0.035
Mof_H 	H 	0.3447	0.0266	0.5484	0.093
Mof_H 	H 	0.5868	0.0239	0.5256	0.058
Mof_H 	H 	0.6096	0.039	0.574	0.05
Mof_H 	H 	0.4404	0.0614	0.6182	0.065
Mof_H 	H 	0.0448	0.2017	0.6372	0.033
Mof_H 	H 	0.0935	0.3966	0.6148	0.089
Mof_H 	H 	0.69	0.294	0.6842	0.041
Mof_H 	H 	0.8724	0.2378	0.6416	0.074
Mof_H 	H 	0.1269	0.3256	0.6544	0.032
Mof_H 	H 	0.7636	0.3619	0.632	0.075
Mof_H 	H 	0.0194	0.2729	0.591	0.081
Mof_H 	H 	0.8011	0.1748	0.691	0.034
Mof_H 	H 	0.1069	0.425	0.5484	0.096
Mof_H 	H 	0.8876	0.4505	0.5256	0.06
Mof_H 	H 	0.8164	0.387	0.574	0.049
Mof_H 	H 	0.9414	0.3204	0.6182	0.062
Mof_H 	H 	0.9517	0.568	0.1372	0.037
Mof_H 	H 	0.1466	0.5417	0.1148	0.086
Mof_H 	H 	0.044	0.8758	0.1842	0.039
Mof_H 	H 	0.9878	0.736	0.1416	0.077
Mof_H 	H 	0.0756	0.4687	0.1544	0.036
Mof_H 	H 	0.1119	0.8544	0.132	0.077
Mof_H 	H 	0.0229	0.6396	0.091	0.077
Mof_H 	H 	0.9248	0.7579	0.191	0.032
Mof_H 	H 	0.175	0.5947	0.0484	0.095
Mof_H 	H 	0.2005	0.8368	0.0256	0.059
Mof_H 	H 	0.137	0.8596	0.074	0.05
Mof_H 	H 	0.0704	0.6904	0.1182	0.064
Mof_H 	H 	0.9111	0.2948	0.1372	0.031
Mof_H 	H 	0.7386	0.3435	0.1148	0.089
Mof_H 	H 	0.7718	0.94	0.1842	0.04
Mof_H 	H 	0.8706	0.1224	0.1416	0.073
Mof_H 	H 	0.77	0.3769	0.1544	0.031
Mof_H 	H 	0.7561	0.0136	0.132	0.075
Mof_H 	H 	0.8861	0.2694	0.091	0.081
Mof_H 	H 	0.8842	0.0511	0.191	0.035
Mof_H 	H 	0.7766	0.3569	0.0484	0.094
Mof_H 	H 	0.7739	0.1376	0.0256	0.058
Mof_H 	H 	0.789	0.0664	0.074	0.049
Mof_H 	H 	0.8114	0.1914	0.1182	0.064
Mof_C 	C 	0.63958	0.14166	0.82124	0.381
Mof_C 	C 	0.66063	0.15853	0.85014	-0.112
Mof_C 	C 	0.69434	0.12248	0.86812	0.051
Mof_C 	C 	0.66542	0.22654	0.88116	-0.132
Mof_C 	C 	0.75136	0.23806	0.98308	-0.033
Mof_C 	C 	0.70028	0.18848	0.89964	0.078
Mof_C 	C 	0.02333	0.20846	0.82448	0.034
Mof_C 	C 	0.91407	0.14965	0.8497	-0.115
Mof_C 	C 	0.05711	0.15769	0.7753	0.365
Mof_C 	C 	0.01177	0.17017	0.80746	-0.095
Mof_C 	C 	0.64671	0.20772	0.85736	0.062
Mof_C 	C 	0.97908	0.21894	0.85604	-0.113
Mof_C 	C 	0.77668	0.20929	0.92844	0.013
Mof_C 	C 	0.71139	0.13882	0.89476	-0.137
Mof_C 	C 	0.95701	0.14135	0.82038	0.035
Mof_C 	C 	0.6812	0.2241	0.9514	-0.125
Mof_C 	C 	0.72042	0.20932	0.92536	0.008
Mof_C 	C 	0.79183	0.22243	0.95714	0.023
Mof_C 	C 	0.92595	0.18835	0.8661	0.063
Mof_C 	C 	0.85206	0.22035	0.95508	-0.054
Mof_C 	C 	0.89539	0.21044	0.92638	-0.048
Mof_C 	C 	0.87834	0.19887	0.89652	0.01
Mof_C 	C 	0.81977	0.19773	0.89986	-0.079
Mof_C 	C 	0.69616	0.24186	0.98008	0.148
Mof_C 	C 	0.53918	0.0371	0.82124	0.373
Mof_C 	C 	0.48923	0.99133	0.85014	-0.095
Mof_C 	C 	0.43754	0.0094	0.86812	0.031
Mof_C 	C 	0.45342	0.8923	0.88116	-0.12
Mof_C 	C 	0.26556	0.77886	0.98308	-0.033
Mof_C 	C 	0.40008	0.91188	0.89964	0.067
Mof_C 	C 	0.15219	0.96706	0.82448	0.041
Mof_C 	C 	0.23623	0.00065	0.8497	-0.127
Mof_C 	C 	0.16759	0.06701	0.7753	0.368
Mof_C 	C 	0.18077	0.02237	0.80746	-0.107
Mof_C 	C 	0.49593	0.93492	0.85736	0.049
Mof_C 	C 	0.16488	0.92502	0.85604	-0.117
Mof_C 	C 	0.29488	0.86227	0.92844	0.01
Mof_C 	C 	0.39385	0.96642	0.89476	-0.119
Mof_C 	C 	0.22261	0.03827	0.82038	0.048
Mof_C 	C 	0.3674	0.8245	0.9514	-0.128
Mof_C 	C 	0.35422	0.86532	0.92536	0.014
Mof_C 	C 	0.25103	0.82043	0.95714	0.025
Mof_C 	C 	0.20795	0.94555	0.8661	0.072
Mof_C 	C 	0.19286	0.82457	0.95508	-0.055
Mof_C 	C 	0.17823	0.86318	0.92638	-0.045
Mof_C 	C 	0.22514	0.90461	0.89652	0.006
Mof_C 	C 	0.28037	0.90241	0.89986	-0.076
Mof_C 	C 	0.32376	0.77806	0.98008	0.15
Mof_C 	C 	0.89166	0.78918	0.32124	0.382
Mof_C 	C 	0.90853	0.73923	0.35014	-0.117
Mof_C 	C 	0.87248	0.68754	0.36812	0.056
Mof_C 	C 	0.97654	0.70342	0.38116	-0.143
Mof_C 	C 	0.98806	0.51556	0.48308	-0.031
Mof_C 	C 	0.93848	0.65008	0.39964	0.084
Mof_C 	C 	0.95846	0.40219	0.32448	0.031
Mof_C 	C 	0.89965	0.48623	0.3497	-0.116
Mof_C 	C 	0.90769	0.41759	0.2753	0.365
Mof_C 	C 	0.92017	0.43077	0.30746	-0.099
Mof_C 	C 	0.95772	0.74593	0.35736	0.07
Mof_C 	C 	0.96894	0.41488	0.35604	-0.11
Mof_C 	C 	0.95929	0.54488	0.42844	0.015
Mof_C 	C 	0.88882	0.64385	0.39476	-0.142
Mof_C 	C 	0.89135	0.47261	0.32038	0.039
Mof_C 	C 	0.9741	0.6174	0.4514	-0.121
Mof_C 	C 	0.95932	0.60422	0.42536	0.004
Mof_C 	C 	0.97243	0.50103	0.45714	0.02
Mof_C 	C 	0.93835	0.45795	0.3661	0.062
Mof_C 	C 	0.97035	0.44286	0.45508	-0.053
Mof_C 	C 	0.96044	0.42823	0.42638	-0.05
Mof_C 	C 	0.94887	0.47514	0.39652	0.011
Mof_C 	C 	0.94773	0.53037	0.39986	-0.081
Mof_C 	C 	0.99186	0.57376	0.48008	0.142
Mof_C 	C 	0.7871	0.88958	0.32124	0.38
Mof_C 	C 	0.74133	0.91063	0.35014	-0.11
Mof_C 	C 	0.7594	0.94434	0.36812	0.05
Mof_C 	C 	0.6423	0.91542	0.38116	-0.13
Mof_C 	C 	0.52886	0.00136	0.48308	-0.041
Mof_C 	C 	0.66188	0.95028	0.39964	0.075
Mof_C 	C 	0.71706	0.27333	0.32448	0.032
Mof_C 	C 	0.75065	0.16407	0.3497	-0.117
Mof_C 	C 	0.81701	0.30711	0.2753	0.366
Mof_C 	C 	0.77237	0.26177	0.30746	-0.099
Mof_C 	C 	0.68492	0.89671	0.35736	0.061
Mof_C 	C 	0.67502	0.22908	0.35604	-0.111
Mof_C 	C 	0.61227	0.02668	0.42844	0.005
Mof_C 	C 	0.71642	0.96139	0.39476	-0.133
Mof_C 	C 	0.78827	0.20701	0.32038	0.04
Mof_C 	C 	0.5745	0.9312	0.4514	-0.129
Mof_C 	C 	0.61532	0.97042	0.42536	0.015
Mof_C 	C 	0.57043	0.04183	0.45714	0.028
Mof_C 	C 	0.69555	0.17595	0.3661	0.064
Mof_C 	C 	0.57457	0.10206	0.45508	-0.057
Mof_C 	C 	0.61318	0.14539	0.42638	-0.046
Mof_C 	C 	0.65461	0.12834	0.39652	0.007
Mof_C 	C 	0.65241	0.06977	0.39986	-0.075
Mof_C 	C 	0.52806	0.94616	0.48008	0.153
Mof_C 	C 	0.21082	0.10834	0.67876	0.382
Mof_C 	C 	0.26077	0.09147	0.64986	-0.117
Mof_C 	C 	0.31246	0.12752	0.63188	0.056
Mof_C 	C 	0.29658	0.02346	0.61884	-0.144
Mof_C 	C 	0.48444	0.01194	0.51692	-0.031
Mof_C 	C 	0.34992	0.06152	0.60036	0.084
Mof_C 	C 	0.59781	0.04154	0.67552	0.031
Mof_C 	C 	0.51377	0.10035	0.6503	-0.116
Mof_C 	C 	0.58241	0.09231	0.7247	0.365
Mof_C 	C 	0.56923	0.07983	0.69254	-0.099
Mof_C 	C 	0.25407	0.04228	0.64264	0.07
Mof_C 	C 	0.58512	0.03106	0.64396	-0.11
Mof_C 	C 	0.45512	0.04071	0.57156	0.015
Mof_C 	C 	0.35615	0.11118	0.60524	-0.142
Mof_C 	C 	0.52739	0.10865	0.67962	0.039
Mof_C 	C 	0.3826	0.0259	0.5486	-0.121
Mof_C 	C 	0.39578	0.04068	0.57464	0.004
Mof_C 	C 	0.49897	0.02757	0.54286	0.02
Mof_C 	C 	0.54205	0.06165	0.6339	0.062
Mof_C 	C 	0.55714	0.02965	0.54492	-0.053
Mof_C 	C 	0.57177	0.03956	0.57362	-0.05
Mof_C 	C 	0.52486	0.05113	0.60348	0.011
Mof_C 	C 	0.46963	0.05227	0.60014	-0.081
Mof_C 	C 	0.42624	0.00814	0.51992	0.141
Mof_C 	C 	0.11042	0.2129	0.67876	0.38
Mof_C 	C 	0.08937	0.25867	0.64986	-0.111
Mof_C 	C 	0.05566	0.2406	0.63188	0.05
Mof_C 	C 	0.08458	0.3577	0.61884	-0.13
Mof_C 	C 	0.99864	0.47114	0.51692	-0.041
Mof_C 	C 	0.04972	0.33812	0.60036	0.075
Mof_C 	C 	0.72667	0.28294	0.67552	0.032
Mof_C 	C 	0.83593	0.24935	0.6503	-0.117
Mof_C 	C 	0.69289	0.18299	0.7247	0.366
Mof_C 	C 	0.73823	0.22763	0.69254	-0.099
Mof_C 	C 	0.10329	0.31508	0.64264	0.061
Mof_C 	C 	0.77092	0.32498	0.64396	-0.11
Mof_C 	C 	0.97332	0.38773	0.57156	0.006
Mof_C 	C 	0.03861	0.28358	0.60524	-0.133
Mof_C 	C 	0.79299	0.21173	0.67962	0.04
Mof_C 	C 	0.0688	0.4255	0.5486	-0.129
Mof_C 	C 	0.02958	0.38468	0.57464	0.015
Mof_C 	C 	0.95817	0.42957	0.54286	0.028
Mof_C 	C 	0.82405	0.30445	0.6339	0.063
Mof_C 	C 	0.89794	0.42543	0.54492	-0.057
Mof_C 	C 	0.85461	0.38682	0.57362	-0.046
Mof_C 	C 	0.87166	0.34539	0.60348	0.007
Mof_C 	C 	0.93023	0.34759	0.60014	-0.076
Mof_C 	C 	0.05384	0.47194	0.51992	0.152
Mof_C 	C 	0.9629	0.46082	0.17876	0.374
Mof_C 	C 	0.00867	0.51077	0.14986	-0.097
Mof_C 	C 	0.9906	0.56246	0.13188	0.033
Mof_C 	C 	0.1077	0.54658	0.11884	-0.121
Mof_C 	C 	0.22114	0.73444	0.01692	-0.037
Mof_C 	C 	0.08812	0.59992	0.10036	0.068
Mof_C 	C 	0.03294	0.84781	0.17552	0.04
Mof_C 	C 	0.99935	0.76377	0.1503	-0.126
Mof_C 	C 	0.93299	0.83241	0.2247	0.368
Mof_C 	C 	0.97763	0.81923	0.19254	-0.106
Mof_C 	C 	0.06508	0.50407	0.14264	0.05
Mof_C 	C 	0.07498	0.83512	0.14396	-0.116
Mof_C 	C 	0.13773	0.70512	0.07156	0.01
Mof_C 	C 	0.03358	0.60615	0.10524	-0.121
Mof_C 	C 	0.96173	0.77739	0.17962	0.047
Mof_C 	C 	0.1755	0.6326	0.0486	-0.126
Mof_C 	C 	0.13468	0.64578	0.07464	0.013
Mof_C 	C 	0.17957	0.74897	0.04286	0.025
Mof_C 	C 	0.05445	0.79205	0.1339	0.071
Mof_C 	C 	0.17543	0.80714	0.04492	-0.056
Mof_C 	C 	0.13682	0.82177	0.07362	-0.046
Mof_C 	C 	0.09539	0.77486	0.10348	0.007
Mof_C 	C 	0.09759	0.71963	0.10014	-0.076
Mof_C 	C 	0.22194	0.67624	0.01992	0.145
Mof_C 	C 	0.85834	0.36042	0.17876	0.381
Mof_C 	C 	0.84147	0.33937	0.14986	-0.112
Mof_C 	C 	0.87752	0.30566	0.13188	0.051
Mof_C 	C 	0.77346	0.33458	0.11884	-0.132
Mof_C 	C 	0.76194	0.24864	0.01692	-0.036
Mof_C 	C 	0.81152	0.29972	0.10036	0.078
Mof_C 	C 	0.79154	0.97667	0.17552	0.034
Mof_C 	C 	0.85035	0.08593	0.1503	-0.115
Mof_C 	C 	0.84231	0.94289	0.2247	0.365
Mof_C 	C 	0.82983	0.98823	0.19254	-0.095
Mof_C 	C 	0.79228	0.35329	0.14264	0.062
Mof_C 	C 	0.78106	0.02092	0.14396	-0.114
Mof_C 	C 	0.79071	0.22332	0.07156	0.012
Mof_C 	C 	0.86118	0.28861	0.10524	-0.137
Mof_C 	C 	0.85865	0.04299	0.17962	0.034
Mof_C 	C 	0.7759	0.3188	0.0486	-0.124
Mof_C 	C 	0.79068	0.27958	0.07464	0.007
Mof_C 	C 	0.77757	0.20817	0.04286	0.023
Mof_C 	C 	0.81165	0.07405	0.1339	0.062
Mof_C 	C 	0.77965	0.14794	0.04492	-0.055
Mof_C 	C 	0.78956	0.10461	0.07362	-0.048
Mof_C 	C 	0.80113	0.12166	0.10348	0.009
Mof_C 	C 	0.80227	0.18023	0.10014	-0.08
Mof_C 	C 	0.75814	0.30384	0.01992	0.144
Mof_O 	O 	0.66204	0.09695	0.81416	-0.401
Mof_O 	O 	0.60682	0.17066	0.80902	-0.434
Mof_O 	O 	0.04458	0.12211	0.76202	-0.425
Mof_O 	O 	0.10583	0.18528	0.7674	-0.396
Mof_O 	O 	0.65386	0.26298	0.00604	-0.215
Mof_O 	O 	0.62959	0.34185	0.03678	-0.203
Mof_O 	O 	0.5238	0.08889	0.81416	-0.399
Mof_O 	O 	0.58416	0.02032	0.80902	-0.433
Mof_O 	O 	0.1934	0.11587	0.76202	-0.427
Mof_O 	O 	0.12677	0.04732	0.7674	-0.397
Mof_O 	O 	0.3401	0.73098	0.00604	-0.215
Mof_O 	O 	0.33363	0.62137	0.03678	-0.203
Mof_O 	O 	0.84695	0.7738	0.31416	-0.401
Mof_O 	O 	0.92066	0.83416	0.30902	-0.434
Mof_O 	O 	0.87211	0.4434	0.26202	-0.426
Mof_O 	O 	0.93528	0.37677	0.2674	-0.397
Mof_O 	O 	0.01298	0.5901	0.50604	-0.21
Mof_O 	O 	0.09185	0.58363	0.53678	-0.202
Mof_O 	O 	0.83889	0.91204	0.31416	-0.4
Mof_O 	O 	0.77032	0.85682	0.30902	-0.434
Mof_O 	O 	0.86587	0.29458	0.26202	-0.427
Mof_O 	O 	0.79732	0.35583	0.2674	-0.396
Mof_O 	O 	0.48098	0.90386	0.50604	-0.213
Mof_O 	O 	0.37137	0.87959	0.53678	-0.202
Mof_O 	O 	0.2262	0.15305	0.68584	-0.401
Mof_O 	O 	0.16584	0.07934	0.69098	-0.434
Mof_O 	O 	0.5566	0.12789	0.73798	-0.426
Mof_O 	O 	0.62323	0.06472	0.7326	-0.397
Mof_O 	O 	0.4099	0.98702	0.49396	-0.209
Mof_O 	O 	0.41637	0.90815	0.46322	-0.202
Mof_O 	O 	0.08796	0.16111	0.68584	-0.4
Mof_O 	O 	0.14318	0.22968	0.69098	-0.434
Mof_O 	O 	0.70542	0.13413	0.73798	-0.427
Mof_O 	O 	0.64417	0.20268	0.7326	-0.396
Mof_O 	O 	0.09614	0.51902	0.49396	-0.213
Mof_O 	O 	0.12041	0.62863	0.46322	-0.202
Mof_O 	O 	0.91111	0.4762	0.18584	-0.4
Mof_O 	O 	0.97968	0.41584	0.19098	-0.433
Mof_O 	O 	0.88413	0.8066	0.23798	-0.427
Mof_O 	O 	0.95268	0.87323	0.2326	-0.397
Mof_O 	O 	0.26902	0.6599	0.99396	-0.21
Mof_O 	O 	0.37863	0.66637	0.96322	-0.2
Mof_O 	O 	0.90305	0.33796	0.18584	-0.401
Mof_O 	O 	0.82934	0.39318	0.19098	-0.434
Mof_O 	O 	0.87789	0.95542	0.23798	-0.425
Mof_O 	O 	0.81472	0.89417	0.2326	-0.396
Mof_O 	O 	0.73702	0.34614	0.99396	-0.21
Mof_O 	O 	0.65815	0.37041	0.96322	-0.201
_end
