# CIF file generated by openbabel 3.1.0, see https://openbabel.org
data_I
_chemical_name_common 'image0'
_cell_length_a 13.612
_cell_length_b 13.612
_cell_length_c 29.956
_cell_angle_alpha 90
_cell_angle_beta 90
_cell_angle_gamma 90
_space_group_name_H-M_alt 'P 1'
_space_group_name_Hall 'P 1'
loop_
    _symmetry_equiv_pos_as_xyz
    x,y,z
loop_
    _atom_site_label
    _atom_site_type_symbol
    _atom_site_fract_x
    _atom_site_fract_y
    _atom_site_fract_z
    _atom_site_occupancy
    Mo1      Mo       0.16274    0.10898    0.41934    1.000
    O1       O        0.08960    0.98660    0.47000    1.000
    N1       N        0.05670    0.14170    0.25320    1.000
    C1       C        0.13100    0.19420    0.23420    1.000
    C2       C        0.14180    0.28370    0.25540    1.000
    N2       N        0.02170    0.19990    0.28630    1.000
    C3       C        0.07210    0.28590    0.28820    1.000
    O2       O        0.25140    0.04890    0.45550    1.000
    C4       C        0.05320    0.35910    0.32490    1.000
    H1       H        0.99990    0.33650    0.34320    1.000
    H2       H        0.03650    0.42150    0.31210    1.000
    H3       H        0.11130    0.36600    0.34280    1.000
    C5       C        0.19020    0.15200    0.19650    1.000
    H4       H        0.16550    0.08800    0.18910    1.000
    H5       H        0.25770    0.14680    0.20540    1.000
    H6       H        0.18520    0.19420    0.17090    1.000
    O3       O        0.14120    0.21170    0.45560    1.000
    O4       O        0.02460    0.12860    0.39400    1.000
    Mo2      Mo       0.83726    0.89102    0.41934    1.000
    O5       O        0.91040    0.01340    0.47000    1.000
    N3       N        0.94330    0.85830    0.25320    1.000
    C6       C        0.86900    0.80580    0.23420    1.000
    C7       C        0.85820    0.71630    0.25540    1.000
    N4       N        0.97830    0.80010    0.28630    1.000
    C8       C        0.92790    0.71410    0.28820    1.000
    O6       O        0.74860    0.95110    0.45550    1.000
    C9       C        0.94680    0.64090    0.32490    1.000
    H7       H        0.00010    0.66350    0.34320    1.000
    H8       H        0.96350    0.57850    0.31210    1.000
    H9       H        0.88870    0.63400    0.34280    1.000
    C10      C        0.80980    0.84800    0.19650    1.000
    H10      H        0.83450    0.91200    0.18910    1.000
    H11      H        0.74230    0.85320    0.20540    1.000
    H12      H        0.81480    0.80580    0.17090    1.000
    O7       O        0.85880    0.78830    0.45560    1.000
    O8       O        0.97540    0.87140    0.39400    1.000
    Mo3      Mo       0.89102    0.16274    0.41934    1.000
    O9       O        0.01340    0.08960    0.47000    1.000
    N5       N        0.85830    0.05670    0.25320    1.000
    C11      C        0.80580    0.13100    0.23420    1.000
    C12      C        0.71630    0.14180    0.25540    1.000
    N6       N        0.80010    0.02170    0.28630    1.000
    C13      C        0.71410    0.07210    0.28820    1.000
    O10      O        0.95110    0.25140    0.45550    1.000
    C14      C        0.64090    0.05320    0.32490    1.000
    H13      H        0.66350    0.99990    0.34320    1.000
    H14      H        0.57850    0.03650    0.31210    1.000
    H15      H        0.63400    0.11130    0.34280    1.000
    C15      C        0.84800    0.19020    0.19650    1.000
    H16      H        0.91200    0.16550    0.18910    1.000
    H17      H        0.85320    0.25770    0.20540    1.000
    H18      H        0.80580    0.18520    0.17090    1.000
    O11      O        0.78830    0.14120    0.45560    1.000
    O12      O        0.87140    0.02460    0.39400    1.000
    Mo4      Mo       0.10898    0.83726    0.41934    1.000
    O13      O        0.98660    0.91040    0.47000    1.000
    N7       N        0.14170    0.94330    0.25320    1.000
    C16      C        0.19420    0.86900    0.23420    1.000
    C17      C        0.28370    0.85820    0.25540    1.000
    N8       N        0.19990    0.97830    0.28630    1.000
    C18      C        0.28590    0.92790    0.28820    1.000
    O14      O        0.04890    0.74860    0.45550    1.000
    C19      C        0.35910    0.94680    0.32490    1.000
    H19      H        0.33650    0.00010    0.34320    1.000
    H20      H        0.42150    0.96350    0.31210    1.000
    H21      H        0.36600    0.88870    0.34280    1.000
    C20      C        0.15200    0.80980    0.19650    1.000
    H22      H        0.08800    0.83450    0.18910    1.000
    H23      H        0.14680    0.74230    0.20540    1.000
    H24      H        0.19420    0.81480    0.17090    1.000
    O15      O        0.21170    0.85880    0.45560    1.000
    O16      O        0.12860    0.97540    0.39400    1.000
    Mo5      Mo       0.33726    0.60898    0.08066    1.000
    O17      O        0.41040    0.48660    0.03000    1.000
    N9       N        0.44330    0.64170    0.24680    1.000
    C21      C        0.36900    0.69420    0.26580    1.000
    C22      C        0.35820    0.78370    0.24460    1.000
    N10      N        0.47830    0.69990    0.21370    1.000
    C23      C        0.42790    0.78590    0.21180    1.000
    O18      O        0.24860    0.54890    0.04450    1.000
    C24      C        0.44680    0.85910    0.17510    1.000
    H25      H        0.50010    0.83650    0.15680    1.000
    H26      H        0.46350    0.92150    0.18790    1.000
    H27      H        0.38870    0.86600    0.15720    1.000
    C25      C        0.30980    0.65200    0.30350    1.000
    H28      H        0.33450    0.58800    0.31090    1.000
    H29      H        0.24230    0.64680    0.29460    1.000
    H30      H        0.31480    0.69420    0.32910    1.000
    O19      O        0.35880    0.71170    0.04440    1.000
    O20      O        0.47540    0.62860    0.10600    1.000
    Mo6      Mo       0.66274    0.39102    0.08066    1.000
    O21      O        0.58960    0.51340    0.03000    1.000
    N11      N        0.55670    0.35830    0.24680    1.000
    C26      C        0.63100    0.30580    0.26580    1.000
    C27      C        0.64180    0.21630    0.24460    1.000
    N12      N        0.52170    0.30010    0.21370    1.000
    C28      C        0.57210    0.21410    0.21180    1.000
    O22      O        0.75140    0.45110    0.04450    1.000
    C29      C        0.55320    0.14090    0.17510    1.000
    H31      H        0.49990    0.16350    0.15680    1.000
    H32      H        0.53650    0.07850    0.18790    1.000
    H33      H        0.61130    0.13400    0.15720    1.000
    C30      C        0.69020    0.34800    0.30350    1.000
    H34      H        0.66550    0.41200    0.31090    1.000
    H35      H        0.75770    0.35320    0.29460    1.000
    H36      H        0.68520    0.30580    0.32910    1.000
    O23      O        0.64120    0.28830    0.04440    1.000
    O24      O        0.52460    0.37140    0.10600    1.000
    Mo7      Mo       0.60898    0.66274    0.08066    1.000
    O25      O        0.48660    0.58960    0.03000    1.000
    N13      N        0.64170    0.55670    0.24680    1.000
    C31      C        0.69420    0.63100    0.26580    1.000
    C32      C        0.78370    0.64180    0.24460    1.000
    N14      N        0.69990    0.52170    0.21370    1.000
    C33      C        0.78590    0.57210    0.21180    1.000
    O26      O        0.54890    0.75140    0.04450    1.000
    C34      C        0.85910    0.55320    0.17510    1.000
    H37      H        0.83650    0.49990    0.15680    1.000
    H38      H        0.92150    0.53650    0.18790    1.000
    H39      H        0.86600    0.61130    0.15720    1.000
    C35      C        0.65200    0.69020    0.30350    1.000
    H40      H        0.58800    0.66550    0.31090    1.000
    H41      H        0.64680    0.75770    0.29460    1.000
    H42      H        0.69420    0.68520    0.32910    1.000
    O27      O        0.71170    0.64120    0.04440    1.000
    O28      O        0.62860    0.52460    0.10600    1.000
    Mo8      Mo       0.39102    0.33726    0.08066    1.000
    O29      O        0.51340    0.41040    0.03000    1.000
    N15      N        0.35830    0.44330    0.24680    1.000
    C36      C        0.30580    0.36900    0.26580    1.000
    C37      C        0.21630    0.35820    0.24460    1.000
    N16      N        0.30010    0.47830    0.21370    1.000
    C38      C        0.21410    0.42790    0.21180    1.000
    O30      O        0.45110    0.24860    0.04450    1.000
    C39      C        0.14090    0.44680    0.17510    1.000
    H43      H        0.16350    0.50010    0.15680    1.000
    H44      H        0.07850    0.46350    0.18790    1.000
    H45      H        0.13400    0.38870    0.15720    1.000
    C40      C        0.34800    0.30980    0.30350    1.000
    H46      H        0.41200    0.33450    0.31090    1.000
    H47      H        0.35320    0.24230    0.29460    1.000
    H48      H        0.30580    0.31480    0.32910    1.000
    O31      O        0.28830    0.35880    0.04440    1.000
    O32      O        0.37140    0.47540    0.10600    1.000
    Mo9      Mo       0.83726    0.89102    0.58066    1.000
    O33      O        0.91040    0.01340    0.53000    1.000
    N17      N        0.94330    0.85830    0.74680    1.000
    C41      C        0.86900    0.80580    0.76580    1.000
    C42      C        0.85820    0.71630    0.74460    1.000
    N18      N        0.97830    0.80010    0.71370    1.000
    C43      C        0.92790    0.71410    0.71180    1.000
    O34      O        0.74860    0.95110    0.54450    1.000
    C44      C        0.94680    0.64090    0.67510    1.000
    H49      H        0.00010    0.66350    0.65680    1.000
    H50      H        0.96350    0.57850    0.68790    1.000
    H51      H        0.88870    0.63400    0.65720    1.000
    C45      C        0.80980    0.84800    0.80350    1.000
    H52      H        0.83450    0.91200    0.81090    1.000
    H53      H        0.74230    0.85320    0.79460    1.000
    H54      H        0.81480    0.80580    0.82910    1.000
    O35      O        0.85880    0.78830    0.54440    1.000
    O36      O        0.97540    0.87140    0.60600    1.000
    Mo10     Mo       0.16274    0.10898    0.58066    1.000
    O37      O        0.08960    0.98660    0.53000    1.000
    N19      N        0.05670    0.14170    0.74680    1.000
    C46      C        0.13100    0.19420    0.76580    1.000
    C47      C        0.14180    0.28370    0.74460    1.000
    N20      N        0.02170    0.19990    0.71370    1.000
    C48      C        0.07210    0.28590    0.71180    1.000
    O38      O        0.25140    0.04890    0.54450    1.000
    C49      C        0.05320    0.35910    0.67510    1.000
    H55      H        0.99990    0.33650    0.65680    1.000
    H56      H        0.03650    0.42150    0.68790    1.000
    H57      H        0.11130    0.36600    0.65720    1.000
    C50      C        0.19020    0.15200    0.80350    1.000
    H58      H        0.16550    0.08800    0.81090    1.000
    H59      H        0.25770    0.14680    0.79460    1.000
    H60      H        0.18520    0.19420    0.82910    1.000
    O39      O        0.14120    0.21170    0.54440    1.000
    O40      O        0.02460    0.12860    0.60600    1.000
    Mo11     Mo       0.10898    0.83726    0.58066    1.000
    O41      O        0.98660    0.91040    0.53000    1.000
    N21      N        0.14170    0.94330    0.74680    1.000
    C51      C        0.19420    0.86900    0.76580    1.000
    C52      C        0.28370    0.85820    0.74460    1.000
    N22      N        0.19990    0.97830    0.71370    1.000
    C53      C        0.28590    0.92790    0.71180    1.000
    O42      O        0.04890    0.74860    0.54450    1.000
    C54      C        0.35910    0.94680    0.67510    1.000
    H61      H        0.33650    0.00010    0.65680    1.000
    H62      H        0.42150    0.96350    0.68790    1.000
    H63      H        0.36600    0.88870    0.65720    1.000
    C55      C        0.15200    0.80980    0.80350    1.000
    H64      H        0.08800    0.83450    0.81090    1.000
    H65      H        0.14680    0.74230    0.79460    1.000
    H66      H        0.19420    0.81480    0.82910    1.000
    O43      O        0.21170    0.85880    0.54440    1.000
    O44      O        0.12860    0.97540    0.60600    1.000
    Mo12     Mo       0.89102    0.16274    0.58066    1.000
    O45      O        0.01340    0.08960    0.53000    1.000
    N23      N        0.85830    0.05670    0.74680    1.000
    C56      C        0.80580    0.13100    0.76580    1.000
    C57      C        0.71630    0.14180    0.74460    1.000
    N24      N        0.80010    0.02170    0.71370    1.000
    C58      C        0.71410    0.07210    0.71180    1.000
    O46      O        0.95110    0.25140    0.54450    1.000
    C59      C        0.64090    0.05320    0.67510    1.000
    H67      H        0.66350    0.99990    0.65680    1.000
    H68      H        0.57850    0.03650    0.68790    1.000
    H69      H        0.63400    0.11130    0.65720    1.000
    C60      C        0.84800    0.19020    0.80350    1.000
    H70      H        0.91200    0.16550    0.81090    1.000
    H71      H        0.85320    0.25770    0.79460    1.000
    H72      H        0.80580    0.18520    0.82910    1.000
    O47      O        0.78830    0.14120    0.54440    1.000
    O48      O        0.87140    0.02460    0.60600    1.000
    Mo13     Mo       0.66274    0.39102    0.91934    1.000
    O49      O        0.58960    0.51340    0.97000    1.000
    N25      N        0.55670    0.35830    0.75320    1.000
    C61      C        0.63100    0.30580    0.73420    1.000
    C62      C        0.64180    0.21630    0.75540    1.000
    N26      N        0.52170    0.30010    0.78630    1.000
    C63      C        0.57210    0.21410    0.78820    1.000
    O50      O        0.75140    0.45110    0.95550    1.000
    C64      C        0.55320    0.14090    0.82490    1.000
    H73      H        0.49990    0.16350    0.84320    1.000
    H74      H        0.53650    0.07850    0.81210    1.000
    H75      H        0.61130    0.13400    0.84280    1.000
    C65      C        0.69020    0.34800    0.69650    1.000
    H76      H        0.66550    0.41200    0.68910    1.000
    H77      H        0.75770    0.35320    0.70540    1.000
    H78      H        0.68520    0.30580    0.67090    1.000
    O51      O        0.64120    0.28830    0.95560    1.000
    O52      O        0.52460    0.37140    0.89400    1.000
    Mo14     Mo       0.33726    0.60898    0.91934    1.000
    O53      O        0.41040    0.48660    0.97000    1.000
    N27      N        0.44330    0.64170    0.75320    1.000
    C66      C        0.36900    0.69420    0.73420    1.000
    C67      C        0.35820    0.78370    0.75540    1.000
    N28      N        0.47830    0.69990    0.78630    1.000
    C68      C        0.42790    0.78590    0.78820    1.000
    O54      O        0.24860    0.54890    0.95550    1.000
    C69      C        0.44680    0.85910    0.82490    1.000
    H79      H        0.50010    0.83650    0.84320    1.000
    H80      H        0.46350    0.92150    0.81210    1.000
    H81      H        0.38870    0.86600    0.84280    1.000
    C70      C        0.30980    0.65200    0.69650    1.000
    H82      H        0.33450    0.58800    0.68910    1.000
    H83      H        0.24230    0.64680    0.70540    1.000
    H84      H        0.31480    0.69420    0.67090    1.000
    O55      O        0.35880    0.71170    0.95560    1.000
    O56      O        0.47540    0.62860    0.89400    1.000
    Mo15     Mo       0.39102    0.33726    0.91934    1.000
    O57      O        0.51340    0.41040    0.97000    1.000
    N29      N        0.35830    0.44330    0.75320    1.000
    C71      C        0.30580    0.36900    0.73420    1.000
    C72      C        0.21630    0.35820    0.75540    1.000
    N30      N        0.30010    0.47830    0.78630    1.000
    C73      C        0.21410    0.42790    0.78820    1.000
    O58      O        0.45110    0.24860    0.95550    1.000
    C74      C        0.14090    0.44680    0.82490    1.000
    H85      H        0.16350    0.50010    0.84320    1.000
    H86      H        0.07850    0.46350    0.81210    1.000
    H87      H        0.13400    0.38870    0.84280    1.000
    C75      C        0.34800    0.30980    0.69650    1.000
    H88      H        0.41200    0.33450    0.68910    1.000
    H89      H        0.35320    0.24230    0.70540    1.000
    H90      H        0.30580    0.31480    0.67090    1.000
    O59      O        0.28830    0.35880    0.95560    1.000
    O60      O        0.37140    0.47540    0.89400    1.000
    Mo16     Mo       0.60898    0.66274    0.91934    1.000
    O61      O        0.48660    0.58960    0.97000    1.000
    N31      N        0.64170    0.55670    0.75320    1.000
    C76      C        0.69420    0.63100    0.73420    1.000
    C77      C        0.78370    0.64180    0.75540    1.000
    N32      N        0.69990    0.52170    0.78630    1.000
    C78      C        0.78590    0.57210    0.78820    1.000
    O62      O        0.54890    0.75140    0.95550    1.000
    C79      C        0.85910    0.55320    0.82490    1.000
    H91      H        0.83650    0.49990    0.84320    1.000
    H92      H        0.92150    0.53650    0.81210    1.000
    H93      H        0.86600    0.61130    0.84280    1.000
    C80      C        0.65200    0.69020    0.69650    1.000
    H94      H        0.58800    0.66550    0.68910    1.000
    H95      H        0.64680    0.75770    0.70540    1.000
    H96      H        0.69420    0.68520    0.67090    1.000
    O63      O        0.71170    0.64120    0.95560    1.000
    O64      O        0.62860    0.52460    0.89400    1.000
    Ni1      Ni       0.00000    0.00000    0.24727    1.000
    V1       V        0.00000    0.00000    0.37039    1.000
    O65      O        0.00000    0.00000    0.31600    1.000
    Ni2      Ni       0.50000    0.50000    0.25273    1.000
    V2       V        0.50000    0.50000    0.12961    1.000
    O66      O        0.50000    0.50000    0.18400    1.000
    Ni3      Ni       0.00000    0.00000    0.75273    1.000
    V3       V        0.00000    0.00000    0.62961    1.000
    O67      O        0.00000    0.00000    0.68400    1.000
    Ni4      Ni       0.50000    0.50000    0.74727    1.000
    V4       V        0.50000    0.50000    0.87039    1.000
    O68      O        0.50000    0.50000    0.81600    1.000
    P1       P        0.00000    0.00000    0.50000    1.000
    P2       P        0.50000    0.50000    0.00000    1.000
    Mo17     Mo       0.26028    0.94800    0.50000    1.000
    V5       V        0.24720    0.16210    0.50000    1.000
    Mo18     Mo       0.73972    0.05200    0.50000    1.000
    V6       V        0.75280    0.83790    0.50000    1.000
    Mo19     Mo       0.05200    0.26028    0.50000    1.000
    V7       V        0.83790    0.24720    0.50000    1.000
    Mo20     Mo       0.94800    0.73972    0.50000    1.000
    V8       V        0.16210    0.75280    0.50000    1.000
    Mo21     Mo       0.23972    0.44800    0.00000    1.000
    V9       V        0.25280    0.66210    0.00000    1.000
    Mo22     Mo       0.76028    0.55200    0.00000    1.000
    V10      V        0.74720    0.33790    0.00000    1.000
    Mo23     Mo       0.44800    0.76028    0.00000    1.000
    V11      V        0.66210    0.74720    0.00000    1.000
    Mo24     Mo       0.55200    0.23972    0.00000    1.000
    V12      V        0.33790    0.25280    0.00000    1.000
