# CIF file generated by openbabel 3.1.0, see https://openbabel.org
data_I
_chemical_name_common 'image0'
_cell_length_a 25.2913
_cell_length_b 33.509
_cell_length_c 18.681
_cell_angle_alpha 90
_cell_angle_beta 90
_cell_angle_gamma 90
_space_group_name_H-M_alt 'P 1'
_space_group_name_Hall 'P 1'
loop_
    _symmetry_equiv_pos_as_xyz
    x,y,z
loop_
    _atom_site_label
    _atom_site_type_symbol
    _atom_site_fract_x
    _atom_site_fract_y
    _atom_site_fract_z
    _atom_site_occupancy
    C1       C        0.88156    0.60497    0.10593    1.000
    C2       C        0.86122    0.64185    0.08524    1.000
    H1       H        0.87740    0.66530    0.10050    1.000
    C3       C        0.81775    0.64353    0.04275    1.000
    C4       C        0.79311    0.60892    0.01929    1.000
    H2       H        0.76360    0.61040    0.98970    1.000
    C5       C        0.81304    0.57174    0.04050    1.000
    C6       C        0.85727    0.57007    0.08446    1.000
    H3       H        0.87050    0.54550    0.09940    1.000
    C7       C        0.92783    0.60366    0.15667    1.000
    C8       C        0.79379    0.68296    0.02236    1.000
    C9       C        0.78604    0.53401    0.01973    1.000
    C10      C        0.73153    0.53356    0.01976    1.000
    H4       H        0.71300    0.55630    0.03340    1.000
    C11      C        0.17347    0.23252    0.18565    1.000
    C12      C        0.12458    0.21365    0.18553    1.000
    H5       H        0.10810    0.20700    0.14270    1.000
    C13      C        0.20142    0.24074    0.11566    1.000
    Cu1      Cu       0.21121    0.23194    0.96484    1.000
    O1       O        0.94497    0.57076    0.17648    1.000
    O2       O        0.94527    0.63645    0.17711    1.000
    O3       O        0.75195    0.68359    0.98768    1.000
    O4       O        0.81663    0.71399    0.04748    1.000
    O5       O        0.17892    0.22875    0.06085    1.000
    O6       O        0.24435    0.25858    0.11894    1.000
    C14      C        0.38156    0.10497    0.10593    1.000
    C15      C        0.36122    0.14185    0.08524    1.000
    H6       H        0.37740    0.16530    0.10050    1.000
    C16      C        0.31775    0.14353    0.04275    1.000
    C17      C        0.29311    0.10892    0.01929    1.000
    H7       H        0.26360    0.11040    0.98970    1.000
    C18      C        0.31304    0.07174    0.04050    1.000
    C19      C        0.35727    0.07007    0.08446    1.000
    H8       H        0.37050    0.04550    0.09940    1.000
    C20      C        0.42783    0.10366    0.15667    1.000
    C21      C        0.29379    0.18296    0.02236    1.000
    C22      C        0.28604    0.03401    0.01973    1.000
    C23      C        0.23153    0.03356    0.01976    1.000
    H9       H        0.21300    0.05630    0.03340    1.000
    C24      C        0.67347    0.73252    0.18565    1.000
    C25      C        0.62458    0.71365    0.18553    1.000
    H10      H        0.60810    0.70700    0.14270    1.000
    C26      C        0.70142    0.74074    0.11566    1.000
    Cu2      Cu       0.71121    0.73194    0.96484    1.000
    O7       O        0.44497    0.07076    0.17648    1.000
    O8       O        0.44527    0.13645    0.17711    1.000
    O9       O        0.25195    0.18359    0.98768    1.000
    O10      O        0.31663    0.21399    0.04748    1.000
    O11      O        0.67892    0.72875    0.06085    1.000
    O12      O        0.74435    0.75858    0.11894    1.000
    C27      C        0.11844    0.39503    0.60593    1.000
    C28      C        0.13878    0.35815    0.58524    1.000
    H11      H        0.12260    0.33470    0.60050    1.000
    C29      C        0.18225    0.35647    0.54275    1.000
    C30      C        0.20689    0.39108    0.51929    1.000
    H12      H        0.23640    0.38960    0.48970    1.000
    C31      C        0.18696    0.42826    0.54050    1.000
    C32      C        0.14273    0.42993    0.58446    1.000
    H13      H        0.12950    0.45450    0.59940    1.000
    C33      C        0.07217    0.39634    0.65667    1.000
    C34      C        0.20621    0.31704    0.52236    1.000
    C35      C        0.21396    0.46599    0.51973    1.000
    C36      C        0.26847    0.46644    0.51976    1.000
    H14      H        0.28700    0.44370    0.53340    1.000
    C37      C        0.82653    0.76748    0.68565    1.000
    C38      C        0.87542    0.78635    0.68553    1.000
    H15      H        0.89190    0.79300    0.64270    1.000
    C39      C        0.79858    0.75926    0.61566    1.000
    Cu3      Cu       0.78879    0.76806    0.46484    1.000
    O13      O        0.05503    0.42924    0.67648    1.000
    O14      O        0.05473    0.36355    0.67711    1.000
    O15      O        0.24805    0.31641    0.48768    1.000
    O16      O        0.18337    0.28601    0.54748    1.000
    O17      O        0.82108    0.77125    0.56085    1.000
    O18      O        0.75565    0.74142    0.61894    1.000
    C40      C        0.61844    0.89503    0.60593    1.000
    C41      C        0.63878    0.85815    0.58524    1.000
    H16      H        0.62260    0.83470    0.60050    1.000
    C42      C        0.68225    0.85647    0.54275    1.000
    C43      C        0.70689    0.89108    0.51929    1.000
    H17      H        0.73640    0.88960    0.48970    1.000
    C44      C        0.68696    0.92826    0.54050    1.000
    C45      C        0.64273    0.92993    0.58446    1.000
    H18      H        0.62950    0.95450    0.59940    1.000
    C46      C        0.57217    0.89634    0.65667    1.000
    C47      C        0.70621    0.81704    0.52236    1.000
    C48      C        0.71396    0.96599    0.51973    1.000
    C49      C        0.76847    0.96644    0.51976    1.000
    H19      H        0.78700    0.94370    0.53340    1.000
    C50      C        0.32653    0.26748    0.68565    1.000
    C51      C        0.37542    0.28635    0.68553    1.000
    H20      H        0.39190    0.29300    0.64270    1.000
    C52      C        0.29858    0.25926    0.61566    1.000
    Cu4      Cu       0.28879    0.26806    0.46484    1.000
    O19      O        0.55503    0.92924    0.67648    1.000
    O20      O        0.55473    0.86355    0.67711    1.000
    O21      O        0.74805    0.81641    0.48768    1.000
    O22      O        0.68337    0.78601    0.54748    1.000
    O23      O        0.32108    0.27125    0.56085    1.000
    O24      O        0.25565    0.24142    0.61894    1.000
    C53      C        0.11844    0.60497    0.39407    1.000
    C54      C        0.13878    0.64185    0.41476    1.000
    H21      H        0.12260    0.66530    0.39950    1.000
    C55      C        0.18225    0.64353    0.45725    1.000
    C56      C        0.20689    0.60892    0.48071    1.000
    H22      H        0.23640    0.61040    0.51030    1.000
    C57      C        0.18696    0.57174    0.45950    1.000
    C58      C        0.14273    0.57007    0.41554    1.000
    H23      H        0.12950    0.54550    0.40060    1.000
    C59      C        0.07217    0.60366    0.34333    1.000
    C60      C        0.20621    0.68296    0.47764    1.000
    C61      C        0.21396    0.53401    0.48027    1.000
    C62      C        0.26847    0.53356    0.48024    1.000
    H24      H        0.28700    0.55630    0.46660    1.000
    C63      C        0.82653    0.23252    0.31435    1.000
    C64      C        0.87542    0.21365    0.31447    1.000
    H25      H        0.89190    0.20700    0.35730    1.000
    C65      C        0.79858    0.24074    0.38434    1.000
    Cu5      Cu       0.78879    0.23194    0.53516    1.000
    O25      O        0.05503    0.57076    0.32352    1.000
    O26      O        0.05473    0.63645    0.32289    1.000
    O27      O        0.24805    0.68359    0.51232    1.000
    O28      O        0.18337    0.71399    0.45252    1.000
    O29      O        0.82108    0.22875    0.43915    1.000
    O30      O        0.75565    0.25858    0.38106    1.000
    C66      C        0.61844    0.10497    0.39407    1.000
    C67      C        0.63878    0.14185    0.41476    1.000
    H26      H        0.62260    0.16530    0.39950    1.000
    C68      C        0.68225    0.14353    0.45725    1.000
    C69      C        0.70689    0.10892    0.48071    1.000
    H27      H        0.73640    0.11040    0.51030    1.000
    C70      C        0.68696    0.07174    0.45950    1.000
    C71      C        0.64273    0.07007    0.41554    1.000
    H28      H        0.62950    0.04550    0.40060    1.000
    C72      C        0.57217    0.10366    0.34333    1.000
    C73      C        0.70621    0.18296    0.47764    1.000
    C74      C        0.71396    0.03401    0.48027    1.000
    C75      C        0.76847    0.03356    0.48024    1.000
    H29      H        0.78700    0.05630    0.46660    1.000
    C76      C        0.32653    0.73252    0.31435    1.000
    C77      C        0.37542    0.71365    0.31447    1.000
    H30      H        0.39190    0.70700    0.35730    1.000
    C78      C        0.29858    0.74074    0.38434    1.000
    Cu6      Cu       0.28879    0.73194    0.53516    1.000
    O31      O        0.55503    0.07076    0.32352    1.000
    O32      O        0.55473    0.13645    0.32289    1.000
    O33      O        0.74805    0.18359    0.51232    1.000
    O34      O        0.68337    0.21399    0.45252    1.000
    O35      O        0.32108    0.72875    0.43915    1.000
    O36      O        0.25565    0.75858    0.38106    1.000
    C79      C        0.88156    0.39503    0.89407    1.000
    C80      C        0.86122    0.35815    0.91476    1.000
    H31      H        0.87740    0.33470    0.89950    1.000
    C81      C        0.81775    0.35647    0.95725    1.000
    C82      C        0.79311    0.39108    0.98071    1.000
    H32      H        0.76360    0.38960    0.01030    1.000
    C83      C        0.81304    0.42826    0.95950    1.000
    C84      C        0.85727    0.42993    0.91554    1.000
    H33      H        0.87050    0.45450    0.90060    1.000
    C85      C        0.92783    0.39634    0.84333    1.000
    C86      C        0.79379    0.31704    0.97764    1.000
    C87      C        0.78604    0.46599    0.98027    1.000
    C88      C        0.73153    0.46644    0.98024    1.000
    H34      H        0.71300    0.44370    0.96660    1.000
    C89      C        0.17347    0.76748    0.81435    1.000
    C90      C        0.12458    0.78635    0.81447    1.000
    H35      H        0.10810    0.79300    0.85730    1.000
    C91      C        0.20142    0.75926    0.88434    1.000
    Cu7      Cu       0.21121    0.76806    0.03516    1.000
    O37      O        0.94497    0.42924    0.82352    1.000
    O38      O        0.94527    0.36355    0.82289    1.000
    O39      O        0.75195    0.31641    0.01232    1.000
    O40      O        0.81663    0.28601    0.95252    1.000
    O41      O        0.17892    0.77125    0.93915    1.000
    O42      O        0.24435    0.74142    0.88106    1.000
    C92      C        0.38156    0.89503    0.89407    1.000
    C93      C        0.36122    0.85815    0.91476    1.000
    H36      H        0.37740    0.83470    0.89950    1.000
    C94      C        0.31775    0.85647    0.95725    1.000
    C95      C        0.29311    0.89108    0.98071    1.000
    H37      H        0.26360    0.88960    0.01030    1.000
    C96      C        0.31304    0.92826    0.95950    1.000
    C97      C        0.35727    0.92993    0.91554    1.000
    H38      H        0.37050    0.95450    0.90060    1.000
    C98      C        0.42783    0.89634    0.84333    1.000
    C99      C        0.29379    0.81704    0.97764    1.000
    C100     C        0.28604    0.96599    0.98027    1.000
    C101     C        0.23153    0.96644    0.98024    1.000
    H39      H        0.21300    0.94370    0.96660    1.000
    C102     C        0.67347    0.26748    0.81435    1.000
    C103     C        0.62458    0.28635    0.81447    1.000
    H40      H        0.60810    0.29300    0.85730    1.000
    C104     C        0.70142    0.25926    0.88434    1.000
    Cu8      Cu       0.71121    0.26806    0.03516    1.000
    O43      O        0.44497    0.92924    0.82352    1.000
    O44      O        0.44527    0.86355    0.82289    1.000
    O45      O        0.25195    0.81641    0.01232    1.000
    O46      O        0.31663    0.78601    0.95252    1.000
    O47      O        0.67892    0.27125    0.93915    1.000
    O48      O        0.74435    0.24142    0.88106    1.000
    C105     C        0.11844    0.39503    0.89407    1.000
    C106     C        0.13878    0.35815    0.91476    1.000
    H41      H        0.12260    0.33470    0.89950    1.000
    C107     C        0.18225    0.35647    0.95725    1.000
    C108     C        0.20689    0.39108    0.98071    1.000
    H42      H        0.23640    0.38960    0.01030    1.000
    C109     C        0.18696    0.42826    0.95950    1.000
    C110     C        0.14273    0.42993    0.91554    1.000
    H43      H        0.12950    0.45450    0.90060    1.000
    C111     C        0.07217    0.39634    0.84333    1.000
    C112     C        0.20621    0.31704    0.97764    1.000
    C113     C        0.21396    0.46599    0.98027    1.000
    C114     C        0.26847    0.46644    0.98024    1.000
    H44      H        0.28700    0.44370    0.96660    1.000
    C115     C        0.82653    0.76748    0.81435    1.000
    C116     C        0.87542    0.78635    0.81447    1.000
    H45      H        0.89190    0.79300    0.85730    1.000
    C117     C        0.79858    0.75926    0.88434    1.000
    Cu9      Cu       0.78879    0.76806    0.03516    1.000
    O49      O        0.05503    0.42924    0.82352    1.000
    O50      O        0.05473    0.36355    0.82289    1.000
    O51      O        0.24805    0.31641    0.01232    1.000
    O52      O        0.18337    0.28601    0.95252    1.000
    O53      O        0.82108    0.77125    0.93915    1.000
    O54      O        0.75565    0.74142    0.88106    1.000
    C118     C        0.61844    0.89503    0.89407    1.000
    C119     C        0.63878    0.85815    0.91476    1.000
    H46      H        0.62260    0.83470    0.89950    1.000
    C120     C        0.68225    0.85647    0.95725    1.000
    C121     C        0.70689    0.89108    0.98071    1.000
    H47      H        0.73640    0.88960    0.01030    1.000
    C122     C        0.68696    0.92826    0.95950    1.000
    C123     C        0.64273    0.92993    0.91554    1.000
    H48      H        0.62950    0.95450    0.90060    1.000
    C124     C        0.57217    0.89634    0.84333    1.000
    C125     C        0.70621    0.81704    0.97764    1.000
    C126     C        0.71396    0.96599    0.98027    1.000
    C127     C        0.76847    0.96644    0.98024    1.000
    H49      H        0.78700    0.94370    0.96660    1.000
    C128     C        0.32653    0.26748    0.81435    1.000
    C129     C        0.37542    0.28635    0.81447    1.000
    H50      H        0.39190    0.29300    0.85730    1.000
    C130     C        0.29858    0.25926    0.88434    1.000
    Cu10     Cu       0.28879    0.26806    0.03516    1.000
    O55      O        0.55503    0.92924    0.82352    1.000
    O56      O        0.55473    0.86355    0.82289    1.000
    O57      O        0.74805    0.81641    0.01232    1.000
    O58      O        0.68337    0.78601    0.95252    1.000
    O59      O        0.32108    0.27125    0.93915    1.000
    O60      O        0.25565    0.24142    0.88106    1.000
    C131     C        0.88156    0.60497    0.39407    1.000
    C132     C        0.86122    0.64185    0.41476    1.000
    H51      H        0.87740    0.66530    0.39950    1.000
    C133     C        0.81775    0.64353    0.45725    1.000
    C134     C        0.79311    0.60892    0.48071    1.000
    H52      H        0.76360    0.61040    0.51030    1.000
    C135     C        0.81304    0.57174    0.45950    1.000
    C136     C        0.85727    0.57007    0.41554    1.000
    H53      H        0.87050    0.54550    0.40060    1.000
    C137     C        0.92783    0.60366    0.34333    1.000
    C138     C        0.79379    0.68296    0.47764    1.000
    C139     C        0.78604    0.53401    0.48027    1.000
    C140     C        0.73153    0.53356    0.48024    1.000
    H54      H        0.71300    0.55630    0.46660    1.000
    C141     C        0.17347    0.23252    0.31435    1.000
    C142     C        0.12458    0.21365    0.31447    1.000
    H55      H        0.10810    0.20700    0.35730    1.000
    C143     C        0.20142    0.24074    0.38434    1.000
    Cu11     Cu       0.21121    0.23194    0.53516    1.000
    O61      O        0.94497    0.57076    0.32352    1.000
    O62      O        0.94527    0.63645    0.32289    1.000
    O63      O        0.75195    0.68359    0.51232    1.000
    O64      O        0.81663    0.71399    0.45252    1.000
    O65      O        0.17892    0.22875    0.43915    1.000
    O66      O        0.24435    0.25858    0.38106    1.000
    C144     C        0.38156    0.10497    0.39407    1.000
    C145     C        0.36122    0.14185    0.41476    1.000
    H56      H        0.37740    0.16530    0.39950    1.000
    C146     C        0.31775    0.14353    0.45725    1.000
    C147     C        0.29311    0.10892    0.48071    1.000
    H57      H        0.26360    0.11040    0.51030    1.000
    C148     C        0.31304    0.07174    0.45950    1.000
    C149     C        0.35727    0.07007    0.41554    1.000
    H58      H        0.37050    0.04550    0.40060    1.000
    C150     C        0.42783    0.10366    0.34333    1.000
    C151     C        0.29379    0.18296    0.47764    1.000
    C152     C        0.28604    0.03401    0.48027    1.000
    C153     C        0.23153    0.03356    0.48024    1.000
    H59      H        0.21300    0.05630    0.46660    1.000
    C154     C        0.67347    0.73252    0.31435    1.000
    C155     C        0.62458    0.71365    0.31447    1.000
    H60      H        0.60810    0.70700    0.35730    1.000
    C156     C        0.70142    0.74074    0.38434    1.000
    Cu12     Cu       0.71121    0.73194    0.53516    1.000
    O67      O        0.44497    0.07076    0.32352    1.000
    O68      O        0.44527    0.13645    0.32289    1.000
    O69      O        0.25195    0.18359    0.51232    1.000
    O70      O        0.31663    0.21399    0.45252    1.000
    O71      O        0.67892    0.72875    0.43915    1.000
    O72      O        0.74435    0.75858    0.38106    1.000
    C157     C        0.88156    0.39503    0.60593    1.000
    C158     C        0.86122    0.35815    0.58524    1.000
    H61      H        0.87740    0.33470    0.60050    1.000
    C159     C        0.81775    0.35647    0.54275    1.000
    C160     C        0.79311    0.39108    0.51929    1.000
    H62      H        0.76360    0.38960    0.48970    1.000
    C161     C        0.81304    0.42826    0.54050    1.000
    C162     C        0.85727    0.42993    0.58446    1.000
    H63      H        0.87050    0.45450    0.59940    1.000
    C163     C        0.92783    0.39634    0.65667    1.000
    C164     C        0.79379    0.31704    0.52236    1.000
    C165     C        0.78604    0.46599    0.51973    1.000
    C166     C        0.73153    0.46644    0.51976    1.000
    H64      H        0.71300    0.44370    0.53340    1.000
    C167     C        0.17347    0.76748    0.68565    1.000
    C168     C        0.12458    0.78635    0.68553    1.000
    H65      H        0.10810    0.79300    0.64270    1.000
    C169     C        0.20142    0.75926    0.61566    1.000
    Cu13     Cu       0.21121    0.76806    0.46484    1.000
    O73      O        0.94497    0.42924    0.67648    1.000
    O74      O        0.94527    0.36355    0.67711    1.000
    O75      O        0.75195    0.31641    0.48768    1.000
    O76      O        0.81663    0.28601    0.54748    1.000
    O77      O        0.17892    0.77125    0.56085    1.000
    O78      O        0.24435    0.74142    0.61894    1.000
    C170     C        0.38156    0.89503    0.60593    1.000
    C171     C        0.36122    0.85815    0.58524    1.000
    H66      H        0.37740    0.83470    0.60050    1.000
    C172     C        0.31775    0.85647    0.54275    1.000
    C173     C        0.29311    0.89108    0.51929    1.000
    H67      H        0.26360    0.88960    0.48970    1.000
    C174     C        0.31304    0.92826    0.54050    1.000
    C175     C        0.35727    0.92993    0.58446    1.000
    H68      H        0.37050    0.95450    0.59940    1.000
    C176     C        0.42783    0.89634    0.65667    1.000
    C177     C        0.29379    0.81704    0.52236    1.000
    C178     C        0.28604    0.96599    0.51973    1.000
    C179     C        0.23153    0.96644    0.51976    1.000
    H69      H        0.21300    0.94370    0.53340    1.000
    C180     C        0.67347    0.26748    0.68565    1.000
    C181     C        0.62458    0.28635    0.68553    1.000
    H70      H        0.60810    0.29300    0.64270    1.000
    C182     C        0.70142    0.25926    0.61566    1.000
    Cu14     Cu       0.71121    0.26806    0.46484    1.000
    O79      O        0.44497    0.92924    0.67648    1.000
    O80      O        0.44527    0.86355    0.67711    1.000
    O81      O        0.25195    0.81641    0.48768    1.000
    O82      O        0.31663    0.78601    0.54748    1.000
    O83      O        0.67892    0.27125    0.56085    1.000
    O84      O        0.74435    0.24142    0.61894    1.000
    C183     C        0.11844    0.60497    0.10593    1.000
    C184     C        0.13878    0.64185    0.08524    1.000
    H71      H        0.12260    0.66530    0.10050    1.000
    C185     C        0.18225    0.64353    0.04275    1.000
    C186     C        0.20689    0.60892    0.01929    1.000
    H72      H        0.23640    0.61040    0.98970    1.000
    C187     C        0.18696    0.57174    0.04050    1.000
    C188     C        0.14273    0.57007    0.08446    1.000
    H73      H        0.12950    0.54550    0.09940    1.000
    C189     C        0.07217    0.60366    0.15667    1.000
    C190     C        0.20621    0.68296    0.02236    1.000
    C191     C        0.21396    0.53401    0.01973    1.000
    C192     C        0.26847    0.53356    0.01976    1.000
    H74      H        0.28700    0.55630    0.03340    1.000
    C193     C        0.82653    0.23252    0.18565    1.000
    C194     C        0.87542    0.21365    0.18553    1.000
    H75      H        0.89190    0.20700    0.14270    1.000
    C195     C        0.79858    0.24074    0.11566    1.000
    Cu15     Cu       0.78879    0.23194    0.96484    1.000
    O85      O        0.05503    0.57076    0.17648    1.000
    O86      O        0.05473    0.63645    0.17711    1.000
    O87      O        0.24805    0.68359    0.98768    1.000
    O88      O        0.18337    0.71399    0.04748    1.000
    O89      O        0.82108    0.22875    0.06085    1.000
    O90      O        0.75565    0.25858    0.11894    1.000
    C196     C        0.61844    0.10497    0.10593    1.000
    C197     C        0.63878    0.14185    0.08524    1.000
    H76      H        0.62260    0.16530    0.10050    1.000
    C198     C        0.68225    0.14353    0.04275    1.000
    C199     C        0.70689    0.10892    0.01929    1.000
    H77      H        0.73640    0.11040    0.98970    1.000
    C200     C        0.68696    0.07174    0.04050    1.000
    C201     C        0.64273    0.07007    0.08446    1.000
    H78      H        0.62950    0.04550    0.09940    1.000
    C202     C        0.57217    0.10366    0.15667    1.000
    C203     C        0.70621    0.18296    0.02236    1.000
    C204     C        0.71396    0.03401    0.01973    1.000
    C205     C        0.76847    0.03356    0.01976    1.000
    H79      H        0.78700    0.05630    0.03340    1.000
    C206     C        0.32653    0.73252    0.18565    1.000
    C207     C        0.37542    0.71365    0.18553    1.000
    H80      H        0.39190    0.70700    0.14270    1.000
    C208     C        0.29858    0.74074    0.11566    1.000
    Cu16     Cu       0.28879    0.73194    0.96484    1.000
    O91      O        0.55503    0.07076    0.17648    1.000
    O92      O        0.55473    0.13645    0.17711    1.000
    O93      O        0.74805    0.18359    0.98768    1.000
    O94      O        0.68337    0.21399    0.04748    1.000
    O95      O        0.32108    0.72875    0.06085    1.000
    O96      O        0.25565    0.75858    0.11894    1.000
    C209     C        0.81356    0.50000    0.00000    1.000
    H81      H        0.85030    0.50000    0.00000    1.000
    N1       N        0.70437    0.50000    0.00000    1.000
    C210     C        0.31356    0.00000    0.00000    1.000
    H82      H        0.35030    0.00000    0.00000    1.000
    N2       N        0.20437    0.00000    0.00000    1.000
    C211     C        0.18644    0.50000    0.50000    1.000
    H83      H        0.14970    0.50000    0.50000    1.000
    N3       N        0.29563    0.50000    0.50000    1.000
    C212     C        0.68644    0.00000    0.50000    1.000
    H84      H        0.64970    0.00000    0.50000    1.000
    N4       N        0.79563    0.00000    0.50000    1.000
    C213     C        0.18644    0.50000    0.00000    1.000
    H85      H        0.14970    0.50000    0.00000    1.000
    N5       N        0.29563    0.50000    0.00000    1.000
    C214     C        0.68644    0.00000    0.00000    1.000
    H86      H        0.64970    0.00000    0.00000    1.000
    N6       N        0.79563    0.00000    0.00000    1.000
    C215     C        0.81356    0.50000    0.50000    1.000
    H87      H        0.85030    0.50000    0.50000    1.000
    N7       N        0.70437    0.50000    0.50000    1.000
    C216     C        0.31356    0.00000    0.50000    1.000
    H88      H        0.35030    0.00000    0.50000    1.000
    N8       N        0.20437    0.00000    0.50000    1.000
    C217     C        0.19697    0.24233    0.25000    1.000
    H89      H        0.22920    0.25580    0.25000    1.000
    C218     C        0.10098    0.20501    0.25000    1.000
    C219     C        0.04940    0.18164    0.25000    1.000
    C220     C        0.04955    0.14027    0.25000    1.000
    H90      H        0.08150    0.12650    0.25000    1.000
    C221     C        0.69697    0.74233    0.25000    1.000
    H91      H        0.72920    0.75580    0.25000    1.000
    C222     C        0.60098    0.70501    0.25000    1.000
    C223     C        0.54940    0.68164    0.25000    1.000
    C224     C        0.54955    0.64027    0.25000    1.000
    H92      H        0.58150    0.62650    0.25000    1.000
    C225     C        0.80303    0.75767    0.75000    1.000
    H93      H        0.77080    0.74420    0.75000    1.000
    C226     C        0.89902    0.79499    0.75000    1.000
    C227     C        0.95060    0.81836    0.75000    1.000
    C228     C        0.95045    0.85973    0.75000    1.000
    H94      H        0.91850    0.87350    0.75000    1.000
    C229     C        0.30303    0.25767    0.75000    1.000
    H95      H        0.27080    0.24420    0.75000    1.000
    C230     C        0.39902    0.29499    0.75000    1.000
    C231     C        0.45060    0.31836    0.75000    1.000
    C232     C        0.45045    0.35973    0.75000    1.000
    H96      H        0.41850    0.37350    0.75000    1.000
    C233     C        0.80303    0.24233    0.25000    1.000
    H97      H        0.77080    0.25580    0.25000    1.000
    C234     C        0.89902    0.20501    0.25000    1.000
    C235     C        0.95060    0.18164    0.25000    1.000
    C236     C        0.95045    0.14027    0.25000    1.000
    H98      H        0.91850    0.12650    0.25000    1.000
    C237     C        0.30303    0.74233    0.25000    1.000
    H99      H        0.27080    0.75580    0.25000    1.000
    C238     C        0.39902    0.70501    0.25000    1.000
    C239     C        0.45060    0.68164    0.25000    1.000
    C240     C        0.45045    0.64027    0.25000    1.000
    H100     H        0.41850    0.62650    0.25000    1.000
    C241     C        0.19697    0.75767    0.75000    1.000
    H101     H        0.22920    0.74420    0.75000    1.000
    C242     C        0.10098    0.79499    0.75000    1.000
    C243     C        0.04940    0.81836    0.75000    1.000
    C244     C        0.04955    0.85973    0.75000    1.000
    H102     H        0.08150    0.87350    0.75000    1.000
    C245     C        0.69697    0.25767    0.75000    1.000
    H103     H        0.72920    0.24420    0.75000    1.000
    C246     C        0.60098    0.29499    0.75000    1.000
    C247     C        0.54940    0.31836    0.75000    1.000
    C248     C        0.54955    0.35973    0.75000    1.000
    H104     H        0.58150    0.37350    0.75000    1.000
    C249     C        0.00000    0.20116    0.25000    1.000
    H105     H        0.00000    0.22890    0.25000    1.000
    N9       N        0.00000    0.11835    0.25000    1.000
    Cu17     Cu       0.00000    0.56407    0.25000    1.000
    Cu18     Cu       0.00000    0.64320    0.25000    1.000
    C250     C        0.50000    0.70116    0.25000    1.000
    H106     H        0.50000    0.72890    0.25000    1.000
    N10      N        0.50000    0.61835    0.25000    1.000
    Cu19     Cu       0.50000    0.06407    0.25000    1.000
    Cu20     Cu       0.50000    0.14320    0.25000    1.000
    C251     C        0.00000    0.79884    0.75000    1.000
    H107     H        0.00000    0.77110    0.75000    1.000
    N11      N        0.00000    0.88165    0.75000    1.000
    Cu21     Cu       0.00000    0.43593    0.75000    1.000
    Cu22     Cu       0.00000    0.35680    0.75000    1.000
    C252     C        0.50000    0.29884    0.75000    1.000
    H108     H        0.50000    0.27110    0.75000    1.000
    N12      N        0.50000    0.38165    0.75000    1.000
    Cu23     Cu       0.50000    0.93593    0.75000    1.000
    Cu24     Cu       0.50000    0.85680    0.75000    1.000
