data_functionalizedCrystal
_audit_creation_method	'EQeq! by Chris Wilmer'
_symmetry_space_group_name_H-M	'P1'
_symmetry_Int_Tables_number	1
_symmetry_cell_setting	triclinic
loop_
_symmetry_equiv_pos_as_xyz
  x,y,z
_cell_length_a	13.84
_cell_length_b	15.6527
_cell_length_c	20.3282
_cell_angle_alpha	73.3368
_cell_angle_beta	70.0979
_cell_angle_gamma	63.7624
loop_
_atom_site_label
_atom_site_type_symbol
_atom_site_fract_x
_atom_site_fract_y
_atom_site_fract_z
_atom_site_charge
Mof_Co	Co	0.02502	0.08519	0.50505	1.159
Mof_Co	Co	0.76954	0.14544	0.55664	1.157
Mof_Co	Co	0.61526	0.41481	0.99495	1.161
Mof_Co	Co	0.47162	0.35456	0.94336	1.157
Mof_Co	Co	0.97498	0.91481	0.49495	1.159
Mof_Co	Co	0.23046	0.85456	0.44336	1.157
Mof_Co	Co	0.38474	0.58519	0.00505	1.161
Mof_Co	Co	0.52838	0.64544	0.05664	1.157
Mof_H 	H 	0.6592	0.1871	0.4403	0.008
Mof_H 	H 	0.507	0.1798	0.4252	0.084
Mof_H 	H 	0.3947	0.1349	0.6367	0.078
Mof_H 	H 	0.5529	0.1386	0.6462	0
Mof_H 	H 	0.2335	0.1731	0.6183	0.075
Mof_H 	H 	0.0922	0.1435	0.6077	0.004
Mof_H 	H 	0.2591	0.0707	0.4211	0.003
Mof_H 	H 	0.4061	0.0981	0.4259	0.085
Mof_H 	H 	0.18	0.2156	0.3078	0.008
Mof_H 	H 	0.2363	0.3244	0.2168	0.115
Mof_H 	H 	0.1076	0.4496	0.1602	-0.014
Mof_H 	H 	0.9269	0.4632	0.1916	0.132
Mof_H 	H 	0.4478	0.3853	0.3887	0.146
Mof_H 	H 	0.2805	0.3684	0.4164	-0.012
Mof_H 	H 	0.1803	0.4217	0.3307	0.102
Mof_H 	H 	0.2444	0.4991	0.2213	0.001
Mof_H 	H 	0.006	0.3613	0.4655	-0.004
Mof_H 	H 	0.0078	0.5138	0.4158	0.111
Mof_H 	H 	0.844	0.6422	0.4052	-0.029
Mof_H 	H 	0.6808	0.6202	0.4372	0.151
Mof_H 	H 	0.812	0.3224	0.3314	0.176
Mof_H 	H 	0.5718	0.4884	0.2294	0.175
Mof_H 	H 	0.6481	0.4038	0.513	0.186
Mof_H 	H 	0.2866	0.3129	0.0597	0.008
Mof_H 	H 	0.112	0.3202	0.0748	0.083
Mof_H 	H 	0.1663	0.3651	0.8633	0.077
Mof_H 	H 	0.3377	0.3614	0.8538	0.001
Mof_H 	H 	0.0249	0.3269	0.8817	0.073
Mof_H 	H 	0.8434	0.3565	0.8923	0.007
Mof_H 	H 	0.7509	0.4293	0.0789	0.003
Mof_H 	H 	0.9301	0.4019	0.0741	0.085
Mof_H 	H 	0.7034	0.2844	0.1922	0.01
Mof_H 	H 	0.7775	0.1756	0.2832	0.114
Mof_H 	H 	0.7174	0.0504	0.3398	-0.013
Mof_H 	H 	0.5817	0.0368	0.3084	0.131
Mof_H 	H 	0.2218	0.1147	0.1113	0.141
Mof_H 	H 	0.0653	0.1316	0.0836	-0.004
Mof_H 	H 	0.9327	0.0783	0.1693	0.092
Mof_H 	H 	0.9648	0.0009	0.2787	0.014
Mof_H 	H 	0.8328	0.1387	0.0345	-0.006
Mof_H 	H 	0.9374	0.9862	0.0842	0.114
Mof_H 	H 	0.8914	0.8578	0.0948	-0.034
Mof_H 	H 	0.7382	0.8798	0.0628	0.156
Mof_H 	H 	0.4658	0.1776	0.1686	0.176
Mof_H 	H 	0.2896	0.0116	0.2706	0.174
Mof_H 	H 	0.5649	0.0962	0.987	0.185
Mof_H 	H 	0.3408	0.8129	0.5597	0.008
Mof_H 	H 	0.493	0.8202	0.5748	0.084
Mof_H 	H 	0.6053	0.8651	0.3633	0.078
Mof_H 	H 	0.4471	0.8614	0.3538	0
Mof_H 	H 	0.7665	0.8269	0.3817	0.075
Mof_H 	H 	0.9078	0.8565	0.3923	0.004
Mof_H 	H 	0.7409	0.9293	0.5789	0.003
Mof_H 	H 	0.5939	0.9019	0.5741	0.085
Mof_H 	H 	0.82	0.7844	0.6922	0.008
Mof_H 	H 	0.7637	0.6756	0.7832	0.115
Mof_H 	H 	0.8924	0.5504	0.8398	-0.014
Mof_H 	H 	0.0731	0.5368	0.8084	0.132
Mof_H 	H 	0.5522	0.6147	0.6113	0.146
Mof_H 	H 	0.7195	0.6316	0.5836	-0.012
Mof_H 	H 	0.8197	0.5783	0.6693	0.102
Mof_H 	H 	0.7556	0.5009	0.7787	0.001
Mof_H 	H 	0.994	0.6387	0.5345	-0.004
Mof_H 	H 	0.9922	0.4862	0.5842	0.111
Mof_H 	H 	0.156	0.3578	0.5948	-0.029
Mof_H 	H 	0.3192	0.3798	0.5628	0.151
Mof_H 	H 	0.188	0.6776	0.6686	0.176
Mof_H 	H 	0.4282	0.5116	0.7706	0.175
Mof_H 	H 	0.3519	0.5962	0.487	0.186
Mof_H 	H 	0.7134	0.6871	0.9403	0.008
Mof_H 	H 	0.888	0.6798	0.9252	0.083
Mof_H 	H 	0.8337	0.6349	0.1367	0.077
Mof_H 	H 	0.6623	0.6386	0.1462	0.001
Mof_H 	H 	0.9751	0.6731	0.1183	0.073
Mof_H 	H 	0.1566	0.6435	0.1077	0.007
Mof_H 	H 	0.2491	0.5707	0.9211	0.003
Mof_H 	H 	0.0699	0.5981	0.9259	0.085
Mof_H 	H 	0.2966	0.7156	0.8078	0.01
Mof_H 	H 	0.2225	0.8244	0.7168	0.114
Mof_H 	H 	0.2826	0.9496	0.6602	-0.013
Mof_H 	H 	0.4183	0.9632	0.6916	0.131
Mof_H 	H 	0.7782	0.8853	0.8887	0.141
Mof_H 	H 	0.9347	0.8684	0.9164	-0.004
Mof_H 	H 	0.0673	0.9217	0.8307	0.092
Mof_H 	H 	0.0352	0.9991	0.7213	0.014
Mof_H 	H 	0.1672	0.8613	0.9655	-0.006
Mof_H 	H 	0.0626	0.0138	0.9158	0.114
Mof_H 	H 	0.1086	0.1422	0.9052	-0.034
Mof_H 	H 	0.2618	0.1202	0.9372	0.156
Mof_H 	H 	0.5342	0.8224	0.8314	0.176
Mof_H 	H 	0.7104	0.9884	0.7294	0.174
Mof_H 	H 	0.4351	0.9038	0.013	0.185
Mof_C 	C 	0.60644	0.17412	0.4802	0.084
Mof_C 	C 	0.51505	0.1702	0.4707	-0.131
Mof_C 	C 	0.43422	0.15174	0.52962	0.056
Mof_C 	C 	0.44894	0.14294	0.59598	-0.129
Mof_C 	C 	0.54382	0.14626	0.6013	0.086
Mof_C 	C 	0.33874	0.13783	0.52309	0.053
Mof_C 	C 	0.24106	0.15178	0.5779	-0.133
Mof_C 	C 	0.15652	0.13376	0.571	0.082
Mof_C 	C 	0.25464	0.09092	0.4612	0.071
Mof_C 	C 	0.34346	0.10738	0.4637	-0.127
Mof_C 	C 	0.9897	0.19519	0.36321	0.371
Mof_C 	C 	0.01967	0.27062	0.30444	-0.198
Mof_C 	C 	0.12852	0.26486	0.2843	0.124
Mof_C 	C 	0.1625	0.3304	0.2302	-0.199
Mof_C 	C 	0.0857	0.4048	0.1962	0.135
Mof_C 	C 	0.9775	0.4129	0.2151	-0.238
Mof_C 	C 	0.94193	0.34674	0.2692	0.22
Mof_C 	C 	0.74723	0.41314	0.26	0.179
Mof_C 	C 	0.63692	0.40356	0.3034	0.172
Mof_C 	C 	0.4504	0.4481	0.2869	0.233
Mof_C 	C 	0.4081	0.4068	0.3544	-0.244
Mof_C 	C 	0.3076	0.3971	0.3711	0.138
Mof_C 	C 	0.2467	0.4302	0.3202	-0.201
Mof_C 	C 	0.2863	0.4752	0.2546	0.131
Mof_C 	C 	0.38673	0.48641	0.23613	-0.209
Mof_C 	C 	0.41809	0.54055	0.16387	0.403
Mof_C 	C 	0.84901	0.29608	0.5103	0.422
Mof_C 	C 	0.84085	0.3974	0.4813	-0.229
Mof_C 	C 	0.94	0.4131	0.4599	0.144
Mof_C 	C 	0.9413	0.5044	0.4306	-0.227
Mof_C 	C 	0.8436	0.5806	0.4236	0.172
Mof_C 	C 	0.7458	0.5678	0.4432	-0.272
Mof_C 	C 	0.74236	0.47668	0.4722	0.248
Mof_C 	C 	0.54181	0.52448	0.4855	0.183
Mof_C 	C 	0.26076	0.32588	0.0198	0.084
Mof_C 	C 	0.15595	0.3298	0.0293	-0.13
Mof_C 	C 	0.11558	0.34826	0.97038	0.054
Mof_C 	C 	0.18786	0.35706	0.90402	-0.128
Mof_C 	C 	0.29138	0.35374	0.8987	0.085
Mof_C 	C 	0.99966	0.36217	0.97691	0.054
Mof_C 	C 	0.97074	0.34822	0.9221	-0.129
Mof_C 	C 	0.86128	0.36624	0.929	0.081
Mof_C 	C 	0.80676	0.40908	0.0388	0.072
Mof_C 	C 	0.91454	0.39262	0.0363	-0.126
Mof_C 	C 	0.5481	0.30481	0.13679	0.364
Mof_C 	C 	0.59473	0.22938	0.19556	-0.192
Mof_C 	C 	0.67768	0.23514	0.2157	0.12
Mof_C 	C 	0.7231	0.1696	0.2698	-0.195
Mof_C 	C 	0.6867	0.0952	0.3038	0.133
Mof_C 	C 	0.6055	0.0871	0.2849	-0.236
Mof_C 	C 	0.55787	0.15326	0.2308	0.216
Mof_C 	C 	0.42037	0.08686	0.24	0.179
Mof_C 	C 	0.34388	0.09644	0.1966	0.171
Mof_C 	C 	0.1854	0.0519	0.2131	0.223
Mof_C 	C 	0.1693	0.0932	0.1456	-0.227
Mof_C 	C 	0.0758	0.1029	0.1289	0.112
Mof_C 	C 	0.9971	0.0698	0.1798	-0.167
Mof_C 	C 	0.0161	0.0248	0.2454	0.099
Mof_C 	C 	0.10927	0.01359	0.26387	-0.197
Mof_C 	C 	0.12251	0.95945	0.33613	0.401
Mof_C 	C 	0.65539	0.20392	0.9897	0.423
Mof_C 	C 	0.71955	0.1026	0.0187	-0.235
Mof_C 	C 	0.813	0.0869	0.0401	0.156
Mof_C 	C 	0.8763	0.9956	0.0694	-0.242
Mof_C 	C 	0.8478	0.9194	0.0764	0.183
Mof_C 	C 	0.7568	0.9322	0.0568	-0.285
Mof_C 	C 	0.69124	0.02332	0.0278	0.257
Mof_C 	C 	0.55179	0.97552	0.0145	0.182
Mof_C 	C 	0.39356	0.82588	0.5198	0.084
Mof_C 	C 	0.48495	0.8298	0.5293	-0.131
Mof_C 	C 	0.56578	0.84826	0.47038	0.056
Mof_C 	C 	0.55106	0.85706	0.40402	-0.129
Mof_C 	C 	0.45618	0.85374	0.3987	0.086
Mof_C 	C 	0.66126	0.86217	0.47691	0.053
Mof_C 	C 	0.75894	0.84822	0.4221	-0.133
Mof_C 	C 	0.84348	0.86624	0.429	0.082
Mof_C 	C 	0.74536	0.90908	0.5388	0.071
Mof_C 	C 	0.65654	0.89262	0.5363	-0.127
Mof_C 	C 	0.0103	0.80481	0.63679	0.371
Mof_C 	C 	0.98033	0.72938	0.69556	-0.198
Mof_C 	C 	0.87148	0.73514	0.7157	0.124
Mof_C 	C 	0.8375	0.6696	0.7698	-0.199
Mof_C 	C 	0.9143	0.5952	0.8038	0.135
Mof_C 	C 	0.0225	0.5871	0.7849	-0.238
Mof_C 	C 	0.05807	0.65326	0.7308	0.22
Mof_C 	C 	0.25277	0.58686	0.74	0.179
Mof_C 	C 	0.36308	0.59644	0.6966	0.172
Mof_C 	C 	0.5496	0.5519	0.7131	0.233
Mof_C 	C 	0.5919	0.5932	0.6456	-0.244
Mof_C 	C 	0.6924	0.6029	0.6289	0.138
Mof_C 	C 	0.7533	0.5698	0.6798	-0.201
Mof_C 	C 	0.7137	0.5248	0.7454	0.131
Mof_C 	C 	0.61327	0.51359	0.76387	-0.209
Mof_C 	C 	0.58191	0.45945	0.83613	0.403
Mof_C 	C 	0.15099	0.70392	0.4897	0.422
Mof_C 	C 	0.15915	0.6026	0.5187	-0.229
Mof_C 	C 	0.06	0.5869	0.5401	0.144
Mof_C 	C 	0.0587	0.4956	0.5694	-0.227
Mof_C 	C 	0.1564	0.4194	0.5764	0.172
Mof_C 	C 	0.2542	0.4322	0.5568	-0.272
Mof_C 	C 	0.25764	0.52332	0.5278	0.248
Mof_C 	C 	0.45819	0.47552	0.5145	0.183
Mof_C 	C 	0.73924	0.67412	0.9802	0.084
Mof_C 	C 	0.84405	0.6702	0.9707	-0.13
Mof_C 	C 	0.88442	0.65174	0.02962	0.054
Mof_C 	C 	0.81214	0.64294	0.09598	-0.128
Mof_C 	C 	0.70862	0.64626	0.1013	0.085
Mof_C 	C 	0.00034	0.63783	0.02309	0.054
Mof_C 	C 	0.02926	0.65178	0.0779	-0.129
Mof_C 	C 	0.13872	0.63376	0.071	0.081
Mof_C 	C 	0.19324	0.59092	0.9612	0.072
Mof_C 	C 	0.08546	0.60738	0.9637	-0.126
Mof_C 	C 	0.4519	0.69519	0.86321	0.364
Mof_C 	C 	0.40527	0.77062	0.80444	-0.192
Mof_C 	C 	0.32232	0.76486	0.7843	0.12
Mof_C 	C 	0.2769	0.8304	0.7302	-0.195
Mof_C 	C 	0.3133	0.9048	0.6962	0.133
Mof_C 	C 	0.3945	0.9129	0.7151	-0.236
Mof_C 	C 	0.44213	0.84674	0.7692	0.216
Mof_C 	C 	0.57963	0.91314	0.76	0.179
Mof_C 	C 	0.65612	0.90356	0.8034	0.171
Mof_C 	C 	0.8146	0.9481	0.7869	0.223
Mof_C 	C 	0.8307	0.9068	0.8544	-0.227
Mof_C 	C 	0.9242	0.8971	0.8711	0.112
Mof_C 	C 	0.0029	0.9302	0.8202	-0.167
Mof_C 	C 	0.9839	0.9752	0.7546	0.099
Mof_C 	C 	0.89073	0.98641	0.73613	-0.197
Mof_C 	C 	0.87749	0.04055	0.66387	0.401
Mof_C 	C 	0.34461	0.79608	0.0103	0.423
Mof_C 	C 	0.28045	0.8974	0.9813	-0.235
Mof_C 	C 	0.187	0.9131	0.9599	0.156
Mof_C 	C 	0.1237	0.0044	0.9306	-0.242
Mof_C 	C 	0.1522	0.0806	0.9236	0.183
Mof_C 	C 	0.2432	0.0678	0.9432	-0.285
Mof_C 	C 	0.30876	0.97668	0.9722	0.257
Mof_C 	C 	0.44821	0.02448	0.9855	0.182
Mof_N 	N 	0.62331	0.16001	0.54453	-0.25
Mof_N 	N 	0.16189	0.103	0.51454	-0.227
Mof_N 	N 	0.82983	0.3571	0.29164	-0.258
Mof_N 	N 	0.55637	0.4512	0.26826	-0.255
Mof_N 	N 	0.6434	0.4613	0.4929	-0.264
Mof_N 	N 	0.32785	0.33999	0.95547	-0.25
Mof_N 	N 	0.77943	0.397	0.98546	-0.226
Mof_N 	N 	0.47857	0.1429	0.20836	-0.257
Mof_N 	N 	0.27583	0.0488	0.23174	-0.253
Mof_N 	N 	0.5976	0.0387	0.0071	-0.263
Mof_N 	N 	0.37669	0.83999	0.45547	-0.25
Mof_N 	N 	0.83811	0.897	0.48546	-0.227
Mof_N 	N 	0.17017	0.6429	0.70836	-0.258
Mof_N 	N 	0.44363	0.5488	0.73174	-0.255
Mof_N 	N 	0.3566	0.5387	0.5071	-0.264
Mof_N 	N 	0.67215	0.66001	0.04453	-0.25
Mof_N 	N 	0.22057	0.603	0.01454	-0.226
Mof_N 	N 	0.52143	0.8571	0.79164	-0.257
Mof_N 	N 	0.72417	0.9512	0.76826	-0.253
Mof_N 	N 	0.4024	0.9613	0.9929	-0.263
Mof_O 	O 	0.10712	0.93759	0.50687	-0.593
Mof_O 	O 	0.06497	0.13563	0.39473	-0.405
Mof_O 	O 	0.89413	0.19505	0.37821	-0.298
Mof_O 	O 	0.49495	0.57172	0.15156	-0.471
Mof_O 	O 	0.36605	0.5555	0.11912	-0.443
Mof_O 	O 	0.62883	0.35692	0.36302	-0.222
Mof_O 	O 	0.75412	0.46434	0.20202	-0.236
Mof_O 	O 	0.75991	0.27939	0.53071	-0.472
Mof_O 	O 	0.94216	0.23248	0.51352	-0.451
Mof_O 	O 	0.51457	0.60976	0.4603	-0.227
Mof_O 	O 	0.55158	0.56241	0.99313	-0.594
Mof_O 	O 	0.59533	0.36437	0.10527	-0.401
Mof_O 	O 	0.46739	0.30495	0.12179	-0.297
Mof_O 	O 	0.21823	0.92828	0.34844	-0.469
Mof_O 	O 	0.04067	0.9445	0.38088	-0.441
Mof_O 	O 	0.34877	0.14308	0.13698	-0.221
Mof_O 	O 	0.42048	0.03566	0.29798	-0.236
Mof_O 	O 	0.57001	0.22061	0.96929	-0.472
Mof_O 	O 	0.68816	0.26752	0.98648	-0.453
Mof_O 	O 	0.58463	0.89024	0.0397	-0.227
Mof_O 	O 	0.89288	0.06241	0.49313	-0.593
Mof_O 	O 	0.93503	0.86437	0.60527	-0.405
Mof_O 	O 	0.10587	0.80495	0.62179	-0.298
Mof_O 	O 	0.50505	0.42828	0.84844	-0.471
Mof_O 	O 	0.63395	0.4445	0.88088	-0.443
Mof_O 	O 	0.37117	0.64308	0.63698	-0.222
Mof_O 	O 	0.24588	0.53566	0.79798	-0.236
Mof_O 	O 	0.24009	0.72061	0.46929	-0.472
Mof_O 	O 	0.05784	0.76752	0.48648	-0.451
Mof_O 	O 	0.48543	0.39024	0.5397	-0.227
Mof_O 	O 	0.44842	0.43759	0.00687	-0.594
Mof_O 	O 	0.40467	0.63563	0.89473	-0.401
Mof_O 	O 	0.53261	0.69505	0.87821	-0.297
Mof_O 	O 	0.78177	0.07172	0.65156	-0.469
Mof_O 	O 	0.95933	0.0555	0.61912	-0.441
Mof_O 	O 	0.65123	0.85692	0.86302	-0.221
Mof_O 	O 	0.57952	0.96434	0.70202	-0.236
Mof_O 	O 	0.42999	0.77939	0.03071	-0.472
Mof_O 	O 	0.31184	0.73248	0.01352	-0.453
Mof_O 	O 	0.41537	0.10976	0.9603	-0.227
_end
