data_functionalizedCrystal
_audit_creation_method	'EQeq! by Chris Wilmer'
_symmetry_space_group_name_H-M	'P1'
_symmetry_Int_Tables_number	1
_symmetry_cell_setting	triclinic
loop_
_symmetry_equiv_pos_as_xyz
  x,y,z
_cell_length_a	6.9224
_cell_length_b	18.809
_cell_length_c	9.6849
_cell_angle_alpha	90
_cell_angle_beta	90
_cell_angle_gamma	90
loop_
_atom_site_label
_atom_site_type_symbol
_atom_site_fract_x
_atom_site_fract_y
_atom_site_fract_z
_atom_site_charge
Mof_Ba	Ba	0.75	0.75	0.49331	1.511
Mof_Ba	Ba	0.25	0.25	0.00669	1.387
Mof_Ba	Ba	0.25	0.25	0.50669	1.493
Mof_Ba	Ba	0.75	0.75	0.99331	1.599
Mof_Cd	Cd	1.00093e-32	0.5	-0	0.425
Mof_Cd	Cd	0.5	0	-0	0.417
Mof_Cd	Cd	0.5	0.5	0.5	0.507
Mof_Cd	Cd	-2.38181e-33	0	0.5	0.433
Mof_H 	H 	0.4286	0.5693	0.8314	0.221
Mof_H 	H 	0.6237	0.5822	0.9076	0.21
Mof_H 	H 	0.0714	0.9307	0.8314	0.173
Mof_H 	H 	0.8763	0.9178	0.9076	0.18
Mof_H 	H 	0.9286	0.4307	0.6686	0.255
Mof_H 	H 	0.1237	0.4178	0.5924	0.209
Mof_H 	H 	0.5714	0.0693	0.6686	0.227
Mof_H 	H 	0.3763	0.0822	0.5924	0.206
Mof_H 	H 	0.5714	0.4307	0.1686	0.212
Mof_H 	H 	0.3763	0.4178	0.0924	0.187
Mof_H 	H 	0.9286	0.0693	0.1686	0.268
Mof_H 	H 	0.1237	0.0822	0.0924	0.217
Mof_H 	H 	0.0714	0.5693	0.3314	0.167
Mof_H 	H 	0.8763	0.5822	0.4076	0.177
Mof_H 	H 	0.4286	0.9307	0.3314	0.2
Mof_H 	H 	0.6237	0.9178	0.4076	0.185
Mof_C 	C 	0.6165	0.4865	0.8084	0.497
Mof_C 	C 	0.5677	0.5656	0.8216	-0.635
Mof_C 	C 	0.628	0.6175	0.7095	0.514
Mof_C 	C 	0.8835	0.0135	0.8084	0.429
Mof_C 	C 	0.9323	0.9344	0.8216	-0.505
Mof_C 	C 	0.872	0.8825	0.7095	0.477
Mof_C 	C 	0.1165	0.5135	0.6916	0.508
Mof_C 	C 	0.0677	0.4344	0.6784	-0.692
Mof_C 	C 	0.128	0.3825	0.7905	0.517
Mof_C 	C 	0.3835	0.9865	0.6916	0.536
Mof_C 	C 	0.4323	0.0656	0.6784	-0.677
Mof_C 	C 	0.372	0.1175	0.7905	0.512
Mof_C 	C 	0.3835	0.5135	0.1916	0.493
Mof_C 	C 	0.4323	0.4344	0.1784	-0.628
Mof_C 	C 	0.372	0.3825	0.2905	0.501
Mof_C 	C 	0.1165	0.9865	0.1916	0.565
Mof_C 	C 	0.0677	0.0656	0.1784	-0.77
Mof_C 	C 	0.128	0.1175	0.2905	0.538
Mof_C 	C 	0.8835	0.4865	0.3084	0.473
Mof_C 	C 	0.9323	0.5656	0.3216	-0.547
Mof_C 	C 	0.872	0.6175	0.2095	0.488
Mof_C 	C 	0.6165	0.0135	0.3084	0.44
Mof_C 	C 	0.5677	0.9344	0.3216	-0.56
Mof_C 	C 	0.628	0.8825	0.2095	0.493
Mof_O 	O 	0.706	0.4581	0.9061	-0.334
Mof_O 	O 	0.5606	0.4525	0.7061	-0.374
Mof_O 	O 	0.6343	0.5986	0.5838	-0.447
Mof_O 	O 	0.659	0.6804	0.747	-0.593
Mof_O 	O 	0.794	0.0419	0.9061	-0.328
Mof_O 	O 	0.9394	0.0475	0.7061	-0.347
Mof_O 	O 	0.8657	0.9014	0.5838	-0.411
Mof_O 	O 	0.841	0.8196	0.747	-0.577
Mof_O 	O 	0.206	0.5419	0.5939	-0.381
Mof_O 	O 	0.0606	0.5475	0.7939	-0.38
Mof_O 	O 	0.1343	0.4014	0.9162	-0.415
Mof_O 	O 	0.159	0.3196	0.753	-0.576
Mof_O 	O 	0.294	0.9581	0.5939	-0.366
Mof_O 	O 	0.4394	0.9525	0.7939	-0.36
Mof_O 	O 	0.3657	0.0986	0.9162	-0.415
Mof_O 	O 	0.341	0.1804	0.753	-0.57
Mof_O 	O 	0.294	0.5419	0.0939	-0.389
Mof_O 	O 	0.4394	0.5475	0.2939	-0.386
Mof_O 	O 	0.3657	0.4014	0.4162	-0.446
Mof_O 	O 	0.341	0.3196	0.253	-0.581
Mof_O 	O 	0.206	0.9581	0.0939	-0.389
Mof_O 	O 	0.0606	0.9525	0.2939	-0.394
Mof_O 	O 	0.1343	0.0986	0.4162	-0.462
Mof_O 	O 	0.159	0.1804	0.253	-0.598
Mof_O 	O 	0.794	0.4581	0.4061	-0.357
Mof_O 	O 	0.9394	0.4525	0.2061	-0.354
Mof_O 	O 	0.8657	0.5986	0.0838	-0.446
Mof_O 	O 	0.841	0.6804	0.247	-0.592
Mof_O 	O 	0.706	0.0419	0.4061	-0.353
Mof_O 	O 	0.5606	0.0475	0.2061	-0.374
Mof_O 	O 	0.6343	0.9014	0.0838	-0.441
Mof_O 	O 	0.659	0.8196	0.247	-0.597
_end
