data_functionalizedCrystal
_audit_creation_method	'EQeq! by Chris Wilmer'
_symmetry_space_group_name_H-M	'P1'
_symmetry_Int_Tables_number	1
_symmetry_cell_setting	triclinic
loop_
_symmetry_equiv_pos_as_xyz
  x,y,z
_cell_length_a	15.3163
_cell_length_b	15.3163
_cell_length_c	16.881
_cell_angle_alpha	97.9183
_cell_angle_beta	97.9183
_cell_angle_gamma	108.362
loop_
_atom_site_label
_atom_site_type_symbol
_atom_site_fract_x
_atom_site_fract_y
_atom_site_fract_z
_atom_site_charge
Mof_Cu	Cu	0.85419	0.34547	0.60015	0.827
Mof_Cu	Cu	0.85394	0.04102	0.90412	0.825
Mof_Cu	Cu	0.16584	0.80074	0.59147	0.825
Mof_Cu	Cu	0.65453	0.14581	0.89985	0.827
Mof_Cu	Cu	0.95898	0.14606	0.59588	0.829
Mof_Cu	Cu	0.19926	0.83416	0.90853	0.826
Mof_Cu	Cu	0.14581	0.65453	0.39985	0.828
Mof_Cu	Cu	0.14606	0.95898	0.09588	0.826
Mof_Cu	Cu	0.83416	0.19926	0.40853	0.825
Mof_Cu	Cu	0.34547	0.85419	0.10015	0.827
Mof_Cu	Cu	0.04102	0.85394	0.40412	0.829
Mof_Cu	Cu	0.80074	0.16584	0.09147	0.826
Mof_H 	H 	0.7705	0.1853	0.6769	-0.051
Mof_H 	H 	0.6419	0.0647	0.664	0.107
Mof_H 	H 	0.5121	0.1899	0.5224	0.102
Mof_H 	H 	0.65	0.3124	0.5537	-0.046
Mof_H 	H 	0.7475	0.4241	0.7105	-0.02
Mof_H 	H 	0.7546	0.5658	0.7815	0.086
Mof_H 	H 	0.9669	0.6851	0.6816	0.086
Mof_H 	H 	0.9585	0.5489	0.6173	-0.017
Mof_H 	H 	0.2418	0.9688	0.5234	-0.04
Mof_H 	H 	0.3823	0.0751	0.516	0.081
Mof_H 	H 	0.5176	0.9566	0.6552	0.072
Mof_H 	H 	0.3777	0.8463	0.6561	-0.004
Mof_H 	H 	0.9802	0.9518	0.8226	0.002
Mof_H 	H 	0.9839	0.8143	0.7619	0.075
Mof_H 	H 	0.728	0.6952	0.7992	0.065
Mof_H 	H 	0.732	0.8404	0.8724	0.011
Mof_H 	H 	0.8147	0.2295	0.8231	-0.051
Mof_H 	H 	0.9353	0.3581	0.836	0.106
Mof_H 	H 	0.8101	0.4879	0.9776	0.101
Mof_H 	H 	0.6876	0.35	0.9463	-0.046
Mof_H 	H 	0.5759	0.2525	0.7895	-0.02
Mof_H 	H 	0.4342	0.2454	0.7185	0.086
Mof_H 	H 	0.3149	0.0331	0.8184	0.085
Mof_H 	H 	0.4511	0.0415	0.8827	-0.019
Mof_H 	H 	0.0312	0.7582	0.9766	-0.039
Mof_H 	H 	0.9249	0.6177	0.984	0.082
Mof_H 	H 	0.0434	0.4824	0.8448	0.071
Mof_H 	H 	0.1537	0.6223	0.8439	-0.004
Mof_H 	H 	0.0482	0.0198	0.6774	0.001
Mof_H 	H 	0.1857	0.0161	0.7381	0.074
Mof_H 	H 	0.3048	0.272	0.7008	0.065
Mof_H 	H 	0.1596	0.268	0.6276	0.01
Mof_H 	H 	0.2295	0.8147	0.3231	-0.051
Mof_H 	H 	0.3581	0.9353	0.336	0.107
Mof_H 	H 	0.4879	0.8101	0.4776	0.102
Mof_H 	H 	0.35	0.6876	0.4463	-0.046
Mof_H 	H 	0.2525	0.5759	0.2895	-0.02
Mof_H 	H 	0.2454	0.4342	0.2185	0.086
Mof_H 	H 	0.0331	0.3149	0.3184	0.086
Mof_H 	H 	0.0415	0.4511	0.3827	-0.017
Mof_H 	H 	0.7582	0.0312	0.4766	-0.04
Mof_H 	H 	0.6177	0.9249	0.484	0.081
Mof_H 	H 	0.4824	0.0434	0.3448	0.072
Mof_H 	H 	0.6223	0.1537	0.3439	-0.004
Mof_H 	H 	0.0198	0.0482	0.1774	0.002
Mof_H 	H 	0.0161	0.1857	0.2381	0.075
Mof_H 	H 	0.272	0.3048	0.2008	0.065
Mof_H 	H 	0.268	0.1596	0.1276	0.011
Mof_H 	H 	0.1853	0.7705	0.1769	-0.051
Mof_H 	H 	0.0647	0.6419	0.164	0.106
Mof_H 	H 	0.1899	0.5121	0.0224	0.101
Mof_H 	H 	0.3124	0.65	0.0537	-0.046
Mof_H 	H 	0.4241	0.7475	0.2105	-0.02
Mof_H 	H 	0.5658	0.7546	0.2815	0.086
Mof_H 	H 	0.6851	0.9669	0.1816	0.085
Mof_H 	H 	0.5489	0.9585	0.1173	-0.019
Mof_H 	H 	0.9688	0.2418	0.0234	-0.039
Mof_H 	H 	0.0751	0.3823	0.016	0.082
Mof_H 	H 	0.9566	0.5176	0.1552	0.071
Mof_H 	H 	0.8463	0.3777	0.1561	-0.004
Mof_H 	H 	0.9518	0.9802	0.3226	0.001
Mof_H 	H 	0.8143	0.9839	0.2619	0.074
Mof_H 	H 	0.6952	0.728	0.2992	0.065
Mof_H 	H 	0.8404	0.732	0.3724	0.01
Mof_W 	W 	0.98272	0.29946	0.52744	0.46
Mof_W 	W 	0.70054	0.01728	0.97256	0.439
Mof_W 	W 	0.01728	0.70054	0.47256	0.46
Mof_W 	W 	0.29946	0.98272	0.02744	0.439
Mof_C 	C 	0.7163	0.1843	0.6438	0.139
Mof_C 	C 	0.6397	0.1151	0.6398	-0.217
Mof_C 	C 	0.5542	0.1156	0.5998	0.108
Mof_C 	C 	0.5628	0.188	0.5584	-0.209
Mof_C 	C 	0.6479	0.2571	0.5714	0.156
Mof_C 	C 	0.7934	0.478	0.7045	0.101
Mof_C 	C 	0.7963	0.5637	0.7467	-0.163
Mof_C 	C 	0.8594	0.6436	0.7374	0.092
Mof_C 	C 	0.92	0.6322	0.6883	-0.17
Mof_C 	C 	0.9154	0.551	0.6506	0.112
Mof_C 	C 	0.2968	0.9652	0.5513	0.094
Mof_C 	C 	0.3817	0.0323	0.5503	-0.136
Mof_C 	C 	0.4621	0.0389	0.5957	0.043
Mof_C 	C 	0.4617	0.9623	0.631	-0.12
Mof_C 	C 	0.3784	0.8958	0.6296	0.059
Mof_C 	C 	0.9288	0.899	0.8214	0.091
Mof_C 	C 	0.9318	0.8158	0.7836	-0.136
Mof_C 	C 	0.861	0.737	0.7774	0.041
Mof_C 	C 	0.7821	0.7473	0.8074	-0.096
Mof_C 	C 	0.7827	0.8355	0.8499	0.039
Mof_C 	C 	0.8157	0.2837	0.8562	0.138
Mof_C 	C 	0.8849	0.3603	0.8602	-0.217
Mof_C 	C 	0.8844	0.4458	0.9002	0.107
Mof_C 	C 	0.812	0.4372	0.9416	-0.209
Mof_C 	C 	0.7429	0.3521	0.9286	0.155
Mof_C 	C 	0.522	0.2066	0.7955	0.1
Mof_C 	C 	0.4363	0.2037	0.7533	-0.163
Mof_C 	C 	0.3564	0.1406	0.7626	0.092
Mof_C 	C 	0.3678	0.08	0.8117	-0.17
Mof_C 	C 	0.449	0.0846	0.8494	0.112
Mof_C 	C 	0.0348	0.7032	0.9487	0.099
Mof_C 	C 	0.9677	0.6183	0.9497	-0.141
Mof_C 	C 	0.9611	0.5379	0.9043	0.044
Mof_C 	C 	0.0377	0.5383	0.869	-0.119
Mof_C 	C 	0.1042	0.6216	0.8704	0.059
Mof_C 	C 	0.101	0.0712	0.6786	0.091
Mof_C 	C 	0.1842	0.0682	0.7164	-0.136
Mof_C 	C 	0.263	0.139	0.7226	0.041
Mof_C 	C 	0.2527	0.2179	0.6926	-0.096
Mof_C 	C 	0.1645	0.2173	0.6501	0.039
Mof_C 	C 	0.2837	0.8157	0.3562	0.139
Mof_C 	C 	0.3603	0.8849	0.3602	-0.217
Mof_C 	C 	0.4458	0.8844	0.4002	0.108
Mof_C 	C 	0.4372	0.812	0.4416	-0.209
Mof_C 	C 	0.3521	0.7429	0.4286	0.156
Mof_C 	C 	0.2066	0.522	0.2955	0.101
Mof_C 	C 	0.2037	0.4363	0.2533	-0.163
Mof_C 	C 	0.1406	0.3564	0.2626	0.092
Mof_C 	C 	0.08	0.3678	0.3117	-0.17
Mof_C 	C 	0.0846	0.449	0.3494	0.112
Mof_C 	C 	0.7032	0.0348	0.4487	0.094
Mof_C 	C 	0.6183	0.9677	0.4497	-0.136
Mof_C 	C 	0.5379	0.9611	0.4043	0.043
Mof_C 	C 	0.5383	0.0377	0.369	-0.12
Mof_C 	C 	0.6216	0.1042	0.3704	0.059
Mof_C 	C 	0.0712	0.101	0.1786	0.091
Mof_C 	C 	0.0682	0.1842	0.2164	-0.136
Mof_C 	C 	0.139	0.263	0.2226	0.041
Mof_C 	C 	0.2179	0.2527	0.1926	-0.096
Mof_C 	C 	0.2173	0.1645	0.1501	0.039
Mof_C 	C 	0.1843	0.7163	0.1438	0.138
Mof_C 	C 	0.1151	0.6397	0.1398	-0.217
Mof_C 	C 	0.1156	0.5542	0.0998	0.107
Mof_C 	C 	0.188	0.5628	0.0584	-0.209
Mof_C 	C 	0.2571	0.6479	0.0714	0.155
Mof_C 	C 	0.478	0.7934	0.2045	0.1
Mof_C 	C 	0.5637	0.7963	0.2467	-0.163
Mof_C 	C 	0.6436	0.8594	0.2374	0.092
Mof_C 	C 	0.6322	0.92	0.1883	-0.17
Mof_C 	C 	0.551	0.9154	0.1506	0.112
Mof_C 	C 	0.9652	0.2968	0.0513	0.099
Mof_C 	C 	0.0323	0.3817	0.0503	-0.141
Mof_C 	C 	0.0389	0.4621	0.0957	0.044
Mof_C 	C 	0.9623	0.4617	0.131	-0.119
Mof_C 	C 	0.8958	0.3784	0.1296	0.059
Mof_C 	C 	0.899	0.9288	0.3214	0.091
Mof_C 	C 	0.8158	0.9318	0.2836	-0.136
Mof_C 	C 	0.737	0.861	0.2774	0.041
Mof_C 	C 	0.7473	0.7821	0.3074	-0.096
Mof_C 	C 	0.8355	0.7827	0.3499	0.039
Mof_S 	S 	0.84597	0.04399	0.03967	-0.478
Mof_S 	S 	0.96822	0.29374	0.65729	-0.486
Mof_S 	S 	0.87299	0.35269	0.46995	-0.487
Mof_S 	S 	0.95601	0.15403	0.46033	-0.49
Mof_S 	S 	0.70626	0.03178	0.84271	-0.486
Mof_S 	S 	0.64731	0.12701	0.03005	-0.476
Mof_S 	S 	0.15403	0.95601	0.96033	-0.478
Mof_S 	S 	0.03178	0.70626	0.34271	-0.486
Mof_S 	S 	0.12701	0.64731	0.53005	-0.487
Mof_S 	S 	0.04399	0.84597	0.53967	-0.49
Mof_S 	S 	0.29374	0.96822	0.15729	-0.486
Mof_S 	S 	0.35269	0.87299	0.96995	-0.476
Mof_I 	I 	0.99407	0.15529	0.86294	-0.329
Mof_I 	I 	0.84471	0.00593	0.63706	-0.324
Mof_I 	I 	0.00593	0.84471	0.13706	-0.329
Mof_I 	I 	0.15529	0.99407	0.36294	-0.324
Mof_I 	I 	0.19209	0.80791	0.75	-0.467
Mof_I 	I 	0.80791	0.19209	0.25	-0.467
Mof_N 	N 	0.7218	0.2518	0.6048	-0.285
Mof_N 	N 	0.2927	0.8983	0.5896	-0.246
Mof_N 	N 	0.8623	0.9131	0.8558	-0.22
Mof_N 	N 	0.8522	0.4692	0.6565	-0.249
Mof_N 	N 	0.7482	0.2782	0.8952	-0.285
Mof_N 	N 	0.1017	0.7073	0.9104	-0.246
Mof_N 	N 	0.0869	0.1377	0.6442	-0.221
Mof_N 	N 	0.5308	0.1478	0.8435	-0.25
Mof_N 	N 	0.2782	0.7482	0.3952	-0.285
Mof_N 	N 	0.7073	0.1017	0.4104	-0.246
Mof_N 	N 	0.1377	0.0869	0.1442	-0.22
Mof_N 	N 	0.1478	0.5308	0.3435	-0.249
Mof_N 	N 	0.2518	0.7218	0.1048	-0.285
Mof_N 	N 	0.8983	0.2927	0.0896	-0.246
Mof_N 	N 	0.9131	0.8623	0.3558	-0.221
Mof_N 	N 	0.4692	0.8522	0.1565	-0.25
Mof_O 	O 	0.0933	0.3731	0.5264	-0.281
Mof_O 	O 	0.6269	0.9067	0.9736	-0.274
Mof_O 	O 	0.9067	0.6269	0.4736	-0.281
Mof_O 	O 	0.3731	0.0933	0.0264	-0.274
Mof_H 	H 	0.2995	0.6047	0.7185	0.125
Mof_H 	H 	0.3335	0.6987	0.77	0.058
Mof_H 	H 	0.3953	0.7005	0.7815	0.125
Mof_H 	H 	0.3013	0.6665	0.73	0.058
Mof_N 	N 	0.35	0.65	0.75	-0.31
Mof_H 	H 	0.7005	0.3953	0.2815	0.125
Mof_H 	H 	0.6665	0.3013	0.23	0.058
Mof_H 	H 	0.6047	0.2995	0.2185	0.125
Mof_H 	H 	0.6987	0.3335	0.27	0.058
Mof_N 	N 	0.65	0.35	0.25	-0.31
_end
