# CIF file generated by openbabel 3.1.0, see https://openbabel.org
data_I
_chemical_name_common 'image0'
_cell_length_a 17.9831
_cell_length_b 28.2545
_cell_length_c 13.0479
_cell_angle_alpha 90
_cell_angle_beta 135.587
_cell_angle_gamma 90
_space_group_name_H-M_alt 'P 1'
_space_group_name_Hall 'P 1'
loop_
    _symmetry_equiv_pos_as_xyz
    x,y,z
loop_
    _atom_site_label
    _atom_site_type_symbol
    _atom_site_fract_x
    _atom_site_fract_y
    _atom_site_fract_z
    _atom_site_occupancy
    N1       N        0.13410    0.93990    0.99800    1.000
    C1       C        0.20750    0.91310    0.11600    1.000
    H1       H        0.22340    0.91900    0.20150    1.000
    C2       C        0.26180    0.87700    0.11960    1.000
    H2       H        0.31280    0.85860    0.20590    1.000
    C3       C        0.24130    0.86800    0.99720    1.000
    C4       C        0.16810    0.89700    0.87700    1.000
    H3       H        0.15200    0.89260    0.79100    1.000
    C5       C        0.11870    0.93230    0.88400    1.000
    H4       H        0.07050    0.95240    0.80090    1.000
    C6       C        0.30270    0.83340    0.99580    1.000
    C7       C        0.40870    0.84330    0.08200    1.000
    H5       H        0.43990    0.87100    0.14140    1.000
    C8       C        0.46820    0.81320    0.08260    1.000
    H6       H        0.54120    0.82060    0.14480    1.000
    C9       C        0.42890    0.77230    0.99740    1.000
    C10      C        0.31870    0.76550    0.89930    1.000
    H7       H        0.28580    0.74000    0.83130    1.000
    C11      C        0.25700    0.79480    0.89920    1.000
    H8       H        0.18310    0.78870    0.83320    1.000
    C12      C        0.56720    0.70920    0.13850    1.000
    C13      C        0.61840    0.66930    0.15120    1.000
    H9       H        0.61550    0.66180    0.07740    1.000
    C14      C        0.67400    0.64040    0.27390    1.000
    H10      H        0.69590    0.61010    0.27230    1.000
    C15      C        0.69860    0.65310    0.39510    1.000
    C16      C        0.63750    0.69060    0.37600    1.000
    H11      H        0.64050    0.69680    0.45070    1.000
    C17      C        0.57120    0.71930    0.24700    1.000
    H12      H        0.53100    0.74460    0.23590    1.000
    C18      C        0.76490    0.62460    0.53140    1.000
    C19      C        0.83630    0.59140    0.57000    1.000
    H13      H        0.84310    0.58410    0.50620    1.000
    C20      C        0.89540    0.56970    0.69580    1.000
    H14      H        0.94160    0.54630    0.71410    1.000
    N2       N        0.90060    0.57540    0.80080    1.000
    C21      C        0.81850    0.60230    0.76000    1.000
    H15      H        0.81110    0.60460    0.82460    1.000
    C22      C        0.74450    0.62680    0.62300    1.000
    H16      H        0.68560    0.64360    0.59260    1.000
    H17      H        0.09700    0.86030    0.78360    1.000
    H18      H        0.01290    0.92140    0.79220    1.000
    C23      C        0.23460    0.92820    0.11700    1.000
    C24      C        0.28940    0.89270    0.12200    1.000
    C25      C        0.13490    0.87780    0.87120    1.000
    C26      C        0.08520    0.91450    0.87790    1.000
    H19      H        0.27070    0.94570    0.20430    1.000
    H20      H        0.36020    0.88540    0.21180    1.000
    C27      C        0.32130    0.84110    0.91200    1.000
    H21      H        0.28860    0.86780    0.84830    1.000
    C28      C        0.38380    0.81280    0.91290    1.000
    H22      H        0.39620    0.82110    0.85560    1.000
    C29      C        0.41710    0.76400    0.09180    1.000
    H23      H        0.44860    0.73710    0.15440    1.000
    C30      C        0.36100    0.79460    0.09070    1.000
    H24      H        0.35990    0.78990    0.16170    1.000
    C31      C        0.53760    0.66670    0.14470    1.000
    H25      H        0.47010    0.65470    0.05860    1.000
    C32      C        0.60010    0.63970    0.26920    1.000
    H26      H        0.57310    0.61040    0.26680    1.000
    C33      C        0.74680    0.68910    0.38200    1.000
    H27      H        0.82170    0.69330    0.45490    1.000
    C34      C        0.67760    0.71910    0.25140    1.000
    H28      H        0.70630    0.74500    0.24250    1.000
    C35      C        0.79650    0.57240    0.69530    1.000
    H29      H        0.76540    0.55240    0.71480    1.000
    C36      C        0.72990    0.59310    0.56800    1.000
    H30      H        0.65620    0.58600    0.49960    1.000
    C37      C        0.88040    0.62370    0.62860    1.000
    H31      H        0.91120    0.63970    0.60210    1.000
    C38      C        0.94530    0.59840    0.76300    1.000
    H32      H        0.02010    0.59740    0.82700    1.000
    N3       N        0.86590    0.93990    0.00200    1.000
    C39      C        0.79250    0.91310    0.88400    1.000
    H33      H        0.77660    0.91900    0.79850    1.000
    C40      C        0.73820    0.87700    0.88040    1.000
    H34      H        0.68720    0.85860    0.79410    1.000
    C41      C        0.75870    0.86800    0.00280    1.000
    C42      C        0.83190    0.89700    0.12300    1.000
    H35      H        0.84800    0.89260    0.20900    1.000
    C43      C        0.88130    0.93230    0.11600    1.000
    H36      H        0.92950    0.95240    0.19910    1.000
    C44      C        0.69730    0.83340    0.00420    1.000
    C45      C        0.59130    0.84330    0.91800    1.000
    H37      H        0.56010    0.87100    0.85860    1.000
    C46      C        0.53180    0.81320    0.91740    1.000
    H38      H        0.45880    0.82060    0.85520    1.000
    C47      C        0.57110    0.77230    0.00260    1.000
    C48      C        0.68130    0.76550    0.10070    1.000
    H39      H        0.71420    0.74000    0.16870    1.000
    C49      C        0.74300    0.79480    0.10080    1.000
    H40      H        0.81690    0.78870    0.16680    1.000
    C50      C        0.43280    0.70920    0.86150    1.000
    C51      C        0.38160    0.66930    0.84880    1.000
    H41      H        0.38450    0.66180    0.92260    1.000
    C52      C        0.32600    0.64040    0.72610    1.000
    H42      H        0.30410    0.61010    0.72770    1.000
    C53      C        0.30140    0.65310    0.60490    1.000
    C54      C        0.36250    0.69060    0.62400    1.000
    H43      H        0.35950    0.69680    0.54930    1.000
    C55      C        0.42880    0.71930    0.75300    1.000
    H44      H        0.46900    0.74460    0.76410    1.000
    C56      C        0.23510    0.62460    0.46860    1.000
    C57      C        0.16370    0.59140    0.43000    1.000
    H45      H        0.15690    0.58410    0.49380    1.000
    C58      C        0.10460    0.56970    0.30420    1.000
    H46      H        0.05840    0.54630    0.28590    1.000
    N4       N        0.09940    0.57540    0.19920    1.000
    C59      C        0.18150    0.60230    0.24000    1.000
    H47      H        0.18890    0.60460    0.17540    1.000
    C60      C        0.25550    0.62680    0.37700    1.000
    H48      H        0.31440    0.64360    0.40740    1.000
    H49      H        0.90300    0.86030    0.21640    1.000
    H50      H        0.98710    0.92140    0.20780    1.000
    C61      C        0.76540    0.92820    0.88300    1.000
    C62      C        0.71060    0.89270    0.87800    1.000
    C63      C        0.86510    0.87780    0.12880    1.000
    C64      C        0.91480    0.91450    0.12210    1.000
    H51      H        0.72930    0.94570    0.79570    1.000
    H52      H        0.63980    0.88540    0.78820    1.000
    C65      C        0.67870    0.84110    0.08800    1.000
    H53      H        0.71140    0.86780    0.15170    1.000
    C66      C        0.61620    0.81280    0.08710    1.000
    H54      H        0.60380    0.82110    0.14440    1.000
    C67      C        0.58290    0.76400    0.90820    1.000
    H55      H        0.55140    0.73710    0.84560    1.000
    C68      C        0.63900    0.79460    0.90930    1.000
    H56      H        0.64010    0.78990    0.83830    1.000
    C69      C        0.46240    0.66670    0.85530    1.000
    H57      H        0.52990    0.65470    0.94140    1.000
    C70      C        0.39990    0.63970    0.73080    1.000
    H58      H        0.42690    0.61040    0.73320    1.000
    C71      C        0.25320    0.68910    0.61800    1.000
    H59      H        0.17830    0.69330    0.54510    1.000
    C72      C        0.32240    0.71910    0.74860    1.000
    H60      H        0.29370    0.74500    0.75750    1.000
    C73      C        0.20350    0.57240    0.30470    1.000
    H61      H        0.23460    0.55240    0.28520    1.000
    C74      C        0.27010    0.59310    0.43200    1.000
    H62      H        0.34380    0.58600    0.50040    1.000
    C75      C        0.11960    0.62370    0.37140    1.000
    H63      H        0.08880    0.63970    0.39790    1.000
    C76      C        0.05470    0.59840    0.23700    1.000
    H64      H        0.97990    0.59740    0.17300    1.000
    N5       N        0.86590    0.06010    0.00200    1.000
    C77      C        0.79250    0.08690    0.88400    1.000
    H65      H        0.77660    0.08100    0.79850    1.000
    C78      C        0.73820    0.12300    0.88040    1.000
    H66      H        0.68720    0.14140    0.79410    1.000
    C79      C        0.75870    0.13200    0.00280    1.000
    C80      C        0.83190    0.10300    0.12300    1.000
    H67      H        0.84800    0.10740    0.20900    1.000
    C81      C        0.88130    0.06770    0.11600    1.000
    H68      H        0.92950    0.04760    0.19910    1.000
    C82      C        0.69730    0.16660    0.00420    1.000
    C83      C        0.59130    0.15670    0.91800    1.000
    H69      H        0.56010    0.12900    0.85860    1.000
    C84      C        0.53180    0.18680    0.91740    1.000
    H70      H        0.45880    0.17940    0.85520    1.000
    C85      C        0.57110    0.22770    0.00260    1.000
    C86      C        0.68130    0.23450    0.10070    1.000
    H71      H        0.71420    0.26000    0.16870    1.000
    C87      C        0.74300    0.20520    0.10080    1.000
    H72      H        0.81690    0.21130    0.16680    1.000
    C88      C        0.43280    0.29080    0.86150    1.000
    C89      C        0.38160    0.33070    0.84880    1.000
    H73      H        0.38450    0.33820    0.92260    1.000
    C90      C        0.32600    0.35960    0.72610    1.000
    H74      H        0.30410    0.38990    0.72770    1.000
    C91      C        0.30140    0.34690    0.60490    1.000
    C92      C        0.36250    0.30940    0.62400    1.000
    H75      H        0.35950    0.30320    0.54930    1.000
    C93      C        0.42880    0.28070    0.75300    1.000
    H76      H        0.46900    0.25540    0.76410    1.000
    C94      C        0.23510    0.37540    0.46860    1.000
    C95      C        0.16370    0.40860    0.43000    1.000
    H77      H        0.15690    0.41590    0.49380    1.000
    C96      C        0.10460    0.43030    0.30420    1.000
    H78      H        0.05840    0.45370    0.28590    1.000
    N6       N        0.09940    0.42460    0.19920    1.000
    C97      C        0.18150    0.39770    0.24000    1.000
    H79      H        0.18890    0.39540    0.17540    1.000
    C98      C        0.25550    0.37320    0.37700    1.000
    H80      H        0.31440    0.35640    0.40740    1.000
    H81      H        0.90300    0.13970    0.21640    1.000
    H82      H        0.98710    0.07860    0.20780    1.000
    C99      C        0.76540    0.07180    0.88300    1.000
    C100     C        0.71060    0.10730    0.87800    1.000
    C101     C        0.86510    0.12220    0.12880    1.000
    C102     C        0.91480    0.08550    0.12210    1.000
    H83      H        0.72930    0.05430    0.79570    1.000
    H84      H        0.63980    0.11460    0.78820    1.000
    C103     C        0.67870    0.15890    0.08800    1.000
    H85      H        0.71140    0.13220    0.15170    1.000
    C104     C        0.61620    0.18720    0.08710    1.000
    H86      H        0.60380    0.17890    0.14440    1.000
    C105     C        0.58290    0.23600    0.90820    1.000
    H87      H        0.55140    0.26290    0.84560    1.000
    C106     C        0.63900    0.20540    0.90930    1.000
    H88      H        0.64010    0.21010    0.83830    1.000
    C107     C        0.46240    0.33330    0.85530    1.000
    H89      H        0.52990    0.34530    0.94140    1.000
    C108     C        0.39990    0.36030    0.73080    1.000
    H90      H        0.42690    0.38960    0.73320    1.000
    C109     C        0.25320    0.31090    0.61800    1.000
    H91      H        0.17830    0.30670    0.54510    1.000
    C110     C        0.32240    0.28090    0.74860    1.000
    H92      H        0.29370    0.25500    0.75750    1.000
    C111     C        0.20350    0.42760    0.30470    1.000
    H93      H        0.23460    0.44760    0.28520    1.000
    C112     C        0.27010    0.40690    0.43200    1.000
    H94      H        0.34380    0.41400    0.50040    1.000
    C113     C        0.11960    0.37630    0.37140    1.000
    H95      H        0.08880    0.36030    0.39790    1.000
    C114     C        0.05470    0.40160    0.23700    1.000
    H96      H        0.97990    0.40260    0.17300    1.000
    N7       N        0.13410    0.06010    0.99800    1.000
    C115     C        0.20750    0.08690    0.11600    1.000
    H97      H        0.22340    0.08100    0.20150    1.000
    C116     C        0.26180    0.12300    0.11960    1.000
    H98      H        0.31280    0.14140    0.20590    1.000
    C117     C        0.24130    0.13200    0.99720    1.000
    C118     C        0.16810    0.10300    0.87700    1.000
    H99      H        0.15200    0.10740    0.79100    1.000
    C119     C        0.11870    0.06770    0.88400    1.000
    H100     H        0.07050    0.04760    0.80090    1.000
    C120     C        0.30270    0.16660    0.99580    1.000
    C121     C        0.40870    0.15670    0.08200    1.000
    H101     H        0.43990    0.12900    0.14140    1.000
    C122     C        0.46820    0.18680    0.08260    1.000
    H102     H        0.54120    0.17940    0.14480    1.000
    C123     C        0.42890    0.22770    0.99740    1.000
    C124     C        0.31870    0.23450    0.89930    1.000
    H103     H        0.28580    0.26000    0.83130    1.000
    C125     C        0.25700    0.20520    0.89920    1.000
    H104     H        0.18310    0.21130    0.83320    1.000
    C126     C        0.56720    0.29080    0.13850    1.000
    C127     C        0.61840    0.33070    0.15120    1.000
    H105     H        0.61550    0.33820    0.07740    1.000
    C128     C        0.67400    0.35960    0.27390    1.000
    H106     H        0.69590    0.38990    0.27230    1.000
    C129     C        0.69860    0.34690    0.39510    1.000
    C130     C        0.63750    0.30940    0.37600    1.000
    H107     H        0.64050    0.30320    0.45070    1.000
    C131     C        0.57120    0.28070    0.24700    1.000
    H108     H        0.53100    0.25540    0.23590    1.000
    C132     C        0.76490    0.37540    0.53140    1.000
    C133     C        0.83630    0.40860    0.57000    1.000
    H109     H        0.84310    0.41590    0.50620    1.000
    C134     C        0.89540    0.43030    0.69580    1.000
    H110     H        0.94160    0.45370    0.71410    1.000
    N8       N        0.90060    0.42460    0.80080    1.000
    C135     C        0.81850    0.39770    0.76000    1.000
    H111     H        0.81110    0.39540    0.82460    1.000
    C136     C        0.74450    0.37320    0.62300    1.000
    H112     H        0.68560    0.35640    0.59260    1.000
    H113     H        0.09700    0.13970    0.78360    1.000
    H114     H        0.01290    0.07860    0.79220    1.000
    C137     C        0.23460    0.07180    0.11700    1.000
    C138     C        0.28940    0.10730    0.12200    1.000
    C139     C        0.13490    0.12220    0.87120    1.000
    C140     C        0.08520    0.08550    0.87790    1.000
    H115     H        0.27070    0.05430    0.20430    1.000
    H116     H        0.36020    0.11460    0.21180    1.000
    C141     C        0.32130    0.15890    0.91200    1.000
    H117     H        0.28860    0.13220    0.84830    1.000
    C142     C        0.38380    0.18720    0.91290    1.000
    H118     H        0.39620    0.17890    0.85560    1.000
    C143     C        0.41710    0.23600    0.09180    1.000
    H119     H        0.44860    0.26290    0.15440    1.000
    C144     C        0.36100    0.20540    0.09070    1.000
    H120     H        0.35990    0.21010    0.16170    1.000
    C145     C        0.53760    0.33330    0.14470    1.000
    H121     H        0.47010    0.34530    0.05860    1.000
    C146     C        0.60010    0.36030    0.26920    1.000
    H122     H        0.57310    0.38960    0.26680    1.000
    C147     C        0.74680    0.31090    0.38200    1.000
    H123     H        0.82170    0.30670    0.45490    1.000
    C148     C        0.67760    0.28090    0.25140    1.000
    H124     H        0.70630    0.25500    0.24250    1.000
    C149     C        0.79650    0.42760    0.69530    1.000
    H125     H        0.76540    0.44760    0.71480    1.000
    C150     C        0.72990    0.40690    0.56800    1.000
    H126     H        0.65620    0.41400    0.49960    1.000
    C151     C        0.88040    0.37630    0.62860    1.000
    H127     H        0.91120    0.36030    0.60210    1.000
    C152     C        0.94530    0.40160    0.76300    1.000
    H128     H        0.02010    0.40260    0.82700    1.000
    C153     C        0.50000    0.74100    0.00000    1.000
    C154     C        0.50000    0.25900    0.00000    1.000
    Cu1      Cu       0.00000    0.54592    0.00000    1.000
    Cu2      Cu       0.00000    0.45408    0.00000    1.000
    Cu3      Cu       0.07056    0.00000    0.99990    1.000
    I1       I        0.86669    0.00000    0.74430    1.000
    Cu4      Cu       0.92944    0.00000    0.00010    1.000
    I2       I        0.13331    0.00000    0.25570    1.000
    I3       I        0.13968    0.50000    0.01274    1.000
    I4       I        0.86032    0.50000    0.98726    1.000
    N9       N        0.63410    0.43990    0.99800    1.000
    C155     C        0.70750    0.41310    0.11600    1.000
    H129     H        0.72340    0.41900    0.20150    1.000
    C156     C        0.76180    0.37700    0.11960    1.000
    H130     H        0.81280    0.35860    0.20590    1.000
    C157     C        0.74130    0.36800    0.99720    1.000
    C158     C        0.66810    0.39700    0.87700    1.000
    H131     H        0.65200    0.39260    0.79100    1.000
    C159     C        0.61870    0.43230    0.88400    1.000
    H132     H        0.57050    0.45240    0.80090    1.000
    C160     C        0.80270    0.33340    0.99580    1.000
    C161     C        0.90870    0.34330    0.08200    1.000
    H133     H        0.93990    0.37100    0.14140    1.000
    C162     C        0.96820    0.31320    0.08260    1.000
    H134     H        0.04120    0.32060    0.14480    1.000
    C163     C        0.92890    0.27230    0.99740    1.000
    C164     C        0.81870    0.26550    0.89930    1.000
    H135     H        0.78580    0.24000    0.83130    1.000
    C165     C        0.75700    0.29480    0.89920    1.000
    H136     H        0.68310    0.28870    0.83320    1.000
    C166     C        0.06720    0.20920    0.13850    1.000
    C167     C        0.11840    0.16930    0.15120    1.000
    H137     H        0.11550    0.16180    0.07740    1.000
    C168     C        0.17400    0.14040    0.27390    1.000
    H138     H        0.19590    0.11010    0.27230    1.000
    C169     C        0.19860    0.15310    0.39510    1.000
    C170     C        0.13750    0.19060    0.37600    1.000
    H139     H        0.14050    0.19680    0.45070    1.000
    C171     C        0.07120    0.21930    0.24700    1.000
    H140     H        0.03100    0.24460    0.23590    1.000
    C172     C        0.26490    0.12460    0.53140    1.000
    C173     C        0.33630    0.09140    0.57000    1.000
    H141     H        0.34310    0.08410    0.50620    1.000
    C174     C        0.39540    0.06970    0.69580    1.000
    H142     H        0.44160    0.04630    0.71410    1.000
    N10      N        0.40060    0.07540    0.80080    1.000
    C175     C        0.31850    0.10230    0.76000    1.000
    H143     H        0.31110    0.10460    0.82460    1.000
    C176     C        0.24450    0.12680    0.62300    1.000
    H144     H        0.18560    0.14360    0.59260    1.000
    H145     H        0.59700    0.36030    0.78360    1.000
    H146     H        0.51290    0.42140    0.79220    1.000
    C177     C        0.73460    0.42820    0.11700    1.000
    C178     C        0.78940    0.39270    0.12200    1.000
    C179     C        0.63490    0.37780    0.87120    1.000
    C180     C        0.58520    0.41450    0.87790    1.000
    H147     H        0.77070    0.44570    0.20430    1.000
    H148     H        0.86020    0.38540    0.21180    1.000
    C181     C        0.82130    0.34110    0.91200    1.000
    H149     H        0.78860    0.36780    0.84830    1.000
    C182     C        0.88380    0.31280    0.91290    1.000
    H150     H        0.89620    0.32110    0.85560    1.000
    C183     C        0.91710    0.26400    0.09180    1.000
    H151     H        0.94860    0.23710    0.15440    1.000
    C184     C        0.86100    0.29460    0.09070    1.000
    H152     H        0.85990    0.28990    0.16170    1.000
    C185     C        0.03760    0.16670    0.14470    1.000
    H153     H        0.97010    0.15470    0.05860    1.000
    C186     C        0.10010    0.13970    0.26920    1.000
    H154     H        0.07310    0.11040    0.26680    1.000
    C187     C        0.24680    0.18910    0.38200    1.000
    H155     H        0.32170    0.19330    0.45490    1.000
    C188     C        0.17760    0.21910    0.25140    1.000
    H156     H        0.20630    0.24500    0.24250    1.000
    C189     C        0.29650    0.07240    0.69530    1.000
    H157     H        0.26540    0.05240    0.71480    1.000
    C190     C        0.22990    0.09310    0.56800    1.000
    H158     H        0.15620    0.08600    0.49960    1.000
    C191     C        0.38040    0.12370    0.62860    1.000
    H159     H        0.41120    0.13970    0.60210    1.000
    C192     C        0.44530    0.09840    0.76300    1.000
    H160     H        0.52010    0.09740    0.82700    1.000
    N11      N        0.36590    0.43990    0.00200    1.000
    C193     C        0.29250    0.41310    0.88400    1.000
    H161     H        0.27660    0.41900    0.79850    1.000
    C194     C        0.23820    0.37700    0.88040    1.000
    H162     H        0.18720    0.35860    0.79410    1.000
    C195     C        0.25870    0.36800    0.00280    1.000
    C196     C        0.33190    0.39700    0.12300    1.000
    H163     H        0.34800    0.39260    0.20900    1.000
    C197     C        0.38130    0.43230    0.11600    1.000
    H164     H        0.42950    0.45240    0.19910    1.000
    C198     C        0.19730    0.33340    0.00420    1.000
    C199     C        0.09130    0.34330    0.91800    1.000
    H165     H        0.06010    0.37100    0.85860    1.000
    C200     C        0.03180    0.31320    0.91740    1.000
    H166     H        0.95880    0.32060    0.85520    1.000
    C201     C        0.07110    0.27230    0.00260    1.000
    C202     C        0.18130    0.26550    0.10070    1.000
    H167     H        0.21420    0.24000    0.16870    1.000
    C203     C        0.24300    0.29480    0.10080    1.000
    H168     H        0.31690    0.28870    0.16680    1.000
    C204     C        0.93280    0.20920    0.86150    1.000
    C205     C        0.88160    0.16930    0.84880    1.000
    H169     H        0.88450    0.16180    0.92260    1.000
    C206     C        0.82600    0.14040    0.72610    1.000
    H170     H        0.80410    0.11010    0.72770    1.000
    C207     C        0.80140    0.15310    0.60490    1.000
    C208     C        0.86250    0.19060    0.62400    1.000
    H171     H        0.85950    0.19680    0.54930    1.000
    C209     C        0.92880    0.21930    0.75300    1.000
    H172     H        0.96900    0.24460    0.76410    1.000
    C210     C        0.73510    0.12460    0.46860    1.000
    C211     C        0.66370    0.09140    0.43000    1.000
    H173     H        0.65690    0.08410    0.49380    1.000
    C212     C        0.60460    0.06970    0.30420    1.000
    H174     H        0.55840    0.04630    0.28590    1.000
    N12      N        0.59940    0.07540    0.19920    1.000
    C213     C        0.68150    0.10230    0.24000    1.000
    H175     H        0.68890    0.10460    0.17540    1.000
    C214     C        0.75550    0.12680    0.37700    1.000
    H176     H        0.81440    0.14360    0.40740    1.000
    H177     H        0.40300    0.36030    0.21640    1.000
    H178     H        0.48710    0.42140    0.20780    1.000
    C215     C        0.26540    0.42820    0.88300    1.000
    C216     C        0.21060    0.39270    0.87800    1.000
    C217     C        0.36510    0.37780    0.12880    1.000
    C218     C        0.41480    0.41450    0.12210    1.000
    H179     H        0.22930    0.44570    0.79570    1.000
    H180     H        0.13980    0.38540    0.78820    1.000
    C219     C        0.17870    0.34110    0.08800    1.000
    H181     H        0.21140    0.36780    0.15170    1.000
    C220     C        0.11620    0.31280    0.08710    1.000
    H182     H        0.10380    0.32110    0.14440    1.000
    C221     C        0.08290    0.26400    0.90820    1.000
    H183     H        0.05140    0.23710    0.84560    1.000
    C222     C        0.13900    0.29460    0.90930    1.000
    H184     H        0.14010    0.28990    0.83830    1.000
    C223     C        0.96240    0.16670    0.85530    1.000
    H185     H        0.02990    0.15470    0.94140    1.000
    C224     C        0.89990    0.13970    0.73080    1.000
    H186     H        0.92690    0.11040    0.73320    1.000
    C225     C        0.75320    0.18910    0.61800    1.000
    H187     H        0.67830    0.19330    0.54510    1.000
    C226     C        0.82240    0.21910    0.74860    1.000
    H188     H        0.79370    0.24500    0.75750    1.000
    C227     C        0.70350    0.07240    0.30470    1.000
    H189     H        0.73460    0.05240    0.28520    1.000
    C228     C        0.77010    0.09310    0.43200    1.000
    H190     H        0.84380    0.08600    0.50040    1.000
    C229     C        0.61960    0.12370    0.37140    1.000
    H191     H        0.58880    0.13970    0.39790    1.000
    C230     C        0.55470    0.09840    0.23700    1.000
    H192     H        0.47990    0.09740    0.17300    1.000
    N13      N        0.36590    0.56010    0.00200    1.000
    C231     C        0.29250    0.58690    0.88400    1.000
    H193     H        0.27660    0.58100    0.79850    1.000
    C232     C        0.23820    0.62300    0.88040    1.000
    H194     H        0.18720    0.64140    0.79410    1.000
    C233     C        0.25870    0.63200    0.00280    1.000
    C234     C        0.33190    0.60300    0.12300    1.000
    H195     H        0.34800    0.60740    0.20900    1.000
    C235     C        0.38130    0.56770    0.11600    1.000
    H196     H        0.42950    0.54760    0.19910    1.000
    C236     C        0.19730    0.66660    0.00420    1.000
    C237     C        0.09130    0.65670    0.91800    1.000
    H197     H        0.06010    0.62900    0.85860    1.000
    C238     C        0.03180    0.68680    0.91740    1.000
    H198     H        0.95880    0.67940    0.85520    1.000
    C239     C        0.07110    0.72770    0.00260    1.000
    C240     C        0.18130    0.73450    0.10070    1.000
    H199     H        0.21420    0.76000    0.16870    1.000
    C241     C        0.24300    0.70520    0.10080    1.000
    H200     H        0.31690    0.71130    0.16680    1.000
    C242     C        0.93280    0.79080    0.86150    1.000
    C243     C        0.88160    0.83070    0.84880    1.000
    H201     H        0.88450    0.83820    0.92260    1.000
    C244     C        0.82600    0.85960    0.72610    1.000
    H202     H        0.80410    0.88990    0.72770    1.000
    C245     C        0.80140    0.84690    0.60490    1.000
    C246     C        0.86250    0.80940    0.62400    1.000
    H203     H        0.85950    0.80320    0.54930    1.000
    C247     C        0.92880    0.78070    0.75300    1.000
    H204     H        0.96900    0.75540    0.76410    1.000
    C248     C        0.73510    0.87540    0.46860    1.000
    C249     C        0.66370    0.90860    0.43000    1.000
    H205     H        0.65690    0.91590    0.49380    1.000
    C250     C        0.60460    0.93030    0.30420    1.000
    H206     H        0.55840    0.95370    0.28590    1.000
    N14      N        0.59940    0.92460    0.19920    1.000
    C251     C        0.68150    0.89770    0.24000    1.000
    H207     H        0.68890    0.89540    0.17540    1.000
    C252     C        0.75550    0.87320    0.37700    1.000
    H208     H        0.81440    0.85640    0.40740    1.000
    H209     H        0.40300    0.63970    0.21640    1.000
    H210     H        0.48710    0.57860    0.20780    1.000
    C253     C        0.26540    0.57180    0.88300    1.000
    C254     C        0.21060    0.60730    0.87800    1.000
    C255     C        0.36510    0.62220    0.12880    1.000
    C256     C        0.41480    0.58550    0.12210    1.000
    H211     H        0.22930    0.55430    0.79570    1.000
    H212     H        0.13980    0.61460    0.78820    1.000
    C257     C        0.17870    0.65890    0.08800    1.000
    H213     H        0.21140    0.63220    0.15170    1.000
    C258     C        0.11620    0.68720    0.08710    1.000
    H214     H        0.10380    0.67890    0.14440    1.000
    C259     C        0.08290    0.73600    0.90820    1.000
    H215     H        0.05140    0.76290    0.84560    1.000
    C260     C        0.13900    0.70540    0.90930    1.000
    H216     H        0.14010    0.71010    0.83830    1.000
    C261     C        0.96240    0.83330    0.85530    1.000
    H217     H        0.02990    0.84530    0.94140    1.000
    C262     C        0.89990    0.86030    0.73080    1.000
    H218     H        0.92690    0.88960    0.73320    1.000
    C263     C        0.75320    0.81090    0.61800    1.000
    H219     H        0.67830    0.80670    0.54510    1.000
    C264     C        0.82240    0.78090    0.74860    1.000
    H220     H        0.79370    0.75500    0.75750    1.000
    C265     C        0.70350    0.92760    0.30470    1.000
    H221     H        0.73460    0.94760    0.28520    1.000
    C266     C        0.77010    0.90690    0.43200    1.000
    H222     H        0.84380    0.91400    0.50040    1.000
    C267     C        0.61960    0.87630    0.37140    1.000
    H223     H        0.58880    0.86030    0.39790    1.000
    C268     C        0.55470    0.90160    0.23700    1.000
    H224     H        0.47990    0.90260    0.17300    1.000
    N15      N        0.63410    0.56010    0.99800    1.000
    C269     C        0.70750    0.58690    0.11600    1.000
    H225     H        0.72340    0.58100    0.20150    1.000
    C270     C        0.76180    0.62300    0.11960    1.000
    H226     H        0.81280    0.64140    0.20590    1.000
    C271     C        0.74130    0.63200    0.99720    1.000
    C272     C        0.66810    0.60300    0.87700    1.000
    H227     H        0.65200    0.60740    0.79100    1.000
    C273     C        0.61870    0.56770    0.88400    1.000
    H228     H        0.57050    0.54760    0.80090    1.000
    C274     C        0.80270    0.66660    0.99580    1.000
    C275     C        0.90870    0.65670    0.08200    1.000
    H229     H        0.93990    0.62900    0.14140    1.000
    C276     C        0.96820    0.68680    0.08260    1.000
    H230     H        0.04120    0.67940    0.14480    1.000
    C277     C        0.92890    0.72770    0.99740    1.000
    C278     C        0.81870    0.73450    0.89930    1.000
    H231     H        0.78580    0.76000    0.83130    1.000
    C279     C        0.75700    0.70520    0.89920    1.000
    H232     H        0.68310    0.71130    0.83320    1.000
    C280     C        0.06720    0.79080    0.13850    1.000
    C281     C        0.11840    0.83070    0.15120    1.000
    H233     H        0.11550    0.83820    0.07740    1.000
    C282     C        0.17400    0.85960    0.27390    1.000
    H234     H        0.19590    0.88990    0.27230    1.000
    C283     C        0.19860    0.84690    0.39510    1.000
    C284     C        0.13750    0.80940    0.37600    1.000
    H235     H        0.14050    0.80320    0.45070    1.000
    C285     C        0.07120    0.78070    0.24700    1.000
    H236     H        0.03100    0.75540    0.23590    1.000
    C286     C        0.26490    0.87540    0.53140    1.000
    C287     C        0.33630    0.90860    0.57000    1.000
    H237     H        0.34310    0.91590    0.50620    1.000
    C288     C        0.39540    0.93030    0.69580    1.000
    H238     H        0.44160    0.95370    0.71410    1.000
    N16      N        0.40060    0.92460    0.80080    1.000
    C289     C        0.31850    0.89770    0.76000    1.000
    H239     H        0.31110    0.89540    0.82460    1.000
    C290     C        0.24450    0.87320    0.62300    1.000
    H240     H        0.18560    0.85640    0.59260    1.000
    H241     H        0.59700    0.63970    0.78360    1.000
    H242     H        0.51290    0.57860    0.79220    1.000
    C291     C        0.73460    0.57180    0.11700    1.000
    C292     C        0.78940    0.60730    0.12200    1.000
    C293     C        0.63490    0.62220    0.87120    1.000
    C294     C        0.58520    0.58550    0.87790    1.000
    H243     H        0.77070    0.55430    0.20430    1.000
    H244     H        0.86020    0.61460    0.21180    1.000
    C295     C        0.82130    0.65890    0.91200    1.000
    H245     H        0.78860    0.63220    0.84830    1.000
    C296     C        0.88380    0.68720    0.91290    1.000
    H246     H        0.89620    0.67890    0.85560    1.000
    C297     C        0.91710    0.73600    0.09180    1.000
    H247     H        0.94860    0.76290    0.15440    1.000
    C298     C        0.86100    0.70540    0.09070    1.000
    H248     H        0.85990    0.71010    0.16170    1.000
    C299     C        0.03760    0.83330    0.14470    1.000
    H249     H        0.97010    0.84530    0.05860    1.000
    C300     C        0.10010    0.86030    0.26920    1.000
    H250     H        0.07310    0.88960    0.26680    1.000
    C301     C        0.24680    0.81090    0.38200    1.000
    H251     H        0.32170    0.80670    0.45490    1.000
    C302     C        0.17760    0.78090    0.25140    1.000
    H252     H        0.20630    0.75500    0.24250    1.000
    C303     C        0.29650    0.92760    0.69530    1.000
    H253     H        0.26540    0.94760    0.71480    1.000
    C304     C        0.22990    0.90690    0.56800    1.000
    H254     H        0.15620    0.91400    0.49960    1.000
    C305     C        0.38040    0.87630    0.62860    1.000
    H255     H        0.41120    0.86030    0.60210    1.000
    C306     C        0.44530    0.90160    0.76300    1.000
    H256     H        0.52010    0.90260    0.82700    1.000
    C307     C        0.00000    0.24100    0.00000    1.000
    C308     C        0.00000    0.75900    0.00000    1.000
    Cu5      Cu       0.50000    0.04592    0.00000    1.000
    Cu6      Cu       0.50000    0.95408    0.00000    1.000
    Cu7      Cu       0.57056    0.50000    0.99990    1.000
    I5       I        0.36669    0.50000    0.74430    1.000
    Cu8      Cu       0.42944    0.50000    0.00010    1.000
    I6       I        0.63331    0.50000    0.25570    1.000
    I7       I        0.63968    0.00000    0.01274    1.000
    I8       I        0.36032    0.00000    0.98726    1.000
