data_functionalizedCrystal
_audit_creation_method	'EQeq! by Chris Wilmer'
_symmetry_space_group_name_H-M	'P1'
_symmetry_Int_Tables_number	1
_symmetry_cell_setting	triclinic
loop_
_symmetry_equiv_pos_as_xyz
  x,y,z
_cell_length_a	7.301
_cell_length_b	10.133
_cell_length_c	18.032
_cell_angle_alpha	90
_cell_angle_beta	90
_cell_angle_gamma	94.307
loop_
_atom_site_label
_atom_site_type_symbol
_atom_site_fract_x
_atom_site_fract_y
_atom_site_fract_z
_atom_site_charge
Mof_Cu	Cu	0.86507	0.21639	0.90536	0.922
Mof_Cu	Cu	0.45869	0.56952	0.43152	0.943
Mof_Cu	Cu	0.63493	0.28361	0.40536	0.921
Mof_Cu	Cu	0.04131	0.93048	0.93152	0.938
Mof_Cu	Cu	0.13493	0.78361	0.09464	0.922
Mof_Cu	Cu	0.54131	0.43048	0.56848	0.943
Mof_Cu	Cu	0.36507	0.71639	0.59464	0.921
Mof_Cu	Cu	0.95869	0.06952	0.06848	0.938
Mof_H 	H 	0.7173	0.3342	0.192	0.037
Mof_H 	H 	0.5592	0.7028	0.207	0.025
Mof_H 	H 	0.7259	0.5644	0.0114	0.018
Mof_H 	H 	0.7827	0.1658	0.692	0.04
Mof_H 	H 	0.9408	0.7972	0.707	0.028
Mof_H 	H 	0.7741	0.9356	0.5114	0.019
Mof_H 	H 	0.2827	0.6658	0.808	0.037
Mof_H 	H 	0.4408	0.2972	0.793	0.025
Mof_H 	H 	0.2741	0.4356	0.9886	0.018
Mof_H 	H 	0.2173	0.8342	0.308	0.04
Mof_H 	H 	0.0592	0.2028	0.293	0.028
Mof_H 	H 	0.2259	0.0644	0.4886	0.019
Mof_C 	C 	0.6409	0.6496	0.1037	-0.174
Mof_C 	C 	0.7299	0.4303	0.0954	-0.157
Mof_C 	C 	0.6971	0.4145	0.1696	0.098
Mof_C 	C 	0.6349	0.5151	0.2121	-0.153
Mof_C 	C 	0.5989	0.4911	0.293	0.414
Mof_C 	C 	0.6037	0.6344	0.1795	0.09
Mof_C 	C 	0.7024	0.5515	0.0617	0.092
Mof_C 	C 	0.8025	0.3197	0.0527	0.415
Mof_C 	C 	0.8591	0.8504	0.6037	-0.172
Mof_C 	C 	0.7701	0.0697	0.5954	-0.158
Mof_C 	C 	0.8029	0.0855	0.6696	0.09
Mof_C 	C 	0.8651	0.9849	0.7121	-0.141
Mof_C 	C 	0.9011	0.0089	0.793	0.403
Mof_C 	C 	0.8963	0.8656	0.6795	0.085
Mof_C 	C 	0.7976	0.9485	0.5617	0.094
Mof_C 	C 	0.6975	0.1803	0.5527	0.419
Mof_C 	C 	0.3591	0.3504	0.8963	-0.174
Mof_C 	C 	0.2701	0.5697	0.9046	-0.157
Mof_C 	C 	0.3029	0.5855	0.8304	0.098
Mof_C 	C 	0.3651	0.4849	0.7879	-0.153
Mof_C 	C 	0.4011	0.5089	0.707	0.414
Mof_C 	C 	0.3963	0.3656	0.8205	0.09
Mof_C 	C 	0.2976	0.4485	0.9383	0.092
Mof_C 	C 	0.1975	0.6803	0.9473	0.415
Mof_C 	C 	0.1409	0.1496	0.3963	-0.172
Mof_C 	C 	0.2299	0.9303	0.4046	-0.158
Mof_C 	C 	0.1971	0.9145	0.3304	0.09
Mof_C 	C 	0.1349	0.0151	0.2879	-0.141
Mof_C 	C 	0.0989	0.9911	0.207	0.403
Mof_C 	C 	0.1037	0.1344	0.3205	0.085
Mof_C 	C 	0.2024	0.0515	0.4383	0.094
Mof_C 	C 	0.3025	0.8197	0.4473	0.419
Mof_S 	S 	0.6223	0.80927	0.06516	0.577
Mof_S 	S 	0.8777	0.69073	0.56516	0.58
Mof_S 	S 	0.3777	0.19073	0.93484	0.577
Mof_S 	S 	0.1223	0.30927	0.43484	0.58
Mof_O 	O 	0.5538	0.5852	0.3316	-0.394
Mof_O 	O 	0.8709	0.0566	0.965	-0.488
Mof_O 	O 	0.8413	0.3368	0.9863	-0.439
Mof_O 	O 	0.6199	0.3752	0.3138	-0.425
Mof_O 	O 	0.634	0.8002	0.9876	-0.296
Mof_O 	O 	0.8177	0.2164	0.0895	-0.402
Mof_O 	O 	0.773	0.8887	0.098	-0.381
Mof_O 	O 	0.4521	0.8533	0.0918	-0.322
Mof_O 	O 	0.9462	0.9148	0.8316	-0.386
Mof_O 	O 	0.6291	0.4434	0.465	-0.489
Mof_O 	O 	0.6587	0.1632	0.4863	-0.444
Mof_O 	O 	0.8801	0.1248	0.8138	-0.422
Mof_O 	O 	0.866	0.6998	0.4876	-0.296
Mof_O 	O 	0.6823	0.2836	0.5895	-0.401
Mof_O 	O 	0.727	0.6113	0.598	-0.383
Mof_O 	O 	0.0479	0.6467	0.5918	-0.325
Mof_O 	O 	0.4462	0.4148	0.6684	-0.394
Mof_O 	O 	0.1291	0.9434	0.035	-0.488
Mof_O 	O 	0.1587	0.6632	0.0137	-0.439
Mof_O 	O 	0.3801	0.6248	0.6862	-0.425
Mof_O 	O 	0.366	0.1998	0.0124	-0.296
Mof_O 	O 	0.1823	0.7836	0.9105	-0.402
Mof_O 	O 	0.227	0.1113	0.902	-0.381
Mof_O 	O 	0.5479	0.1467	0.9082	-0.322
Mof_O 	O 	0.0538	0.0852	0.1684	-0.386
Mof_O 	O 	0.3709	0.5566	0.535	-0.489
Mof_O 	O 	0.3413	0.8368	0.5137	-0.444
Mof_O 	O 	0.1199	0.8752	0.1862	-0.422
Mof_O 	O 	0.134	0.3002	0.5124	-0.296
Mof_O 	O 	0.3177	0.7164	0.4105	-0.401
Mof_O 	O 	0.273	0.3887	0.402	-0.383
Mof_O 	O 	0.9521	0.3533	0.4082	-0.325
_end
