data_functionalizedCrystal
_audit_creation_method	'EQeq! by Chris Wilmer'
_symmetry_space_group_name_H-M	'P1'
_symmetry_Int_Tables_number	1
_symmetry_cell_setting	triclinic
loop_
_symmetry_equiv_pos_as_xyz
  x,y,z
_cell_length_a	19.3033
_cell_length_b	19.3033
_cell_length_c	19.3033
_cell_angle_alpha	63.1275
_cell_angle_beta	74.0978
_cell_angle_gamma	105.902
loop_
_atom_site_label
_atom_site_type_symbol
_atom_site_fract_x
_atom_site_fract_y
_atom_site_fract_z
_atom_site_charge
Mof_Cu	Cu	4.15913e-17	0.16205	0.83795	0.877
Mof_Cu	Cu	3.11935e-17	0.83795	0.16205	0.877
Mof_Cu	Cu	0.77905	0.52056	0.74151	0.899
Mof_Cu	Cu	0.22095	0.47944	0.25849	0.899
Mof_Cu	Cu	0.73793	0.25849	0.52056	0.899
Mof_Cu	Cu	0.26207	0.74151	0.47944	0.899
Mof_H 	H 	0.022	0.9027	0.5151	0.008
Mof_H 	H 	0.9641	0.9116	0.4717	0.014
Mof_H 	H 	0.8422	0.7201	0.6821	-0
Mof_H 	H 	0.908	0.9712	0.884	0.004
Mof_H 	H 	0.8581	0.8887	0.4878	0.29
Mof_H 	H 	0.7684	0.854	0.5538	0.276
Mof_H 	H 	0.8242	0.9549	0.4833	0.28
Mof_H 	H 	0.9523	0.8762	0.7885	0.022
Mof_H 	H 	0.8667	0.8646	0.8393	0.024
Mof_H 	H 	0.6701	0.0519	0.6336	-0.019
Mof_H 	H 	0.0518	0.9	0.6062	0.321
Mof_H 	H 	0.0279	0.8952	0.6933	0.327
Mof_H 	H 	0.989	0.8106	0.6962	0.32
Mof_H 	H 	0.073	0.1798	0.655	0.002
Mof_H 	H 	0.9278	0.6361	0.5505	-0.002
Mof_H 	H 	0.7816	0.9947	0.7371	0.287
Mof_H 	H 	0.7278	0.8934	0.8068	0.273
Mof_H 	H 	0.8079	0.9429	0.8056	0.293
Mof_H 	H 	0.8855	0.2247	0.4524	0.012
Mof_H 	H 	0.7178	0.9164	0.6088	0.002
Mof_H 	H 	0.6959	0.9116	0.6959	-0.002
Mof_H 	H 	0.978	0.4629	0.1193	0.059
Mof_H 	H 	0.0359	0.5642	0.0525	0.036
Mof_H 	H 	0.1578	0.4757	0.1221	0.003
Mof_H 	H 	0.092	0.208	0.9368	0.015
Mof_H 	H 	0.1419	0.6541	0.9694	0.275
Mof_H 	H 	0.2316	0.6778	0.9144	0.262
Mof_H 	H 	0.1758	0.6925	0.8693	0.264
Mof_H 	H 	0.0477	0.2592	0.0761	0.031
Mof_H 	H 	0.1333	0.294	0.0021	0.037
Mof_H 	H 	0.3299	0.6963	0.6182	-0.019
Mof_H 	H 	0.9482	0.342	0.1518	0.239
Mof_H 	H 	0.9721	0.2788	0.1327	0.25
Mof_H 	H 	0.011	0.3148	0.1784	0.218
Mof_H 	H 	0.927	0.272	0.8932	-0.006
Mof_H 	H 	0.0722	0.5217	0.2917	-0.007
Mof_H 	H 	0.2184	0.4813	0.7869	0.275
Mof_H 	H 	0.2722	0.4654	0.8344	0.261
Mof_H 	H 	0.1921	0.3865	0.865	0.281
Mof_H 	H 	0.1145	0.6621	0.6608	0.005
Mof_H 	H 	0.2822	0.6734	0.8014	0.007
Mof_H 	H 	0.3041	0.6082	0.7843	0.004
Mof_H 	H 	0.5822	0.4849	0.5371	0.025
Mof_H 	H 	0.6167	0.5283	0.4358	0.022
Mof_H 	H 	0.5978	0.3179	0.5243	0.001
Mof_H 	H 	0.1448	0.116	0.792	0.013
Mof_H 	H 	0.6235	0.5122	0.3459	0.284
Mof_H 	H 	0.5922	0.4462	0.3222	0.271
Mof_H 	H 	0.5618	0.5167	0.3075	0.274
Mof_H 	H 	0.3353	0.2115	0.7408	0.025
Mof_H 	H 	0.2961	0.1607	0.706	0.028
Mof_H 	H 	0.3145	0.3664	0.3037	-0.019
Mof_H 	H 	0.4938	0.3938	0.658	0.294
Mof_H 	H 	0.4115	0.3067	0.7212	0.301
Mof_H 	H 	0.4932	0.3038	0.6852	0.287
Mof_H 	H 	0.1652	0.345	0.728	-0.003
Mof_H 	H 	0.8134	0.4495	0.4783	-0.003
Mof_H 	H 	0.2682	0.2629	0.5187	0.285
Mof_H 	H 	0.2998	0.1932	0.5346	0.271
Mof_H 	H 	0.2515	0.1944	0.6135	0.291
Mof_H 	H 	0.3229	0.5476	0.3379	0.008
Mof_H 	H 	0.4748	0.3912	0.3266	0.003
Mof_H 	H 	0.3925	0.3041	0.3918	0
Mof_H 	H 	0.4178	0.8807	0.0973	0.025
Mof_H 	H 	0.3833	0.9475	0.0884	0.021
Mof_H 	H 	0.4022	0.8779	0.2799	0.001
Mof_H 	H 	0.8552	0.0632	0.0288	0.021
Mof_H 	H 	0.3765	0.0306	0.1113	0.283
Mof_H 	H 	0.4078	0.0856	0.146	0.271
Mof_H 	H 	0.4382	0.1307	0.0451	0.274
Mof_H 	H 	0.6647	0.9239	0.1238	0.027
Mof_H 	H 	0.7039	0.9979	0.1354	0.029
Mof_H 	H 	0.6855	0.3818	0.9481	-0.02
Mof_H 	H 	0.5062	0.8482	0.1	0.293
Mof_H 	H 	0.5885	0.8673	0.1048	0.3
Mof_H 	H 	0.5068	0.8216	0.1894	0.285
Mof_H 	H 	0.8348	0.1068	0.8202	-0
Mof_H 	H 	0.1866	0.7083	0.3639	-0.006
Mof_H 	H 	0.7318	0.2131	0.0053	0.286
Mof_H 	H 	0.7002	0.1656	0.1066	0.271
Mof_H 	H 	0.7485	0.135	0.0571	0.293
Mof_H 	H 	0.6771	0.3392	0.7753	0.008
Mof_H 	H 	0.5252	0.1986	0.0836	0.003
Mof_H 	H 	0.6075	0.2157	0.0884	-0
Mof_H 	H 	0.978	0.0973	0.4849	0.06
Mof_H 	H 	0.0359	0.0884	0.5283	0.037
Mof_H 	H 	0.1578	0.2799	0.3179	0.003
Mof_H 	H 	0.092	0.0288	0.116	0.008
Mof_H 	H 	0.1419	0.1113	0.5122	0.271
Mof_H 	H 	0.2316	0.146	0.4462	0.259
Mof_H 	H 	0.1758	0.0451	0.5167	0.261
Mof_H 	H 	0.0477	0.1238	0.2115	0.027
Mof_H 	H 	0.1333	0.1354	0.1607	0.033
Mof_H 	H 	0.3299	0.9481	0.3664	-0.019
Mof_H 	H 	0.9482	0.1	0.3938	0.242
Mof_H 	H 	0.9721	0.1048	0.3067	0.253
Mof_H 	H 	0.011	0.1894	0.3038	0.22
Mof_H 	H 	0.927	0.8202	0.345	-0.005
Mof_H 	H 	0.0722	0.3639	0.4495	-0.007
Mof_H 	H 	0.2184	0.0053	0.2629	0.274
Mof_H 	H 	0.2722	0.1066	0.1932	0.261
Mof_H 	H 	0.1921	0.0571	0.1944	0.281
Mof_H 	H 	0.1145	0.7753	0.5476	0.005
Mof_H 	H 	0.2822	0.0836	0.3912	0.008
Mof_H 	H 	0.3041	0.0884	0.3041	0.004
Mof_H 	H 	0.022	0.5371	0.8807	0.007
Mof_H 	H 	0.9641	0.4358	0.9475	0.013
Mof_H 	H 	0.8422	0.5243	0.8779	-0
Mof_H 	H 	0.908	0.792	0.0632	0.016
Mof_H 	H 	0.8581	0.3459	0.0306	0.295
Mof_H 	H 	0.7684	0.3222	0.0856	0.279
Mof_H 	H 	0.8242	0.3075	0.1307	0.285
Mof_H 	H 	0.9523	0.7408	0.9239	0.026
Mof_H 	H 	0.8667	0.706	0.9979	0.027
Mof_H 	H 	0.6701	0.3037	0.3818	-0.02
Mof_H 	H 	0.0518	0.658	0.8482	0.318
Mof_H 	H 	0.0279	0.7212	0.8673	0.324
Mof_H 	H 	0.989	0.6852	0.8216	0.317
Mof_H 	H 	0.073	0.728	0.1068	0.001
Mof_H 	H 	0.9278	0.4783	0.7083	-0.002
Mof_H 	H 	0.7816	0.5187	0.2131	0.289
Mof_H 	H 	0.7278	0.5346	0.1656	0.274
Mof_H 	H 	0.8079	0.6135	0.135	0.296
Mof_H 	H 	0.8855	0.3379	0.3392	0.012
Mof_H 	H 	0.7178	0.3266	0.1986	0.001
Mof_H 	H 	0.6959	0.3918	0.2157	-0.002
Mof_H 	H 	0.4178	0.5151	0.4629	0.025
Mof_H 	H 	0.3833	0.4717	0.5642	0.021
Mof_H 	H 	0.4022	0.6821	0.4757	0.001
Mof_H 	H 	0.8552	0.884	0.208	0.015
Mof_H 	H 	0.3765	0.4878	0.6541	0.284
Mof_H 	H 	0.4078	0.5538	0.6778	0.271
Mof_H 	H 	0.4382	0.4833	0.6925	0.275
Mof_H 	H 	0.6647	0.7885	0.2592	0.024
Mof_H 	H 	0.7039	0.8393	0.294	0.028
Mof_H 	H 	0.6855	0.6336	0.6963	-0.02
Mof_H 	H 	0.5062	0.6062	0.342	0.294
Mof_H 	H 	0.5885	0.6933	0.2788	0.301
Mof_H 	H 	0.5068	0.6962	0.3148	0.287
Mof_H 	H 	0.8348	0.655	0.272	-0.001
Mof_H 	H 	0.1866	0.5505	0.5217	-0.006
Mof_H 	H 	0.7318	0.7371	0.4813	0.285
Mof_H 	H 	0.7002	0.8068	0.4654	0.27
Mof_H 	H 	0.7485	0.8056	0.3865	0.291
Mof_H 	H 	0.6771	0.4524	0.6621	0.008
Mof_H 	H 	0.5252	0.6088	0.6734	0.003
Mof_H 	H 	0.6075	0.6959	0.6082	-0
Mof_H 	H 	0.5822	0.1193	0.9027	0.026
Mof_H 	H 	0.6167	0.0525	0.9116	0.023
Mof_H 	H 	0.5978	0.1221	0.7201	0.001
Mof_H 	H 	0.1448	0.9368	0.9712	0.018
Mof_H 	H 	0.6235	0.9694	0.8887	0.281
Mof_H 	H 	0.5922	0.9144	0.854	0.269
Mof_H 	H 	0.5618	0.8693	0.9549	0.272
Mof_H 	H 	0.3353	0.0761	0.8762	0.025
Mof_H 	H 	0.2961	0.0021	0.8646	0.028
Mof_H 	H 	0.3145	0.6182	0.0519	-0.02
Mof_H 	H 	0.4938	0.1518	0.9	0.294
Mof_H 	H 	0.4115	0.1327	0.8952	0.301
Mof_H 	H 	0.4932	0.1784	0.8106	0.286
Mof_H 	H 	0.1652	0.8932	0.1798	-0.003
Mof_H 	H 	0.8134	0.2917	0.6361	-0.003
Mof_H 	H 	0.2682	0.7869	0.9947	0.286
Mof_H 	H 	0.2998	0.8344	0.8934	0.271
Mof_H 	H 	0.2515	0.865	0.9429	0.292
Mof_H 	H 	0.3229	0.6608	0.2247	0.008
Mof_H 	H 	0.4748	0.8014	0.9164	0.003
Mof_H 	H 	0.3925	0.7843	0.9116	0
Mof_H 	H 	4.15913e-17	0.32922	0.67078	0.188
Mof_H 	H 	5.19892e-17	0.67078	0.32922	0.188
Mof_H 	H 	0.84992	0.46449	0.61457	0.243
Mof_H 	H 	0.67984	0.5384	0.85856	0.235
Mof_H 	H 	0.15008	0.53551	0.38543	0.24
Mof_H 	H 	0.32016	0.4616	0.14144	0.235
Mof_H 	H 	0.92094	0.38543	0.46449	0.246
Mof_H 	H 	0.60304	0.14144	0.5384	0.236
Mof_H 	H 	0.07906	0.61457	0.53551	0.238
Mof_H 	H 	0.39696	0.85856	0.4616	0.235
Mof_C 	C 	0.93973	0.89299	0.65384	0.396
Mof_C 	C 	0.89553	0.90744	0.71232	-0.273
Mof_C 	C 	0.9177	0.89432	0.59062	-0.295
Mof_C 	C 	0.9657	0.88001	0.52658	0.079
Mof_C 	C 	0.80874	0.92283	0.64347	-0.271
Mof_C 	C 	0.85144	0.90728	0.58565	0.357
Mof_C 	C 	0.83037	0.92352	0.70666	0.352
Mof_C 	C 	0.87291	0.71774	0.63751	0.1
Mof_C 	C 	0.94441	0.0098	0.8246	0.114
Mof_C 	C 	0.82287	0.90059	0.52174	-0.86
Mof_C 	C 	0.91608	0.90241	0.78389	0.054
Mof_C 	C 	0.72429	0.07889	0.59277	0.11
Mof_C 	C 	0.00841	0.87284	0.66326	-0.975
Mof_C 	C 	0.03414	0.12214	0.69957	0.079
Mof_C 	C 	0.92005	0.67341	0.56634	0.099
Mof_C 	C 	0.78246	0.94022	0.76993	-0.848
Mof_C 	C 	0.83986	0.17068	0.49552	0.092
Mof_C 	C 	0.73908	0.94063	0.63729	0.065
Mof_C 	C 	0.06027	0.40643	0.04674	0.261
Mof_C 	C 	0.10447	0.39216	0.98809	-0.204
Mof_C 	C 	0.0823	0.49167	0.02338	-0.22
Mof_C 	C 	0.0343	0.50772	0.08569	-0.019
Mof_C 	C 	0.19126	0.54779	0.88591	-0.237
Mof_C 	C 	0.14856	0.56291	0.94416	0.312
Mof_C 	C 	0.16963	0.46297	0.90685	0.309
Mof_C 	C 	0.12709	0.48958	0.15517	0.094
Mof_C 	C 	0.05559	0.23099	0.93461	0.088
Mof_C 	C 	0.17713	0.65539	0.92228	-0.811
Mof_C 	C 	0.08392	0.30003	0.01367	0.006
Mof_C 	C 	0.27571	0.68294	0.6454	0.108
Mof_C 	C 	0.99159	0.32833	0.13557	-0.685
Mof_C 	C 	0.96586	0.2663	0.912	0.111
Mof_C 	C 	0.07995	0.51361	0.24664	0.097
Mof_C 	C 	0.21754	0.4476	0.84225	-0.807
Mof_C 	C 	0.16014	0.66462	0.66918	0.09
Mof_C 	C 	0.26092	0.62362	0.79845	0.049
Mof_C 	C 	0.45317	0.34616	0.59357	0.353
Mof_C 	C 	0.38025	0.28769	0.60784	-0.254
Mof_C 	C 	0.51506	0.40938	0.50832	-0.269
Mof_C 	C 	0.59341	0.47342	0.49228	0.045
Mof_C 	C 	0.4337	0.35653	0.45221	-0.26
Mof_C 	C 	0.50707	0.41435	0.43709	0.341
Mof_C 	C 	0.36982	0.29334	0.53703	0.34
Mof_C 	C 	0.64475	0.36249	0.51042	0.098
Mof_C 	C 	0.1656	0.1754	0.76901	0.092
Mof_C 	C 	0.57768	0.47827	0.3446	-0.844
Mof_C 	C 	0.31369	0.2161	0.69998	0.041
Mof_C 	C 	0.32834	0.40723	0.31706	0.109
Mof_C 	C 	0.4639	0.33674	0.67167	-0.881
Mof_C 	C 	0.1783	0.30044	0.7337	0.097
Mof_C 	C 	0.76026	0.43367	0.48638	0.098
Mof_C 	C 	0.28985	0.23006	0.55239	-0.838
Mof_C 	C 	0.3338	0.50448	0.33538	0.09
Mof_C 	C 	0.42207	0.3627	0.37638	0.062
Mof_C 	C 	0.54683	0.95326	0.10701	0.349
Mof_C 	C 	0.61975	0.0119	0.09256	-0.248
Mof_C 	C 	0.48494	0.97662	0.10569	-0.268
Mof_C 	C 	0.40659	0.91431	0.11999	0.044
Mof_C 	C 	0.5663	0.11409	0.07717	-0.26
Mof_C 	C 	0.49293	0.05584	0.09272	0.341
Mof_C 	C 	0.63018	0.09315	0.07648	0.339
Mof_C 	C 	0.35525	0.84483	0.28226	0.098
Mof_C 	C 	0.8344	0.06539	0.9902	0.085
Mof_C 	C 	0.42232	0.07771	0.09942	-0.842
Mof_C 	C 	0.68631	0.98634	0.09758	0.033
Mof_C 	C 	0.67166	0.3546	0.92111	0.109
Mof_C 	C 	0.5361	0.86443	0.12716	-0.876
Mof_C 	C 	0.8217	0.08799	0.87786	0.097
Mof_C 	C 	0.23974	0.75335	0.3266	0.098
Mof_C 	C 	0.71015	0.15776	0.05979	-0.839
Mof_C 	C 	0.6662	0.33082	0.82932	0.09
Mof_C 	C 	0.57792	0.20155	0.05938	0.063
Mof_C 	C 	0.06027	0.10701	0.34616	0.268
Mof_C 	C 	0.10447	0.09256	0.28768	-0.215
Mof_C 	C 	0.0823	0.10568	0.40938	-0.217
Mof_C 	C 	0.0343	0.11999	0.47342	-0.02
Mof_C 	C 	0.19126	0.07717	0.35653	-0.236
Mof_C 	C 	0.14856	0.09272	0.41435	0.306
Mof_C 	C 	0.16963	0.07648	0.29334	0.311
Mof_C 	C 	0.12709	0.28226	0.36249	0.094
Mof_C 	C 	0.05559	0.9902	0.1754	0.098
Mof_C 	C 	0.17713	0.09941	0.47826	-0.804
Mof_C 	C 	0.08392	0.09759	0.21611	0.02
Mof_C 	C 	0.27571	0.92111	0.40723	0.108
Mof_C 	C 	0.99159	0.12716	0.33674	-0.693
Mof_C 	C 	0.96586	0.87786	0.30043	0.111
Mof_C 	C 	0.07995	0.32659	0.43366	0.097
Mof_C 	C 	0.21754	0.05978	0.23007	-0.808
Mof_C 	C 	0.16014	0.82932	0.50448	0.09
Mof_C 	C 	0.26092	0.05937	0.36271	0.047
Mof_C 	C 	0.93973	0.59357	0.95326	0.389
Mof_C 	C 	0.89553	0.60784	0.01191	-0.261
Mof_C 	C 	0.9177	0.50833	0.97662	-0.298
Mof_C 	C 	0.9657	0.49228	0.91431	0.081
Mof_C 	C 	0.80874	0.45221	0.11409	-0.273
Mof_C 	C 	0.85144	0.43709	0.05584	0.365
Mof_C 	C 	0.83037	0.53703	0.09315	0.351
Mof_C 	C 	0.87291	0.51042	0.84483	0.1
Mof_C 	C 	0.94441	0.76901	0.06539	0.095
Mof_C 	C 	0.82287	0.34461	0.07772	-0.871
Mof_C 	C 	0.91608	0.69997	0.98633	0.038
Mof_C 	C 	0.72429	0.31706	0.3546	0.11
Mof_C 	C 	0.00841	0.67167	0.86443	-0.968
Mof_C 	C 	0.03414	0.7337	0.088	0.079
Mof_C 	C 	0.92005	0.48639	0.75336	0.099
Mof_C 	C 	0.78246	0.5524	0.15775	-0.85
Mof_C 	C 	0.83986	0.33538	0.33082	0.091
Mof_C 	C 	0.73908	0.37638	0.20155	0.069
Mof_C 	C 	0.54683	0.65384	0.40643	0.353
Mof_C 	C 	0.61975	0.71231	0.39216	-0.254
Mof_C 	C 	0.48494	0.59062	0.49168	-0.27
Mof_C 	C 	0.40659	0.52658	0.50772	0.045
Mof_C 	C 	0.5663	0.64347	0.54779	-0.261
Mof_C 	C 	0.49293	0.58565	0.56291	0.341
Mof_C 	C 	0.63018	0.70666	0.46297	0.34
Mof_C 	C 	0.35525	0.63751	0.48958	0.098
Mof_C 	C 	0.8344	0.8246	0.23099	0.093
Mof_C 	C 	0.42232	0.52173	0.6554	-0.844
Mof_C 	C 	0.68631	0.7839	0.30002	0.041
Mof_C 	C 	0.67166	0.59277	0.68294	0.109
Mof_C 	C 	0.5361	0.66326	0.32833	-0.881
Mof_C 	C 	0.8217	0.69956	0.2663	0.097
Mof_C 	C 	0.23974	0.56633	0.51362	0.098
Mof_C 	C 	0.71015	0.76994	0.44761	-0.838
Mof_C 	C 	0.6662	0.49552	0.66462	0.09
Mof_C 	C 	0.57792	0.63729	0.62363	0.062
Mof_C 	C 	0.45317	0.04674	0.89299	0.352
Mof_C 	C 	0.38025	0.9881	0.90744	-0.254
Mof_C 	C 	0.51506	0.02338	0.89431	-0.266
Mof_C 	C 	0.59341	0.08569	0.88001	0.044
Mof_C 	C 	0.4337	0.88591	0.92283	-0.259
Mof_C 	C 	0.50707	0.94416	0.90728	0.337
Mof_C 	C 	0.36982	0.90685	0.92352	0.339
Mof_C 	C 	0.64475	0.15517	0.71774	0.098
Mof_C 	C 	0.1656	0.93461	0.0098	0.084
Mof_C 	C 	0.57768	0.92229	0.90058	-0.837
Mof_C 	C 	0.31369	0.01366	0.90242	0.039
Mof_C 	C 	0.32834	0.6454	0.07889	0.109
Mof_C 	C 	0.4639	0.13557	0.87284	-0.88
Mof_C 	C 	0.1783	0.91201	0.12213	0.097
Mof_C 	C 	0.76026	0.24665	0.6734	0.098
Mof_C 	C 	0.28985	0.84224	0.94021	-0.84
Mof_C 	C 	0.3338	0.66918	0.17068	0.09
Mof_C 	C 	0.42207	0.79844	0.94063	0.062
Mof_N 	N 	0.9318	0.78588	0.56212	-0.112
Mof_N 	N 	0.86223	0.64508	0.64286	-0.229
Mof_N 	N 	0.95481	0.98872	0.76799	-0.104
Mof_N 	N 	0.99324	0.09389	0.78481	-0.219
Mof_N 	N 	0.76399	0.03573	0.5874	-0.117
Mof_N 	N 	0.76644	0.16216	0.53666	-0.234
Mof_N 	N 	0.01331	0.05993	0.68662	-0.1
Mof_N 	N 	0.96602	0.76008	0.51424	-0.091
Mof_N 	N 	0.84115	0.09541	0.52194	-0.101
Mof_N 	N 	0.0682	0.50608	0.14591	-0.101
Mof_N 	N 	0.13777	0.49491	0.21715	-0.229
Mof_N 	N 	0.04519	0.27719	0.96609	-0.1
Mof_N 	N 	0.00676	0.22195	0.89935	-0.237
Mof_N 	N 	0.23601	0.6486	0.72826	-0.116
Mof_N 	N 	0.23356	0.6969	0.60428	-0.235
Mof_N 	N 	0.98669	0.30007	0.95338	-0.093
Mof_N 	N 	0.03398	0.51975	0.20594	-0.099
Mof_N 	N 	0.15885	0.63691	0.74574	-0.105
Mof_N 	N 	0.65199	0.43788	0.49393	-0.108
Mof_N 	N 	0.71206	0.35714	0.50509	-0.229
Mof_N 	N 	0.24328	0.232	0.72281	-0.101
Mof_N 	N 	0.1213	0.21519	0.77805	-0.23
Mof_N 	N 	0.37686	0.41259	0.3514	-0.118
Mof_N 	N 	0.30118	0.46334	0.3031	-0.235
Mof_N 	N 	0.25345	0.31338	0.69993	-0.097
Mof_N 	N 	0.72568	0.48576	0.48026	-0.093
Mof_N 	N 	0.38265	0.47806	0.36309	-0.104
Mof_N 	N 	0.348	0.85408	0.21412	-0.108
Mof_N 	N 	0.28794	0.78285	0.35492	-0.229
Mof_N 	N 	0.75672	0.03392	0.01127	-0.096
Mof_N 	N 	0.8787	0.10065	0.90611	-0.224
Mof_N 	N 	0.62314	0.27175	0.96427	-0.118
Mof_N 	N 	0.69882	0.39572	0.83784	-0.235
Mof_N 	N 	0.74655	0.04662	0.94007	-0.097
Mof_N 	N 	0.27432	0.79406	0.23991	-0.094
Mof_N 	N 	0.61735	0.25426	0.90459	-0.104
Mof_N 	N 	0.0682	0.21412	0.43788	-0.101
Mof_N 	N 	0.13777	0.35492	0.35714	-0.229
Mof_N 	N 	0.04519	0.01128	0.23201	-0.107
Mof_N 	N 	0.00676	0.90611	0.21519	-0.239
Mof_N 	N 	0.23601	0.96427	0.4126	-0.116
Mof_N 	N 	0.23356	0.83784	0.46334	-0.235
Mof_N 	N 	0.98669	0.94007	0.31338	-0.092
Mof_N 	N 	0.03398	0.23992	0.48576	-0.098
Mof_N 	N 	0.15885	0.90459	0.47806	-0.105
Mof_N 	N 	0.9318	0.49392	0.85409	-0.112
Mof_N 	N 	0.86223	0.50509	0.78285	-0.23
Mof_N 	N 	0.95481	0.7228	0.03391	-0.093
Mof_N 	N 	0.99324	0.77805	0.10065	-0.217
Mof_N 	N 	0.76399	0.3514	0.27174	-0.119
Mof_N 	N 	0.76644	0.3031	0.39572	-0.235
Mof_N 	N 	0.01331	0.69993	0.04662	-0.103
Mof_N 	N 	0.96602	0.48025	0.79406	-0.091
Mof_N 	N 	0.84115	0.36309	0.25426	-0.101
Mof_N 	N 	0.348	0.56211	0.50608	-0.108
Mof_N 	N 	0.28794	0.64286	0.49491	-0.229
Mof_N 	N 	0.75672	0.768	0.27719	-0.101
Mof_N 	N 	0.8787	0.78481	0.22195	-0.226
Mof_N 	N 	0.62314	0.58741	0.6486	-0.118
Mof_N 	N 	0.69882	0.53666	0.6969	-0.235
Mof_N 	N 	0.74655	0.68662	0.30007	-0.096
Mof_N 	N 	0.27432	0.51424	0.51974	-0.094
Mof_N 	N 	0.61735	0.52194	0.63691	-0.104
Mof_N 	N 	0.65199	0.14591	0.78589	-0.108
Mof_N 	N 	0.71206	0.21715	0.64508	-0.229
Mof_N 	N 	0.24328	0.96608	0.98872	-0.097
Mof_N 	N 	0.1213	0.89935	0.09389	-0.229
Mof_N 	N 	0.37686	0.72825	0.03573	-0.118
Mof_N 	N 	0.30118	0.60428	0.16216	-0.235
Mof_N 	N 	0.25345	0.95338	0.05993	-0.097
Mof_N 	N 	0.72568	0.20594	0.76009	-0.093
Mof_N 	N 	0.38265	0.74574	0.09541	-0.104
Mof_O 	O 	2.07957e-17	0.28439	0.71561	-0.373
Mof_O 	O 	2.07957e-17	0.71561	0.28439	-0.373
Mof_O 	O 	0.72897	0.5638	0.83483	-0.439
Mof_O 	O 	0.81758	0.46735	0.64977	-0.428
Mof_O 	O 	0.27103	0.4362	0.16517	-0.438
Mof_O 	O 	0.18242	0.53265	0.35023	-0.428
Mof_O 	O 	0.60138	0.16518	0.56379	-0.439
Mof_O 	O 	0.88288	0.35023	0.46735	-0.426
Mof_O 	O 	0.39862	0.83482	0.43621	-0.439
Mof_O 	O 	0.11712	0.64977	0.53265	-0.429
Mof_N 	N 	0.76793	0.82759	0.05966	0.064
Mof_O 	O 	0.69871	0.80272	0.10401	-0.165
Mof_O 	O 	0.82475	0.88061	0.05586	-0.134
Mof_O 	O 	0.79343	0.80512	0.01169	-0.144
Mof_N 	N 	0.23207	0.17241	0.94034	0.064
Mof_O 	O 	0.30129	0.19728	0.89599	-0.165
Mof_O 	O 	0.17525	0.11939	0.94414	-0.136
Mof_O 	O 	0.20657	0.19488	0.98831	-0.145
Mof_N 	N 	0.11275	0.94034	0.82759	0.065
Mof_O 	O 	0.09327	0.89599	0.80272	-0.17
Mof_O 	O 	0.06353	0.94414	0.88061	-0.14
Mof_O 	O 	0.18319	0.98831	0.80512	-0.146
Mof_N 	N 	0.88725	0.05966	0.17241	0.062
Mof_O 	O 	0.90673	0.10401	0.19728	-0.154
Mof_O 	O 	0.93647	0.05586	0.11939	-0.125
Mof_O 	O 	0.81681	0.01169	0.19488	-0.143
_end
