# CIF file generated by openbabel 3.1.0, see https://openbabel.org
data_I
_chemical_name_common 'image0'
_cell_length_a 16.679
_cell_length_b 16.679
_cell_length_c 19.05
_cell_angle_alpha 90
_cell_angle_beta 90
_cell_angle_gamma 120
_space_group_name_H-M_alt 'P 1'
_space_group_name_Hall 'P 1'
loop_
    _symmetry_equiv_pos_as_xyz
    x,y,z
loop_
    _atom_site_label
    _atom_site_type_symbol
    _atom_site_fract_x
    _atom_site_fract_y
    _atom_site_fract_z
    _atom_site_occupancy
    O1       O        0.48370    0.65170    0.72140    1.000
    N1       N        0.55100    0.36530    0.37570    1.000
    C1       C        0.50460    0.36690    0.43120    1.000
    H1       H        0.44480    0.31860    0.44430    1.000
    C2       C        0.66260    0.76150    0.80900    1.000
    H2       H        0.62910    0.69580    0.81070    1.000
    C3       C        0.75770    0.80680    0.81030    1.000
    H3       H        0.78930    0.77260    0.80990    1.000
    C4       C        0.43920    0.41980    0.55530    1.000
    H4       H        0.39890    0.36110    0.53490    1.000
    C5       C        0.41150    0.45180    0.61260    1.000
    H5       H        0.35210    0.41260    0.63240    1.000
    O2       O        0.34830    0.83200    0.72140    1.000
    N2       N        0.63470    0.18570    0.37570    1.000
    C6       C        0.63310    0.13770    0.43120    1.000
    H6       H        0.68140    0.12620    0.44430    1.000
    C7       C        0.23850    0.90110    0.80900    1.000
    H7       H        0.30420    0.93330    0.81070    1.000
    C8       C        0.19320    0.95090    0.81030    1.000
    H8       H        0.22740    0.01670    0.80990    1.000
    C9       C        0.58020    0.01940    0.55530    1.000
    H9       H        0.63890    0.03780    0.53490    1.000
    C10      C        0.54820    0.95970    0.61260    1.000
    H10      H        0.58740    0.93950    0.63240    1.000
    O3       O        0.16800    0.51630    0.72140    1.000
    N3       N        0.81430    0.44900    0.37570    1.000
    C11      C        0.86230    0.49540    0.43120    1.000
    H11      H        0.87380    0.55520    0.44430    1.000
    C12      C        0.09890    0.33740    0.80900    1.000
    H12      H        0.06670    0.37090    0.81070    1.000
    C13      C        0.04910    0.24230    0.81030    1.000
    H13      H        0.98330    0.21070    0.80990    1.000
    C14      C        0.98060    0.56080    0.55530    1.000
    H14      H        0.96220    0.60110    0.53490    1.000
    C15      C        0.04030    0.58850    0.61260    1.000
    H15      H        0.06050    0.64790    0.63240    1.000
    O4       O        0.51630    0.34830    0.22140    1.000
    N4       N        0.44900    0.63470    0.87570    1.000
    C16      C        0.49540    0.63310    0.93120    1.000
    H16      H        0.55520    0.68140    0.94430    1.000
    C17      C        0.33740    0.23850    0.30900    1.000
    H17      H        0.37090    0.30420    0.31070    1.000
    C18      C        0.24230    0.19320    0.31030    1.000
    H18      H        0.21070    0.22740    0.30990    1.000
    C19      C        0.56080    0.58020    0.05530    1.000
    H19      H        0.60110    0.63890    0.03490    1.000
    C20      C        0.58850    0.54820    0.11260    1.000
    H20      H        0.64790    0.58740    0.13240    1.000
    O5       O        0.65170    0.16800    0.22140    1.000
    N5       N        0.36530    0.81430    0.87570    1.000
    C21      C        0.36690    0.86230    0.93120    1.000
    H21      H        0.31860    0.87380    0.94430    1.000
    C22      C        0.76150    0.09890    0.30900    1.000
    H22      H        0.69580    0.06670    0.31070    1.000
    C23      C        0.80680    0.04910    0.31030    1.000
    H23      H        0.77260    0.98330    0.30990    1.000
    C24      C        0.41980    0.98060    0.05530    1.000
    H24      H        0.36110    0.96220    0.03490    1.000
    C25      C        0.45180    0.04030    0.11260    1.000
    H25      H        0.41260    0.06050    0.13240    1.000
    O6       O        0.83200    0.48370    0.22140    1.000
    N6       N        0.18570    0.55100    0.87570    1.000
    C26      C        0.13770    0.50460    0.93120    1.000
    H26      H        0.12620    0.44480    0.94430    1.000
    C27      C        0.90110    0.66260    0.30900    1.000
    H27      H        0.93330    0.62910    0.31070    1.000
    C28      C        0.95090    0.75770    0.31030    1.000
    H28      H        0.01670    0.78930    0.30990    1.000
    C29      C        0.01940    0.43920    0.05530    1.000
    H29      H        0.03780    0.39890    0.03490    1.000
    C30      C        0.95970    0.41150    0.11260    1.000
    H30      H        0.93950    0.35210    0.13240    1.000
    O7       O        0.34830    0.51630    0.72140    1.000
    N7       N        0.63470    0.44900    0.37570    1.000
    C31      C        0.63310    0.49540    0.43120    1.000
    H31      H        0.68140    0.55520    0.44430    1.000
    C32      C        0.23850    0.33740    0.80900    1.000
    H32      H        0.30420    0.37090    0.81070    1.000
    C33      C        0.19320    0.24230    0.81030    1.000
    H33      H        0.22740    0.21070    0.80990    1.000
    C34      C        0.58020    0.56080    0.55530    1.000
    H34      H        0.63890    0.60110    0.53490    1.000
    C35      C        0.54820    0.58850    0.61260    1.000
    H35      H        0.58740    0.64790    0.63240    1.000
    O8       O        0.16800    0.65170    0.72140    1.000
    N8       N        0.81430    0.36530    0.37570    1.000
    C36      C        0.86230    0.36690    0.43120    1.000
    H36      H        0.87380    0.31860    0.44430    1.000
    C37      C        0.09890    0.76150    0.80900    1.000
    H37      H        0.06670    0.69580    0.81070    1.000
    C38      C        0.04910    0.80680    0.81030    1.000
    H38      H        0.98330    0.77260    0.80990    1.000
    C39      C        0.98060    0.41980    0.55530    1.000
    H39      H        0.96220    0.36110    0.53490    1.000
    C40      C        0.04030    0.45180    0.61260    1.000
    H40      H        0.06050    0.41260    0.63240    1.000
    O9       O        0.48370    0.83200    0.72140    1.000
    N9       N        0.55100    0.18570    0.37570    1.000
    C41      C        0.50460    0.13770    0.43120    1.000
    H41      H        0.44480    0.12620    0.44430    1.000
    C42      C        0.66260    0.90110    0.80900    1.000
    H42      H        0.62910    0.93330    0.81070    1.000
    C43      C        0.75770    0.95090    0.81030    1.000
    H43      H        0.78930    0.01670    0.80990    1.000
    C44      C        0.43920    0.01940    0.55530    1.000
    H44      H        0.39890    0.03780    0.53490    1.000
    C45      C        0.41150    0.95970    0.61260    1.000
    H45      H        0.35210    0.93950    0.63240    1.000
    O10      O        0.65170    0.48370    0.22140    1.000
    N10      N        0.36530    0.55100    0.87570    1.000
    C46      C        0.36690    0.50460    0.93120    1.000
    H46      H        0.31860    0.44480    0.94430    1.000
    C47      C        0.76150    0.66260    0.30900    1.000
    H47      H        0.69580    0.62910    0.31070    1.000
    C48      C        0.80680    0.75770    0.31030    1.000
    H48      H        0.77260    0.78930    0.30990    1.000
    C49      C        0.41980    0.43920    0.05530    1.000
    H49      H        0.36110    0.39890    0.03490    1.000
    C50      C        0.45180    0.41150    0.11260    1.000
    H50      H        0.41260    0.35210    0.13240    1.000
    O11      O        0.83200    0.34830    0.22140    1.000
    N11      N        0.18570    0.63470    0.87570    1.000
    C51      C        0.13770    0.63310    0.93120    1.000
    H51      H        0.12620    0.68140    0.94430    1.000
    C52      C        0.90110    0.23850    0.30900    1.000
    H52      H        0.93330    0.30420    0.31070    1.000
    C53      C        0.95090    0.19320    0.31030    1.000
    H53      H        0.01670    0.22740    0.30990    1.000
    C54      C        0.01940    0.58020    0.05530    1.000
    H54      H        0.03780    0.63890    0.03490    1.000
    C55      C        0.95970    0.54820    0.11260    1.000
    H55      H        0.93950    0.58740    0.13240    1.000
    O12      O        0.51630    0.16800    0.22140    1.000
    N12      N        0.44900    0.81430    0.87570    1.000
    C56      C        0.49540    0.86230    0.93120    1.000
    H56      H        0.55520    0.87380    0.94430    1.000
    C57      C        0.33740    0.09890    0.30900    1.000
    H57      H        0.37090    0.06670    0.31070    1.000
    C58      C        0.24230    0.04910    0.31030    1.000
    H58      H        0.21070    0.98330    0.30990    1.000
    C59      C        0.56080    0.98060    0.05530    1.000
    H59      H        0.60110    0.96220    0.03490    1.000
    C60      C        0.58850    0.04030    0.11260    1.000
    H60      H        0.64790    0.06050    0.13240    1.000
    Co1      Co       0.47093    0.73547    0.79685    1.000
    N13      N        0.61550    0.80775    0.80510    1.000
    C61      C        0.80790    0.90395    0.81230    1.000
    C62      C        0.91110    0.95555    0.81310    1.000
    Co2      Co       0.26453    0.73547    0.79685    1.000
    N14      N        0.19225    0.80775    0.80510    1.000
    C63      C        0.09605    0.90395    0.81230    1.000
    C64      C        0.04445    0.95555    0.81310    1.000
    Co3      Co       0.26453    0.52907    0.79685    1.000
    N15      N        0.19225    0.38450    0.80510    1.000
    C65      C        0.09605    0.19210    0.81230    1.000
    C66      C        0.04445    0.08890    0.81310    1.000
    Co4      Co       0.52907    0.26453    0.29685    1.000
    N16      N        0.38450    0.19225    0.30510    1.000
    C67      C        0.19210    0.09605    0.31230    1.000
    C68      C        0.08890    0.04445    0.31310    1.000
    Co5      Co       0.73547    0.26453    0.29685    1.000
    N17      N        0.80775    0.19225    0.30510    1.000
    C69      C        0.90395    0.09605    0.31230    1.000
    C70      C        0.95555    0.04445    0.31310    1.000
    Co6      Co       0.73547    0.47093    0.29685    1.000
    N18      N        0.80775    0.61550    0.30510    1.000
    C71      C        0.90395    0.80790    0.31230    1.000
    C72      C        0.95555    0.91110    0.31310    1.000
    O13      O        0.33333    0.66667    0.77660    1.000
    O14      O        0.66667    0.33333    0.27660    1.000
    C73      C        0.42930    0.57070    0.69950    1.000
    N19      N        0.55370    0.44630    0.46640    1.000
    C74      C        0.46480    0.53520    0.64110    1.000
    C75      C        0.52520    0.47480    0.52960    1.000
    C76      C        0.42930    0.85860    0.69950    1.000
    N20      N        0.55370    0.10740    0.46640    1.000
    C77      C        0.46480    0.92960    0.64110    1.000
    C78      C        0.52520    0.05040    0.52960    1.000
    C79      C        0.14140    0.57070    0.69950    1.000
    N21      N        0.89260    0.44630    0.46640    1.000
    C80      C        0.07040    0.53520    0.64110    1.000
    C81      C        0.94960    0.47480    0.52960    1.000
    C82      C        0.57070    0.42930    0.19950    1.000
    N22      N        0.44630    0.55370    0.96640    1.000
    C83      C        0.53520    0.46480    0.14110    1.000
    C84      C        0.47480    0.52520    0.02960    1.000
    C85      C        0.57070    0.14140    0.19950    1.000
    N23      N        0.44630    0.89260    0.96640    1.000
    C86      C        0.53520    0.07040    0.14110    1.000
    C87      C        0.47480    0.94960    0.02960    1.000
    C88      C        0.85860    0.42930    0.19950    1.000
    N24      N        0.10740    0.55370    0.96640    1.000
    C89      C        0.92960    0.46480    0.14110    1.000
    C90      C        0.05040    0.52520    0.02960    1.000
    N25      N        0.95215    0.90430    0.81430    1.000
    N26      N        0.09570    0.04785    0.81430    1.000
    N27      N        0.95215    0.04785    0.81430    1.000
    N28      N        0.04785    0.09570    0.31430    1.000
    N29      N        0.90430    0.95215    0.31430    1.000
    N30      N        0.04785    0.95215    0.31430    1.000
