data_functionalizedCrystal
_audit_creation_method	'EQeq! by Chris Wilmer'
_symmetry_space_group_name_H-M	'P1'
_symmetry_Int_Tables_number	1
_symmetry_cell_setting	triclinic
loop_
_symmetry_equiv_pos_as_xyz
  x,y,z
_cell_length_a	8.3848
_cell_length_b	17.2343
_cell_length_c	17.2343
_cell_angle_alpha	62.5774
_cell_angle_beta	80.667
_cell_angle_gamma	99.333
loop_
_atom_site_label
_atom_site_type_symbol
_atom_site_fract_x
_atom_site_fract_y
_atom_site_fract_z
_atom_site_charge
Mof_Co	Co	0.34499	0.77937	0.06674	1.175
Mof_Co	Co	0.03645	0.21929	0.93323	1.149
Mof_Co	Co	0.41173	0.06674	0.15389	1.177
Mof_Co	Co	0.96968	0.93323	0.84748	1.16
Mof_Co	Co	0.56562	0.15389	0.77937	1.167
Mof_Co	Co	0.81716	0.84748	0.21929	1.165
Mof_H 	H 	0.7089	0.5201	0.0316	0.208
Mof_H 	H 	0.7547	0.5988	0.1043	0.33
Mof_H 	H 	0.9259	0.6744	0.0563	0.353
Mof_H 	H 	0.9035	0.587	0.1495	0.343
Mof_H 	H 	0.7214	0.3669	0.9717	0.318
Mof_H 	H 	0.7537	0.4599	0.8826	0.314
Mof_H 	H 	0.6212	0.4363	0.9712	0.302
Mof_H 	H 	0.9801	0.3965	0.8912	0.037
Mof_H 	H 	0.1717	0.4253	0.8837	0.034
Mof_H 	H 	0.3539	0.4575	0.9945	0.219
Mof_H 	H 	0.4012	0.5622	0.9591	0.233
Mof_H 	H 	0.3621	0.5262	0.8937	0.233
Mof_H 	H 	0.3044	0.5622	0.0743	0.005
Mof_H 	H 	0.1684	0.5958	0.1136	-0.009
Mof_H 	H 	0.2126	0.7042	0.9064	0.139
Mof_H 	H 	0.3841	0.7792	0.8635	0.131
Mof_H 	H 	0.5413	0.6843	0.9246	0.129
Mof_H 	H 	0.5552	0.6601	0.0228	0.136
Mof_H 	H 	0.8519	0.3111	0.0743	0.138
Mof_H 	H 	0.9323	0.2348	0.13	0.128
Mof_H 	H 	0.2044	0.3143	0.0742	0.113
Mof_H 	H 	0.2983	0.3369	0.9765	0.089
Mof_H 	H 	0.7405	0.0316	0.4483	0.188
Mof_H 	H 	0.859	0.1043	0.2969	0.288
Mof_H 	H 	0.9822	0.0563	0.2693	0.309
Mof_H 	H 	0.053	0.1495	0.2635	0.279
Mof_H 	H 	0.6931	0.9717	0.6614	0.296
Mof_H 	H 	0.6363	0.8826	0.6575	0.292
Mof_H 	H 	0.5924	0.9712	0.5925	0.282
Mof_H 	H 	0.8713	0.8912	0.7123	0.012
Mof_H 	H 	0.0554	0.8837	0.691	0.01
Mof_H 	H 	0.3484	0.9945	0.548	0.207
Mof_H 	H 	0.3603	0.9591	0.4787	0.22
Mof_H 	H 	0.2558	0.8937	0.5801	0.219
Mof_H 	H 	0.3787	0.0743	0.3635	0.015
Mof_H 	H 	0.282	0.1136	0.2906	0.003
Mof_H 	H 	0.119	0.9064	0.3894	0.133
Mof_H 	H 	0.2476	0.8635	0.3573	0.125
Mof_H 	H 	0.4659	0.9246	0.3911	0.129
Mof_H 	H 	0.578	0.0228	0.3171	0.138
Mof_H 	H 	0.9262	0.0743	0.6146	0.124
Mof_H 	H 	0.0623	0.13	0.6352	0.093
Mof_H 	H 	0.2786	0.0742	0.6115	0.114
Mof_H 	H 	0.2748	0.9765	0.6866	0.088
Mof_H 	H 	0.1888	0.4483	0.5201	0.207
Mof_H 	H 	0.1559	0.2969	0.5988	0.314
Mof_H 	H 	0.2515	0.2693	0.6744	0.328
Mof_H 	H 	0.3165	0.2635	0.587	0.327
Mof_H 	H 	0.3545	0.6614	0.3669	0.331
Mof_H 	H 	0.2938	0.6575	0.4599	0.318
Mof_H 	H 	0.1849	0.5925	0.4363	0.31
Mof_H 	H 	0.5836	0.7123	0.3965	0.01
Mof_H 	H 	0.7464	0.691	0.4253	0.02
Mof_H 	H 	0.8964	0.548	0.4575	0.244
Mof_H 	H 	0.839	0.4787	0.5622	0.256
Mof_H 	H 	0.8359	0.5801	0.5262	0.251
Mof_H 	H 	0.7422	0.3635	0.5622	0.007
Mof_H 	H 	0.5726	0.2906	0.5958	0.002
Mof_H 	H 	0.5084	0.3894	0.7042	0.145
Mof_H 	H 	0.6049	0.3573	0.7792	0.13
Mof_H 	H 	0.857	0.3911	0.6843	0.119
Mof_H 	H 	0.8951	0.3171	0.6601	0.112
Mof_H 	H 	0.5408	0.6146	0.3111	0.131
Mof_H 	H 	0.6975	0.6352	0.2348	0.126
Mof_H 	H 	0.8901	0.6115	0.3143	0.118
Mof_H 	H 	0.9614	0.6866	0.3369	0.11
Mof_C 	C 	0.1038	0.5589	0.0269	-0.311
Mof_C 	C 	0.1459	0.5087	0.9848	0.306
Mof_C 	C 	0.0264	0.4633	0.9625	-0.304
Mof_C 	C 	0.8602	0.4721	0.9749	0.478
Mof_C 	C 	0.8199	0.5186	0.0181	-0.556
Mof_C 	C 	0.9357	0.5637	0.0431	0.509
Mof_C 	C 	0.8745	0.6103	0.0927	-1.052
Mof_C 	C 	0.7273	0.43	0.9478	-1.011
Mof_C 	C 	0.06	0.3999	0.9252	-0.049
Mof_C 	C 	0.3336	0.5142	0.9552	-0.74
Mof_C 	C 	0.2288	0.6005	0.058	0.065
Mof_C 	C 	0.2856	0.7475	0.9152	-0.359
Mof_C 	C 	0.1951	0.8149	0.9184	0.414
Mof_C 	C 	0.6261	0.8006	0.9332	0.415
Mof_C 	C 	0.5223	0.7015	0.9709	-0.378
Mof_C 	C 	0.8995	0.2635	0.0741	-0.325
Mof_C 	C 	0.7628	0.1934	0.0748	0.389
Mof_C 	C 	0.2142	0.1968	0.0677	0.388
Mof_C 	C 	0.2025	0.2965	0.0285	-0.29
Mof_C 	C 	0.1307	0.0269	0.4142	-0.27
Mof_C 	C 	0.1307	0.9848	0.5065	0.262
Mof_C 	C 	0.9889	0.9625	0.5742	-0.255
Mof_C 	C 	0.8351	0.9749	0.553	0.417
Mof_C 	C 	0.838	0.0181	0.4633	-0.493
Mof_C 	C 	0.9788	0.0431	0.3932	0.444
Mof_C 	C 	0.9672	0.0927	0.297	-0.901
Mof_C 	C 	0.6751	0.9478	0.6222	-0.941
Mof_C 	C 	0.9852	0.9252	0.6749	0.009
Mof_C 	C 	0.2888	0.9552	0.5306	-0.698
Mof_C 	C 	0.2868	0.058	0.3415	0.039
Mof_C 	C 	0.2008	0.9152	0.3373	-0.346
Mof_C 	C 	0.1135	0.9184	0.2667	0.39
Mof_C 	C 	0.5593	0.9332	0.2662	0.415
Mof_C 	C 	0.4932	0.9709	0.3276	-0.38
Mof_C 	C 	0.9736	0.0741	0.6624	-0.277
Mof_C 	C 	0.8376	0.0748	0.7318	0.378
Mof_C 	C 	0.2819	0.0677	0.7355	0.39
Mof_C 	C 	0.231	0.0285	0.675	-0.287
Mof_C 	C 	0.5449	0.4142	0.5589	-0.317
Mof_C 	C 	0.6372	0.5065	0.5087	0.345
Mof_C 	C 	0.5631	0.5742	0.4633	-0.315
Mof_C 	C 	0.3881	0.553	0.4721	0.505
Mof_C 	C 	0.3013	0.4633	0.5186	-0.589
Mof_C 	C 	0.372	0.3932	0.5637	0.487
Mof_C 	C 	0.2642	0.297	0.6103	-1.017
Mof_C 	C 	0.2973	0.6222	0.43	-1.039
Mof_C 	C 	0.6601	0.6749	0.3999	0.01
Mof_C 	C 	0.8194	0.5306	0.5142	-0.79
Mof_C 	C 	0.6283	0.3415	0.6005	0.046
Mof_C 	C 	0.5381	0.3373	0.7475	-0.357
Mof_C 	C 	0.3802	0.2667	0.8149	0.416
Mof_C 	C 	0.8255	0.2662	0.8006	0.403
Mof_C 	C 	0.8208	0.3276	0.7015	-0.331
Mof_C 	C 	0.636	0.6624	0.2635	-0.342
Mof_C 	C 	0.5694	0.7318	0.1934	0.39
Mof_C 	C 	0.0174	0.7355	0.1968	0.357
Mof_C 	C 	0.906	0.675	0.2965	-0.305
Mof_N 	N 	0.338	0.6976	0.9988	-0.129
Mof_N 	N 	0.0461	0.3045	0.0005	-0.099
Mof_N 	N 	0.3368	0.9988	0.3036	-0.127
Mof_N 	N 	0.0466	0.0005	0.695	-0.116
Mof_N 	N 	0.6404	0.3036	0.6976	-0.122
Mof_N 	N 	0.7416	0.695	0.3045	-0.102
Mof_O 	O 	0.2159	0.8427	0.9717	-0.483
Mof_O 	O 	0.1149	0.844	0.8593	-0.457
Mof_O 	O 	0.5754	0.8431	0.9682	-0.475
Mof_O 	O 	0.7687	0.8233	0.8785	-0.442
Mof_O 	O 	0.8011	0.1622	0.022	-0.43
Mof_O 	O 	0.6299	0.1618	0.1359	-0.43
Mof_O 	O 	0.1532	0.1535	0.0346	-0.445
Mof_O 	O 	0.3045	0.1723	0.123	-0.444
Mof_O 	O 	0.1876	0.9717	0.1856	-0.47
Mof_O 	O 	0.9742	0.8593	0.2967	-0.429
Mof_O 	O 	0.5436	0.9682	0.1887	-0.468
Mof_O 	O 	0.6472	0.8785	0.2982	-0.441
Mof_O 	O 	0.8231	0.022	0.8158	-0.436
Mof_O 	O 	0.7658	0.1359	0.7023	-0.428
Mof_O 	O 	0.1878	0.0346	0.8119	-0.453
Mof_O 	O 	0.4275	0.123	0.7047	-0.446
Mof_O 	O 	0.3732	0.1856	0.8427	-0.468
Mof_O 	O 	0.2709	0.2967	0.844	-0.452
Mof_O 	O 	0.7323	0.1887	0.8431	-0.458
Mof_O 	O 	0.9454	0.2982	0.8233	-0.429
Mof_O 	O 	0.6389	0.8158	0.1622	-0.45
Mof_O 	O 	0.4681	0.7023	0.1618	-0.436
Mof_O 	O 	0.9997	0.8119	0.1535	-0.428
Mof_O 	O 	0.1322	0.7047	0.1723	-0.445
_end
