# CIF file generated by openbabel 3.1.0, see https://openbabel.org
data_I
_chemical_name_common 'image0'
_cell_length_a 11.755
_cell_length_b 11.755
_cell_length_c 11.752
_cell_angle_alpha 90
_cell_angle_beta 90
_cell_angle_gamma 120
_space_group_name_H-M_alt 'P 1'
_space_group_name_Hall 'P 1'
loop_
    _symmetry_equiv_pos_as_xyz
    x,y,z
loop_
    _atom_site_label
    _atom_site_type_symbol
    _atom_site_fract_x
    _atom_site_fract_y
    _atom_site_fract_z
    _atom_site_occupancy
    O1       O        0.49860    0.64120    0.04330    1.000
    O2       O        0.50700    0.57260    0.86870    1.000
    C1       C        0.50260    0.56210    0.97480    1.000
    O3       O        0.35880    0.85740    0.04330    1.000
    O4       O        0.42740    0.93440    0.86870    1.000
    C2       C        0.43790    0.94050    0.97480    1.000
    O5       O        0.14260    0.50140    0.04330    1.000
    O6       O        0.06560    0.49300    0.86870    1.000
    C3       C        0.05950    0.49740    0.97480    1.000
    O7       O        0.50140    0.35880    0.54330    1.000
    O8       O        0.49300    0.42740    0.36870    1.000
    C4       C        0.49740    0.43790    0.47480    1.000
    O9       O        0.64120    0.14260    0.54330    1.000
    O10      O        0.57260    0.06560    0.36870    1.000
    C5       C        0.56210    0.05950    0.47480    1.000
    O11      O        0.85740    0.49860    0.54330    1.000
    O12      O        0.93440    0.50700    0.36870    1.000
    C6       C        0.94050    0.50260    0.47480    1.000
    O13      O        0.50140    0.35880    0.95670    1.000
    O14      O        0.49300    0.42740    0.13130    1.000
    C7       C        0.49740    0.43790    0.02520    1.000
    O15      O        0.64120    0.14260    0.95670    1.000
    O16      O        0.57260    0.06560    0.13130    1.000
    C8       C        0.56210    0.05950    0.02520    1.000
    O17      O        0.85740    0.49860    0.95670    1.000
    O18      O        0.93440    0.50700    0.13130    1.000
    C9       C        0.94050    0.50260    0.02520    1.000
    O19      O        0.49860    0.64120    0.45670    1.000
    O20      O        0.50700    0.57260    0.63130    1.000
    C10      C        0.50260    0.56210    0.52520    1.000
    O21      O        0.35880    0.85740    0.45670    1.000
    O22      O        0.42740    0.93440    0.63130    1.000
    C11      C        0.43790    0.94050    0.52520    1.000
    O23      O        0.14260    0.50140    0.45670    1.000
    O24      O        0.06560    0.49300    0.63130    1.000
    C12      C        0.05950    0.49740    0.52520    1.000
    Np1      Np       0.49405    0.60138    0.25000    1.000
    O25      O        0.31030    0.50550    0.25000    1.000
    Np2      Np       0.39862    0.89267    0.25000    1.000
    O26      O        0.49450    0.80480    0.25000    1.000
    Np3      Np       0.10733    0.50595    0.25000    1.000
    O27      O        0.19520    0.68970    0.25000    1.000
    Np4      Np       0.50595    0.39862    0.75000    1.000
    O28      O        0.68970    0.49450    0.75000    1.000
    Np5      Np       0.60138    0.10733    0.75000    1.000
    O29      O        0.50550    0.19520    0.75000    1.000
    Np6      Np       0.89267    0.49405    0.75000    1.000
    O30      O        0.80480    0.31030    0.75000    1.000
    Cs1      Cs       0.66667    0.33333    0.25000    1.000
    Cs2      Cs       0.33333    0.66667    0.75000    1.000
