# CIF file generated by openbabel 3.1.0, see https://openbabel.org
data_I
_chemical_name_common 'LAVTUZ_clean'
_cell_length_a 10.24
_cell_length_b 10.24
_cell_length_c 14.42
_cell_angle_alpha 90
_cell_angle_beta 90
_cell_angle_gamma 90
_space_group_name_H-M_alt 'P 1'
_space_group_name_Hall 'P 1'
loop_
    _symmetry_equiv_pos_as_xyz
    x,y,z
loop_
    _atom_site_label
    _atom_site_type_symbol
    _atom_site_fract_x
    _atom_site_fract_y
    _atom_site_fract_z
    _atom_site_occupancy
    Yb1      Yb       0.35215    0.64785    0.87500    1.000
    Yb2      Yb       0.64785    0.35215    0.37500    1.000
    Yb3      Yb       0.35215    0.35215    0.62500    1.000
    Yb4      Yb       0.64785    0.64785    0.12500    1.000
    H1       H        0.42510    0.05900    0.87090    1.000
    H2       H        0.57490    0.94100    0.37090    1.000
    H3       H        0.94100    0.42510    0.62090    1.000
    H4       H        0.05900    0.57490    0.12090    1.000
    H5       H        0.57490    0.05900    0.12910    1.000
    H6       H        0.42510    0.94100    0.62910    1.000
    H7       H        0.05900    0.42510    0.37910    1.000
    H8       H        0.94100    0.57490    0.87910    1.000
    H9       H        0.50000    0.39890    0.00000    1.000
    H10      H        0.50000    0.60110    0.50000    1.000
    H11      H        0.60110    0.50000    0.75000    1.000
    H12      H        0.39890    0.50000    0.25000    1.000
    C1       C        0.41100    0.31780    0.83900    1.000
    C2       C        0.45540    0.10420    0.92250    1.000
    C3       C        0.45650    0.23980    0.92260    1.000
    C4       C        0.58900    0.68220    0.33900    1.000
    C5       C        0.54460    0.89580    0.42250    1.000
    C6       C        0.54350    0.76020    0.42260    1.000
    C7       C        0.68220    0.41100    0.58900    1.000
    C8       C        0.89580    0.45540    0.67250    1.000
    C9       C        0.76020    0.45650    0.67260    1.000
    C10      C        0.31780    0.58900    0.08900    1.000
    C11      C        0.10420    0.54460    0.17250    1.000
    C12      C        0.23980    0.54350    0.17260    1.000
    C13      C        0.58900    0.31780    0.16100    1.000
    C14      C        0.54460    0.10420    0.07750    1.000
    C15      C        0.54350    0.23980    0.07740    1.000
    C16      C        0.41100    0.68220    0.66100    1.000
    C17      C        0.45540    0.89580    0.57750    1.000
    C18      C        0.45650    0.76020    0.57740    1.000
    C19      C        0.31780    0.41100    0.41100    1.000
    C20      C        0.10420    0.45540    0.32750    1.000
    C21      C        0.23980    0.45650    0.32740    1.000
    C22      C        0.68220    0.58900    0.91100    1.000
    C23      C        0.89580    0.54460    0.82750    1.000
    C24      C        0.76020    0.54350    0.82740    1.000
    C25      C        0.50000    0.88840    0.00000    1.000
    C26      C        0.50000    0.03570    0.00000    1.000
    C27      C        0.50000    0.30810    0.00000    1.000
    C28      C        0.50000    0.11160    0.50000    1.000
    C29      C        0.50000    0.96430    0.50000    1.000
    C30      C        0.50000    0.69190    0.50000    1.000
    C31      C        0.11160    0.50000    0.75000    1.000
    C32      C        0.96430    0.50000    0.75000    1.000
    C33      C        0.69190    0.50000    0.75000    1.000
    C34      C        0.88840    0.50000    0.25000    1.000
    C35      C        0.03570    0.50000    0.25000    1.000
    C36      C        0.30810    0.50000    0.25000    1.000
    O1       O        0.42610    0.83400    0.94140    1.000
    O2       O        0.38760    0.43380    0.85020    1.000
    O3       O        0.40490    0.25980    0.76240    1.000
    O4       O        0.57390    0.16600    0.44140    1.000
    O5       O        0.61240    0.56620    0.35020    1.000
    O6       O        0.59510    0.74020    0.26240    1.000
    O7       O        0.16600    0.42610    0.69140    1.000
    O8       O        0.56620    0.38760    0.60020    1.000
    O9       O        0.74020    0.40490    0.51240    1.000
    O10      O        0.83400    0.57390    0.19140    1.000
    O11      O        0.43380    0.61240    0.10020    1.000
    O12      O        0.25980    0.59510    0.01240    1.000
    O13      O        0.57390    0.83400    0.05860    1.000
    O14      O        0.61240    0.43380    0.14980    1.000
    O15      O        0.59510    0.25980    0.23760    1.000
    O16      O        0.42610    0.16600    0.55860    1.000
    O17      O        0.38760    0.56620    0.64980    1.000
    O18      O        0.40490    0.74020    0.73760    1.000
    O19      O        0.83400    0.42610    0.30860    1.000
    O20      O        0.43380    0.38760    0.39980    1.000
    O21      O        0.25980    0.40490    0.48760    1.000
    O22      O        0.16600    0.57390    0.80860    1.000
    O23      O        0.56620    0.61240    0.89980    1.000
    O24      O        0.74020    0.59510    0.98760    1.000
