data_functionalizedCrystal
_audit_creation_method	'EQeq! by Chris Wilmer'
_symmetry_space_group_name_H-M	'P1'
_symmetry_Int_Tables_number	1
_symmetry_cell_setting	triclinic
loop_
_symmetry_equiv_pos_as_xyz
  x,y,z
_cell_length_a	11.6269
_cell_length_b	11.6269
_cell_length_c	11.6269
_cell_angle_alpha	90
_cell_angle_beta	90
_cell_angle_gamma	90
loop_
_atom_site_label
_atom_site_type_symbol
_atom_site_fract_x
_atom_site_fract_y
_atom_site_fract_z
_atom_site_charge
Mof_Zn	Zn	-0	0	-0	0.998
Mof_Zn	Zn	9.90494e-33	0.5	0.5	1.104
Mof_Zn	Zn	0.5	4.01512e-33	0.5	1.104
Mof_Zn	Zn	0.5	0.5	-0	1.104
Mof_Cu	Cu	0.75	0.75	0.75	0.842
Mof_Cu	Cu	0.25	0.25	0.75	0.816
Mof_Cu	Cu	0.25	0.75	0.25	0.816
Mof_Cu	Cu	0.75	0.25	0.25	0.816
Mof_C 	C 	0.8479	0.8479	0.8479	-0.092
Mof_N 	N 	0.9036	0.9036	0.9036	-0.128
Mof_C 	C 	0.8479	0.3479	0.3479	-0.196
Mof_N 	N 	0.9036	0.4036	0.4036	-0.23
Mof_C 	C 	0.3479	0.8479	0.3479	-0.196
Mof_N 	N 	0.4036	0.9036	0.4036	-0.23
Mof_C 	C 	0.3479	0.3479	0.8479	-0.196
Mof_N 	N 	0.4036	0.4036	0.9036	-0.23
Mof_C 	C 	0.1521	0.1521	0.8479	-0.251
Mof_N 	N 	0.0964	0.0964	0.9036	-0.292
Mof_C 	C 	0.1521	0.6521	0.3479	-0.25
Mof_N 	N 	0.0964	0.5964	0.4036	-0.313
Mof_C 	C 	0.6521	0.1521	0.3479	-0.25
Mof_N 	N 	0.5964	0.0964	0.4036	-0.313
Mof_C 	C 	0.6521	0.6521	0.8479	-0.142
Mof_N 	N 	0.5964	0.5964	0.9036	-0.223
Mof_C 	C 	0.1521	0.8479	0.1521	-0.251
Mof_N 	N 	0.0964	0.9036	0.0964	-0.292
Mof_C 	C 	0.1521	0.3479	0.6521	-0.25
Mof_N 	N 	0.0964	0.4036	0.5964	-0.313
Mof_C 	C 	0.6521	0.8479	0.6521	-0.142
Mof_N 	N 	0.5964	0.9036	0.5964	-0.223
Mof_C 	C 	0.6521	0.3479	0.1521	-0.25
Mof_N 	N 	0.5964	0.4036	0.0964	-0.313
Mof_C 	C 	0.8479	0.1521	0.1521	-0.251
Mof_N 	N 	0.9036	0.0964	0.0964	-0.292
Mof_C 	C 	0.8479	0.6521	0.6521	-0.142
Mof_N 	N 	0.9036	0.5964	0.5964	-0.223
Mof_C 	C 	0.3479	0.1521	0.6521	-0.25
Mof_N 	N 	0.4036	0.0964	0.5964	-0.313
Mof_C 	C 	0.3479	0.6521	0.1521	-0.25
Mof_N 	N 	0.4036	0.5964	0.0964	-0.313
_end
