# CIF file generated by openbabel 3.1.0, see https://openbabel.org
data_I
_chemical_name_common 'image0'
_cell_length_a 19.634
_cell_length_b 19.634
_cell_length_c 19.634
_cell_angle_alpha 90
_cell_angle_beta 90
_cell_angle_gamma 90
_space_group_name_H-M_alt 'P 1'
_space_group_name_Hall 'P 1'
loop_
    _symmetry_equiv_pos_as_xyz
    x,y,z
loop_
    _atom_site_label
    _atom_site_type_symbol
    _atom_site_fract_x
    _atom_site_fract_y
    _atom_site_fract_z
    _atom_site_occupancy
    Re1      Re       0.18679    0.28179    0.18679    1.000
    C1       C        0.11520    0.31570    0.11520    1.000
    N1       N        0.07530    0.33420    0.07530    1.000
    Re2      Re       0.68679    0.78179    0.68679    1.000
    C2       C        0.61520    0.81570    0.61520    1.000
    N2       N        0.57530    0.83420    0.57530    1.000
    Re3      Re       0.81321    0.71821    0.18679    1.000
    C3       C        0.88480    0.68430    0.11520    1.000
    N3       N        0.92470    0.66580    0.07530    1.000
    Re4      Re       0.31321    0.21821    0.68679    1.000
    C4       C        0.38480    0.18430    0.61520    1.000
    N4       N        0.42470    0.16580    0.57530    1.000
    Re5      Re       0.81321    0.28179    0.81321    1.000
    C5       C        0.88480    0.31570    0.88480    1.000
    N5       N        0.92470    0.33420    0.92470    1.000
    Re6      Re       0.31321    0.78179    0.31321    1.000
    C6       C        0.38480    0.81570    0.38480    1.000
    N6       N        0.42470    0.83420    0.42470    1.000
    Re7      Re       0.18679    0.71821    0.81321    1.000
    C7       C        0.11520    0.68430    0.88480    1.000
    N7       N        0.07530    0.66580    0.92470    1.000
    Re8      Re       0.68679    0.21821    0.31321    1.000
    C8       C        0.61520    0.18430    0.38480    1.000
    N8       N        0.57530    0.16580    0.42470    1.000
    Re9      Re       0.18679    0.18679    0.28179    1.000
    C9       C        0.11520    0.11520    0.31570    1.000
    N9       N        0.07530    0.07530    0.33420    1.000
    Re10     Re       0.68679    0.68679    0.78179    1.000
    C10      C        0.61520    0.61520    0.81570    1.000
    N10      N        0.57530    0.57530    0.83420    1.000
    Re11     Re       0.18679    0.81321    0.71821    1.000
    C11      C        0.11520    0.88480    0.68430    1.000
    N11      N        0.07530    0.92470    0.66580    1.000
    Re12     Re       0.68679    0.31321    0.21821    1.000
    C12      C        0.61520    0.38480    0.18430    1.000
    N12      N        0.57530    0.42470    0.16580    1.000
    Re13     Re       0.81321    0.81321    0.28179    1.000
    C13      C        0.88480    0.88480    0.31570    1.000
    N13      N        0.92470    0.92470    0.33420    1.000
    Re14     Re       0.31321    0.31321    0.78179    1.000
    C14      C        0.38480    0.38480    0.81570    1.000
    N14      N        0.42470    0.42470    0.83420    1.000
    Re15     Re       0.81321    0.18679    0.71821    1.000
    C15      C        0.88480    0.11520    0.68430    1.000
    N15      N        0.92470    0.07530    0.66580    1.000
    Re16     Re       0.31321    0.68679    0.21821    1.000
    C16      C        0.38480    0.61520    0.18430    1.000
    N16      N        0.42470    0.57530    0.16580    1.000
    Re17     Re       0.28179    0.18679    0.18679    1.000
    C17      C        0.31570    0.11520    0.11520    1.000
    N17      N        0.33420    0.07530    0.07530    1.000
    Re18     Re       0.78179    0.68679    0.68679    1.000
    C18      C        0.81570    0.61520    0.61520    1.000
    N18      N        0.83420    0.57530    0.57530    1.000
    Re19     Re       0.71821    0.18679    0.81321    1.000
    C19      C        0.68430    0.11520    0.88480    1.000
    N19      N        0.66580    0.07530    0.92470    1.000
    Re20     Re       0.21821    0.68679    0.31321    1.000
    C20      C        0.18430    0.61520    0.38480    1.000
    N20      N        0.16580    0.57530    0.42470    1.000
    Re21     Re       0.28179    0.81321    0.81321    1.000
    C21      C        0.31570    0.88480    0.88480    1.000
    N21      N        0.33420    0.92470    0.92470    1.000
    Re22     Re       0.78179    0.31321    0.31321    1.000
    C22      C        0.81570    0.38480    0.38480    1.000
    N22      N        0.83420    0.42470    0.42470    1.000
    Re23     Re       0.71821    0.81321    0.18679    1.000
    C23      C        0.68430    0.88480    0.11520    1.000
    N23      N        0.66580    0.92470    0.07530    1.000
    Re24     Re       0.21821    0.31321    0.68679    1.000
    C24      C        0.18430    0.38480    0.61520    1.000
    N24      N        0.16580    0.42470    0.57530    1.000
    Re25     Re       0.28179    0.18679    0.81321    1.000
    C25      C        0.31570    0.11520    0.88480    1.000
    N25      N        0.33420    0.07530    0.92470    1.000
    Re26     Re       0.78179    0.68679    0.31321    1.000
    C26      C        0.81570    0.61520    0.38480    1.000
    N26      N        0.83420    0.57530    0.42470    1.000
    Re27     Re       0.71821    0.81321    0.81321    1.000
    C27      C        0.68430    0.88480    0.88480    1.000
    N27      N        0.66580    0.92470    0.92470    1.000
    Re28     Re       0.21821    0.31321    0.31321    1.000
    C28      C        0.18430    0.38480    0.38480    1.000
    N28      N        0.16580    0.42470    0.42470    1.000
    Re29     Re       0.28179    0.81321    0.18679    1.000
    C29      C        0.31570    0.88480    0.11520    1.000
    N29      N        0.33420    0.92470    0.07530    1.000
    Re30     Re       0.78179    0.31321    0.68679    1.000
    C30      C        0.81570    0.38480    0.61520    1.000
    N30      N        0.83420    0.42470    0.57530    1.000
    Re31     Re       0.71821    0.18679    0.18679    1.000
    C31      C        0.68430    0.11520    0.11520    1.000
    N31      N        0.66580    0.07530    0.07530    1.000
    Re32     Re       0.21821    0.68679    0.68679    1.000
    C32      C        0.18430    0.61520    0.61520    1.000
    N32      N        0.16580    0.57530    0.57530    1.000
    Re33     Re       0.18679    0.18679    0.71821    1.000
    C33      C        0.11520    0.11520    0.68430    1.000
    N33      N        0.07530    0.07530    0.66580    1.000
    Re34     Re       0.68679    0.68679    0.21821    1.000
    C34      C        0.61520    0.61520    0.18430    1.000
    N34      N        0.57530    0.57530    0.16580    1.000
    Re35     Re       0.81321    0.18679    0.28179    1.000
    C35      C        0.88480    0.11520    0.31570    1.000
    N35      N        0.92470    0.07530    0.33420    1.000
    Re36     Re       0.31321    0.68679    0.78179    1.000
    C36      C        0.38480    0.61520    0.81570    1.000
    N36      N        0.42470    0.57530    0.83420    1.000
    Re37     Re       0.81321    0.81321    0.71821    1.000
    C37      C        0.88480    0.88480    0.68430    1.000
    N37      N        0.92470    0.92470    0.66580    1.000
    Re38     Re       0.31321    0.31321    0.21821    1.000
    C38      C        0.38480    0.38480    0.18430    1.000
    N38      N        0.42470    0.42470    0.16580    1.000
    Re39     Re       0.18679    0.81321    0.28179    1.000
    C39      C        0.11520    0.88480    0.31570    1.000
    N39      N        0.07530    0.92470    0.33420    1.000
    Re40     Re       0.68679    0.31321    0.78179    1.000
    C40      C        0.61520    0.38480    0.81570    1.000
    N40      N        0.57530    0.42470    0.83420    1.000
    Re41     Re       0.18679    0.28179    0.81321    1.000
    C41      C        0.11520    0.31570    0.88480    1.000
    N41      N        0.07530    0.33420    0.92470    1.000
    Re42     Re       0.68679    0.78179    0.31321    1.000
    C42      C        0.61520    0.81570    0.38480    1.000
    N42      N        0.57530    0.83420    0.42470    1.000
    Re43     Re       0.18679    0.71821    0.18679    1.000
    C43      C        0.11520    0.68430    0.11520    1.000
    N43      N        0.07530    0.66580    0.07530    1.000
    Re44     Re       0.68679    0.21821    0.68679    1.000
    C44      C        0.61520    0.18430    0.61520    1.000
    N44      N        0.57530    0.16580    0.57530    1.000
    Re45     Re       0.81321    0.28179    0.18679    1.000
    C45      C        0.88480    0.31570    0.11520    1.000
    N45      N        0.92470    0.33420    0.07530    1.000
    Re46     Re       0.31321    0.78179    0.68679    1.000
    C46      C        0.38480    0.81570    0.61520    1.000
    N46      N        0.42470    0.83420    0.57530    1.000
    Re47     Re       0.81321    0.71821    0.81321    1.000
    C47      C        0.88480    0.68430    0.88480    1.000
    N47      N        0.92470    0.66580    0.92470    1.000
    Re48     Re       0.31321    0.21821    0.31321    1.000
    C48      C        0.38480    0.18430    0.38480    1.000
    N48      N        0.42470    0.16580    0.42470    1.000
    Se1      Se       0.28007    0.28007    0.09830    1.000
    Se2      Se       0.78007    0.78007    0.59830    1.000
    Se3      Se       0.71993    0.71993    0.09830    1.000
    Se4      Se       0.21993    0.21993    0.59830    1.000
    Se5      Se       0.71993    0.28007    0.90170    1.000
    Se6      Se       0.21993    0.78007    0.40170    1.000
    Se7      Se       0.28007    0.71993    0.90170    1.000
    Se8      Se       0.78007    0.21993    0.40170    1.000
    Se9      Se       0.09830    0.28007    0.28007    1.000
    Se10     Se       0.59830    0.78007    0.78007    1.000
    Se11     Se       0.09830    0.71993    0.71993    1.000
    Se12     Se       0.59830    0.21993    0.21993    1.000
    Se13     Se       0.90170    0.71993    0.28007    1.000
    Se14     Se       0.40170    0.21993    0.78007    1.000
    Se15     Se       0.90170    0.28007    0.71993    1.000
    Se16     Se       0.40170    0.78007    0.21993    1.000
    Se17     Se       0.28007    0.09830    0.28007    1.000
    Se18     Se       0.78007    0.59830    0.78007    1.000
    Se19     Se       0.71993    0.09830    0.71993    1.000
    Se20     Se       0.21993    0.59830    0.21993    1.000
    Se21     Se       0.28007    0.90170    0.71993    1.000
    Se22     Se       0.78007    0.40170    0.21993    1.000
    Se23     Se       0.71993    0.90170    0.28007    1.000
    Se24     Se       0.21993    0.40170    0.78007    1.000
    Se25     Se       0.28007    0.28007    0.90170    1.000
    Se26     Se       0.78007    0.78007    0.40170    1.000
    Se27     Se       0.71993    0.71993    0.90170    1.000
    Se28     Se       0.21993    0.21993    0.40170    1.000
    Se29     Se       0.28007    0.71993    0.09830    1.000
    Se30     Se       0.78007    0.21993    0.59830    1.000
    Se31     Se       0.71993    0.28007    0.09830    1.000
    Se32     Se       0.21993    0.78007    0.59830    1.000
    Se33     Se       0.28007    0.09830    0.71993    1.000
    Se34     Se       0.78007    0.59830    0.21993    1.000
    Se35     Se       0.71993    0.09830    0.28007    1.000
    Se36     Se       0.21993    0.59830    0.78007    1.000
    Se37     Se       0.71993    0.90170    0.71993    1.000
    Se38     Se       0.21993    0.40170    0.21993    1.000
    Se39     Se       0.28007    0.90170    0.28007    1.000
    Se40     Se       0.78007    0.40170    0.78007    1.000
    Se41     Se       0.09830    0.28007    0.71993    1.000
    Se42     Se       0.59830    0.78007    0.21993    1.000
    Se43     Se       0.09830    0.71993    0.28007    1.000
    Se44     Se       0.59830    0.21993    0.78007    1.000
    Se45     Se       0.90170    0.28007    0.28007    1.000
    Se46     Se       0.40170    0.78007    0.78007    1.000
    Se47     Se       0.90170    0.71993    0.71993    1.000
    Se48     Se       0.40170    0.21993    0.21993    1.000
    Se49     Se       0.15935    0.15935    0.15935    1.000
    Se50     Se       0.65935    0.65935    0.65935    1.000
    Se51     Se       0.84065    0.84065    0.15935    1.000
    Se52     Se       0.34065    0.34065    0.65935    1.000
    Se53     Se       0.84065    0.15935    0.84065    1.000
    Se54     Se       0.34065    0.65935    0.34065    1.000
    Se55     Se       0.15935    0.84065    0.84065    1.000
    Se56     Se       0.65935    0.34065    0.34065    1.000
    Se57     Se       0.15935    0.15935    0.84065    1.000
    Se58     Se       0.65935    0.65935    0.34065    1.000
    Se59     Se       0.84065    0.84065    0.84065    1.000
    Se60     Se       0.34065    0.34065    0.34065    1.000
    Se61     Se       0.15935    0.84065    0.15935    1.000
    Se62     Se       0.65935    0.34065    0.65935    1.000
    Se63     Se       0.84065    0.15935    0.15935    1.000
    Se64     Se       0.34065    0.65935    0.65935    1.000
    Co1      Co       0.00000    0.34190    0.00000    1.000
    Co2      Co       0.50000    0.84190    0.50000    1.000
    Co3      Co       0.00000    0.65810    0.00000    1.000
    Co4      Co       0.50000    0.15810    0.50000    1.000
    Co5      Co       0.00000    0.00000    0.34190    1.000
    Co6      Co       0.50000    0.50000    0.84190    1.000
    Co7      Co       0.00000    0.00000    0.65810    1.000
    Co8      Co       0.50000    0.50000    0.15810    1.000
    Co9      Co       0.34190    0.00000    0.00000    1.000
    Co10     Co       0.84190    0.50000    0.50000    1.000
    Co11     Co       0.65810    0.00000    0.00000    1.000
    Co12     Co       0.15810    0.50000    0.50000    1.000
