# CIF file generated by openbabel 3.1.0, see https://openbabel.org
data_I
_chemical_name_common 'PIGXAF_clean'
_cell_length_a 16.0371
_cell_length_b 16.0371
_cell_length_c 16.0371
_cell_angle_alpha 109.471
_cell_angle_beta 109.471
_cell_angle_gamma 109.471
_space_group_name_H-M_alt 'P 1'
_space_group_name_Hall 'P 1'
loop_
    _symmetry_equiv_pos_as_xyz
    x,y,z
loop_
    _atom_site_label
    _atom_site_type_symbol
    _atom_site_fract_x
    _atom_site_fract_y
    _atom_site_fract_z
    _atom_site_occupancy
    Cd1      Cd       0.37500    0.62500    0.75000    1.000
    Cd2      Cd       0.12500    0.87500    0.25000    1.000
    Cd3      Cd       0.75000    0.12500    0.37500    1.000
    Cd4      Cd       0.25000    0.37500    0.12500    1.000
    Cd5      Cd       0.62500    0.25000    0.87500    1.000
    Cd6      Cd       0.87500    0.75000    0.62500    1.000
    Cd7      Cd       0.16760    0.41760    0.75000    1.000
    Cd8      Cd       0.33240    0.08240    0.25000    1.000
    Cd9      Cd       0.75000    0.33240    0.58240    1.000
    Cd10     Cd       0.25000    0.16760    0.91760    1.000
    Cd11     Cd       0.41760    0.25000    0.66760    1.000
    Cd12     Cd       0.08240    0.75000    0.83240    1.000
    Cd13     Cd       0.91760    0.66760    0.25000    1.000
    Cd14     Cd       0.58240    0.83240    0.75000    1.000
    Cd15     Cd       0.66760    0.75000    0.41760    1.000
    Cd16     Cd       0.83240    0.25000    0.08240    1.000
    Cd17     Cd       0.25000    0.58240    0.33240    1.000
    Cd18     Cd       0.75000    0.91760    0.16760    1.000
    C1       C        0.34810    0.40530    0.71080    1.000
    C2       C        0.44250    0.45620    0.70330    1.000
    C3       C        0.19450    0.63730    0.78920    1.000
    C4       C        0.25290    0.73920    0.79670    1.000
    C5       C        0.30550    0.09470    0.44280    1.000
    C6       C        0.24710    0.04380    0.48630    1.000
    C7       C        0.15190    0.86270    0.05720    1.000
    C8       C        0.05750    0.76080    0.01370    1.000
    C9       C        0.94280    0.30550    0.59470    1.000
    C10      C        0.98630    0.24710    0.54380    1.000
    C11      C        0.55720    0.15190    0.36270    1.000
    C12      C        0.51370    0.05750    0.26080    1.000
    C13      C        0.21080    0.34810    0.90530    1.000
    C14      C        0.20330    0.44250    0.95620    1.000
    C15      C        0.28920    0.19450    0.13730    1.000
    C16      C        0.29670    0.25290    0.23920    1.000
    C17      C        0.63730    0.28920    0.69450    1.000
    C18      C        0.73920    0.29670    0.75290    1.000
    C19      C        0.40530    0.21080    0.84810    1.000
    C20      C        0.45620    0.20330    0.94250    1.000
    C21      C        0.86270    0.55720    0.65190    1.000
    C22      C        0.76080    0.51370    0.55750    1.000
    C23      C        0.09470    0.94280    0.80550    1.000
    C24      C        0.04380    0.98630    0.74710    1.000
    C25      C        0.13730    0.69450    0.28920    1.000
    C26      C        0.23920    0.75290    0.29670    1.000
    C27      C        0.90530    0.84810    0.21080    1.000
    C28      C        0.95620    0.94250    0.20330    1.000
    C29      C        0.36270    0.65190    0.55720    1.000
    C30      C        0.26080    0.55750    0.51370    1.000
    C31      C        0.59470    0.80550    0.94280    1.000
    C32      C        0.54380    0.74710    0.98630    1.000
    C33      C        0.84810    0.71080    0.40530    1.000
    C34      C        0.94250    0.70330    0.45620    1.000
    C35      C        0.69450    0.78920    0.63730    1.000
    C36      C        0.75290    0.79670    0.73920    1.000
    C37      C        0.80550    0.44280    0.09470    1.000
    C38      C        0.74710    0.48630    0.04380    1.000
    C39      C        0.65190    0.05720    0.86270    1.000
    C40      C        0.55750    0.01370    0.76080    1.000
    C41      C        0.44280    0.59470    0.30550    1.000
    C42      C        0.48630    0.54380    0.24710    1.000
    C43      C        0.05720    0.36270    0.15190    1.000
    C44      C        0.01370    0.26080    0.05750    1.000
    C45      C        0.71080    0.90530    0.34810    1.000
    C46      C        0.70330    0.95620    0.44250    1.000
    C47      C        0.78920    0.13730    0.19450    1.000
    C48      C        0.79670    0.23920    0.25290    1.000
    O1       O        0.30790    0.45850    0.73300    1.000
    O2       O        0.47110    0.54560    0.71910    1.000
    O3       O        0.48400    0.40410    0.68110    1.000
    O4       O        0.31520    0.31450    0.69150    1.000
    O5       O        0.22550    0.57490    0.76700    1.000
    O6       O        0.32650    0.75200    0.78090    1.000
    O7       O        0.22300    0.80290    0.81890    1.000
    O8       O        0.12300    0.62370    0.80850    1.000
    O9       O        0.27450    0.04150    0.34940    1.000
    O10      O        0.17350    0.95440    0.42550    1.000
    O11      O        0.27700    0.09590    0.57990    1.000
    O12      O        0.37700    0.18550    0.50070    1.000
    O13      O        0.19210    0.92510    0.15060    1.000
    O14      O        0.02890    0.74800    0.07450    1.000
    O15      O        0.01600    0.69710    0.92010    1.000
    O16      O        0.18480    0.87630    0.99930    1.000
    O17      O        0.84940    0.27450    0.54150    1.000
    O18      O        0.92550    0.17350    0.45440    1.000
    O19      O        0.07990    0.27700    0.59590    1.000
    O20      O        0.00070    0.37700    0.68550    1.000
    O21      O        0.65060    0.19210    0.42510    1.000
    O22      O        0.57450    0.02890    0.24800    1.000
    O23      O        0.42010    0.01600    0.19710    1.000
    O24      O        0.49930    0.18480    0.37630    1.000
    O25      O        0.23300    0.30790    0.95850    1.000
    O26      O        0.21910    0.47110    0.04560    1.000
    O27      O        0.18110    0.48400    0.90410    1.000
    O28      O        0.19150    0.31520    0.81450    1.000
    O29      O        0.26700    0.22550    0.07490    1.000
    O30      O        0.28090    0.32650    0.25200    1.000
    O31      O        0.31890    0.22300    0.30290    1.000
    O32      O        0.30850    0.12300    0.12370    1.000
    O33      O        0.57490    0.26700    0.72550    1.000
    O34      O        0.75200    0.28090    0.82650    1.000
    O35      O        0.80290    0.31890    0.72300    1.000
    O36      O        0.62370    0.30850    0.62300    1.000
    O37      O        0.45850    0.23300    0.80790    1.000
    O38      O        0.54560    0.21910    0.97110    1.000
    O39      O        0.40410    0.18110    0.98400    1.000
    O40      O        0.31450    0.19150    0.81520    1.000
    O41      O        0.92510    0.65060    0.69210    1.000
    O42      O        0.74800    0.57450    0.52890    1.000
    O43      O        0.69710    0.42010    0.51600    1.000
    O44      O        0.87630    0.49930    0.68480    1.000
    O45      O        0.04150    0.84940    0.77450    1.000
    O46      O        0.95440    0.92550    0.67350    1.000
    O47      O        0.09590    0.07990    0.77700    1.000
    O48      O        0.18550    0.00070    0.87700    1.000
    O49      O        0.07490    0.72550    0.26700    1.000
    O50      O        0.25200    0.82650    0.28090    1.000
    O51      O        0.30290    0.72300    0.31890    1.000
    O52      O        0.12370    0.62300    0.30850    1.000
    O53      O        0.95850    0.80790    0.23300    1.000
    O54      O        0.04560    0.97110    0.21910    1.000
    O55      O        0.90410    0.98400    0.18110    1.000
    O56      O        0.81450    0.81520    0.19150    1.000
    O57      O        0.42510    0.69210    0.65060    1.000
    O58      O        0.24800    0.52890    0.57450    1.000
    O59      O        0.19710    0.51600    0.42010    1.000
    O60      O        0.37630    0.68480    0.49930    1.000
    O61      O        0.54150    0.77450    0.84940    1.000
    O62      O        0.45440    0.67350    0.92550    1.000
    O63      O        0.59590    0.77700    0.07990    1.000
    O64      O        0.68550    0.87700    0.00070    1.000
    O65      O        0.80790    0.73300    0.45850    1.000
    O66      O        0.97110    0.71910    0.54560    1.000
    O67      O        0.98400    0.68110    0.40410    1.000
    O68      O        0.81520    0.69150    0.31450    1.000
    O69      O        0.72550    0.76700    0.57490    1.000
    O70      O        0.82650    0.78090    0.75200    1.000
    O71      O        0.72300    0.81890    0.80290    1.000
    O72      O        0.62300    0.80850    0.62370    1.000
    O73      O        0.77450    0.34940    0.04150    1.000
    O74      O        0.67350    0.42550    0.95440    1.000
    O75      O        0.77700    0.57990    0.09590    1.000
    O76      O        0.87700    0.50070    0.18550    1.000
    O77      O        0.69210    0.15060    0.92510    1.000
    O78      O        0.52890    0.07450    0.74800    1.000
    O79      O        0.51600    0.92010    0.69710    1.000
    O80      O        0.68480    0.99930    0.87630    1.000
    O81      O        0.34940    0.54150    0.27450    1.000
    O82      O        0.42550    0.45440    0.17350    1.000
    O83      O        0.57990    0.59590    0.27700    1.000
    O84      O        0.50070    0.68550    0.37700    1.000
    O85      O        0.15060    0.42510    0.19210    1.000
    O86      O        0.07450    0.24800    0.02890    1.000
    O87      O        0.92010    0.19710    0.01600    1.000
    O88      O        0.99930    0.37630    0.18480    1.000
    O89      O        0.73300    0.95850    0.30790    1.000
    O90      O        0.71910    0.04560    0.47110    1.000
    O91      O        0.68110    0.90410    0.48400    1.000
    O92      O        0.69150    0.81450    0.31520    1.000
    O93      O        0.76700    0.07490    0.22550    1.000
    O94      O        0.78090    0.25200    0.32650    1.000
    O95      O        0.81890    0.30290    0.22300    1.000
    O96      O        0.80850    0.12370    0.12300    1.000
