data_functionalizedCrystal
_audit_creation_method	'EQeq! by Chris Wilmer'
_symmetry_space_group_name_H-M	'P1'
_symmetry_Int_Tables_number	1
_symmetry_cell_setting	triclinic
loop_
_symmetry_equiv_pos_as_xyz
  x,y,z
_cell_length_a	6.687
_cell_length_b	14.389
_cell_length_c	14.874
_cell_angle_alpha	90
_cell_angle_beta	90
_cell_angle_gamma	90
loop_
_atom_site_label
_atom_site_type_symbol
_atom_site_fract_x
_atom_site_fract_y
_atom_site_fract_z
_atom_site_charge
Mof_Ca	Ca	0.13658	0.80385	0.45805	1.384
Mof_O 	O 	0.9918	0.6567	0.5254	-0.509
Mof_O 	O 	0.282	0.7042	0.5784	-0.522
Mof_O 	O 	0.994	0.3914	0.9244	-0.466
Mof_O 	O 	0.2181	0.2998	0.8587	-0.476
Mof_C 	C 	0.1361	0.6487	0.5793	0.397
Mof_C 	C 	0.1093	0.3701	0.8613	0.431
Mof_C 	C 	0.1353	0.5729	0.6482	-0.16
Mof_C 	C 	0.1378	0.5979	0.7356	-0.01
Mof_H 	H 	0.1516	0.6601	0.7514	0.02
Mof_C 	C 	0.1194	0.5294	0.803	-0.016
Mof_H 	H 	0.1068	0.5481	0.8626	0.034
Mof_C 	C 	0.1194	0.4372	0.7838	-0.133
Mof_C 	C 	0.1268	0.4091	0.6929	0.042
Mof_C 	C 	0.1267	0.4774	0.6232	0.04
Mof_C 	C 	0.126	0.4495	0.5339	-0.098
Mof_H 	H 	0.1283	0.494	0.4886	0.06
Mof_C 	C 	0.122	0.3575	0.5117	-0.026
Mof_H 	H 	0.1154	0.3397	0.4516	0.031
Mof_C 	C 	0.1278	0.2903	0.5793	-0.033
Mof_H 	H 	0.1296	0.2278	0.5635	0.035
Mof_C 	C 	0.1308	0.3138	0.6668	-0.086
Mof_H 	H 	0.1354	0.2676	0.7105	0.06
Mof_Ca	Ca	0.36342	0.19615	0.95805	1.383
Mof_O 	O 	0.5082	0.3433	0.0254	-0.509
Mof_O 	O 	0.218	0.2958	0.0784	-0.52
Mof_O 	O 	0.506	0.6086	0.4244	-0.467
Mof_O 	O 	0.2819	0.7002	0.3587	-0.477
Mof_C 	C 	0.3639	0.3513	0.0793	0.398
Mof_C 	C 	0.3907	0.6299	0.3613	0.432
Mof_C 	C 	0.3647	0.4271	0.1482	-0.159
Mof_C 	C 	0.3622	0.4021	0.2356	-0.011
Mof_H 	H 	0.3484	0.3399	0.2514	0.021
Mof_C 	C 	0.3806	0.4706	0.303	-0.015
Mof_H 	H 	0.3932	0.4519	0.3626	0.034
Mof_C 	C 	0.3806	0.5628	0.2838	-0.134
Mof_C 	C 	0.3732	0.5909	0.1929	0.043
Mof_C 	C 	0.3733	0.5226	0.1232	0.039
Mof_C 	C 	0.374	0.5505	0.0339	-0.096
Mof_H 	H 	0.3717	0.506	0.9886	0.058
Mof_C 	C 	0.378	0.6425	0.0117	-0.025
Mof_H 	H 	0.3846	0.6603	0.9516	0.03
Mof_C 	C 	0.3722	0.7097	0.0793	-0.033
Mof_H 	H 	0.3704	0.7722	0.0635	0.035
Mof_C 	C 	0.3692	0.6862	0.1668	-0.086
Mof_H 	H 	0.3646	0.7324	0.2105	0.06
Mof_Ca	Ca	0.86342	0.30385	0.04195	1.384
Mof_O 	O 	0.0082	0.1567	0.9746	-0.512
Mof_O 	O 	0.718	0.2042	0.9216	-0.522
Mof_O 	O 	0.006	0.8914	0.5756	-0.469
Mof_O 	O 	0.7819	0.7998	0.6413	-0.477
Mof_C 	C 	0.8639	0.1487	0.9207	0.4
Mof_C 	C 	0.8907	0.8701	0.6387	0.434
Mof_C 	C 	0.8647	0.0729	0.8518	-0.164
Mof_C 	C 	0.8622	0.0979	0.7644	-0.007
Mof_H 	H 	0.8484	0.1601	0.7486	0.019
Mof_C 	C 	0.8806	0.0294	0.697	-0.02
Mof_H 	H 	0.8932	0.0481	0.6374	0.035
Mof_C 	C 	0.8806	0.9372	0.7162	-0.13
Mof_C 	C 	0.8732	0.9091	0.8071	0.04
Mof_C 	C 	0.8733	0.9774	0.8768	0.043
Mof_C 	C 	0.874	0.9495	0.9661	-0.098
Mof_H 	H 	0.8717	0.994	0.0114	0.058
Mof_C 	C 	0.878	0.8575	0.9883	-0.02
Mof_H 	H 	0.8846	0.8397	0.0484	0.028
Mof_C 	C 	0.8722	0.7903	0.9207	-0.037
Mof_H 	H 	0.8704	0.7278	0.9365	0.037
Mof_C 	C 	0.8692	0.8138	0.8332	-0.083
Mof_H 	H 	0.8646	0.7676	0.7895	0.059
Mof_Ca	Ca	0.63658	0.69615	0.54195	1.386
Mof_O 	O 	0.4918	0.8433	0.4746	-0.511
Mof_O 	O 	0.782	0.7958	0.4216	-0.522
Mof_O 	O 	0.494	0.1086	0.0756	-0.465
Mof_O 	O 	0.7181	0.2002	0.1413	-0.477
Mof_C 	C 	0.6361	0.8513	0.4207	0.399
Mof_C 	C 	0.6093	0.1299	0.1387	0.431
Mof_C 	C 	0.6353	0.9271	0.3518	-0.162
Mof_C 	C 	0.6378	0.9021	0.2644	-0.008
Mof_H 	H 	0.6516	0.8399	0.2486	0.02
Mof_C 	C 	0.6194	0.9706	0.197	-0.019
Mof_H 	H 	0.6068	0.9519	0.1374	0.035
Mof_C 	C 	0.6194	0.0628	0.2162	-0.131
Mof_C 	C 	0.6268	0.0909	0.3071	0.041
Mof_C 	C 	0.6267	0.0226	0.3768	0.042
Mof_C 	C 	0.626	0.0505	0.4661	-0.1
Mof_H 	H 	0.6283	0.006	0.5114	0.06
Mof_C 	C 	0.622	0.1425	0.4883	-0.025
Mof_H 	H 	0.6154	0.1603	0.5484	0.031
Mof_C 	C 	0.6278	0.2097	0.4207	-0.034
Mof_H 	H 	0.6296	0.2722	0.4365	0.035
Mof_C 	C 	0.6308	0.1862	0.3332	-0.084
Mof_H 	H 	0.6354	0.2324	0.2895	0.06
_end
