data_functionalizedCrystal
_audit_creation_method	'EQeq! by Chris Wilmer'
_symmetry_space_group_name_H-M	'P1'
_symmetry_Int_Tables_number	1
_symmetry_cell_setting	triclinic
loop_
_symmetry_equiv_pos_as_xyz
  x,y,z
_cell_length_a	15.178
_cell_length_b	15.178
_cell_length_c	12.0813
_cell_angle_alpha	90
_cell_angle_beta	90
_cell_angle_gamma	90
loop_
_atom_site_label
_atom_site_type_symbol
_atom_site_fract_x
_atom_site_fract_y
_atom_site_fract_z
_atom_site_charge
Mof_O 	O 	0.3827	0.3767	0.8882	-0.367
Mof_O 	O 	0.2869	0.4045	0.7492	-0.383
Mof_C 	C 	0.3599	0.41	0.7968	0.355
Mof_C 	C 	0.4315	0.4602	0.736	-0.051
Mof_C 	C 	0.4304	0.4629	0.6231	-0.035
Mof_H 	H 	0.3822	0.4395	0.5857	0.069
Mof_O 	O 	0.8827	0.8767	0.3882	-0.378
Mof_O 	O 	0.7869	0.9045	0.2492	-0.39
Mof_C 	C 	0.8599	0.91	0.2968	0.362
Mof_C 	C 	0.9315	0.9602	0.236	-0.06
Mof_C 	C 	0.9304	0.9629	0.1231	0.02
Mof_H 	H 	0.8822	0.9395	0.0857	0.042
Mof_O 	O 	0.1173	0.1233	0.3882	-0.385
Mof_O 	O 	0.2131	0.0955	0.2492	-0.392
Mof_C 	C 	0.1401	0.09	0.2968	0.363
Mof_C 	C 	0.0685	0.0398	0.236	-0.075
Mof_C 	C 	0.0696	0.0371	0.1231	0.002
Mof_H 	H 	0.1178	0.0605	0.0857	0.045
Mof_O 	O 	0.6173	0.6233	0.8882	-0.366
Mof_O 	O 	0.7131	0.5955	0.7492	-0.381
Mof_C 	C 	0.6401	0.59	0.7968	0.357
Mof_C 	C 	0.5685	0.5398	0.736	-0.049
Mof_C 	C 	0.5696	0.5371	0.6231	-0.035
Mof_H 	H 	0.6178	0.5605	0.5857	0.069
Mof_O 	O 	0.6233	0.8827	0.1382	-0.352
Mof_O 	O 	0.5955	0.7869	0.9992	-0.318
Mof_C 	C 	0.59	0.8599	0.0468	0.222
Mof_C 	C 	0.5398	0.9315	0.986	0.146
Mof_C 	C 	0.5371	0.9304	0.8731	-0.155
Mof_H 	H 	0.5605	0.8822	0.8357	0.113
Mof_O 	O 	0.1233	0.3827	0.6382	-0.377
Mof_O 	O 	0.0955	0.2869	0.4992	-0.385
Mof_C 	C 	0.09	0.3599	0.5468	0.35
Mof_C 	C 	0.0398	0.4315	0.486	-0.035
Mof_C 	C 	0.0371	0.4304	0.3731	-0.062
Mof_H 	H 	0.0605	0.3822	0.3357	0.077
Mof_O 	O 	0.8767	0.6173	0.6382	-0.373
Mof_O 	O 	0.9045	0.7131	0.4992	-0.381
Mof_C 	C 	0.91	0.6401	0.5468	0.35
Mof_C 	C 	0.9602	0.5685	0.486	-0.023
Mof_C 	C 	0.9629	0.5696	0.3731	-0.047
Mof_H 	H 	0.9395	0.6178	0.3357	0.076
Mof_O 	O 	0.3767	0.1173	0.1382	-0.355
Mof_O 	O 	0.4045	0.2131	0.9992	-0.319
Mof_C 	C 	0.41	0.1401	0.0468	0.225
Mof_C 	C 	0.4602	0.0685	0.986	0.14
Mof_C 	C 	0.4629	0.0696	0.8731	-0.16
Mof_H 	H 	0.4395	0.1178	0.8357	0.114
Mof_O 	O 	0.1173	0.3767	0.8618	-0.408
Mof_O 	O 	0.2131	0.4045	0.0008	-0.446
Mof_C 	C 	0.1401	0.41	0.9532	0.488
Mof_C 	C 	0.0685	0.4602	0.014	-0.245
Mof_C 	C 	0.0696	0.4629	0.1269	0.095
Mof_H 	H 	0.1178	0.4395	0.1643	0.021
Mof_O 	O 	0.6173	0.8767	0.3618	-0.384
Mof_O 	O 	0.7131	0.9045	0.5008	-0.386
Mof_C 	C 	0.6401	0.91	0.4532	0.364
Mof_C 	C 	0.5685	0.9602	0.514	-0.068
Mof_C 	C 	0.5696	0.9629	0.6269	0.004
Mof_H 	H 	0.6178	0.9395	0.6643	0.057
Mof_O 	O 	0.3827	0.1233	0.3618	-0.385
Mof_O 	O 	0.2869	0.0955	0.5008	-0.388
Mof_C 	C 	0.3599	0.09	0.4532	0.364
Mof_C 	C 	0.4315	0.0398	0.514	-0.073
Mof_C 	C 	0.4304	0.0371	0.6269	-0.001
Mof_H 	H 	0.3822	0.0605	0.6643	0.057
Mof_O 	O 	0.8827	0.6233	0.8618	-0.403
Mof_O 	O 	0.7869	0.5955	0.0008	-0.447
Mof_C 	C 	0.8599	0.59	0.9532	0.491
Mof_C 	C 	0.9315	0.5398	0.014	-0.236
Mof_C 	C 	0.9304	0.5371	0.1269	0.11
Mof_H 	H 	0.8822	0.5605	0.1643	0.019
Mof_O 	O 	0.8767	0.8827	0.6118	-0.373
Mof_O 	O 	0.9045	0.7869	0.7508	-0.376
Mof_C 	C 	0.91	0.8599	0.7032	0.347
Mof_C 	C 	0.9602	0.9315	0.764	-0.01
Mof_C 	C 	0.9629	0.9304	0.8769	-0.047
Mof_H 	H 	0.9395	0.8822	0.9143	0.088
Mof_O 	O 	0.3767	0.3827	0.1118	-0.391
Mof_O 	O 	0.4045	0.2869	0.2508	-0.389
Mof_C 	C 	0.41	0.3599	0.2032	0.36
Mof_C 	C 	0.4602	0.4315	0.264	-0.062
Mof_C 	C 	0.4629	0.4304	0.3769	-0.027
Mof_H 	H 	0.4395	0.3822	0.4143	0.066
Mof_O 	O 	0.6233	0.6173	0.1118	-0.39
Mof_O 	O 	0.5955	0.7131	0.2508	-0.389
Mof_C 	C 	0.59	0.6401	0.2032	0.36
Mof_C 	C 	0.5398	0.5685	0.264	-0.062
Mof_C 	C 	0.5371	0.5696	0.3769	-0.027
Mof_H 	H 	0.5605	0.6178	0.4143	0.066
Mof_O 	O 	0.1233	0.1173	0.6118	-0.379
Mof_O 	O 	0.0955	0.2131	0.7508	-0.381
Mof_C 	C 	0.09	0.1401	0.7032	0.348
Mof_C 	C 	0.0398	0.0685	0.764	-0.027
Mof_C 	C 	0.0371	0.0696	0.8769	-0.068
Mof_H 	H 	0.0605	0.1178	0.9143	0.09
Mof_Ni	Ni	0.18964	0.31036	0.75	1.142
Mof_Ni	Ni	0.31036	0.18964	0.25	1.139
Mof_Ni	Ni	0.68964	0.68964	-0	1.124
Mof_Ni	Ni	0.81036	0.81036	0.5	1.141
Mof_Ni	Ni	0.31036	0.31036	-0	1.125
Mof_Ni	Ni	0.18964	0.18964	0.5	1.14
Mof_Ni	Ni	0.81036	0.68964	0.75	1.143
Mof_Ni	Ni	0.68964	0.81036	0.25	1.139
Mof_O 	O 	0.25	0.2364	0.875	-0.366
Mof_O 	O 	0.75	0.7364	0.375	-0.377
Mof_O 	O 	0.25	0.2636	0.375	-0.378
Mof_O 	O 	0.75	0.7636	0.875	-0.365
Mof_O 	O 	0.7636	0.75	0.125	-0.385
Mof_O 	O 	0.2636	0.25	0.625	-0.378
Mof_O 	O 	0.7364	0.75	0.625	-0.378
Mof_O 	O 	0.2364	0.25	0.125	-0.386
Mof_C 	C 	0.5	0.5	0.7945	0.007
Mof_H 	H 	0.5	0.5	0.8715	0.076
Mof_C 	C 	0.5	0.5	0.5614	0.021
Mof_C 	C 	8.78913e-34	0	0.2945	0.003
Mof_H 	H 	1.10871e-33	0	0.3715	0.062
Mof_C 	C 	1.83244e-34	0	0.0614	-0.067
Mof_C 	C 	0.5	2.83438e-34	0.0445	-0.232
Mof_H 	H 	0.5	-1.13375e-33	0.1215	0.142
Mof_C 	C 	0.5	0	0.8114	0.112
Mof_C 	C 	1.62502e-33	0.5	0.5445	-0.027
Mof_H 	H 	1.09248e-32	0.5	0.6215	0.077
Mof_C 	C 	5.46435e-33	0.5	0.3114	0.05
Mof_C 	C 	-6.21839e-33	0.5	0.9555	0.226
Mof_H 	H 	-1.55182e-32	0.5	0.8785	-0.007
Mof_C 	C 	-3.97214e-33	0.5	0.1886	-0.094
Mof_C 	C 	0.5	0	0.4555	0.021
Mof_H 	H 	0.5	0	0.3785	0.058
Mof_C 	C 	0.5	4.535e-33	0.6886	-0.034
Mof_C 	C 	-2.42949e-33	-4.535e-33	0.7055	-0.039
Mof_H 	H 	1.87571e-33	0	0.6285	0.077
Mof_C 	C 	-6.26883e-33	-9.07001e-33	0.9386	0.068
Mof_C 	C 	0.5	0.5	0.2055	0.017
Mof_H 	H 	0.5	0.5	0.1285	0.056
Mof_C 	C 	0.5	0.5	0.4386	0.012
_end
