# CIF file generated by openbabel 3.1.0, see https://openbabel.org
data_I
_chemical_name_common 'image0'
_cell_length_a 10.092
_cell_length_b 21.818
_cell_length_c 6.523
_cell_angle_alpha 90
_cell_angle_beta 90
_cell_angle_gamma 90
_space_group_name_H-M_alt 'P 1'
_space_group_name_Hall 'P 1'
loop_
    _symmetry_equiv_pos_as_xyz
    x,y,z
loop_
    _atom_site_label
    _atom_site_type_symbol
    _atom_site_fract_x
    _atom_site_fract_y
    _atom_site_fract_z
    _atom_site_occupancy
    N1       N        0.98710    0.71649    0.68920    1.000
    H1       H        0.76630    0.61490    0.62040    1.000
    C1       C        0.84200    0.72725    0.68380    1.000
    H2       H        0.80200    0.70930    0.80500    1.000
    H3       H        0.82520    0.77100    0.68710    1.000
    C2       C        0.00910    0.64909    0.68370    1.000
    H4       H        0.10360    0.64080    0.68540    1.000
    H5       H        0.97040    0.63060    0.80490    1.000
    O1       O        0.38400    0.65070    0.55100    1.000
    O2       O        0.46900    0.62720    0.74100    1.000
    O3       O        0.58900    0.35510    0.43400    1.000
    O4       O        0.51900    0.36870    0.74400    1.000
    C3       C        0.40500    0.61330    0.41300    1.000
    C4       C        0.35730    0.54660    0.41300    1.000
    H6       H        0.30950    0.53930    0.53930    1.000
    H7       H        0.29580    0.54070    0.30010    1.000
    C5       C        0.46760    0.49990    0.39600    1.000
    H8       H        0.51640    0.50790    0.27040    1.000
    H9       H        0.42890    0.45930    0.38390    1.000
    C6       C        0.56450    0.49990    0.57500    1.000
    H10      H        0.51520    0.49880    0.70290    1.000
    H11      H        0.61560    0.53760    0.57280    1.000
    C7       C        0.65890    0.44540    0.56700    1.000
    H12      H        0.72350    0.44840    0.67650    1.000
    H13      H        0.70610    0.44520    0.43720    1.000
    C8       C        0.58000    0.38560    0.59100    1.000
    N2       N        0.01290    0.28351    0.68920    1.000
    H14      H        0.23370    0.38510    0.62040    1.000
    C9       C        0.15800    0.27275    0.68380    1.000
    H15      H        0.19800    0.29070    0.80500    1.000
    H16      H        0.17480    0.22900    0.68710    1.000
    C10      C        0.99090    0.35091    0.68370    1.000
    H17      H        0.89640    0.35920    0.68540    1.000
    H18      H        0.02960    0.36940    0.80490    1.000
    O5       O        0.61600    0.34930    0.55100    1.000
    O6       O        0.53100    0.37280    0.74100    1.000
    O7       O        0.41100    0.64490    0.43400    1.000
    O8       O        0.48100    0.63130    0.74400    1.000
    C11      C        0.59500    0.38670    0.41300    1.000
    C12      C        0.64270    0.45340    0.41300    1.000
    H19      H        0.69050    0.46070    0.53930    1.000
    H20      H        0.70420    0.45930    0.30010    1.000
    C13      C        0.53240    0.50010    0.39600    1.000
    H21      H        0.48360    0.49210    0.27040    1.000
    H22      H        0.57110    0.54070    0.38390    1.000
    C14      C        0.43550    0.50010    0.57500    1.000
    H23      H        0.48480    0.50120    0.70290    1.000
    H24      H        0.38440    0.46240    0.57280    1.000
    C15      C        0.34110    0.55460    0.56700    1.000
    H25      H        0.27650    0.55160    0.67650    1.000
    H26      H        0.29390    0.55480    0.43720    1.000
    C16      C        0.42000    0.61440    0.59100    1.000
    N3       N        0.51290    0.21649    0.81080    1.000
    H27      H        0.73370    0.11490    0.87960    1.000
    C17      C        0.65800    0.22725    0.81620    1.000
    H28      H        0.69800    0.20930    0.69500    1.000
    H29      H        0.67480    0.27100    0.81290    1.000
    C18      C        0.49090    0.14909    0.81630    1.000
    H30      H        0.39640    0.14080    0.81460    1.000
    H31      H        0.52960    0.13060    0.69510    1.000
    O9       O        0.11600    0.15070    0.94900    1.000
    O10      O        0.03100    0.12720    0.75900    1.000
    O11      O        0.91100    0.85510    0.06600    1.000
    O12      O        0.98100    0.86870    0.75600    1.000
    C19      C        0.09500    0.11330    0.08700    1.000
    C20      C        0.14270    0.04660    0.08700    1.000
    H32      H        0.19050    0.03930    0.96070    1.000
    H33      H        0.20420    0.04070    0.19990    1.000
    C21      C        0.03240    0.99990    0.10400    1.000
    H34      H        0.98360    0.00790    0.22960    1.000
    H35      H        0.07110    0.95930    0.11610    1.000
    C22      C        0.93550    0.99990    0.92500    1.000
    H36      H        0.98480    0.99880    0.79710    1.000
    H37      H        0.88440    0.03760    0.92720    1.000
    C23      C        0.84110    0.94540    0.93300    1.000
    H38      H        0.77650    0.94840    0.82350    1.000
    H39      H        0.79390    0.94520    0.06280    1.000
    C24      C        0.92000    0.88560    0.90900    1.000
    N4       N        0.48710    0.78351    0.81080    1.000
    H40      H        0.26630    0.88510    0.87960    1.000
    C25      C        0.34200    0.77275    0.81620    1.000
    H41      H        0.30200    0.79070    0.69500    1.000
    H42      H        0.32520    0.72900    0.81290    1.000
    C26      C        0.50910    0.85091    0.81630    1.000
    H43      H        0.60360    0.85920    0.81460    1.000
    H44      H        0.47040    0.86940    0.69510    1.000
    O13      O        0.88400    0.84930    0.94900    1.000
    O14      O        0.96900    0.87280    0.75900    1.000
    O15      O        0.08900    0.14490    0.06600    1.000
    O16      O        0.01900    0.13130    0.75600    1.000
    C27      C        0.90500    0.88670    0.08700    1.000
    C28      C        0.85730    0.95340    0.08700    1.000
    H45      H        0.80950    0.96070    0.96070    1.000
    H46      H        0.79580    0.95930    0.19990    1.000
    C29      C        0.96760    0.00010    0.10400    1.000
    H47      H        0.01640    0.99210    0.22960    1.000
    H48      H        0.92890    0.04070    0.11610    1.000
    C30      C        0.06450    0.00010    0.92500    1.000
    H49      H        0.01520    0.00120    0.79710    1.000
    H50      H        0.11560    0.96240    0.92720    1.000
    C31      C        0.15890    0.05460    0.93300    1.000
    H51      H        0.22350    0.05160    0.82350    1.000
    H52      H        0.20610    0.05480    0.06280    1.000
    C32      C        0.08000    0.11440    0.90900    1.000
    N5       N        0.01290    0.28351    0.31080    1.000
    H53      H        0.23370    0.38510    0.37960    1.000
    C33      C        0.15800    0.27275    0.31620    1.000
    H54      H        0.19800    0.29070    0.19500    1.000
    H55      H        0.17480    0.22900    0.31290    1.000
    C34      C        0.99090    0.35091    0.31630    1.000
    H56      H        0.89640    0.35920    0.31460    1.000
    H57      H        0.02960    0.36940    0.19510    1.000
    O17      O        0.61600    0.34930    0.44900    1.000
    O18      O        0.53100    0.37280    0.25900    1.000
    O19      O        0.41100    0.64490    0.56600    1.000
    O20      O        0.48100    0.63130    0.25600    1.000
    C35      C        0.59500    0.38670    0.58700    1.000
    C36      C        0.64270    0.45340    0.58700    1.000
    H58      H        0.69050    0.46070    0.46070    1.000
    H59      H        0.70420    0.45930    0.69990    1.000
    C37      C        0.53240    0.50010    0.60400    1.000
    H60      H        0.48360    0.49210    0.72960    1.000
    H61      H        0.57110    0.54070    0.61610    1.000
    C38      C        0.43550    0.50010    0.42500    1.000
    H62      H        0.48480    0.50120    0.29710    1.000
    H63      H        0.38440    0.46240    0.42720    1.000
    C39      C        0.34110    0.55460    0.43300    1.000
    H64      H        0.27650    0.55160    0.32350    1.000
    H65      H        0.29390    0.55480    0.56280    1.000
    C40      C        0.42000    0.61440    0.40900    1.000
    N6       N        0.98710    0.71649    0.31080    1.000
    H66      H        0.76630    0.61490    0.37960    1.000
    C41      C        0.84200    0.72725    0.31620    1.000
    H67      H        0.80200    0.70930    0.19500    1.000
    H68      H        0.82520    0.77100    0.31290    1.000
    C42      C        0.00910    0.64909    0.31630    1.000
    H69      H        0.10360    0.64080    0.31460    1.000
    H70      H        0.97040    0.63060    0.19510    1.000
    O21      O        0.38400    0.65070    0.44900    1.000
    O22      O        0.46900    0.62720    0.25900    1.000
    O23      O        0.58900    0.35510    0.56600    1.000
    O24      O        0.51900    0.36870    0.25600    1.000
    C43      C        0.40500    0.61330    0.58700    1.000
    C44      C        0.35730    0.54660    0.58700    1.000
    H71      H        0.30950    0.53930    0.46070    1.000
    H72      H        0.29580    0.54070    0.69990    1.000
    C45      C        0.46760    0.49990    0.60400    1.000
    H73      H        0.51640    0.50790    0.72960    1.000
    H74      H        0.42890    0.45930    0.61610    1.000
    C46      C        0.56450    0.49990    0.42500    1.000
    H75      H        0.51520    0.49880    0.29710    1.000
    H76      H        0.61560    0.53760    0.42720    1.000
    C47      C        0.65890    0.44540    0.43300    1.000
    H77      H        0.72350    0.44840    0.32350    1.000
    H78      H        0.70610    0.44520    0.56280    1.000
    C48      C        0.58000    0.38560    0.40900    1.000
    N7       N        0.48710    0.78351    0.18920    1.000
    H79      H        0.26630    0.88510    0.12040    1.000
    C49      C        0.34200    0.77275    0.18380    1.000
    H80      H        0.30200    0.79070    0.30500    1.000
    H81      H        0.32520    0.72900    0.18710    1.000
    C50      C        0.50910    0.85091    0.18370    1.000
    H82      H        0.60360    0.85920    0.18540    1.000
    H83      H        0.47040    0.86940    0.30490    1.000
    O25      O        0.88400    0.84930    0.05100    1.000
    O26      O        0.96900    0.87280    0.24100    1.000
    O27      O        0.08900    0.14490    0.93400    1.000
    O28      O        0.01900    0.13130    0.24400    1.000
    C51      C        0.90500    0.88670    0.91300    1.000
    C52      C        0.85730    0.95340    0.91300    1.000
    H84      H        0.80950    0.96070    0.03930    1.000
    H85      H        0.79580    0.95930    0.80010    1.000
    C53      C        0.96760    0.00010    0.89600    1.000
    H86      H        0.01640    0.99210    0.77040    1.000
    H87      H        0.92890    0.04070    0.88390    1.000
    C54      C        0.06450    0.00010    0.07500    1.000
    H88      H        0.01520    0.00120    0.20290    1.000
    H89      H        0.11560    0.96240    0.07280    1.000
    C55      C        0.15890    0.05460    0.06700    1.000
    H90      H        0.22350    0.05160    0.17650    1.000
    H91      H        0.20610    0.05480    0.93720    1.000
    C56      C        0.08000    0.11440    0.09100    1.000
    N8       N        0.51290    0.21649    0.18920    1.000
    H92      H        0.73370    0.11490    0.12040    1.000
    C57      C        0.65800    0.22725    0.18380    1.000
    H93      H        0.69800    0.20930    0.30500    1.000
    H94      H        0.67480    0.27100    0.18710    1.000
    C58      C        0.49090    0.14909    0.18370    1.000
    H95      H        0.39640    0.14080    0.18540    1.000
    H96      H        0.52960    0.13060    0.30490    1.000
    O29      O        0.11600    0.15070    0.05100    1.000
    O30      O        0.03100    0.12720    0.24100    1.000
    O31      O        0.91100    0.85510    0.93400    1.000
    O32      O        0.98100    0.86870    0.24400    1.000
    C59      C        0.09500    0.11330    0.91300    1.000
    C60      C        0.14270    0.04660    0.91300    1.000
    H97      H        0.19050    0.03930    0.03930    1.000
    H98      H        0.20420    0.04070    0.80010    1.000
    C61      C        0.03240    0.99990    0.89600    1.000
    H99      H        0.98360    0.00790    0.77040    1.000
    H100     H        0.07110    0.95930    0.88390    1.000
    C62      C        0.93550    0.99990    0.07500    1.000
    H101     H        0.98480    0.99880    0.20290    1.000
    H102     H        0.88440    0.03760    0.07280    1.000
    C63      C        0.84110    0.94540    0.06700    1.000
    H103     H        0.77650    0.94840    0.17650    1.000
    H104     H        0.79390    0.94520    0.93720    1.000
    C64      C        0.92000    0.88560    0.09100    1.000
    Ag1      Ag       0.55524    0.72995    0.50000    1.000
    N9       N        0.77940    0.70070    0.50000    1.000
    N10      N        0.95000    0.62150    0.50000    1.000
    C65      C        0.80610    0.63340    0.50000    1.000
    C66      C        0.04440    0.74350    0.50000    1.000
    H105     H        0.02820    0.78730    0.50000    1.000
    H106     H        0.13960    0.73720    0.50000    1.000
    Ag2      Ag       0.44476    0.27005    0.50000    1.000
    N11      N        0.22060    0.29930    0.50000    1.000
    N12      N        0.05000    0.37850    0.50000    1.000
    C67      C        0.19390    0.36660    0.50000    1.000
    C68      C        0.95560    0.25650    0.50000    1.000
    H107     H        0.97180    0.21270    0.50000    1.000
    H108     H        0.86040    0.26280    0.50000    1.000
    Ag3      Ag       0.94476    0.22995    0.00000    1.000
    N13      N        0.72060    0.20070    0.00000    1.000
    N14      N        0.55000    0.12150    0.00000    1.000
    C69      C        0.69390    0.13340    0.00000    1.000
    C70      C        0.45560    0.24350    0.00000    1.000
    H109     H        0.47180    0.28730    0.00000    1.000
    H110     H        0.36040    0.23720    0.00000    1.000
    Ag4      Ag       0.05524    0.77005    0.00000    1.000
    N15      N        0.27940    0.79930    0.00000    1.000
    N16      N        0.45000    0.87850    0.00000    1.000
    C71      C        0.30610    0.86660    0.00000    1.000
    C72      C        0.54440    0.75650    0.00000    1.000
    H111     H        0.52820    0.71270    0.00000    1.000
    H112     H        0.63960    0.76280    0.00000    1.000
