data_functionalizedCrystal
_audit_creation_method	'EQeq! by Chris Wilmer'
_symmetry_space_group_name_H-M	'P1'
_symmetry_Int_Tables_number	1
_symmetry_cell_setting	triclinic
loop_
_symmetry_equiv_pos_as_xyz
  x,y,z
_cell_length_a	9.0264
_cell_length_b	15.103
_cell_length_c	15.5353
_cell_angle_alpha	119.084
_cell_angle_beta	104.844
_cell_angle_gamma	90
loop_
_atom_site_label
_atom_site_type_symbol
_atom_site_fract_x
_atom_site_fract_y
_atom_site_fract_z
_atom_site_charge
Mof_Co	Co	0.51539	0.66716	0.418	1.109
Mof_H 	H 	0.3555	0.5731	0.5298	0.024
Mof_H 	H 	0.3961	0.6528	0.7138	0.029
Mof_H 	H 	0.6814	0.802	0.6594	-0.033
Mof_H 	H 	0.2452	0.7818	0.5394	0.02
Mof_H 	H 	0.068	0.8778	0.488	0.026
Mof_H 	H 	0.3569	0.799	0.3212	-0.019
Mof_H 	H 	0.5903	0.4406	0.3536	-0.015
Mof_H 	H 	0.0009	0.5055	0.335	0.035
Mof_H 	H 	0.879	0.6628	0.404	0.002
Mof_H 	H 	0.6918	0.9457	0.8216	0.047
Mof_H 	H 	0.8205	0.052	0.9956	0.064
Mof_H 	H 	0.7068	0.8354	0.055	0.061
Mof_H 	H 	0.592	0.725	0.88	0.057
Mof_H 	H 	0.612	0.1033	0.1546	0.07
Mof_H 	H 	0.5864	0.2757	0.2314	0.051
Mof_H 	H 	0.0496	0.3499	0.3264	0.056
Mof_H 	H 	0.0753	0.1775	0.2496	0.057
Mof_H 	H 	0.9076	0.0795	0.342	0.041
Mof_H 	H 	0.0427	0.0148	0.4366	0.081
Mof_H 	H 	0.1579	0.8033	0.1936	0.067
Mof_H 	H 	0.0306	0.8726	0.0986	0.054
Mof_C 	C 	0.4264	0.6312	0.5798	0.006
Mof_C 	C 	0.4487	0.674	0.6812	-0.004
Mof_C 	C 	0.6029	0.75509	0.64938	0.106
Mof_C 	C 	0.2453	0.7965	0.4878	0.003
Mof_C 	C 	0.1474	0.8493	0.46	-0.001
Mof_C 	C 	0.3062	0.8053	0.3686	0.093
Mof_C 	C 	0.6773	0.4771	0.3578	0.103
Mof_C 	C 	0.9045	0.511	0.3468	-0.011
Mof_C 	C 	0.8352	0.5978	0.385	0.003
Mof_C 	C 	0.6314	0.82225	0.8345	0.083
Mof_C 	C 	0.6984	0.92282	0.86804	-0.07
Mof_C 	C 	0.7743	0.98635	0.9725	-0.091
Mof_C 	C 	0.7822	0.95366	0.04192	0.087
Mof_C 	C 	0.7083	0.85637	0.00794	-0.083
Mof_C 	C 	0.6367	0.79106	0.90312	-0.076
Mof_C 	C 	0.8462	0.12331	0.19442	0.093
Mof_C 	C 	0.6998	0.1527	0.189	-0.09
Mof_C 	C 	0.6844	0.256	0.235	-0.073
Mof_C 	C 	0.8155	0.32999	0.28658	0.08
Mof_C 	C 	0.9619	0.3005	0.292	-0.081
Mof_C 	C 	0.9773	0.1972	0.246	-0.087
Mof_C 	C 	0.946	0.97949	0.20638	0.054
Mof_C 	C 	0.9563	0.0229	0.311	-0.03
Mof_C 	C 	0.0357	0.9835	0.367	-0.131
Mof_C 	C 	0.1072	0.8981	0.3242	0.109
Mof_C 	C 	0.1057	0.85846	0.22332	-0.101
Mof_C 	C 	0.028	0.89943	0.16606	-0.053
Mof_N 	N 	0.521	0.68366	0.55912	-0.255
Mof_N 	N 	0.5638	0.7549	0.7272	-0.139
Mof_N 	N 	0.3472	0.76635	0.4303	-0.245
Mof_N 	N 	0.1844	0.85424	0.38248	-0.144
Mof_N 	N 	0.6936	0.5752	0.3912	-0.249
Mof_N 	N 	0.7996	0.43452	0.32984	-0.14
Mof_N 	N 	0.8619	0.01931	0.14702	-0.145
Mof_Co	Co	0.48461	0.24916	0.582	1.108
Mof_H 	H 	0.6445	0.0433	0.4702	0.019
Mof_H 	H 	0.6039	0.939	0.2862	0.034
Mof_H 	H 	0.3186	0.1426	0.3406	-0.033
Mof_H 	H 	0.7548	0.2424	0.4606	0.02
Mof_H 	H 	0.932	0.3898	0.512	0.028
Mof_H 	H 	0.6431	0.4778	0.6788	-0.018
Mof_H 	H 	0.4097	0.087	0.6464	-0.014
Mof_H 	H 	0.9991	0.1705	0.665	0.035
Mof_H 	H 	0.121	0.2588	0.596	0.003
Mof_H 	H 	0.3082	0.1241	0.1784	0.046
Mof_H 	H 	0.1795	0.0564	0.0044	0.061
Mof_H 	H 	0.2932	0.7804	0.945	0.062
Mof_H 	H 	0.408	0.845	0.12	0.056
Mof_H 	H 	0.388	0.9487	0.8454	0.072
Mof_H 	H 	0.4136	0.0443	0.7686	0.048
Mof_H 	H 	0.9504	0.0235	0.6736	0.054
Mof_H 	H 	0.9247	0.9279	0.7504	0.058
Mof_H 	H 	0.0924	0.7375	0.658	0.057
Mof_H 	H 	0.9573	0.5782	0.5634	0.061
Mof_H 	H 	0.8421	0.6097	0.8064	0.058
Mof_H 	H 	0.9694	0.774	0.9014	0.065
Mof_C 	C 	0.5736	0.0514	0.4202	0.021
Mof_C 	C 	0.5513	0.9928	0.3188	-0.024
Mof_C 	C 	0.3971	0.10571	0.35062	0.106
Mof_C 	C 	0.7547	0.3087	0.5122	0.004
Mof_C 	C 	0.8526	0.3893	0.54	-0.002
Mof_C 	C 	0.6938	0.4367	0.6314	0.092
Mof_C 	C 	0.3227	0.1193	0.6422	0.103
Mof_C 	C 	0.0955	0.1642	0.6532	-0.011
Mof_C 	C 	0.1648	0.2128	0.615	0.003
Mof_C 	C 	0.3686	0.98775	0.1655	0.071
Mof_C 	C 	0.3016	0.05478	0.13196	-0.061
Mof_C 	C 	0.2257	0.01385	0.0275	-0.086
Mof_C 	C 	0.2178	0.91174	0.95808	0.092
Mof_C 	C 	0.2917	0.84843	0.99206	-0.083
Mof_C 	C 	0.3633	0.88794	0.09688	-0.075
Mof_C 	C 	0.1538	0.92889	0.80558	0.099
Mof_C 	C 	0.3002	0.9637	0.811	-0.103
Mof_C 	C 	0.3156	0.021	0.765	-0.062
Mof_C 	C 	0.1845	0.04341	0.71342	0.074
Mof_C 	C 	0.0381	0.0085	0.708	-0.072
Mof_C 	C 	0.0227	0.9512	0.754	-0.097
Mof_C 	C 	0.054	0.77311	0.79362	0.091
Mof_C 	C 	0.0437	0.7119	0.689	-0.08
Mof_C 	C 	0.9643	0.6165	0.633	-0.084
Mof_C 	C 	0.8928	0.5739	0.6758	0.085
Mof_C 	C 	0.8943	0.63514	0.77668	-0.073
Mof_C 	C 	0.972	0.73337	0.83394	-0.084
Mof_N 	N 	0.479	0.12454	0.44088	-0.257
Mof_N 	N 	0.4362	0.0277	0.2728	-0.13
Mof_N 	N 	0.6528	0.33605	0.5697	-0.245
Mof_N 	N 	0.8156	0.47176	0.61752	-0.14
Mof_N 	N 	0.3064	0.184	0.6088	-0.248
Mof_N 	N 	0.2004	0.10468	0.67016	-0.139
Mof_N 	N 	0.1381	0.87229	0.85298	-0.157
Mof_H 	H 	0.8525	0.2312	0.827	0.237
Mof_H 	H 	0.8781	0.344	0.8522	0.229
Mof_H 	H 	0.849	0.34	0.9896	-0.088
Mof_H 	H 	0.7092	0.386	0.9496	-0.067
Mof_H 	H 	0.5607	0.215	0.8516	0.13
Mof_H 	H 	0.697	0.1805	0.9098	0.12
Mof_H 	H 	0.6186	0.3624	0.057	0.044
Mof_H 	H 	0.6186	0.2587	0.0578	0.043
Mof_H 	H 	0.1475	0.4042	0.173	0.237
Mof_H 	H 	0.1219	0.4918	0.1478	0.229
Mof_H 	H 	0.151	0.3504	0.0104	-0.088
Mof_H 	H 	0.2908	0.4364	0.0504	-0.067
Mof_H 	H 	0.4393	0.3634	0.1484	0.13
Mof_H 	H 	0.303	0.2707	0.0902	0.119
Mof_H 	H 	0.3814	0.3054	0.943	0.044
Mof_H 	H 	0.3814	0.2009	0.9422	0.043
Mof_C 	C 	0.6962	0.2638	0.7432	0.56
Mof_C 	C 	0.8	0.2898	0.8376	-0.691
Mof_C 	C 	0.7576	0.3246	0.9328	0.347
Mof_C 	C 	0.645	0.2381	0.9144	-0.318
Mof_C 	C 	0.5807	0.2895	0.0158	-0.041
Mof_C 	C 	0.3038	0.5206	0.2568	0.56
Mof_C 	C 	0.2	0.4522	0.1624	-0.691
Mof_C 	C 	0.2424	0.3918	0.0672	0.346
Mof_C 	C 	0.355	0.3237	0.0856	-0.317
Mof_C 	C 	0.4193	0.2737	0.9842	-0.042
Mof_O 	O 	0.6062	0.32706	0.74212	-0.472
Mof_O 	O 	0.6818	0.18019	0.66338	-0.438
Mof_O 	O 	0.3938	0.58494	0.25788	-0.472
Mof_O 	O 	0.3182	0.51681	0.33662	-0.439
_end
