data_functionalizedCrystal
_audit_creation_method	'EQeq! by Chris Wilmer'
_symmetry_space_group_name_H-M	'P1'
_symmetry_Int_Tables_number	1
_symmetry_cell_setting	triclinic
loop_
_symmetry_equiv_pos_as_xyz
  x,y,z
_cell_length_a	19.5856
_cell_length_b	19.5856
_cell_length_c	15.7843
_cell_angle_alpha	90
_cell_angle_beta	90
_cell_angle_gamma	120
loop_
_atom_site_label
_atom_site_type_symbol
_atom_site_fract_x
_atom_site_fract_y
_atom_site_fract_z
_atom_site_charge
Mof_Ag	Ag	0.3981	0.76914	0.77635	0.548
Mof_Cl	Cl	0.28526	0.75629	0.69964	-0.56
Mof_C 	C 	0.4645	0.6073	0.4097	0.492
Mof_C 	C 	0.427	0.4721	0.4605	0.021
Mof_C 	C 	0.4833	0.552	0.4582	-0.152
Mof_C 	C 	0.5569	0.5808	0.4966	0.011
Mof_C 	C 	0.275	0.4396	0.493	-0.316
Mof_H 	H 	0.2231	0.427	0.4713	0.095
Mof_H 	H 	0.3003	0.4918	0.5196	0.1
Mof_H 	H 	0.2687	0.4	0.535	0.112
Mof_C 	C 	0.6293	0.7189	0.5881	-0.407
Mof_H 	H 	0.6549	0.7765	0.5862	0.141
Mof_H 	H 	0.6585	0.7033	0.6264	0.122
Mof_H 	H 	0.5751	0.697	0.6085	0.17
Mof_C 	C 	0.4948	0.8172	0.0955	0.414
Mof_C 	C 	0.5429	0.8736	0.0253	-0.026
Mof_C 	C 	0.6213	0.9304	0.0394	-0.344
Mof_C 	C 	0.6631	0.986	0.9752	0.137
Mof_C 	C 	0.6261	0.9834	0.8991	-0.131
Mof_C 	C 	0.5479	0.9241	0.8838	-0.053
Mof_C 	C 	0.5067	0.8691	0.9476	0.006
Mof_C 	C 	0.6683	0.0508	0.8361	0.413
Mof_S 	S 	0.66835	0.92378	0.13022	0.952
Mof_S 	S 	0.7605	0.0602	0.9862	-0.215
Mof_S 	S 	0.4906	0.92351	0.79326	0.168
Mof_C 	C 	0.6629	0.9968	0.1911	-1.532
Mof_H 	H 	0.6904	0.0474	0.1613	0.427
Mof_H 	H 	0.6878	0.0017	0.2463	0.455
Mof_H 	H 	0.6075	0.9817	0.1992	0.431
Mof_C 	C 	0.8162	0.0203	0.9376	0.092
Mof_H 	H 	0.7934	0.998	0.8822	-0.108
Mof_H 	H 	0.8145	0.9788	0.9738	0.085
Mof_H 	H 	0.8711	0.0624	0.9302	-0.044
Mof_C 	C 	0.5519	0.9398	0.7025	-0.639
Mof_H 	H 	0.5882	0.9965	0.6956	0.227
Mof_H 	H 	0.5188	0.9191	0.6519	0.21
Mof_H 	H 	0.5822	0.9129	0.7105	0.206
Mof_O 	O 	0.3314	0.2304	0.1658	-0.664
Mof_H 	H 	0.324	0.212	0.116	0.274
Mof_H 	H 	0.317	0.265	0.164	0.276
Mof_C 	C 	0.3553	0.847	0.9515	-0.316
Mof_H 	H 	0.3663	0.8705	0.0082	0.125
Mof_H 	H 	0.2985	0.8113	0.9452	0.106
Mof_H 	H 	0.3734	0.8887	0.9087	0.093
Mof_Eu	Eu	0.44483	0.66309	0.21598	2.34
Mof_O 	O 	0.48433	0.61834	0.33317	-0.612
Mof_O 	O 	0.42926	0.6368	0.4493	-0.611
Mof_O 	O 	0.3268	0.58262	0.30034	-0.961
Mof_H 	H 	0.3247	0.5337	0.3223	0.183
Mof_O 	O 	0.49741	0.75518	0.10397	-0.591
Mof_O 	O 	0.45589	0.83895	0.1403	-0.59
Mof_O 	O 	0.7192	0.0519	0.7874	-0.339
Mof_O 	O 	0.64498	0.0999	0.83958	-0.548
Mof_S 	S 	0.33562	0.43953	0.40645	-0.079
Mof_S 	S 	0.62806	0.6826	0.48596	0.017
Mof_S 	S 	0.40672	0.7922	0.93756	-0.118
Mof_C 	C 	0.194	0.2712	0.1478	-1.955
Mof_C 	C 	0.211	0.193	0.982	-0.673
Mof_C 	C 	0.5034	0.5272	0.7732	-0.617
Mof_H 	H 	0.1655	0.2917	0.1154	0.491
Mof_H 	H 	0.1717	0.2569	0.205	0.574
Mof_H 	H 	0.1892	0.2245	0.1194	0.566
Mof_H 	H 	0.1903	0.225	0.0061	0.127
Mof_H 	H 	0.182	0.1395	0.0042	0.161
Mof_H 	H 	0.2057	0.1918	0.9199	0.235
Mof_H 	H 	0.5226	0.51	0.8215	0.186
Mof_H 	H 	0.5247	0.5843	0.7766	0.165
Mof_H 	H 	0.5208	0.5145	0.7203	0.195
Mof_S 	S 	0.2956	0.3451	0.1547	0.246
Mof_S 	S 	0.3133	0.2361	0.0087	0.174
Mof_S 	S 	0.3933	0.4755	0.7756	0.11
Mof_Ag	Ag	0.23086	0.62896	0.77635	0.547
Mof_Cl	Cl	0.24371	0.52897	0.69964	-0.561
Mof_C 	C 	0.3927	0.8572	0.4097	0.491
Mof_C 	C 	0.5279	0.9549	0.4605	0.02
Mof_C 	C 	0.448	0.9313	0.4582	-0.153
Mof_C 	C 	0.4192	0.9761	0.4966	0.01
Mof_C 	C 	0.5604	0.8354	0.493	-0.316
Mof_H 	H 	0.573	0.7961	0.4713	0.096
Mof_H 	H 	0.5082	0.8085	0.5196	0.1
Mof_H 	H 	0.6	0.8687	0.535	0.112
Mof_C 	C 	0.2811	0.9104	0.5881	-0.407
Mof_H 	H 	0.2235	0.8784	0.5862	0.141
Mof_H 	H 	0.2967	0.9552	0.6264	0.122
Mof_H 	H 	0.303	0.8781	0.6085	0.17
Mof_C 	C 	0.1828	0.6776	0.0955	0.414
Mof_C 	C 	0.1264	0.6693	0.0253	-0.026
Mof_C 	C 	0.0696	0.6909	0.0394	-0.338
Mof_C 	C 	0.014	0.6771	0.9752	0.128
Mof_C 	C 	0.0166	0.6427	0.8991	-0.127
Mof_C 	C 	0.0759	0.6238	0.8838	-0.054
Mof_C 	C 	0.1309	0.6376	0.9476	0.005
Mof_C 	C 	0.9492	0.6175	0.8361	0.411
Mof_S 	S 	0.07622	0.74457	0.13022	0.95
Mof_S 	S 	0.9398	0.7003	0.9862	-0.208
Mof_S 	S 	0.07649	0.56709	0.79326	0.169
Mof_C 	C 	0.0032	0.6661	0.1911	-1.528
Mof_H 	H 	0.9526	0.643	0.1613	0.426
Mof_H 	H 	0.9983	0.6861	0.2463	0.454
Mof_H 	H 	0.0183	0.6258	0.1992	0.43
Mof_C 	C 	0.9797	0.7959	0.9376	0.092
Mof_H 	H 	0.002	0.7954	0.8822	-0.138
Mof_H 	H 	0.0212	0.8357	0.9738	0.1
Mof_H 	H 	0.9376	0.8087	0.9302	-0.049
Mof_C 	C 	0.0602	0.6121	0.7025	-0.64
Mof_H 	H 	0.0035	0.5917	0.6956	0.227
Mof_H 	H 	0.0809	0.5997	0.6519	0.21
Mof_H 	H 	0.0871	0.6693	0.7105	0.206
Mof_O 	O 	0.7696	0.101	0.1658	-0.662
Mof_H 	H 	0.788	0.112	0.116	0.274
Mof_H 	H 	0.735	0.052	0.164	0.276
Mof_C 	C 	0.153	0.5083	0.9515	-0.312
Mof_H 	H 	0.1295	0.4958	0.0082	0.123
Mof_H 	H 	0.1887	0.4872	0.9452	0.105
Mof_H 	H 	0.1113	0.4847	0.9087	0.092
Mof_Eu	Eu	0.33691	0.78174	0.21598	2.34
Mof_O 	O 	0.38166	0.86599	0.33317	-0.612
Mof_O 	O 	0.3632	0.79246	0.4493	-0.611
Mof_O 	O 	0.41738	0.74418	0.30034	-0.961
Mof_H 	H 	0.4663	0.791	0.3223	0.183
Mof_O 	O 	0.24482	0.74223	0.10397	-0.591
Mof_O 	O 	0.16105	0.61694	0.1403	-0.59
Mof_O 	O 	0.9481	0.6673	0.7874	-0.338
Mof_O 	O 	0.9001	0.54508	0.83958	-0.548
Mof_S 	S 	0.56047	0.89609	0.40645	-0.078
Mof_S 	S 	0.3174	0.94546	0.48596	0.017
Mof_S 	S 	0.2078	0.61452	0.93756	-0.119
Mof_C 	C 	0.7288	0.9228	0.1478	-1.926
Mof_C 	C 	0.807	0.018	0.982	-0.558
Mof_C 	C 	0.4728	0.9762	0.7732	-0.632
Mof_H 	H 	0.7083	0.8738	0.1154	0.485
Mof_H 	H 	0.7431	0.9148	0.205	0.566
Mof_H 	H 	0.7755	0.9647	0.1194	0.559
Mof_H 	H 	0.775	0.9653	0.0061	0.104
Mof_H 	H 	0.8605	0.0425	0.0042	0.123
Mof_H 	H 	0.8082	0.0139	0.9199	0.188
Mof_H 	H 	0.49	0.0126	0.8215	0.192
Mof_H 	H 	0.4157	0.9404	0.7766	0.169
Mof_H 	H 	0.4855	0.0063	0.7203	0.201
Mof_S 	S 	0.6549	0.9505	0.1547	0.247
Mof_S 	S 	0.7639	0.0772	0.0087	0.161
Mof_S 	S 	0.5245	0.9178	0.7756	0.119
Mof_Ag	Ag	0.37104	0.6019	0.77635	0.549
Mof_Cl	Cl	0.47103	0.71474	0.69964	-0.561
Mof_C 	C 	0.1428	0.5355	0.4097	0.491
Mof_C 	C 	0.0451	0.573	0.4605	0.02
Mof_C 	C 	0.0687	0.5167	0.4582	-0.153
Mof_C 	C 	0.0239	0.4431	0.4966	0.01
Mof_C 	C 	0.1646	0.725	0.493	-0.316
Mof_H 	H 	0.2039	0.7769	0.4713	0.096
Mof_H 	H 	0.1915	0.6997	0.5196	0.1
Mof_H 	H 	0.1313	0.7313	0.535	0.112
Mof_C 	C 	0.0896	0.3707	0.5881	-0.408
Mof_H 	H 	0.1216	0.3451	0.5862	0.141
Mof_H 	H 	0.0448	0.3415	0.6264	0.123
Mof_H 	H 	0.1219	0.4249	0.6085	0.17
Mof_C 	C 	0.3224	0.5052	0.0955	0.413
Mof_C 	C 	0.3307	0.4571	0.0253	-0.026
Mof_C 	C 	0.3091	0.3787	0.0394	-0.351
Mof_C 	C 	0.3229	0.3369	0.9752	0.137
Mof_C 	C 	0.3573	0.3739	0.8991	-0.127
Mof_C 	C 	0.3762	0.4521	0.8838	-0.051
Mof_C 	C 	0.3624	0.4933	0.9476	0.007
Mof_C 	C 	0.3825	0.3317	0.8361	0.409
Mof_S 	S 	0.25543	0.33165	0.13022	0.972
Mof_S 	S 	0.2997	0.2395	0.9862	-0.2
Mof_S 	S 	0.43291	0.5094	0.79326	0.171
Mof_C 	C 	0.3339	0.3371	0.1911	-1.559
Mof_H 	H 	0.357	0.3096	0.1613	0.437
Mof_H 	H 	0.3139	0.3122	0.2463	0.465
Mof_H 	H 	0.3742	0.3925	0.1992	0.438
Mof_C 	C 	0.2041	0.1838	0.9376	0.09
Mof_H 	H 	0.2046	0.2066	0.8822	-0.131
Mof_H 	H 	0.1643	0.1855	0.9738	0.108
Mof_H 	H 	0.1913	0.1289	0.9302	-0.047
Mof_C 	C 	0.3879	0.4481	0.7025	-0.629
Mof_H 	H 	0.4083	0.4118	0.6956	0.225
Mof_H 	H 	0.4003	0.4812	0.6519	0.207
Mof_H 	H 	0.3307	0.4178	0.7105	0.205
Mof_O 	O 	0.899	0.6686	0.1658	-0.661
Mof_H 	H 	0.888	0.676	0.116	0.272
Mof_H 	H 	0.948	0.683	0.164	0.276
Mof_C 	C 	0.4917	0.6447	0.9515	-0.305
Mof_H 	H 	0.5042	0.6337	0.0082	0.119
Mof_H 	H 	0.5128	0.7015	0.9452	0.103
Mof_H 	H 	0.5153	0.6266	0.9087	0.09
Mof_Eu	Eu	0.21826	0.55517	0.21598	2.339
Mof_O 	O 	0.13401	0.51567	0.33317	-0.612
Mof_O 	O 	0.20754	0.57074	0.4493	-0.611
Mof_O 	O 	0.25582	0.6732	0.30034	-0.961
Mof_H 	H 	0.209	0.6753	0.3223	0.183
Mof_O 	O 	0.25777	0.50259	0.10397	-0.591
Mof_O 	O 	0.38306	0.54411	0.1403	-0.59
Mof_O 	O 	0.3327	0.2808	0.7874	-0.339
Mof_O 	O 	0.45492	0.35502	0.83958	-0.548
Mof_S 	S 	0.10391	0.66438	0.40645	-0.078
Mof_S 	S 	0.05454	0.37194	0.48596	0.017
Mof_S 	S 	0.38548	0.59328	0.93756	-0.12
Mof_C 	C 	0.0772	0.806	0.1478	-1.922
Mof_C 	C 	0.982	0.789	0.982	-0.673
Mof_C 	C 	0.0238	0.4966	0.7732	-0.633
Mof_H 	H 	0.1262	0.8345	0.1154	0.484
Mof_H 	H 	0.0852	0.8283	0.205	0.565
Mof_H 	H 	0.0353	0.8108	0.1194	0.557
Mof_H 	H 	0.0347	0.8097	0.0061	0.135
Mof_H 	H 	0.9575	0.818	0.0042	0.16
Mof_H 	H 	0.9861	0.7943	0.9199	0.242
Mof_H 	H 	0.9874	0.4774	0.8215	0.192
Mof_H 	H 	0.0596	0.4753	0.7766	0.169
Mof_H 	H 	0.9937	0.4792	0.7203	0.201
Mof_S 	S 	0.0495	0.7044	0.1547	0.245
Mof_S 	S 	0.9228	0.6867	0.0087	0.182
Mof_S 	S 	0.0822	0.6067	0.7756	0.12
Mof_Ag	Ag	0.6019	0.23086	0.22365	0.547
Mof_Cl	Cl	0.71474	0.24371	0.30036	-0.561
Mof_C 	C 	0.5355	0.3927	0.5903	0.491
Mof_C 	C 	0.573	0.5279	0.5395	0.02
Mof_C 	C 	0.5167	0.448	0.5418	-0.153
Mof_C 	C 	0.4431	0.4192	0.5034	0.01
Mof_C 	C 	0.725	0.5604	0.507	-0.316
Mof_H 	H 	0.7769	0.573	0.5287	0.095
Mof_H 	H 	0.6997	0.5082	0.4804	0.1
Mof_H 	H 	0.7313	0.6	0.465	0.112
Mof_C 	C 	0.3707	0.2811	0.4119	-0.407
Mof_H 	H 	0.3451	0.2235	0.4138	0.141
Mof_H 	H 	0.3415	0.2967	0.3736	0.122
Mof_H 	H 	0.4249	0.303	0.3915	0.17
Mof_C 	C 	0.5052	0.1828	0.9045	0.414
Mof_C 	C 	0.4571	0.1264	0.9747	-0.026
Mof_C 	C 	0.3787	0.0696	0.9606	-0.344
Mof_C 	C 	0.3369	0.014	0.0248	0.137
Mof_C 	C 	0.3739	0.0166	0.1009	-0.131
Mof_C 	C 	0.4521	0.0759	0.1162	-0.053
Mof_C 	C 	0.4933	0.1309	0.0524	0.006
Mof_C 	C 	0.3317	0.9492	0.1639	0.413
Mof_S 	S 	0.33165	0.07622	0.86978	0.952
Mof_S 	S 	0.2395	0.9398	0.0138	-0.215
Mof_S 	S 	0.5094	0.07649	0.20674	0.168
Mof_C 	C 	0.3371	0.0032	0.8089	-1.532
Mof_H 	H 	0.3096	0.9526	0.8387	0.427
Mof_H 	H 	0.3122	0.9983	0.7537	0.455
Mof_H 	H 	0.3925	0.0183	0.8008	0.431
Mof_C 	C 	0.1838	0.9797	0.0624	0.092
Mof_H 	H 	0.2066	0.002	0.1178	-0.108
Mof_H 	H 	0.1855	0.0212	0.0262	0.085
Mof_H 	H 	0.1289	0.9376	0.0698	-0.044
Mof_C 	C 	0.4481	0.0602	0.2975	-0.639
Mof_H 	H 	0.4118	0.0035	0.3044	0.227
Mof_H 	H 	0.4812	0.0809	0.3481	0.21
Mof_H 	H 	0.4178	0.0871	0.2895	0.206
Mof_O 	O 	0.6686	0.7696	0.8342	-0.664
Mof_H 	H 	0.676	0.788	0.884	0.274
Mof_H 	H 	0.683	0.735	0.836	0.276
Mof_C 	C 	0.6447	0.153	0.0485	-0.316
Mof_H 	H 	0.6337	0.1295	0.9918	0.125
Mof_H 	H 	0.7015	0.1887	0.0548	0.106
Mof_H 	H 	0.6266	0.1113	0.0913	0.093
Mof_Eu	Eu	0.55517	0.33691	0.78402	2.34
Mof_O 	O 	0.51567	0.38166	0.66683	-0.612
Mof_O 	O 	0.57074	0.3632	0.5507	-0.611
Mof_O 	O 	0.6732	0.41738	0.69966	-0.961
Mof_H 	H 	0.6753	0.4663	0.6777	0.183
Mof_O 	O 	0.50259	0.24482	0.89603	-0.591
Mof_O 	O 	0.54411	0.16105	0.8597	-0.59
Mof_O 	O 	0.2808	0.9481	0.2126	-0.339
Mof_O 	O 	0.35502	0.9001	0.16042	-0.548
Mof_S 	S 	0.66438	0.56047	0.59355	-0.079
Mof_S 	S 	0.37194	0.3174	0.51404	0.017
Mof_S 	S 	0.59328	0.2078	0.06244	-0.118
Mof_C 	C 	0.806	0.7288	0.8522	-1.955
Mof_C 	C 	0.789	0.807	0.018	-0.673
Mof_C 	C 	0.4966	0.4728	0.2268	-0.617
Mof_H 	H 	0.8345	0.7083	0.8846	0.491
Mof_H 	H 	0.8283	0.7431	0.795	0.574
Mof_H 	H 	0.8108	0.7755	0.8806	0.566
Mof_H 	H 	0.8097	0.775	0.9939	0.127
Mof_H 	H 	0.818	0.8605	0.9958	0.161
Mof_H 	H 	0.7943	0.8082	0.0801	0.235
Mof_H 	H 	0.4774	0.49	0.1785	0.186
Mof_H 	H 	0.4753	0.4157	0.2234	0.165
Mof_H 	H 	0.4792	0.4855	0.2797	0.195
Mof_S 	S 	0.7044	0.6549	0.8453	0.246
Mof_S 	S 	0.6867	0.7639	0.9913	0.174
Mof_S 	S 	0.6067	0.5245	0.2244	0.11
Mof_Ag	Ag	0.76914	0.37104	0.22365	0.547
Mof_Cl	Cl	0.75629	0.47103	0.30036	-0.561
Mof_C 	C 	0.6073	0.1428	0.5903	0.491
Mof_C 	C 	0.4721	0.0451	0.5395	0.02
Mof_C 	C 	0.552	0.0687	0.5418	-0.153
Mof_C 	C 	0.5808	0.0239	0.5034	0.01
Mof_C 	C 	0.4396	0.1646	0.507	-0.316
Mof_H 	H 	0.427	0.2039	0.5287	0.096
Mof_H 	H 	0.4918	0.1915	0.4804	0.1
Mof_H 	H 	0.4	0.1313	0.465	0.112
Mof_C 	C 	0.7189	0.0896	0.4119	-0.407
Mof_H 	H 	0.7765	0.1216	0.4138	0.141
Mof_H 	H 	0.7033	0.0448	0.3736	0.122
Mof_H 	H 	0.697	0.1219	0.3915	0.17
Mof_C 	C 	0.8172	0.3224	0.9045	0.414
Mof_C 	C 	0.8736	0.3307	0.9747	-0.026
Mof_C 	C 	0.9304	0.3091	0.9606	-0.338
Mof_C 	C 	0.986	0.3229	0.0248	0.128
Mof_C 	C 	0.9834	0.3573	0.1009	-0.127
Mof_C 	C 	0.9241	0.3762	0.1162	-0.054
Mof_C 	C 	0.8691	0.3624	0.0524	0.005
Mof_C 	C 	0.0508	0.3825	0.1639	0.411
Mof_S 	S 	0.92378	0.25543	0.86978	0.95
Mof_S 	S 	0.0602	0.2997	0.0138	-0.208
Mof_S 	S 	0.92351	0.43291	0.20674	0.169
Mof_C 	C 	0.9968	0.3339	0.8089	-1.528
Mof_H 	H 	0.0474	0.357	0.8387	0.426
Mof_H 	H 	0.0017	0.3139	0.7537	0.454
Mof_H 	H 	0.9817	0.3742	0.8008	0.43
Mof_C 	C 	0.0203	0.2041	0.0624	0.092
Mof_H 	H 	0.998	0.2046	0.1178	-0.138
Mof_H 	H 	0.9788	0.1643	0.0262	0.1
Mof_H 	H 	0.0624	0.1913	0.0698	-0.049
Mof_C 	C 	0.9398	0.3879	0.2975	-0.64
Mof_H 	H 	0.9965	0.4083	0.3044	0.227
Mof_H 	H 	0.9191	0.4003	0.3481	0.21
Mof_H 	H 	0.9129	0.3307	0.2895	0.206
Mof_O 	O 	0.2304	0.899	0.8342	-0.662
Mof_H 	H 	0.212	0.888	0.884	0.274
Mof_H 	H 	0.265	0.948	0.836	0.276
Mof_C 	C 	0.847	0.4917	0.0485	-0.312
Mof_H 	H 	0.8705	0.5042	0.9918	0.123
Mof_H 	H 	0.8113	0.5128	0.0548	0.105
Mof_H 	H 	0.8887	0.5153	0.0913	0.092
Mof_Eu	Eu	0.66309	0.21826	0.78402	2.34
Mof_O 	O 	0.61834	0.13401	0.66683	-0.612
Mof_O 	O 	0.6368	0.20754	0.5507	-0.611
Mof_O 	O 	0.58262	0.25582	0.69966	-0.961
Mof_H 	H 	0.5337	0.209	0.6777	0.183
Mof_O 	O 	0.75518	0.25777	0.89603	-0.591
Mof_O 	O 	0.83895	0.38306	0.8597	-0.59
Mof_O 	O 	0.0519	0.3327	0.2126	-0.338
Mof_O 	O 	0.0999	0.45492	0.16042	-0.548
Mof_S 	S 	0.43953	0.10391	0.59355	-0.078
Mof_S 	S 	0.6826	0.05454	0.51404	0.017
Mof_S 	S 	0.7922	0.38548	0.06244	-0.119
Mof_C 	C 	0.2712	0.0772	0.8522	-1.926
Mof_C 	C 	0.193	0.982	0.018	-0.558
Mof_C 	C 	0.5272	0.0238	0.2268	-0.632
Mof_H 	H 	0.2917	0.1262	0.8846	0.485
Mof_H 	H 	0.2569	0.0852	0.795	0.566
Mof_H 	H 	0.2245	0.0353	0.8806	0.559
Mof_H 	H 	0.225	0.0347	0.9939	0.104
Mof_H 	H 	0.1395	0.9575	0.9958	0.123
Mof_H 	H 	0.1918	0.9861	0.0801	0.188
Mof_H 	H 	0.51	0.9874	0.1785	0.192
Mof_H 	H 	0.5843	0.0596	0.2234	0.169
Mof_H 	H 	0.5145	0.9937	0.2797	0.201
Mof_S 	S 	0.3451	0.0495	0.8453	0.247
Mof_S 	S 	0.2361	0.9228	0.9913	0.161
Mof_S 	S 	0.4755	0.0822	0.2244	0.119
Mof_Ag	Ag	0.62896	0.3981	0.22365	0.549
Mof_Cl	Cl	0.52897	0.28526	0.30036	-0.561
Mof_C 	C 	0.8572	0.4645	0.5903	0.491
Mof_C 	C 	0.9549	0.427	0.5395	0.02
Mof_C 	C 	0.9313	0.4833	0.5418	-0.153
Mof_C 	C 	0.9761	0.5569	0.5034	0.01
Mof_C 	C 	0.8354	0.275	0.507	-0.316
Mof_H 	H 	0.7961	0.2231	0.5287	0.096
Mof_H 	H 	0.8085	0.3003	0.4804	0.1
Mof_H 	H 	0.8687	0.2687	0.465	0.112
Mof_C 	C 	0.9104	0.6293	0.4119	-0.408
Mof_H 	H 	0.8784	0.6549	0.4138	0.141
Mof_H 	H 	0.9552	0.6585	0.3736	0.123
Mof_H 	H 	0.8781	0.5751	0.3915	0.17
Mof_C 	C 	0.6776	0.4948	0.9045	0.413
Mof_C 	C 	0.6693	0.5429	0.9747	-0.026
Mof_C 	C 	0.6909	0.6213	0.9606	-0.351
Mof_C 	C 	0.6771	0.6631	0.0248	0.137
Mof_C 	C 	0.6427	0.6261	0.1009	-0.127
Mof_C 	C 	0.6238	0.5479	0.1162	-0.051
Mof_C 	C 	0.6376	0.5067	0.0524	0.007
Mof_C 	C 	0.6175	0.6683	0.1639	0.409
Mof_S 	S 	0.74457	0.66835	0.86978	0.972
Mof_S 	S 	0.7003	0.7605	0.0138	-0.2
Mof_S 	S 	0.56709	0.4906	0.20674	0.171
Mof_C 	C 	0.6661	0.6629	0.8089	-1.559
Mof_H 	H 	0.643	0.6904	0.8387	0.437
Mof_H 	H 	0.6861	0.6878	0.7537	0.465
Mof_H 	H 	0.6258	0.6075	0.8008	0.438
Mof_C 	C 	0.7959	0.8162	0.0624	0.09
Mof_H 	H 	0.7954	0.7934	0.1178	-0.131
Mof_H 	H 	0.8357	0.8145	0.0262	0.108
Mof_H 	H 	0.8087	0.8711	0.0698	-0.047
Mof_C 	C 	0.6121	0.5519	0.2975	-0.629
Mof_H 	H 	0.5917	0.5882	0.3044	0.225
Mof_H 	H 	0.5997	0.5188	0.3481	0.207
Mof_H 	H 	0.6693	0.5822	0.2895	0.205
Mof_O 	O 	0.101	0.3314	0.8342	-0.661
Mof_H 	H 	0.112	0.324	0.884	0.272
Mof_H 	H 	0.052	0.317	0.836	0.276
Mof_C 	C 	0.5083	0.3553	0.0485	-0.305
Mof_H 	H 	0.4958	0.3663	0.9918	0.119
Mof_H 	H 	0.4872	0.2985	0.0548	0.103
Mof_H 	H 	0.4847	0.3734	0.0913	0.09
Mof_Eu	Eu	0.78174	0.44483	0.78402	2.339
Mof_O 	O 	0.86599	0.48433	0.66683	-0.612
Mof_O 	O 	0.79246	0.42926	0.5507	-0.611
Mof_O 	O 	0.74418	0.3268	0.69966	-0.961
Mof_H 	H 	0.791	0.3247	0.6777	0.183
Mof_O 	O 	0.74223	0.49741	0.89603	-0.591
Mof_O 	O 	0.61694	0.45589	0.8597	-0.59
Mof_O 	O 	0.6673	0.7192	0.2126	-0.339
Mof_O 	O 	0.54508	0.64498	0.16042	-0.548
Mof_S 	S 	0.89609	0.33562	0.59355	-0.078
Mof_S 	S 	0.94546	0.62806	0.51404	0.017
Mof_S 	S 	0.61452	0.40672	0.06244	-0.12
Mof_C 	C 	0.9228	0.194	0.8522	-1.922
Mof_C 	C 	0.018	0.211	0.018	-0.673
Mof_C 	C 	0.9762	0.5034	0.2268	-0.633
Mof_H 	H 	0.8738	0.1655	0.8846	0.484
Mof_H 	H 	0.9148	0.1717	0.795	0.565
Mof_H 	H 	0.9647	0.1892	0.8806	0.557
Mof_H 	H 	0.9653	0.1903	0.9939	0.135
Mof_H 	H 	0.0425	0.182	0.9958	0.16
Mof_H 	H 	0.0139	0.2057	0.0801	0.242
Mof_H 	H 	0.0126	0.5226	0.1785	0.192
Mof_H 	H 	0.9404	0.5247	0.2234	0.169
Mof_H 	H 	0.0063	0.5208	0.2797	0.201
Mof_S 	S 	0.9505	0.2956	0.8453	0.245
Mof_S 	S 	0.0772	0.3133	0.9913	0.182
Mof_S 	S 	0.9178	0.3933	0.2244	0.12
Mof_Eu	Eu	0.33333	0.66667	0.40918	2.219
Mof_O 	O 	0.33333	0.66667	0.1579	-0.919
Mof_H 	H 	0.33333	0.66667	0.0945	0.209
Mof_Eu	Eu	0.66667	0.33333	0.59082	2.219
Mof_O 	O 	0.66667	0.33333	0.8421	-0.919
Mof_H 	H 	0.66667	0.33333	0.9055	0.209
_end
