# CIF file generated by openbabel 3.1.0, see https://openbabel.org
data_I
_chemical_name_common 'image0'
_cell_length_a 8.4358
_cell_length_b 10.074
_cell_length_c 15.079
_cell_angle_alpha 71.071
_cell_angle_beta 87.931
_cell_angle_gamma 67.631
_space_group_name_H-M_alt 'P 1'
_space_group_name_Hall 'P 1'
loop_
    _symmetry_equiv_pos_as_xyz
    x,y,z
loop_
    _atom_site_label
    _atom_site_type_symbol
    _atom_site_fract_x
    _atom_site_fract_y
    _atom_site_fract_z
    _atom_site_occupancy
    N1       N        0.78080    0.91250    0.60630    1.000
    H1       H        0.71710    0.00820    0.58430    1.000
    O1       O        0.57530    0.32920    0.12420    1.000
    O2       O        0.76850    0.13130    0.09050    1.000
    O3       O        0.83220    0.39400    0.84580    1.000
    O4       O        0.76520    0.44860    0.97440    1.000
    O5       O        0.80270    0.09130    0.87990    1.000
    O6       O        0.92340    0.87490    0.00150    1.000
    O7       O        0.94990    0.70740    0.56750    1.000
    C1       C        0.72350    0.10370    0.24950    1.000
    C2       C        0.84920    0.95710    0.28020    1.000
    H2       H        0.90840    0.91330    0.23690    1.000
    C3       C        0.88590    0.87650    0.37580    1.000
    H3       H        0.96990    0.77790    0.39600    1.000
    C4       C        0.80200    0.93760    0.44170    1.000
    C5       C        0.67540    0.08130    0.40960    1.000
    H4       H        0.61410    0.12400    0.45280    1.000
    C6       C        0.63690    0.16400    0.31470    1.000
    H5       H        0.55120    0.26180    0.29480    1.000
    C7       C        0.80420    0.84050    0.70650    1.000
    C8       C        0.80690    0.69590    0.74820    1.000
    H6       H        0.80170    0.63930    0.71120    1.000
    C9       C        0.81740    0.63470    0.84620    1.000
    C10      C        0.83530    0.71530    0.90210    1.000
    H7       H        0.84740    0.67290    0.96750    1.000
    C11      C        0.83460    0.86090    0.85840    1.000
    C12      C        0.81570    0.92340    0.76140    1.000
    H8       H        0.81070    0.02200    0.73280    1.000
    C13      C        0.68550    0.19550    0.14590    1.000
    C14      C        0.80390    0.48440    0.89060    1.000
    C15      C        0.85720    0.94680    0.91830    1.000
    C16      C        0.85100    0.84190    0.54340    1.000
    Zn1      Zn       0.81853    0.21036    0.95824    1.000
    N2       N        0.21920    0.08750    0.39370    1.000
    H9       H        0.28290    0.99180    0.41570    1.000
    O8       O        0.42470    0.67080    0.87580    1.000
    O9       O        0.23150    0.86870    0.90950    1.000
    O10      O        0.16780    0.60600    0.15420    1.000
    O11      O        0.23480    0.55140    0.02560    1.000
    O12      O        0.19730    0.90870    0.12010    1.000
    O13      O        0.07660    0.12510    0.99850    1.000
    O14      O        0.05010    0.29260    0.43250    1.000
    C17      C        0.27650    0.89630    0.75050    1.000
    C18      C        0.15080    0.04290    0.71980    1.000
    H10      H        0.09160    0.08670    0.76310    1.000
    C19      C        0.11410    0.12350    0.62420    1.000
    H11      H        0.03010    0.22210    0.60400    1.000
    C20      C        0.19800    0.06240    0.55830    1.000
    C21      C        0.32460    0.91870    0.59040    1.000
    H12      H        0.38590    0.87600    0.54720    1.000
    C22      C        0.36310    0.83600    0.68530    1.000
    H13      H        0.44880    0.73820    0.70520    1.000
    C23      C        0.19580    0.15950    0.29350    1.000
    C24      C        0.19310    0.30410    0.25180    1.000
    H14      H        0.19830    0.36070    0.28880    1.000
    C25      C        0.18260    0.36530    0.15380    1.000
    C26      C        0.16470    0.28470    0.09790    1.000
    H15      H        0.15260    0.32710    0.03250    1.000
    C27      C        0.16540    0.13910    0.14160    1.000
    C28      C        0.18430    0.07660    0.23860    1.000
    H16      H        0.18930    0.97800    0.26720    1.000
    C29      C        0.31450    0.80450    0.85410    1.000
    C30      C        0.19610    0.51560    0.10940    1.000
    C31      C        0.14280    0.05320    0.08170    1.000
    C32      C        0.14900    0.15810    0.45660    1.000
    Zn2      Zn       0.18147    0.78964    0.04176    1.000
    Zn3      Zn       0.50000    0.50000    0.00000    1.000
