# CIF file generated by openbabel 3.1.0, see https://openbabel.org
data_I
_chemical_name_common 'XUVGUQ01_ion_b'
_cell_length_a 18.2382
_cell_length_b 18.2382
_cell_length_c 10.212
_cell_angle_alpha 90
_cell_angle_beta 90
_cell_angle_gamma 123.628
_space_group_name_H-M_alt 'P 1'
_space_group_name_Hall 'P 1'
loop_
    _symmetry_equiv_pos_as_xyz
    x,y,z
loop_
    _atom_site_label
    _atom_site_type_symbol
    _atom_site_fract_x
    _atom_site_fract_y
    _atom_site_fract_z
    _atom_site_occupancy
    Rb1      Rb       0.09241    0.76209    0.96049    1.000
    Ga2      Ga       0.84582    0.00702    0.28894    1.000
    Ga3      Ga       0.15492    0.66866    0.29917    1.000
    Ga4      Ga       0.34558    0.00870    0.10730    1.000
    Ga5      Ga       0.96214    0.51168    0.13230    1.000
    P6       P        0.30768    0.81756    0.10460    1.000
    P7       P        0.34292    0.02624    0.81621    1.000
    P8       P        0.15883    0.97681    0.09568    1.000
    P9       P        0.93272    0.52656    0.83467    1.000
    F10      F        0.08448    0.61662    0.12880    1.000
    F11      F        0.96627    0.04841    0.33160    1.000
    F12      F        0.45291    0.01027    0.04220    1.000
    O13      O        0.01298    0.52810    0.79280    1.000
    O14      O        0.40406    0.84834    0.12640    1.000
    O15      O        0.25343    0.74261    0.19910    1.000
    O16      O        0.94415    0.55935    0.97550    1.000
    O17      O        0.42811    0.07631    0.73580    1.000
    O18      O        0.27766    0.78442    0.96530    1.000
    O19      O        0.84827    0.43313    0.82000    1.000
    O20      O        0.30693    0.92793    0.83680    1.000
    O21      O        0.16734    0.95732    0.95170    1.000
    O22      O        0.92111    0.58941    0.74740    1.000
    O23      O        0.24532    0.01132    0.16480    1.000
    O24      O        0.13437    0.04431    0.10480    1.000
    O25      O        0.27463    0.03411    0.74310    1.000
    O26      O        0.08755    0.88639    0.15380    1.000
    O27      O        0.36100    0.06934    0.95290    1.000
    O28      O        0.28943    0.88837    0.13900    1.000
    O29      O        0.81759    0.89479    0.24680    1.000
    N30      N        0.58693    0.18043    0.92640    1.000
    H31      H        0.62590    0.20450    0.86140    1.000
    H32      H        0.53520    0.13700    0.89510    1.000
    H33      H        0.60580    0.15920    0.98630    1.000
    C34      C        0.57693    0.24807    0.98690    1.000
    H35      H        0.60810    0.26570    0.06980    1.000
    H36      H        0.51500    0.22220    0.00510    1.000
    C37      C        0.61094    0.32906    0.90280    1.000
    H38      H        0.56810    0.31390    0.83400    1.000
    H39      H        0.66460    0.34200    0.86070    1.000
    C40      C        0.63080    0.41340    0.96630    1.000
    H41      H        0.57350    0.40350    0.98220    1.000
    H42      H        0.65410    0.41410    0.05190    1.000
    C43      C        0.68710    0.50670    0.91940    1.000
    H44      H        0.66040    0.52080    0.85020    1.000
    H45      H        0.74670    0.52550    0.89660    1.000
    C46      C        0.67860    0.53560    0.05330    1.000
    H47      H        0.64640    0.48320    0.10730    1.000
    H48      H        0.64200    0.55860    0.04460    1.000
    C49      C        0.75940    0.60240    0.12820    1.000
    H50      H        0.75240    0.64860    0.15840    1.000
    H51      H        0.76490    0.57430    0.20470    1.000
    N52      N        0.84110    0.64230    0.05000    1.000
    H53      H        0.83560    0.66640    0.97790    1.000
    H54      H        0.85040    0.60100    0.02770    1.000
    H55      H        0.88630    0.68370    0.09710    1.000
    Rb58     Rb       0.90759    0.23791    0.46049    1.000
    Ga59     Ga       0.15418    0.99298    0.78894    1.000
    Ga60     Ga       0.84508    0.33134    0.79917    1.000
    Ga61     Ga       0.65442    0.99130    0.60730    1.000
    Ga62     Ga       0.03786    0.48832    0.63230    1.000
    P63      P        0.69232    0.18244    0.60460    1.000
    P64      P        0.65708    0.97376    0.31621    1.000
    P65      P        0.84117    0.02319    0.59568    1.000
    P66      P        0.06728    0.47344    0.33467    1.000
    F67      F        0.91552    0.38338    0.62880    1.000
    F68      F        0.03373    0.95159    0.83160    1.000
    F69      F        0.54709    0.98973    0.54220    1.000
    O70      O        0.98702    0.47190    0.29280    1.000
    O71      O        0.59594    0.15166    0.62640    1.000
    O72      O        0.74657    0.25739    0.69910    1.000
    O73      O        0.05585    0.44065    0.47550    1.000
    O74      O        0.57189    0.92369    0.23580    1.000
    O75      O        0.72234    0.21558    0.46530    1.000
    O76      O        0.15173    0.56687    0.32000    1.000
    O77      O        0.69307    0.07207    0.33680    1.000
    O78      O        0.83266    0.04268    0.45170    1.000
    O79      O        0.07889    0.41059    0.24740    1.000
    O80      O        0.75468    0.98868    0.66480    1.000
    O81      O        0.86563    0.95569    0.60480    1.000
    O82      O        0.72537    0.96589    0.24310    1.000
    O83      O        0.91245    0.11361    0.65380    1.000
    O84      O        0.63900    0.93066    0.45290    1.000
    O85      O        0.71057    0.11163    0.63900    1.000
    O86      O        0.18241    0.10521    0.74680    1.000
    N87      N        0.41307    0.81957    0.42640    1.000
    H88      H        0.37410    0.79550    0.36140    1.000
    H89      H        0.46480    0.86300    0.39510    1.000
    H90      H        0.39420    0.84080    0.48630    1.000
    C91      C        0.42307    0.75193    0.48690    1.000
    H92      H        0.39190    0.73430    0.56980    1.000
    H93      H        0.48500    0.77780    0.50510    1.000
    C94      C        0.38906    0.67094    0.40280    1.000
    H95      H        0.43190    0.68610    0.33400    1.000
    H96      H        0.33540    0.65800    0.36070    1.000
    C97      C        0.36920    0.58660    0.46630    1.000
    H98      H        0.42650    0.59650    0.48220    1.000
    H99      H        0.34590    0.58590    0.55190    1.000
    C100     C        0.31290    0.49330    0.41940    1.000
    H101     H        0.33960    0.47920    0.35020    1.000
    H102     H        0.25330    0.47450    0.39660    1.000
    C103     C        0.32140    0.46440    0.55330    1.000
    H104     H        0.35360    0.51680    0.60730    1.000
    H105     H        0.35800    0.44140    0.54460    1.000
    C106     C        0.24060    0.39760    0.62820    1.000
    H107     H        0.24760    0.35140    0.65840    1.000
    H108     H        0.23510    0.42570    0.70470    1.000
    N109     N        0.15890    0.35770    0.55000    1.000
    H110     H        0.16440    0.33360    0.47790    1.000
    H111     H        0.14960    0.39900    0.52770    1.000
    H112     H        0.11370    0.31630    0.59710    1.000
    Rb115    Rb       0.23791    0.90759    0.46049    1.000
    Ga116    Ga       0.99298    0.15418    0.78894    1.000
    Ga117    Ga       0.33134    0.84508    0.79917    1.000
    Ga118    Ga       0.99130    0.65442    0.60730    1.000
    Ga119    Ga       0.48832    0.03786    0.63230    1.000
    P120     P        0.18244    0.69232    0.60460    1.000
    P121     P        0.97376    0.65708    0.31621    1.000
    P122     P        0.02319    0.84117    0.59568    1.000
    P123     P        0.47344    0.06728    0.33467    1.000
    F124     F        0.38338    0.91552    0.62880    1.000
    F125     F        0.95159    0.03373    0.83160    1.000
    F126     F        0.98973    0.54709    0.54220    1.000
    O127     O        0.47190    0.98702    0.29280    1.000
    O128     O        0.15166    0.59594    0.62640    1.000
    O129     O        0.25739    0.74657    0.69910    1.000
    O130     O        0.44065    0.05585    0.47550    1.000
    O131     O        0.92369    0.57189    0.23580    1.000
    O132     O        0.21558    0.72234    0.46530    1.000
    O133     O        0.56687    0.15173    0.32000    1.000
    O134     O        0.07207    0.69307    0.33680    1.000
    O135     O        0.04268    0.83266    0.45170    1.000
    O136     O        0.41059    0.07889    0.24740    1.000
    O137     O        0.98868    0.75468    0.66480    1.000
    O138     O        0.95569    0.86563    0.60480    1.000
    O139     O        0.96589    0.72537    0.24310    1.000
    O140     O        0.11361    0.91245    0.65380    1.000
    O141     O        0.93066    0.63900    0.45290    1.000
    O142     O        0.11163    0.71057    0.63900    1.000
    O143     O        0.10521    0.18241    0.74680    1.000
    N144     N        0.81957    0.41307    0.42640    1.000
    H145     H        0.79550    0.37410    0.36140    1.000
    H146     H        0.86300    0.46480    0.39510    1.000
    H147     H        0.84080    0.39420    0.48630    1.000
    C148     C        0.75193    0.42307    0.48690    1.000
    H149     H        0.73430    0.39190    0.56980    1.000
    H150     H        0.77780    0.48500    0.50510    1.000
    C151     C        0.67094    0.38906    0.40280    1.000
    H152     H        0.68610    0.43190    0.33400    1.000
    H153     H        0.65800    0.33540    0.36070    1.000
    C154     C        0.58660    0.36920    0.46630    1.000
    H155     H        0.59650    0.42650    0.48220    1.000
    H156     H        0.58590    0.34590    0.55190    1.000
    C157     C        0.49330    0.31290    0.41940    1.000
    H158     H        0.47920    0.33960    0.35020    1.000
    H159     H        0.47450    0.25330    0.39660    1.000
    C160     C        0.46440    0.32140    0.55330    1.000
    H161     H        0.51680    0.35360    0.60730    1.000
    H162     H        0.44140    0.35800    0.54460    1.000
    C163     C        0.39760    0.24060    0.62820    1.000
    H164     H        0.35140    0.24760    0.65840    1.000
    H165     H        0.42570    0.23510    0.70470    1.000
    N166     N        0.35770    0.15890    0.55000    1.000
    H167     H        0.33360    0.16440    0.47790    1.000
    H168     H        0.39900    0.14960    0.52770    1.000
    H169     H        0.31630    0.11370    0.59710    1.000
    Rb172    Rb       0.76209    0.09241    0.96049    1.000
    Ga173    Ga       0.00702    0.84582    0.28894    1.000
    Ga174    Ga       0.66866    0.15492    0.29917    1.000
    Ga175    Ga       0.00870    0.34558    0.10730    1.000
    Ga176    Ga       0.51168    0.96214    0.13230    1.000
    P177     P        0.81756    0.30768    0.10460    1.000
    P178     P        0.02624    0.34292    0.81621    1.000
    P179     P        0.97681    0.15883    0.09568    1.000
    P180     P        0.52656    0.93272    0.83467    1.000
    F181     F        0.61662    0.08448    0.12880    1.000
    F182     F        0.04841    0.96627    0.33160    1.000
    F183     F        0.01027    0.45291    0.04220    1.000
    O184     O        0.52810    0.01298    0.79280    1.000
    O185     O        0.84834    0.40406    0.12640    1.000
    O186     O        0.74261    0.25343    0.19910    1.000
    O187     O        0.55935    0.94415    0.97550    1.000
    O188     O        0.07631    0.42811    0.73580    1.000
    O189     O        0.78442    0.27766    0.96530    1.000
    O190     O        0.43313    0.84827    0.82000    1.000
    O191     O        0.92793    0.30693    0.83680    1.000
    O192     O        0.95732    0.16734    0.95170    1.000
    O193     O        0.58941    0.92111    0.74740    1.000
    O194     O        0.01132    0.24532    0.16480    1.000
    O195     O        0.04431    0.13437    0.10480    1.000
    O196     O        0.03411    0.27463    0.74310    1.000
    O197     O        0.88639    0.08755    0.15380    1.000
    O198     O        0.06934    0.36100    0.95290    1.000
    O199     O        0.88837    0.28943    0.13900    1.000
    O200     O        0.89479    0.81759    0.24680    1.000
    N201     N        0.18043    0.58693    0.92640    1.000
    H202     H        0.20450    0.62590    0.86140    1.000
    H203     H        0.13700    0.53520    0.89510    1.000
    H204     H        0.15920    0.60580    0.98630    1.000
    C205     C        0.24807    0.57693    0.98690    1.000
    H206     H        0.26570    0.60810    0.06980    1.000
    H207     H        0.22220    0.51500    0.00510    1.000
    C208     C        0.32906    0.61094    0.90280    1.000
    H209     H        0.31390    0.56810    0.83400    1.000
    H210     H        0.34200    0.66460    0.86070    1.000
    C211     C        0.41340    0.63080    0.96630    1.000
    H212     H        0.40350    0.57350    0.98220    1.000
    H213     H        0.41410    0.65410    0.05190    1.000
    C214     C        0.50670    0.68710    0.91940    1.000
    H215     H        0.52080    0.66040    0.85020    1.000
    H216     H        0.52550    0.74670    0.89660    1.000
    C217     C        0.53560    0.67860    0.05330    1.000
    H218     H        0.48320    0.64640    0.10730    1.000
    H219     H        0.55860    0.64200    0.04460    1.000
    C220     C        0.60240    0.75940    0.12820    1.000
    H221     H        0.64860    0.75240    0.15840    1.000
    H222     H        0.57430    0.76490    0.20470    1.000
    N223     N        0.64230    0.84110    0.05000    1.000
    H224     H        0.66640    0.83560    0.97790    1.000
    H225     H        0.60100    0.85040    0.02770    1.000
    H226     H        0.68370    0.88630    0.09710    1.000
    Ga229    Ga       0.05093    0.05093    0.21266    1.000
    P230     P        0.87258    0.87258    0.16255    1.000
    F231     F        0.14686    0.14686    0.30850    1.000
    O232     O        0.95472    0.95472    0.10620    1.000
    O233     O        0.81340    0.81340    0.04750    1.000
    Ga237    Ga       0.94907    0.94907    0.71266    1.000
    P238     P        0.12742    0.12742    0.66255    1.000
    F239     F        0.85314    0.85314    0.80850    1.000
    O240     O        0.04528    0.04528    0.60620    1.000
    O241     O        0.18660    0.18660    0.54750    1.000
