# CIF file generated by openbabel 3.1.0, see https://openbabel.org
data_I
_chemical_name_common 'image0'
_cell_length_a 13.3511
_cell_length_b 13.3511
_cell_length_c 13.3511
_cell_angle_alpha 90
_cell_angle_beta 90
_cell_angle_gamma 90
_space_group_name_H-M_alt 'P 1'
_space_group_name_Hall 'P 1'
loop_
    _symmetry_equiv_pos_as_xyz
    x,y,z
loop_
    _atom_site_label
    _atom_site_type_symbol
    _atom_site_fract_x
    _atom_site_fract_y
    _atom_site_fract_z
    _atom_site_occupancy
    N1       N        0.43860    0.13870    0.96510    1.000
    N2       N        0.43860    0.63870    0.46510    1.000
    N3       N        0.93860    0.13870    0.46510    1.000
    N4       N        0.93860    0.63870    0.96510    1.000
    N5       N        0.56140    0.86130    0.96510    1.000
    N6       N        0.56140    0.36130    0.46510    1.000
    N7       N        0.06140    0.86130    0.46510    1.000
    N8       N        0.06140    0.36130    0.96510    1.000
    N9       N        0.56140    0.13870    0.03490    1.000
    N10      N        0.56140    0.63870    0.53490    1.000
    N11      N        0.06140    0.13870    0.53490    1.000
    N12      N        0.06140    0.63870    0.03490    1.000
    N13      N        0.43860    0.86130    0.03490    1.000
    N14      N        0.43860    0.36130    0.53490    1.000
    N15      N        0.93860    0.86130    0.53490    1.000
    N16      N        0.93860    0.36130    0.03490    1.000
    N17      N        0.96510    0.43860    0.13870    1.000
    N18      N        0.96510    0.93860    0.63870    1.000
    N19      N        0.46510    0.43860    0.63870    1.000
    N20      N        0.46510    0.93860    0.13870    1.000
    N21      N        0.96510    0.56140    0.86130    1.000
    N22      N        0.96510    0.06140    0.36130    1.000
    N23      N        0.46510    0.56140    0.36130    1.000
    N24      N        0.46510    0.06140    0.86130    1.000
    N25      N        0.03490    0.56140    0.13870    1.000
    N26      N        0.03490    0.06140    0.63870    1.000
    N27      N        0.53490    0.56140    0.63870    1.000
    N28      N        0.53490    0.06140    0.13870    1.000
    N29      N        0.03490    0.43860    0.86130    1.000
    N30      N        0.03490    0.93860    0.36130    1.000
    N31      N        0.53490    0.43860    0.36130    1.000
    N32      N        0.53490    0.93860    0.86130    1.000
    N33      N        0.13870    0.96510    0.43860    1.000
    N34      N        0.13870    0.46510    0.93860    1.000
    N35      N        0.63870    0.96510    0.93860    1.000
    N36      N        0.63870    0.46510    0.43860    1.000
    N37      N        0.86130    0.96510    0.56140    1.000
    N38      N        0.86130    0.46510    0.06140    1.000
    N39      N        0.36130    0.96510    0.06140    1.000
    N40      N        0.36130    0.46510    0.56140    1.000
    N41      N        0.13870    0.03490    0.56140    1.000
    N42      N        0.13870    0.53490    0.06140    1.000
    N43      N        0.63870    0.03490    0.06140    1.000
    N44      N        0.63870    0.53490    0.56140    1.000
    N45      N        0.86130    0.03490    0.43860    1.000
    N46      N        0.86130    0.53490    0.93860    1.000
    N47      N        0.36130    0.03490    0.93860    1.000
    N48      N        0.36130    0.53490    0.43860    1.000
    N49      N        0.13870    0.43860    0.03490    1.000
    N50      N        0.13870    0.93860    0.53490    1.000
    N51      N        0.63870    0.43860    0.53490    1.000
    N52      N        0.63870    0.93860    0.03490    1.000
    N53      N        0.86130    0.56140    0.03490    1.000
    N54      N        0.86130    0.06140    0.53490    1.000
    N55      N        0.36130    0.56140    0.53490    1.000
    N56      N        0.36130    0.06140    0.03490    1.000
    N57      N        0.13870    0.56140    0.96510    1.000
    N58      N        0.13870    0.06140    0.46510    1.000
    N59      N        0.63870    0.56140    0.46510    1.000
    N60      N        0.63870    0.06140    0.96510    1.000
    N61      N        0.86130    0.43860    0.96510    1.000
    N62      N        0.86130    0.93860    0.46510    1.000
    N63      N        0.36130    0.43860    0.46510    1.000
    N64      N        0.36130    0.93860    0.96510    1.000
    N65      N        0.43860    0.96510    0.86130    1.000
    N66      N        0.43860    0.46510    0.36130    1.000
    N67      N        0.93860    0.96510    0.36130    1.000
    N68      N        0.93860    0.46510    0.86130    1.000
    N69      N        0.56140    0.96510    0.13870    1.000
    N70      N        0.56140    0.46510    0.63870    1.000
    N71      N        0.06140    0.96510    0.63870    1.000
    N72      N        0.06140    0.46510    0.13870    1.000
    N73      N        0.56140    0.03490    0.86130    1.000
    N74      N        0.56140    0.53490    0.36130    1.000
    N75      N        0.06140    0.03490    0.36130    1.000
    N76      N        0.06140    0.53490    0.86130    1.000
    N77      N        0.43860    0.03490    0.13870    1.000
    N78      N        0.43860    0.53490    0.63870    1.000
    N79      N        0.93860    0.03490    0.63870    1.000
    N80      N        0.93860    0.53490    0.13870    1.000
    N81      N        0.96510    0.13870    0.56140    1.000
    N82      N        0.96510    0.63870    0.06140    1.000
    N83      N        0.46510    0.13870    0.06140    1.000
    N84      N        0.46510    0.63870    0.56140    1.000
    N85      N        0.96510    0.86130    0.43860    1.000
    N86      N        0.96510    0.36130    0.93860    1.000
    N87      N        0.46510    0.86130    0.93860    1.000
    N88      N        0.46510    0.36130    0.43860    1.000
    N89      N        0.03490    0.13870    0.43860    1.000
    N90      N        0.03490    0.63870    0.93860    1.000
    N91      N        0.53490    0.13870    0.93860    1.000
    N92      N        0.53490    0.63870    0.43860    1.000
    N93      N        0.03490    0.86130    0.56140    1.000
    N94      N        0.03490    0.36130    0.06140    1.000
    N95      N        0.53490    0.86130    0.06140    1.000
    N96      N        0.53490    0.36130    0.56140    1.000
    N97      N        0.56140    0.86130    0.03490    1.000
    N98      N        0.56140    0.36130    0.53490    1.000
    N99      N        0.06140    0.86130    0.53490    1.000
    N100     N        0.06140    0.36130    0.03490    1.000
    N101     N        0.43860    0.13870    0.03490    1.000
    N102     N        0.43860    0.63870    0.53490    1.000
    N103     N        0.93860    0.13870    0.53490    1.000
    N104     N        0.93860    0.63870    0.03490    1.000
    N105     N        0.43860    0.86130    0.96510    1.000
    N106     N        0.43860    0.36130    0.46510    1.000
    N107     N        0.93860    0.86130    0.46510    1.000
    N108     N        0.93860    0.36130    0.96510    1.000
    N109     N        0.56140    0.13870    0.96510    1.000
    N110     N        0.56140    0.63870    0.46510    1.000
    N111     N        0.06140    0.13870    0.46510    1.000
    N112     N        0.06140    0.63870    0.96510    1.000
    N113     N        0.03490    0.56140    0.86130    1.000
    N114     N        0.03490    0.06140    0.36130    1.000
    N115     N        0.53490    0.56140    0.36130    1.000
    N116     N        0.53490    0.06140    0.86130    1.000
    N117     N        0.03490    0.43860    0.13870    1.000
    N118     N        0.03490    0.93860    0.63870    1.000
    N119     N        0.53490    0.43860    0.63870    1.000
    N120     N        0.53490    0.93860    0.13870    1.000
    N121     N        0.96510    0.43860    0.86130    1.000
    N122     N        0.96510    0.93860    0.36130    1.000
    N123     N        0.46510    0.43860    0.36130    1.000
    N124     N        0.46510    0.93860    0.86130    1.000
    N125     N        0.96510    0.56140    0.13870    1.000
    N126     N        0.96510    0.06140    0.63870    1.000
    N127     N        0.46510    0.56140    0.63870    1.000
    N128     N        0.46510    0.06140    0.13870    1.000
    N129     N        0.86130    0.03490    0.56140    1.000
    N130     N        0.86130    0.53490    0.06140    1.000
    N131     N        0.36130    0.03490    0.06140    1.000
    N132     N        0.36130    0.53490    0.56140    1.000
    N133     N        0.13870    0.03490    0.43860    1.000
    N134     N        0.13870    0.53490    0.93860    1.000
    N135     N        0.63870    0.03490    0.93860    1.000
    N136     N        0.63870    0.53490    0.43860    1.000
    N137     N        0.86130    0.96510    0.43860    1.000
    N138     N        0.86130    0.46510    0.93860    1.000
    N139     N        0.36130    0.96510    0.93860    1.000
    N140     N        0.36130    0.46510    0.43860    1.000
    N141     N        0.13870    0.96510    0.56140    1.000
    N142     N        0.13870    0.46510    0.06140    1.000
    N143     N        0.63870    0.96510    0.06140    1.000
    N144     N        0.63870    0.46510    0.56140    1.000
    N145     N        0.86130    0.56140    0.96510    1.000
    N146     N        0.86130    0.06140    0.46510    1.000
    N147     N        0.36130    0.56140    0.46510    1.000
    N148     N        0.36130    0.06140    0.96510    1.000
    N149     N        0.13870    0.43860    0.96510    1.000
    N150     N        0.13870    0.93860    0.46510    1.000
    N151     N        0.63870    0.43860    0.46510    1.000
    N152     N        0.63870    0.93860    0.96510    1.000
    N153     N        0.86130    0.43860    0.03490    1.000
    N154     N        0.86130    0.93860    0.53490    1.000
    N155     N        0.36130    0.43860    0.53490    1.000
    N156     N        0.36130    0.93860    0.03490    1.000
    N157     N        0.13870    0.56140    0.03490    1.000
    N158     N        0.13870    0.06140    0.53490    1.000
    N159     N        0.63870    0.56140    0.53490    1.000
    N160     N        0.63870    0.06140    0.03490    1.000
    N161     N        0.56140    0.03490    0.13870    1.000
    N162     N        0.56140    0.53490    0.63870    1.000
    N163     N        0.06140    0.03490    0.63870    1.000
    N164     N        0.06140    0.53490    0.13870    1.000
    N165     N        0.43860    0.03490    0.86130    1.000
    N166     N        0.43860    0.53490    0.36130    1.000
    N167     N        0.93860    0.03490    0.36130    1.000
    N168     N        0.93860    0.53490    0.86130    1.000
    N169     N        0.43860    0.96510    0.13870    1.000
    N170     N        0.43860    0.46510    0.63870    1.000
    N171     N        0.93860    0.96510    0.63870    1.000
    N172     N        0.93860    0.46510    0.13870    1.000
    N173     N        0.56140    0.96510    0.86130    1.000
    N174     N        0.56140    0.46510    0.36130    1.000
    N175     N        0.06140    0.96510    0.36130    1.000
    N176     N        0.06140    0.46510    0.86130    1.000
    N177     N        0.03490    0.86130    0.43860    1.000
    N178     N        0.03490    0.36130    0.93860    1.000
    N179     N        0.53490    0.86130    0.93860    1.000
    N180     N        0.53490    0.36130    0.43860    1.000
    N181     N        0.03490    0.13870    0.56140    1.000
    N182     N        0.03490    0.63870    0.06140    1.000
    N183     N        0.53490    0.13870    0.06140    1.000
    N184     N        0.53490    0.63870    0.56140    1.000
    N185     N        0.96510    0.86130    0.56140    1.000
    N186     N        0.96510    0.36130    0.06140    1.000
    N187     N        0.46510    0.86130    0.06140    1.000
    N188     N        0.46510    0.36130    0.56140    1.000
    N189     N        0.96510    0.13870    0.43860    1.000
    N190     N        0.96510    0.63870    0.93860    1.000
    N191     N        0.46510    0.13870    0.93860    1.000
    N192     N        0.46510    0.63870    0.43860    1.000
    K1       K        0.50000    0.50000    0.00000    1.000
    K2       K        0.00000    0.50000    0.50000    1.000
    K3       K        0.50000    0.00000    0.50000    1.000
    K4       K        0.00000    0.00000    0.00000    1.000
    N193     N        0.47900    0.21620    0.97900    1.000
    N194     N        0.47900    0.71620    0.47900    1.000
    N195     N        0.52100    0.78380    0.97900    1.000
    N196     N        0.52100    0.28380    0.47900    1.000
    N197     N        0.02100    0.78380    0.47900    1.000
    N198     N        0.52100    0.21620    0.02100    1.000
    N199     N        0.52100    0.71620    0.52100    1.000
    N200     N        0.02100    0.71620    0.02100    1.000
    N201     N        0.47900    0.78380    0.02100    1.000
    N202     N        0.47900    0.28380    0.52100    1.000
    N203     N        0.97900    0.47900    0.21620    1.000
    N204     N        0.97900    0.97900    0.71620    1.000
    N205     N        0.47900    0.47900    0.71620    1.000
    N206     N        0.97900    0.52100    0.78380    1.000
    N207     N        0.97900    0.02100    0.28380    1.000
    N208     N        0.47900    0.02100    0.78380    1.000
    N209     N        0.02100    0.52100    0.21620    1.000
    N210     N        0.02100    0.02100    0.71620    1.000
    N211     N        0.02100    0.47900    0.78380    1.000
    N212     N        0.02100    0.97900    0.28380    1.000
    N213     N        0.21620    0.97900    0.47900    1.000
    N214     N        0.71620    0.97900    0.97900    1.000
    N215     N        0.71620    0.47900    0.47900    1.000
    N216     N        0.78380    0.97900    0.52100    1.000
    N217     N        0.78380    0.47900    0.02100    1.000
    N218     N        0.28380    0.97900    0.02100    1.000
    N219     N        0.21620    0.02100    0.52100    1.000
    N220     N        0.71620    0.02100    0.02100    1.000
    N221     N        0.78380    0.02100    0.47900    1.000
    N222     N        0.28380    0.02100    0.97900    1.000
    N223     N        0.21620    0.47900    0.02100    1.000
    N224     N        0.71620    0.47900    0.52100    1.000
    N225     N        0.78380    0.52100    0.02100    1.000
    N226     N        0.28380    0.52100    0.52100    1.000
    N227     N        0.28380    0.02100    0.02100    1.000
    N228     N        0.21620    0.52100    0.97900    1.000
    N229     N        0.21620    0.02100    0.47900    1.000
    N230     N        0.71620    0.52100    0.47900    1.000
    N231     N        0.78380    0.47900    0.97900    1.000
    N232     N        0.28380    0.47900    0.47900    1.000
    N233     N        0.47900    0.97900    0.78380    1.000
    N234     N        0.47900    0.47900    0.28380    1.000
    N235     N        0.52100    0.97900    0.21620    1.000
    N236     N        0.52100    0.47900    0.71620    1.000
    N237     N        0.02100    0.47900    0.21620    1.000
    N238     N        0.52100    0.02100    0.78380    1.000
    N239     N        0.52100    0.52100    0.28380    1.000
    N240     N        0.02100    0.02100    0.28380    1.000
    N241     N        0.47900    0.02100    0.21620    1.000
    N242     N        0.47900    0.52100    0.71620    1.000
    N243     N        0.97900    0.21620    0.52100    1.000
    N244     N        0.97900    0.71620    0.02100    1.000
    N245     N        0.47900    0.21620    0.02100    1.000
    N246     N        0.97900    0.78380    0.47900    1.000
    N247     N        0.97900    0.28380    0.97900    1.000
    N248     N        0.47900    0.28380    0.47900    1.000
    N249     N        0.02100    0.21620    0.47900    1.000
    N250     N        0.02100    0.71620    0.97900    1.000
    N251     N        0.02100    0.78380    0.52100    1.000
    N252     N        0.02100    0.28380    0.02100    1.000
    N253     N        0.52100    0.78380    0.02100    1.000
    N254     N        0.52100    0.28380    0.52100    1.000
    N255     N        0.47900    0.71620    0.52100    1.000
    N256     N        0.47900    0.78380    0.97900    1.000
    N257     N        0.52100    0.21620    0.97900    1.000
    N258     N        0.52100    0.71620    0.47900    1.000
    N259     N        0.02100    0.52100    0.78380    1.000
    N260     N        0.02100    0.97900    0.71620    1.000
    N261     N        0.97900    0.47900    0.78380    1.000
    N262     N        0.97900    0.97900    0.28380    1.000
    N263     N        0.97900    0.52100    0.21620    1.000
    N264     N        0.97900    0.02100    0.71620    1.000
    N265     N        0.78380    0.02100    0.52100    1.000
    N266     N        0.71620    0.02100    0.97900    1.000
    N267     N        0.78380    0.97900    0.47900    1.000
    N268     N        0.28380    0.97900    0.97900    1.000
    N269     N        0.21620    0.97900    0.52100    1.000
    N270     N        0.71620    0.97900    0.02100    1.000
    N271     N        0.78380    0.52100    0.97900    1.000
    N272     N        0.28380    0.52100    0.47900    1.000
    N273     N        0.21620    0.47900    0.97900    1.000
    N274     N        0.28380    0.47900    0.52100    1.000
    N275     N        0.21620    0.52100    0.02100    1.000
    N276     N        0.71620    0.52100    0.52100    1.000
    N277     N        0.52100    0.02100    0.21620    1.000
    N278     N        0.52100    0.52100    0.71620    1.000
    N279     N        0.47900    0.52100    0.28380    1.000
    N280     N        0.47900    0.97900    0.21620    1.000
    N281     N        0.52100    0.97900    0.78380    1.000
    N282     N        0.52100    0.47900    0.28380    1.000
    N283     N        0.02100    0.28380    0.97900    1.000
    N284     N        0.02100    0.21620    0.52100    1.000
    N285     N        0.97900    0.78380    0.52100    1.000
    N286     N        0.97900    0.28380    0.02100    1.000
    N287     N        0.97900    0.21620    0.47900    1.000
    N288     N        0.97900    0.71620    0.97900    1.000
    N289     N        0.51900    0.29260    0.00000    1.000
    N290     N        0.51900    0.79260    0.50000    1.000
    N291     N        0.01900    0.29260    0.50000    1.000
    N292     N        0.01900    0.79260    0.00000    1.000
    N293     N        0.48100    0.70740    0.00000    1.000
    N294     N        0.48100    0.20740    0.50000    1.000
    N295     N        0.98100    0.70740    0.50000    1.000
    N296     N        0.98100    0.20740    0.00000    1.000
    N297     N        0.48100    0.29260    0.00000    1.000
    N298     N        0.48100    0.79260    0.50000    1.000
    N299     N        0.98100    0.29260    0.50000    1.000
    N300     N        0.98100    0.79260    0.00000    1.000
    N301     N        0.51900    0.70740    0.00000    1.000
    N302     N        0.51900    0.20740    0.50000    1.000
    N303     N        0.01900    0.70740    0.50000    1.000
    N304     N        0.01900    0.20740    0.00000    1.000
    N305     N        0.00000    0.51900    0.29260    1.000
    N306     N        0.00000    0.01900    0.79260    1.000
    N307     N        0.50000    0.51900    0.79260    1.000
    N308     N        0.50000    0.01900    0.29260    1.000
    N309     N        0.00000    0.48100    0.70740    1.000
    N310     N        0.00000    0.98100    0.20740    1.000
    N311     N        0.50000    0.48100    0.20740    1.000
    N312     N        0.50000    0.98100    0.70740    1.000
    N313     N        0.00000    0.48100    0.29260    1.000
    N314     N        0.00000    0.98100    0.79260    1.000
    N315     N        0.50000    0.48100    0.79260    1.000
    N316     N        0.50000    0.98100    0.29260    1.000
    N317     N        0.00000    0.51900    0.70740    1.000
    N318     N        0.00000    0.01900    0.20740    1.000
    N319     N        0.50000    0.51900    0.20740    1.000
    N320     N        0.50000    0.01900    0.70740    1.000
    N321     N        0.29260    0.00000    0.51900    1.000
    N322     N        0.29260    0.50000    0.01900    1.000
    N323     N        0.79260    0.00000    0.01900    1.000
    N324     N        0.79260    0.50000    0.51900    1.000
    N325     N        0.70740    0.00000    0.48100    1.000
    N326     N        0.70740    0.50000    0.98100    1.000
    N327     N        0.20740    0.00000    0.98100    1.000
    N328     N        0.20740    0.50000    0.48100    1.000
    N329     N        0.29260    0.00000    0.48100    1.000
    N330     N        0.29260    0.50000    0.98100    1.000
    N331     N        0.79260    0.00000    0.98100    1.000
    N332     N        0.79260    0.50000    0.48100    1.000
    N333     N        0.70740    0.00000    0.51900    1.000
    N334     N        0.70740    0.50000    0.01900    1.000
    N335     N        0.20740    0.00000    0.01900    1.000
    N336     N        0.20740    0.50000    0.51900    1.000
    N337     N        0.29260    0.51900    0.00000    1.000
    N338     N        0.29260    0.01900    0.50000    1.000
    N339     N        0.79260    0.51900    0.50000    1.000
    N340     N        0.79260    0.01900    0.00000    1.000
    N341     N        0.70740    0.48100    0.00000    1.000
    N342     N        0.70740    0.98100    0.50000    1.000
    N343     N        0.20740    0.48100    0.50000    1.000
    N344     N        0.20740    0.98100    0.00000    1.000
    N345     N        0.29260    0.48100    0.00000    1.000
    N346     N        0.29260    0.98100    0.50000    1.000
    N347     N        0.79260    0.48100    0.50000    1.000
    N348     N        0.79260    0.98100    0.00000    1.000
    N349     N        0.70740    0.51900    0.00000    1.000
    N350     N        0.70740    0.01900    0.50000    1.000
    N351     N        0.20740    0.51900    0.50000    1.000
    N352     N        0.20740    0.01900    0.00000    1.000
    N353     N        0.51900    0.00000    0.70740    1.000
    N354     N        0.51900    0.50000    0.20740    1.000
    N355     N        0.01900    0.00000    0.20740    1.000
    N356     N        0.01900    0.50000    0.70740    1.000
    N357     N        0.48100    0.00000    0.29260    1.000
    N358     N        0.48100    0.50000    0.79260    1.000
    N359     N        0.98100    0.00000    0.79260    1.000
    N360     N        0.98100    0.50000    0.29260    1.000
    N361     N        0.48100    0.00000    0.70740    1.000
    N362     N        0.48100    0.50000    0.20740    1.000
    N363     N        0.98100    0.00000    0.20740    1.000
    N364     N        0.98100    0.50000    0.70740    1.000
    N365     N        0.51900    0.00000    0.29260    1.000
    N366     N        0.51900    0.50000    0.79260    1.000
    N367     N        0.01900    0.00000    0.79260    1.000
    N368     N        0.01900    0.50000    0.29260    1.000
    N369     N        0.00000    0.29260    0.48100    1.000
    N370     N        0.00000    0.79260    0.98100    1.000
    N371     N        0.50000    0.29260    0.98100    1.000
    N372     N        0.50000    0.79260    0.48100    1.000
    N373     N        0.00000    0.70740    0.51900    1.000
    N374     N        0.00000    0.20740    0.01900    1.000
    N375     N        0.50000    0.70740    0.01900    1.000
    N376     N        0.50000    0.20740    0.51900    1.000
    N377     N        0.00000    0.29260    0.51900    1.000
    N378     N        0.00000    0.79260    0.01900    1.000
    N379     N        0.50000    0.29260    0.01900    1.000
    N380     N        0.50000    0.79260    0.51900    1.000
    N381     N        0.00000    0.70740    0.48100    1.000
    N382     N        0.00000    0.20740    0.98100    1.000
    N383     N        0.50000    0.70740    0.98100    1.000
    N384     N        0.50000    0.20740    0.48100    1.000
    Fe1      Fe       0.50000    0.00000    0.00000    1.000
    Fe2      Fe       0.50000    0.50000    0.50000    1.000
    Fe3      Fe       0.00000    0.00000    0.50000    1.000
    Fe4      Fe       0.00000    0.50000    0.00000    1.000
