# CIF file generated by openbabel 3.1.0, see https://openbabel.org
data_I
_chemical_name_common 'CUKVUA_clean'
_cell_length_a 9.3521
_cell_length_b 11.3471
_cell_length_c 18.8078
_cell_angle_alpha 79.46
_cell_angle_beta 79.462
_cell_angle_gamma 66.512
_space_group_name_H-M_alt 'P 1'
_space_group_name_Hall 'P 1'
loop_
    _symmetry_equiv_pos_as_xyz
    x,y,z
loop_
    _atom_site_label
    _atom_site_type_symbol
    _atom_site_fract_x
    _atom_site_fract_y
    _atom_site_fract_z
    _atom_site_occupancy
    Co1      Co       0.60536    0.81047    0.71808    1.000
    Co2      Co       0.39464    0.18953    0.28192    1.000
    Co3      Co       0.00000    0.00000    0.00000    1.000
    H1       H        0.57520    0.56940    0.19420    1.000
    H2       H        0.48220    0.54190    0.31740    1.000
    H3       H        0.09950    0.85540    0.28630    1.000
    H4       H        0.45080    0.74480    0.39240    1.000
    H5       H        0.52450    0.76540    0.49950    1.000
    H6       H        0.20600    0.63480    0.61660    1.000
    H7       H        0.13360    0.61030    0.51100    1.000
    H8       H        0.77330    0.86590    0.99820    1.000
    H9       H        0.76800    0.66680    0.00050    1.000
    H10      H        0.23140    0.51800    0.99560    1.000
    H11      H        0.22360    0.72000    0.99560    1.000
    H12      H        0.66240    0.88120    0.55160    1.000
    H13      H        0.81960    0.95160    0.46280    1.000
    H14      H        0.03440    0.98420    0.61610    1.000
    H15      H        0.87170    0.91040    0.70130    1.000
    H16      H        0.35030    0.00950    0.62510    1.000
    H17      H        0.15160    0.20710    0.62230    1.000
    H18      H        0.26860    0.25020    0.80640    1.000
    H19      H        0.47230    0.05710    0.79930    1.000
    H20      H        0.99240    0.37600    0.82540    1.000
    H21      H        0.78470    0.57050    0.82440    1.000
    H22      H        0.83680    0.62200    0.61360    1.000
    H23      H        0.04800    0.43700    0.60800    1.000
    H24      H        0.42480    0.43060    0.80580    1.000
    H25      H        0.51780    0.45810    0.68260    1.000
    H26      H        0.90050    0.14460    0.71370    1.000
    H27      H        0.54920    0.25520    0.60760    1.000
    H28      H        0.47550    0.23460    0.50050    1.000
    H29      H        0.79400    0.36520    0.38340    1.000
    H30      H        0.86640    0.38970    0.48900    1.000
    H31      H        0.22670    0.13410    0.00180    1.000
    H32      H        0.23200    0.33320    0.99950    1.000
    H33      H        0.76860    0.48200    0.00440    1.000
    H34      H        0.77640    0.28000    0.00440    1.000
    H35      H        0.33760    0.11880    0.44840    1.000
    H36      H        0.18040    0.04840    0.53720    1.000
    H37      H        0.96560    0.01580    0.38390    1.000
    H38      H        0.12830    0.08960    0.29870    1.000
    H39      H        0.64970    0.99050    0.37490    1.000
    H40      H        0.84840    0.79290    0.37770    1.000
    H41      H        0.73140    0.74980    0.19360    1.000
    H42      H        0.52770    0.94290    0.20070    1.000
    H43      H        0.00760    0.62400    0.17460    1.000
    H44      H        0.21530    0.42950    0.17560    1.000
    H45      H        0.16320    0.37800    0.38640    1.000
    H46      H        0.95200    0.56300    0.39200    1.000
    C1       C        0.24410    0.81610    0.19280    1.000
    C2       C        0.39070    0.72990    0.16520    1.000
    C3       C        0.47830    0.62770    0.21220    1.000
    C4       C        0.42330    0.61110    0.28630    1.000
    C5       C        0.28400    0.69650    0.31180    1.000
    C6       C        0.19510    0.79760    0.26690    1.000
    C7       C        0.13100    0.92120    0.14500    1.000
    C8       C        0.46100    0.74350    0.08630    1.000
    C9       C        0.28300    0.67880    0.44240    1.000
    C10      C        0.40090    0.72340    0.43750    1.000
    C11      C        0.44400    0.73580    0.50200    1.000
    C12      C        0.37160    0.70570    0.56920    1.000
    C13      C        0.25510    0.65770    0.57170    1.000
    C14      C        0.21090    0.64340    0.50870    1.000
    C15      C        0.40590    0.73140    0.63880    1.000
    C16      C        0.86750    0.79440    0.99840    1.000
    C17      C        0.86370    0.67440    0.99960    1.000
    C18      C        0.99880    0.56560    0.99930    1.000
    C19      C        0.13500    0.58730    0.99690    1.000
    C20      C        0.12950    0.70970    0.99660    1.000
    C21      C        0.74040    0.90060    0.56540    1.000
    C22      C        0.83400    0.94420    0.51130    1.000
    C23      C        0.94790    0.97690    0.52820    1.000
    C24      C        0.95950    0.96290    0.60100    1.000
    C25      C        0.86080    0.91750    0.65240    1.000
    C26      C        0.33410    0.05890    0.66240    1.000
    C27      C        0.21270    0.17780    0.66050    1.000
    C28      C        0.18140    0.25400    0.71530    1.000
    C29      C        0.28270    0.20370    0.76810    1.000
    C30      C        0.40370    0.08580    0.76410    1.000
    C31      C        0.99740    0.45750    0.65360    1.000
    C32      C        0.04830    0.38040    0.71730    1.000
    C33      C        0.96460    0.42500    0.78110    1.000
    C34      C        0.83890    0.54280    0.78000    1.000
    C35      C        0.86990    0.57290    0.65710    1.000
    C36      C        0.75590    0.18390    0.80720    1.000
    C37      C        0.60930    0.27010    0.83480    1.000
    C38      C        0.52170    0.37230    0.78780    1.000
    C39      C        0.57670    0.38890    0.71370    1.000
    C40      C        0.71600    0.30350    0.68820    1.000
    C41      C        0.80490    0.20240    0.73310    1.000
    C42      C        0.86900    0.07880    0.85500    1.000
    C43      C        0.53900    0.25650    0.91370    1.000
    C44      C        0.71700    0.32120    0.55760    1.000
    C45      C        0.59910    0.27660    0.56250    1.000
    C46      C        0.55600    0.26420    0.49800    1.000
    C47      C        0.62840    0.29430    0.43080    1.000
    C48      C        0.74490    0.34230    0.42830    1.000
    C49      C        0.78910    0.35660    0.49130    1.000
    C50      C        0.59410    0.26860    0.36120    1.000
    C51      C        0.13250    0.20560    0.00160    1.000
    C52      C        0.13630    0.32560    0.00040    1.000
    C53      C        0.00120    0.43440    0.00070    1.000
    C54      C        0.86500    0.41270    0.00310    1.000
    C55      C        0.87050    0.29030    0.00340    1.000
    C56      C        0.25960    0.09940    0.43460    1.000
    C57      C        0.16600    0.05580    0.48870    1.000
    C58      C        0.05210    0.02310    0.47180    1.000
    C59      C        0.04050    0.03710    0.39900    1.000
    C60      C        0.13920    0.08250    0.34760    1.000
    C61      C        0.66590    0.94110    0.33760    1.000
    C62      C        0.78730    0.82220    0.33950    1.000
    C63      C        0.81860    0.74600    0.28470    1.000
    C64      C        0.71730    0.79630    0.23190    1.000
    C65      C        0.59630    0.91420    0.23590    1.000
    C66      C        0.00260    0.54250    0.34640    1.000
    C67      C        0.95170    0.61960    0.28270    1.000
    C68      C        0.03540    0.57500    0.21890    1.000
    C69      C        0.16110    0.45720    0.22000    1.000
    C70      C        0.13010    0.42710    0.34290    1.000
    N1       N        0.42960    0.00980    0.71345    1.000
    N2       N        0.79130    0.61830    0.71942    1.000
    N3       N        0.75340    0.88400    0.63602    1.000
    N4       N        0.99910    0.81380    0.99765    1.000
    N5       N        0.57040    0.99020    0.28655    1.000
    N6       N        0.20870    0.38170    0.28058    1.000
    N7       N        0.24660    0.11600    0.36398    1.000
    N8       N        0.00090    0.18620    0.00235    1.000
    O1       O        0.15500    0.91310    0.07906    1.000
    O2       O        0.01350    0.00400    0.17683    1.000
    O3       O        0.50010    0.83730    0.06470    1.000
    O4       O        0.48350    0.65370    0.05086    1.000
    O5       O        0.21630    0.67420    0.38371    1.000
    O6       O        0.51630    0.77100    0.63463    1.000
    O7       O        0.32140    0.71340    0.69610    1.000
    O8       O        0.84500    0.08690    0.92094    1.000
    O9       O        0.98650    0.99600    0.82317    1.000
    O10      O        0.49990    0.16270    0.93530    1.000
    O11      O        0.51650    0.34630    0.94914    1.000
    O12      O        0.78370    0.32580    0.61629    1.000
    O13      O        0.48370    0.22900    0.36537    1.000
    O14      O        0.67860    0.28660    0.30390    1.000
