data_functionalizedCrystal
_audit_creation_method	'EQeq! by Chris Wilmer'
_symmetry_space_group_name_H-M	'P1'
_symmetry_Int_Tables_number	1
_symmetry_cell_setting	triclinic
loop_
_symmetry_equiv_pos_as_xyz
  x,y,z
_cell_length_a	15.7537
_cell_length_b	18.9925
_cell_length_c	36.0206
_cell_angle_alpha	90
_cell_angle_beta	90
_cell_angle_gamma	90
loop_
_atom_site_label
_atom_site_type_symbol
_atom_site_fract_x
_atom_site_fract_y
_atom_site_fract_z
_atom_site_charge
Mof_Fe	Fe	0.25	0.5	0.25	0.93
Mof_Fe	Fe	0.75	0	0.75	0.814
Mof_B 	B 	0.4812	0.0549	0.7467	0.228
Mof_B 	B 	0.4812	0.9451	0.7533	0.244
Mof_B 	B 	0.0188	0.0549	0.7533	0.226
Mof_B 	B 	0.0188	0.9451	0.7467	0.244
Mof_H 	H 	0.6534	0.4765	0.5832	1.498
Mof_H 	H 	0.0438	0.545	0.4195	-0.509
Mof_H 	H 	0.9816	0.5944	0.4755	-0.533
Mof_H 	H 	0.6479	0.6065	0.5287	1.537
Mof_H 	H 	0.8792	0.4155	0.9785	0.675
Mof_H 	H 	0.6559	0.617	0.8754	-1.703
Mof_H 	H 	0.8792	0.5845	0.5215	0.688
Mof_H 	H 	0.6496	0.8762	0.7746	-0.607
Mof_H 	H 	0.9532	0.5428	0.1222	0.53
Mof_H 	H 	0.8466	0.5235	0.5832	1.498
Mof_H 	H 	0.3778	0.5687	0.1281	0.504
Mof_H 	H 	0.7784	0.582	0.0314	0.668
Mof_H 	H 	0.8808	0.5721	0.0774	-0.512
Mof_H 	H 	0.6511	0.786	0.8181	1.429
Mof_H 	H 	0.8808	0.4279	0.4226	-0.523
Mof_H 	H 	0.6402	0.9584	0.6793	-0.489
Mof_H 	H 	0.7216	0.582	0.4686	0.68
Mof_H 	H 	0.6208	0.5845	0.9785	0.676
Mof_H 	H 	0.8466	0.4765	0.9168	1.475
Mof_H 	H 	0.8504	0.1238	0.7746	-0.607
Mof_H 	H 	0.5468	0.4572	0.1222	0.53
Mof_H 	H 	0.5468	0.5428	0.3778	0.537
Mof_H 	H 	0.2905	0.5759	0.178	-0.249
Mof_H 	H 	0.8504	0.8762	0.7254	-0.616
Mof_H 	H 	0.702	0.7184	0.8529	-4.129
Mof_H 	H 	0.8521	0.6065	0.9713	1.514
Mof_H 	H 	0.798	0.7184	0.6471	-4.193
Mof_H 	H 	0.5184	0.5944	0.0245	-0.523
Mof_H 	H 	0.4896	0.4164	0.1788	0.395
Mof_H 	H 	0.8489	0.786	0.6819	1.45
Mof_H 	H 	0.5184	0.4056	0.4755	-0.533
Mof_H 	H 	0.8441	0.383	0.8754	-1.702
Mof_H 	H 	0.798	0.2816	0.8529	-4.125
Mof_H 	H 	0.4896	0.5836	0.3212	0.399
Mof_H 	H 	0.6453	0.2999	0.9299	-1.958
Mof_H 	H 	0.0104	0.5836	0.1788	0.396
Mof_H 	H 	0.6752	0.2235	0.8914	4.144
Mof_H 	H 	0.6496	0.1238	0.7254	-0.616
Mof_H 	H 	0.6388	0.1317	0.8642	1.061
Mof_H 	H 	0.4006	0.427	0.228	-0.229
Mof_H 	H 	0.6534	0.5235	0.9168	1.476
Mof_H 	H 	0.8248	0.2235	0.6086	4.208
Mof_H 	H 	0.8612	0.1317	0.6358	1.076
Mof_H 	H 	0.8598	0.9584	0.8207	-0.482
Mof_H 	H 	0.7784	0.418	0.4686	0.68
Mof_H 	H 	0.1222	0.5687	0.3719	0.509
Mof_H 	H 	0.0994	0.573	0.228	-0.229
Mof_H 	H 	0.8598	0.0416	0.6793	-0.492
Mof_H 	H 	0.4562	0.455	0.4195	-0.51
Mof_H 	H 	0.6479	0.3935	0.9713	1.512
Mof_H 	H 	0.2095	0.4241	0.178	-0.249
Mof_H 	H 	0.0104	0.4164	0.3212	0.399
Mof_H 	H 	0.1222	0.4313	0.1281	0.504
Mof_H 	H 	0.6402	0.0416	0.8207	-0.485
Mof_H 	H 	0.0994	0.427	0.272	-0.231
Mof_H 	H 	0.8248	0.7765	0.8914	4.149
Mof_H 	H 	0.6192	0.4279	0.0774	-0.513
Mof_H 	H 	0.6559	0.383	0.6246	-1.73
Mof_H 	H 	0.9532	0.4572	0.3778	0.537
Mof_H 	H 	0.6208	0.4155	0.5215	0.687
Mof_H 	H 	0.4006	0.573	0.272	-0.231
Mof_H 	H 	0.8489	0.214	0.8181	1.427
Mof_H 	H 	0.6192	0.5721	0.4226	-0.522
Mof_H 	H 	0.2905	0.4241	0.322	-0.252
Mof_H 	H 	0.8547	0.2999	0.5701	-1.989
Mof_H 	H 	0.0438	0.455	0.0805	-0.499
Mof_H 	H 	0.8441	0.617	0.6246	-1.731
Mof_H 	H 	0.6388	0.8683	0.6358	1.078
Mof_H 	H 	0.3778	0.4313	0.3719	0.509
Mof_H 	H 	0.8521	0.3935	0.5287	1.536
Mof_H 	H 	0.702	0.2816	0.6471	-4.19
Mof_H 	H 	0.6453	0.7001	0.5701	-1.99
Mof_H 	H 	0.6752	0.7765	0.6086	4.212
Mof_H 	H 	0.8612	0.8683	0.8642	1.063
Mof_H 	H 	0.4562	0.545	0.0805	-0.501
Mof_H 	H 	0.8547	0.7001	0.9299	-1.958
Mof_H 	H 	0.2095	0.5759	0.322	-0.252
Mof_H 	H 	0.7216	0.418	0.0314	0.669
Mof_H 	H 	0.6511	0.214	0.6819	1.448
Mof_H 	H 	0.9816	0.4056	0.0245	-0.522
Mof_C 	C 	0.3852	0.4616	0.3519	-1.384
Mof_C 	C 	0.9983	0.4875	0.38254	-1.51
Mof_C 	C 	0.8179	0.9238	0.8202	1.388
Mof_C 	C 	0.6937	0.4411	0.5806	-4.201
Mof_C 	C 	0.1148	0.5384	0.3519	-1.385
Mof_C 	C 	0.7475	0.44426	0.94813	3.664
Mof_C 	C 	0.5587	0.5122	0.05547	-1.486
Mof_C 	C 	0.7425	0.2773	0.6284	12.104
Mof_C 	C 	0.571	0	0.75	-0.096
Mof_C 	C 	0.7575	0.2773	0.8716	11.918
Mof_C 	C 	0.929	0	0.75	-0.095
Mof_C 	C 	0.7563	0.1818	0.6545	5.332
Mof_C 	C 	0.6809	0.54662	0.47003	-1.891
Mof_C 	C 	0.3852	0.5384	0.1481	-1.37
Mof_C 	C 	0.8805	0.54067	0.05753	1.434
Mof_C 	C 	0.8188	0.8698	0.8462	-2.816
Mof_C 	C 	0.5587	0.4878	0.44453	-1.511
Mof_C 	C 	0.8063	0.4411	0.9194	-4.135
Mof_C 	C 	0.68135	0.49971	0.49965	2.195
Mof_C 	C 	0.0523	0.5491	0.17842	-1.034
Mof_C 	C 	0.7437	0.8182	0.6545	5.337
Mof_C 	C 	0.0584	0.505	0.14796	1.378
Mof_C 	C 	0.7556	0.6678	0.89851	-6.782
Mof_C 	C 	0.8071	0.8206	0.6814	-3.583
Mof_C 	C 	0.8048	0.3851	0.89459	4.843
Mof_C 	C 	0.6929	0.1794	0.6814	-3.581
Mof_C 	C 	0.6812	0.8698	0.6538	-2.856
Mof_C 	C 	0.8191	0.45338	0.47003	-1.891
Mof_C 	C 	0.3328	0.4583	0.32174	0.778
Mof_C 	C 	0.3939	0.4568	0.20772	0.726
Mof_C 	C 	0.8128	0.3914	0.54795	-4.326
Mof_C 	C 	0.9974	0.516	0.41501	1.427
Mof_C 	C 	0.718	0.2306	0.874	-11.671
Mof_C 	C 	0.718	0.7694	0.626	-11.86
Mof_C 	C 	0.6857	0.33532	0.92724	5.211
Mof_C 	C 	0.8063	0.5589	0.5806	-4.203
Mof_C 	C 	0.1061	0.5432	0.20772	0.726
Mof_C 	C 	0.0584	0.495	0.35204	1.394
Mof_C 	C 	0.5026	0.484	0.41501	1.428
Mof_C 	C 	0.9413	0.4878	0.05547	-1.482
Mof_C 	C 	0.782	0.2306	0.626	-11.852
Mof_C 	C 	0.8191	0.54662	0.02997	-1.857
Mof_C 	C 	0.0523	0.4509	0.32158	-1.044
Mof_C 	C 	0.8048	0.6149	0.60541	4.924
Mof_C 	C 	0.4477	0.5491	0.32158	-1.043
Mof_C 	C 	0.6921	0.8746	0.7926	1.737
Mof_C 	C 	0.7437	0.1818	0.8455	5.253
Mof_C 	C 	0.8143	0.33532	0.57276	5.295
Mof_C 	C 	0.5017	0.4875	0.11746	-1.49
Mof_C 	C 	0.3939	0.5432	0.29228	0.732
Mof_C 	C 	0.1672	0.4583	0.17826	0.77
Mof_C 	C 	0.6195	0.45933	0.05753	1.437
Mof_C 	C 	0.8128	0.6086	0.95205	-4.261
Mof_C 	C 	0.8079	0.1254	0.7926	1.734
Mof_C 	C 	0.8179	0.0762	0.6798	1.405
Mof_C 	C 	0.8071	0.1794	0.8186	-3.529
Mof_C 	C 	0.6937	0.5589	0.9194	-4.138
Mof_C 	C 	0.6812	0.1302	0.8462	-2.814
Mof_C 	C 	0.4477	0.4509	0.17842	-1.033
Mof_C 	C 	0.6205	0.44686	0.50171	-1.894
Mof_C 	C 	0.1672	0.5417	0.32174	0.778
Mof_C 	C 	0.7575	0.7227	0.6284	12.113
Mof_C 	C 	0.75	0.5	0.97447	-3.726
Mof_C 	C 	0.6872	0.3914	0.95205	-4.258
Mof_C 	C 	0.8795	0.44686	0.99829	-1.856
Mof_C 	C 	0.6195	0.54067	0.44247	1.463
Mof_C 	C 	0.6952	0.6149	0.89459	4.847
Mof_C 	C 	0.9408	0.55909	0.47415	1.504
Mof_C 	C 	0.6952	0.3851	0.60541	4.921
Mof_C 	C 	0.3328	0.5417	0.17826	0.77
Mof_C 	C 	0.81865	0.50029	0.49965	2.195
Mof_C 	C 	0.7525	0.44426	0.55187	3.723
Mof_C 	C 	0.75	0.5	0.52553	-3.79
Mof_C 	C 	0.9408	0.44091	0.02585	1.472
Mof_C 	C 	0.5592	0.55909	0.02585	1.477
Mof_C 	C 	0.7444	0.3322	0.89851	-6.777
Mof_C 	C 	0.81865	0.49971	0.00035	2.153
Mof_C 	C 	0.8795	0.55314	0.50171	-1.894
Mof_C 	C 	0.8188	0.1302	0.6538	-2.855
Mof_C 	C 	0.7525	0.55574	0.94813	3.666
Mof_C 	C 	0.8079	0.8746	0.7074	1.762
Mof_C 	C 	0.1061	0.4568	0.29228	0.733
Mof_C 	C 	0.25	0.6422	0.25	0.306
Mof_C 	C 	0.6205	0.55314	0.99829	-1.861
Mof_C 	C 	0.8143	0.66468	0.92724	5.215
Mof_C 	C 	0.7556	0.3322	0.60149	-6.884
Mof_C 	C 	0.7563	0.8182	0.8455	5.259
Mof_C 	C 	0.4416	0.495	0.14796	1.377
Mof_C 	C 	0.6809	0.45338	0.02997	-1.86
Mof_C 	C 	0.7475	0.55574	0.55187	3.725
Mof_C 	C 	0.7444	0.6678	0.60149	-6.888
Mof_C 	C 	0.9413	0.5122	0.44453	-1.511
Mof_C 	C 	0.8805	0.45933	0.44247	1.463
Mof_C 	C 	0.5026	0.516	0.08499	1.405
Mof_C 	C 	0.9974	0.484	0.08499	1.4
Mof_C 	C 	0.6929	0.8206	0.8186	-3.532
Mof_C 	C 	0.68135	0.50029	0.00035	2.157
Mof_C 	C 	0.6872	0.6086	0.54795	-4.327
Mof_C 	C 	0.6857	0.66468	0.57276	5.298
Mof_C 	C 	0.1148	0.4616	0.1481	-1.37
Mof_C 	C 	0.25	0.3578	0.25	0.306
Mof_C 	C 	0.4416	0.505	0.35204	1.393
Mof_C 	C 	0.5017	0.5125	0.38254	-1.509
Mof_C 	C 	0.7425	0.7227	0.8716	11.929
Mof_C 	C 	0.6921	0.1254	0.7074	1.759
Mof_C 	C 	0.6821	0.0762	0.8202	1.386
Mof_C 	C 	0.6821	0.9238	0.6798	1.408
Mof_C 	C 	0.9983	0.5125	0.11746	-1.489
Mof_C 	C 	0.782	0.7694	0.874	-11.682
Mof_C 	C 	0.5592	0.44091	0.47415	1.504
Mof_N 	N 	0.25	0.4037	0.25	-0.367
Mof_N 	N 	0.6329	0	0.75	-0.209
Mof_N 	N 	0.3373	0.5001	0.20805	-0.491
Mof_N 	N 	0.3373	0.4999	0.29195	-0.494
Mof_N 	N 	0.1627	0.5001	0.29195	-0.494
Mof_N 	N 	0.7546	0.0738	0.70664	-0.724
Mof_N 	N 	0.7454	0.9262	0.70664	-0.722
Mof_N 	N 	0.7546	0.9262	0.79336	-0.714
Mof_N 	N 	0.25	0.5963	0.25	-0.368
Mof_N 	N 	0.7454	0.0738	0.79336	-0.716
Mof_N 	N 	0.8671	0	0.75	-0.21
Mof_N 	N 	0.1627	0.4999	0.20805	-0.491
Mof_Fe	Fe	0.75	0.5	0.75	0.929
Mof_Fe	Fe	0.25	-4.68452e-33	0.25	0.813
Mof_B 	B 	0.5188	0.0549	0.2467	0.227
Mof_B 	B 	0.5188	0.9451	0.2533	0.245
Mof_B 	B 	0.9812	0.9451	0.2467	0.243
Mof_B 	B 	0.9812	0.0549	0.2533	0.227
Mof_H 	H 	0.3612	0.1317	0.3642	1.076
Mof_H 	H 	0.6222	0.4313	0.8719	0.504
Mof_H 	H 	0.3504	0.1238	0.2254	-0.607
Mof_H 	H 	0.1752	0.2235	0.1086	4.145
Mof_H 	H 	0.1534	0.4765	0.4168	1.498
Mof_H 	H 	0.1453	0.7001	0.4299	-1.99
Mof_H 	H 	0.3547	0.7001	0.0701	-1.958
Mof_H 	H 	0.2216	0.418	0.9686	0.668
Mof_H 	H 	0.3547	0.2999	0.4299	-1.989
Mof_H 	H 	0.1402	0.9584	0.3207	-0.489
Mof_H 	H 	0.1192	0.5721	0.5774	-0.523
Mof_H 	H 	0.3598	0.9584	0.1793	-0.482
Mof_H 	H 	0.9006	0.573	0.728	-0.231
Mof_H 	H 	0.3248	0.2235	0.3914	4.207
Mof_H 	H 	0.1388	0.1317	0.1358	1.061
Mof_H 	H 	0.3489	0.786	0.3181	1.45
Mof_H 	H 	0.1559	0.383	0.3754	-1.73
Mof_H 	H 	0.1208	0.5845	0.0215	0.675
Mof_H 	H 	0.9562	0.545	0.9195	-0.498
Mof_H 	H 	0.1752	0.7765	0.3914	4.212
Mof_H 	H 	0.2784	0.582	0.9686	0.669
Mof_H 	H 	0.1402	0.0416	0.1793	-0.485
Mof_H 	H 	0.3792	0.4155	0.0215	0.676
Mof_H 	H 	0.3248	0.7765	0.1086	4.148
Mof_H 	H 	0.3441	0.383	0.1246	-1.703
Mof_H 	H 	0.3808	0.5721	0.9226	-0.513
Mof_H 	H 	0.2216	0.582	0.5314	0.68
Mof_H 	H 	0.7905	0.4241	0.678	-0.252
Mof_H 	H 	0.1479	0.3935	0.0287	1.513
Mof_H 	H 	0.1496	0.1238	0.2746	-0.616
Mof_H 	H 	0.1192	0.4279	0.9226	-0.512
Mof_H 	H 	0.5438	0.455	0.9195	-0.501
Mof_H 	H 	0.1559	0.617	0.1246	-1.703
Mof_H 	H 	0.4816	0.4056	0.9755	-0.523
Mof_H 	H 	0.7095	0.4241	0.822	-0.249
Mof_H 	H 	0.3521	0.3935	0.4713	1.536
Mof_H 	H 	0.9562	0.455	0.5805	-0.51
Mof_H 	H 	0.1511	0.214	0.3181	1.448
Mof_H 	H 	0.7905	0.5759	0.822	-0.249
Mof_H 	H 	0.4532	0.4572	0.6222	0.537
Mof_H 	H 	0.202	0.2816	0.3529	-4.19
Mof_H 	H 	0.0468	0.5428	0.6222	0.537
Mof_H 	H 	0.1453	0.2999	0.0701	-1.958
Mof_H 	H 	0.4532	0.5428	0.8778	0.53
Mof_H 	H 	0.5994	0.573	0.772	-0.229
Mof_H 	H 	0.3504	0.8762	0.2746	-0.616
Mof_H 	H 	0.8778	0.5687	0.8719	0.504
Mof_H 	H 	0.0184	0.5944	0.9755	-0.522
Mof_H 	H 	0.3441	0.617	0.3754	-1.731
Mof_H 	H 	0.3489	0.214	0.1819	1.427
Mof_H 	H 	0.1388	0.8683	0.3642	1.078
Mof_H 	H 	0.3466	0.5235	0.4168	1.498
Mof_H 	H 	0.1496	0.8762	0.2254	-0.607
Mof_H 	H 	0.0184	0.4056	0.5245	-0.533
Mof_H 	H 	0.7095	0.5759	0.678	-0.252
Mof_H 	H 	0.1479	0.6065	0.4713	1.537
Mof_H 	H 	0.3792	0.5845	0.4785	0.688
Mof_H 	H 	0.5104	0.4164	0.6788	0.399
Mof_H 	H 	0.3612	0.8683	0.1358	1.063
Mof_H 	H 	0.1511	0.786	0.1819	1.429
Mof_H 	H 	0.3598	0.0416	0.3207	-0.492
Mof_H 	H 	0.6222	0.5687	0.6281	0.509
Mof_H 	H 	0.298	0.7184	0.3529	-4.193
Mof_H 	H 	0.9896	0.4164	0.8212	0.395
Mof_H 	H 	0.5994	0.427	0.728	-0.231
Mof_H 	H 	0.3808	0.4279	0.5774	-0.523
Mof_H 	H 	0.9896	0.5836	0.6788	0.4
Mof_H 	H 	0.298	0.2816	0.1471	-4.126
Mof_H 	H 	0.8778	0.4313	0.6281	0.509
Mof_H 	H 	0.202	0.7184	0.1471	-4.128
Mof_H 	H 	0.5438	0.545	0.5805	-0.509
Mof_H 	H 	0.0468	0.4572	0.8778	0.529
Mof_H 	H 	0.4816	0.5944	0.5245	-0.533
Mof_H 	H 	0.1534	0.5235	0.0832	1.476
Mof_H 	H 	0.9006	0.427	0.772	-0.229
Mof_H 	H 	0.5104	0.5836	0.8212	0.396
Mof_H 	H 	0.3466	0.4765	0.0832	1.475
Mof_H 	H 	0.1208	0.4155	0.4785	0.687
Mof_H 	H 	0.2784	0.418	0.5314	0.68
Mof_H 	H 	0.3521	0.6065	0.0287	1.513
Mof_C 	C 	0.3179	0.0762	0.3202	1.405
Mof_C 	C 	0.2563	0.8182	0.1545	5.258
Mof_C 	C 	0.3805	0.45933	0.55753	1.463
Mof_C 	C 	0.4974	0.484	0.91501	1.406
Mof_C 	C 	0.0026	0.484	0.58499	1.428
Mof_C 	C 	0.1195	0.45933	0.94247	1.434
Mof_C 	C 	0.2425	0.7227	0.1284	11.927
Mof_C 	C 	0.31865	0.49971	0.99965	2.157
Mof_C 	C 	0.8328	0.4583	0.67826	0.778
Mof_C 	C 	0.3795	0.44686	0.00171	-1.861
Mof_C 	C 	0.6672	0.5417	0.67826	0.777
Mof_C 	C 	0.0587	0.5122	0.94453	-1.481
Mof_C 	C 	0.3805	0.54067	0.94247	1.438
Mof_C 	C 	0.1921	0.8746	0.2074	1.737
Mof_C 	C 	0.0587	0.4878	0.55547	-1.511
Mof_C 	C 	0.3063	0.4411	0.0806	-4.136
Mof_C 	C 	0.9416	0.505	0.64796	1.394
Mof_C 	C 	0.3071	0.8206	0.3186	-3.583
Mof_C 	C 	0.3143	0.33532	0.42724	5.294
Mof_C 	C 	0.4413	0.5122	0.55547	-1.511
Mof_C 	C 	0.218	0.2306	0.126	-11.674
Mof_C 	C 	0.1205	0.55314	0.00171	-1.856
Mof_C 	C 	0.4408	0.44091	0.97415	1.477
Mof_C 	C 	0.1809	0.54662	0.52997	-1.891
Mof_C 	C 	0.2437	0.8182	0.3455	5.338
Mof_C 	C 	0.3048	0.6149	0.39459	4.924
Mof_C 	C 	0.5523	0.4509	0.67842	-1.043
Mof_C 	C 	0.2425	0.2773	0.3716	12.104
Mof_C 	C 	0.3191	0.45338	0.52997	-1.891
Mof_C 	C 	0.9477	0.5491	0.67842	-1.044
Mof_C 	C 	0.282	0.7694	0.126	-11.68
Mof_C 	C 	0.3128	0.3914	0.45205	-4.326
Mof_C 	C 	0.2575	0.7227	0.3716	12.114
Mof_C 	C 	0.5584	0.505	0.85204	1.378
Mof_C 	C 	0.1952	0.3851	0.39459	4.921
Mof_C 	C 	0.1872	0.3914	0.04795	-4.259
Mof_C 	C 	0.8939	0.5432	0.70772	0.733
Mof_C 	C 	0.2475	0.44426	0.05187	3.664
Mof_C 	C 	0.8328	0.5417	0.82174	0.77
Mof_C 	C 	0.4413	0.4878	0.94453	-1.486
Mof_C 	C 	0.8852	0.5384	0.8519	-1.37
Mof_C 	C 	0.1205	0.44686	0.49829	-1.894
Mof_C 	C 	0.3079	0.8746	0.2926	1.762
Mof_C 	C 	0.1857	0.33532	0.07276	5.212
Mof_C 	C 	0.3071	0.1794	0.1814	-3.529
Mof_C 	C 	0.0026	0.516	0.91501	1.4
Mof_C 	C 	0.4983	0.5125	0.88254	-1.49
Mof_C 	C 	0.1952	0.6149	0.10541	4.846
Mof_C 	C 	0.2556	0.3322	0.39851	-6.884
Mof_C 	C 	0.18135	0.49971	0.50035	2.195
Mof_C 	C 	0.9416	0.495	0.85204	1.377
Mof_C 	C 	0.2575	0.2773	0.1284	11.92
Mof_C 	C 	0.25	0.5	0.47447	-3.79
Mof_C 	C 	0.3795	0.55314	0.49829	-1.893
Mof_C 	C 	0.75	0.6422	0.75	0.306
Mof_C 	C 	0.2444	0.3322	0.10149	-6.778
Mof_C 	C 	0.1195	0.54067	0.55753	1.464
Mof_C 	C 	0.282	0.2306	0.374	-11.851
Mof_C 	C 	0.1937	0.5589	0.0806	-4.137
Mof_C 	C 	0.75	0.3578	0.75	0.306
Mof_C 	C 	0.4974	0.516	0.58499	1.427
Mof_C 	C 	0.0592	0.55909	0.97415	1.472
Mof_C 	C 	0.18135	0.50029	0.99965	2.153
Mof_C 	C 	0.31865	0.50029	0.50035	2.195
Mof_C 	C 	0.1937	0.4411	0.4194	-4.201
Mof_C 	C 	0.8939	0.4568	0.79228	0.726
Mof_C 	C 	0.2475	0.55574	0.44813	3.725
Mof_C 	C 	0.3188	0.8698	0.1538	-2.815
Mof_C 	C 	0.071	-4.68452e-33	0.25	-0.095
Mof_C 	C 	0.1857	0.66468	0.42724	5.298
Mof_C 	C 	0.1821	0.9238	0.3202	1.408
Mof_C 	C 	0.1812	0.8698	0.3462	-2.856
Mof_C 	C 	0.6148	0.4616	0.8519	-1.37
Mof_C 	C 	0.0017	0.4875	0.88254	-1.488
Mof_C 	C 	0.1812	0.1302	0.1538	-2.815
Mof_C 	C 	0.0592	0.44091	0.52585	1.504
Mof_C 	C 	0.1929	0.1794	0.3186	-3.58
Mof_C 	C 	0.3128	0.6086	0.04795	-4.26
Mof_C 	C 	0.4408	0.55909	0.52585	1.504
Mof_C 	C 	0.5523	0.5491	0.82158	-1.034
Mof_C 	C 	0.2525	0.55574	0.05187	3.665
Mof_C 	C 	0.2444	0.6678	0.39851	-6.888
Mof_C 	C 	0.2563	0.1818	0.3455	5.332
Mof_C 	C 	0.1921	0.1254	0.2926	1.759
Mof_C 	C 	0.1929	0.8206	0.1814	-3.531
Mof_C 	C 	0.3179	0.9238	0.1798	1.388
Mof_C 	C 	0.25	0.5	0.02553	-3.726
Mof_C 	C 	0.429	-4.68452e-33	0.25	-0.096
Mof_C 	C 	0.2525	0.44426	0.44813	3.723
Mof_C 	C 	0.3079	0.1254	0.2074	1.734
Mof_C 	C 	0.6148	0.5384	0.6481	-1.383
Mof_C 	C 	0.6061	0.5432	0.79228	0.726
Mof_C 	C 	0.2556	0.6678	0.10149	-6.781
Mof_C 	C 	0.5584	0.495	0.64796	1.392
Mof_C 	C 	0.3063	0.5589	0.4194	-4.203
Mof_C 	C 	0.0017	0.5125	0.61746	-1.511
Mof_C 	C 	0.9477	0.4509	0.82158	-1.033
Mof_C 	C 	0.3188	0.1302	0.3462	-2.855
Mof_C 	C 	0.3143	0.66468	0.07276	5.214
Mof_C 	C 	0.6672	0.4583	0.82174	0.77
Mof_C 	C 	0.4983	0.4875	0.61746	-1.509
Mof_C 	C 	0.1872	0.6086	0.45205	-4.327
Mof_C 	C 	0.1809	0.45338	0.97003	-1.857
Mof_C 	C 	0.218	0.7694	0.374	-11.86
Mof_C 	C 	0.3048	0.3851	0.10541	4.844
Mof_C 	C 	0.1821	0.0762	0.1798	1.386
Mof_C 	C 	0.3191	0.54662	0.97003	-1.86
Mof_C 	C 	0.8852	0.4616	0.6481	-1.385
Mof_C 	C 	0.2437	0.1818	0.1545	5.254
Mof_C 	C 	0.6061	0.4568	0.70772	0.732
Mof_N 	N 	0.6627	0.4999	0.79195	-0.491
Mof_N 	N 	0.6627	0.5001	0.70805	-0.494
Mof_N 	N 	0.1329	-4.68452e-33	0.25	-0.21
Mof_N 	N 	0.2454	0.9262	0.29336	-0.722
Mof_N 	N 	0.75	0.5963	0.75	-0.368
Mof_N 	N 	0.2454	0.0738	0.20664	-0.716
Mof_N 	N 	0.75	0.4037	0.75	-0.367
Mof_N 	N 	0.2546	0.9262	0.20664	-0.714
Mof_N 	N 	0.3671	-4.68452e-33	0.25	-0.209
Mof_N 	N 	0.8373	0.4999	0.70805	-0.494
Mof_N 	N 	0.8373	0.5001	0.79195	-0.491
Mof_N 	N 	0.2546	0.0738	0.29336	-0.724
_end
