# CIF file generated by openbabel 3.1.0, see https://openbabel.org
data_I
_chemical_name_common 'QIDDAI02_clean'
_cell_length_a 13.0442
_cell_length_b 13.0442
_cell_length_c 16.758
_cell_angle_alpha 109.757
_cell_angle_beta 109.757
_cell_angle_gamma 93.3393
_space_group_name_H-M_alt 'P 1'
_space_group_name_Hall 'P 1'
loop_
    _symmetry_equiv_pos_as_xyz
    x,y,z
loop_
    _atom_site_label
    _atom_site_type_symbol
    _atom_site_fract_x
    _atom_site_fract_y
    _atom_site_fract_z
    _atom_site_occupancy
    Cd1      Cd       0.12240    0.87760    0.25000    1.000
    Cd2      Cd       0.87760    0.12240    0.75000    1.000
    H1       H        0.34880    0.82520    0.21830    1.000
    H2       H        0.04200    0.70380    0.03980    1.000
    H3       H        0.41870    0.73390    0.10980    1.000
    H4       H        0.10300    0.60480    0.92720    1.000
    H5       H        0.32800    0.64760    0.90390    1.000
    H6       H        0.24640    0.53620    0.88120    1.000
    H7       H        0.21680    0.13960    0.38570    1.000
    H8       H        0.95850    0.94530    0.36050    1.000
    H9       H        0.17990    0.29050    0.48560    1.000
    H10      H        0.91490    0.09070    0.45990    1.000
    H11      H        0.07560    0.32600    0.61270    1.000
    H12      H        0.94560    0.28020    0.55400    1.000
    H13      H        0.17480    0.65120    0.28170    1.000
    H14      H        0.29620    0.95800    0.46020    1.000
    H15      H        0.26610    0.58130    0.39020    1.000
    H16      H        0.39520    0.89700    0.57280    1.000
    H17      H        0.35240    0.67200    0.59610    1.000
    H18      H        0.46380    0.75360    0.61880    1.000
    H19      H        0.86040    0.78320    0.11430    1.000
    H20      H        0.05470    0.04150    0.13950    1.000
    H21      H        0.70950    0.82010    0.01440    1.000
    H22      H        0.90930    0.08510    0.04010    1.000
    H23      H        0.67400    0.92440    0.88730    1.000
    H24      H        0.71980    0.05440    0.94600    1.000
    H25      H        0.65120    0.17480    0.78170    1.000
    H26      H        0.95800    0.29620    0.96020    1.000
    H27      H        0.58130    0.26610    0.89020    1.000
    H28      H        0.89700    0.39520    0.07280    1.000
    H29      H        0.67200    0.35240    0.09610    1.000
    H30      H        0.75360    0.46380    0.11880    1.000
    H31      H        0.78320    0.86040    0.61430    1.000
    H32      H        0.04150    0.05470    0.63950    1.000
    H33      H        0.82010    0.70950    0.51440    1.000
    H34      H        0.08510    0.90930    0.54010    1.000
    H35      H        0.92440    0.67400    0.38730    1.000
    H36      H        0.05440    0.71980    0.44600    1.000
    H37      H        0.82520    0.34880    0.71830    1.000
    H38      H        0.70380    0.04200    0.53980    1.000
    H39      H        0.73390    0.41870    0.60980    1.000
    H40      H        0.60480    0.10300    0.42720    1.000
    H41      H        0.64760    0.32800    0.40390    1.000
    H42      H        0.53620    0.24640    0.38120    1.000
    H43      H        0.13960    0.21680    0.88570    1.000
    H44      H        0.94530    0.95850    0.86050    1.000
    H45      H        0.29050    0.17990    0.98560    1.000
    H46      H        0.09070    0.91490    0.95990    1.000
    H47      H        0.32600    0.07560    0.11270    1.000
    H48      H        0.28020    0.94560    0.05400    1.000
    C1       C        0.29809    0.78063    0.15800    1.000
    C2       C        0.11962    0.70948    0.05439    1.000
    C3       C        0.34070    0.72572    0.09373    1.000
    C4       C        0.15544    0.65054    0.98646    1.000
    C5       C        0.26839    0.65847    0.00539    1.000
    C6       C        0.30790    0.59610    0.93054    1.000
    C7       C        0.40666    0.54614    0.96520    1.000
    C8       C        0.39465    0.44241    0.97022    1.000
    C9       C        0.48508    0.39790    0.00395    1.000
    C10      C        0.15375    0.12909    0.40037    1.000
    C11      C        0.00439    0.01673    0.38589    1.000
    C12      C        0.13232    0.22002    0.46055    1.000
    C13      C        0.97770    0.10342    0.44549    1.000
    C14      C        0.04242    0.20822    0.48398    1.000
    C15      C        0.01695    0.30465    0.55091    1.000
    C16      C        0.00962    0.40538    0.52512    1.000
    C17      C        0.91743    0.40983    0.45607    1.000
    C18      C        0.90731    0.50051    0.43122    1.000
    C19      C        0.21937    0.70191    0.34200    1.000
    C20      C        0.29052    0.88038    0.44561    1.000
    C21      C        0.27428    0.65930    0.40627    1.000
    C22      C        0.34946    0.84456    0.51354    1.000
    C23      C        0.34153    0.73161    0.49461    1.000
    C24      C        0.40390    0.69210    0.56946    1.000
    C25      C        0.45386    0.59334    0.53480    1.000
    C26      C        0.55759    0.60535    0.52978    1.000
    C27      C        0.60210    0.51492    0.49605    1.000
    C28      C        0.87091    0.84625    0.09963    1.000
    C29      C        0.98327    0.99561    0.11411    1.000
    C30      C        0.77998    0.86768    0.03945    1.000
    C31      C        0.89658    0.02230    0.05451    1.000
    C32      C        0.79178    0.95758    0.01602    1.000
    C33      C        0.69535    0.98305    0.94909    1.000
    C34      C        0.59462    0.99038    0.97488    1.000
    C35      C        0.59017    0.08257    0.04393    1.000
    C36      C        0.49949    0.09269    0.06878    1.000
    C37      C        0.70191    0.21937    0.84200    1.000
    C38      C        0.88038    0.29052    0.94561    1.000
    C39      C        0.65930    0.27428    0.90627    1.000
    C40      C        0.84456    0.34946    0.01354    1.000
    C41      C        0.73161    0.34153    0.99461    1.000
    C42      C        0.69210    0.40390    0.06946    1.000
    C43      C        0.59334    0.45386    0.03480    1.000
    C44      C        0.60535    0.55759    0.02978    1.000
    C45      C        0.51492    0.60210    0.99605    1.000
    C46      C        0.84625    0.87091    0.59963    1.000
    C47      C        0.99561    0.98327    0.61411    1.000
    C48      C        0.86768    0.77998    0.53945    1.000
    C49      C        0.02230    0.89658    0.55451    1.000
    C50      C        0.95758    0.79178    0.51602    1.000
    C51      C        0.98305    0.69535    0.44909    1.000
    C52      C        0.99038    0.59462    0.47488    1.000
    C53      C        0.08257    0.59017    0.54393    1.000
    C54      C        0.09269    0.49949    0.56878    1.000
    C55      C        0.78063    0.29809    0.65800    1.000
    C56      C        0.70948    0.11962    0.55439    1.000
    C57      C        0.72572    0.34070    0.59373    1.000
    C58      C        0.65054    0.15544    0.48646    1.000
    C59      C        0.65847    0.26839    0.50539    1.000
    C60      C        0.59610    0.30790    0.43054    1.000
    C61      C        0.54614    0.40666    0.46520    1.000
    C62      C        0.44241    0.39465    0.47022    1.000
    C63      C        0.39790    0.48508    0.50395    1.000
    C64      C        0.12909    0.15375    0.90037    1.000
    C65      C        0.01673    0.00439    0.88589    1.000
    C66      C        0.22002    0.13232    0.96055    1.000
    C67      C        0.10342    0.97770    0.94549    1.000
    C68      C        0.20822    0.04242    0.98398    1.000
    C69      C        0.30465    0.01695    0.05091    1.000
    C70      C        0.40538    0.00962    0.02512    1.000
    C71      C        0.40983    0.91743    0.95607    1.000
    C72      C        0.50051    0.90731    0.93122    1.000
    N1       N        0.18923    0.77441    0.13988    1.000
    N2       N        0.09116    0.02804    0.36214    1.000
    N3       N        0.22559    0.81077    0.36012    1.000
    N4       N        0.97196    0.90884    0.13786    1.000
    N5       N        0.81077    0.22559    0.86012    1.000
    N6       N        0.90884    0.97196    0.63786    1.000
    N7       N        0.77441    0.18923    0.63988    1.000
    N8       N        0.02804    0.09116    0.86214    1.000
    F1       F        0.29202    0.38314    0.94120    1.000
    F2       F        0.46757    0.29687    0.00723    1.000
    F3       F        0.83324    0.32020    0.40940    1.000
    F4       F        0.81398    0.49534    0.36202    1.000
    F5       F        0.61686    0.70798    0.55880    1.000
    F6       F        0.70313    0.53243    0.49277    1.000
    F7       F        0.67980    0.16676    0.09060    1.000
    F8       F        0.50466    0.18602    0.13798    1.000
    F9       F        0.70798    0.61686    0.05880    1.000
    F10      F        0.53243    0.70313    0.99277    1.000
    F11      F        0.16676    0.67980    0.59060    1.000
    F12      F        0.18602    0.50466    0.63798    1.000
    F13      F        0.38314    0.29202    0.44120    1.000
    F14      F        0.29687    0.46757    0.50723    1.000
    F15      F        0.32020    0.83324    0.90940    1.000
    F16      F        0.49534    0.81398    0.86202    1.000
