# CIF file generated by openbabel 3.1.0, see https://openbabel.org
data_I
_chemical_name_common 'OFODET_clean'
_cell_length_a 9.6677
_cell_length_b 11.3667
_cell_length_c 22.1056
_cell_angle_alpha 90
_cell_angle_beta 90
_cell_angle_gamma 102.986
_space_group_name_H-M_alt 'P 1'
_space_group_name_Hall 'P 1'
loop_
    _symmetry_equiv_pos_as_xyz
    x,y,z
loop_
    _atom_site_label
    _atom_site_type_symbol
    _atom_site_fract_x
    _atom_site_fract_y
    _atom_site_fract_z
    _atom_site_occupancy
    Mn1      Mn       0.25997    0.26008    0.40512    1.000
    Mn2      Mn       0.24003    0.73992    0.90512    1.000
    Mn3      Mn       0.74003    0.73992    0.59488    1.000
    Mn4      Mn       0.75997    0.26008    0.09488    1.000
    H1       H        0.80300    0.45600    0.98260    1.000
    H2       H        0.15400    0.07700    0.81630    1.000
    H3       H        0.92800    0.33500    0.50920    1.000
    H4       H        0.07200    0.17100    0.64770    1.000
    H5       H        0.06500    0.15780    0.98370    1.000
    H6       H        0.83800    0.41400    0.67900    1.000
    H7       H        0.92900    0.33000    0.84430    1.000
    H8       H        0.28300    0.95500    0.01200    1.000
    H9       H        0.69700    0.54400    0.48260    1.000
    H10      H        0.34600    0.92300    0.31630    1.000
    H11      H        0.57200    0.66500    0.00920    1.000
    H12      H        0.42800    0.82900    0.14770    1.000
    H13      H        0.43500    0.84220    0.48370    1.000
    H14      H        0.66200    0.58600    0.17900    1.000
    H15      H        0.57100    0.67000    0.34430    1.000
    H16      H        0.21700    0.04500    0.51200    1.000
    H17      H        0.19700    0.54400    0.01740    1.000
    H18      H        0.84600    0.92300    0.18370    1.000
    H19      H        0.07200    0.66500    0.49080    1.000
    H20      H        0.92800    0.82900    0.35230    1.000
    H21      H        0.93500    0.84220    0.01630    1.000
    H22      H        0.16200    0.58600    0.32100    1.000
    H23      H        0.07100    0.67000    0.15570    1.000
    H24      H        0.71700    0.04500    0.98800    1.000
    H25      H        0.30300    0.45600    0.51740    1.000
    H26      H        0.65400    0.07700    0.68370    1.000
    H27      H        0.42800    0.33500    0.99080    1.000
    H28      H        0.57200    0.17100    0.85230    1.000
    H29      H        0.56500    0.15780    0.51630    1.000
    H30      H        0.33800    0.41400    0.82100    1.000
    H31      H        0.42900    0.33000    0.65570    1.000
    H32      H        0.78300    0.95500    0.48800    1.000
    C1       C        0.79230    0.48180    0.56558    1.000
    C2       C        0.86750    0.38830    0.58905    1.000
    C3       C        0.93220    0.32380    0.54926    1.000
    C4       C        0.00980    0.24290    0.57020    1.000
    C5       C        0.08650    0.18100    0.52555    1.000
    C6       C        0.02080    0.22550    0.63195    1.000
    C7       C        0.95560    0.29010    0.67242    1.000
    C8       C        0.87940    0.37090    0.65079    1.000
    C9       C        0.04180    0.20510    0.82048    1.000
    C10      C        0.97970    0.27360    0.86020    1.000
    C11      C        0.98610    0.25460    0.92175    1.000
    C12      C        0.91260    0.31960    0.96635    1.000
    C13      C        0.05710    0.16950    0.94369    1.000
    C14      C        0.11950    0.10180    0.90490    1.000
    C15      C        0.19190    0.00770    0.92923    1.000
    C16      C        0.11210    0.12030    0.84315    1.000
    C17      C        0.70770    0.51820    0.06558    1.000
    C18      C        0.63250    0.61170    0.08905    1.000
    C19      C        0.56780    0.67620    0.04926    1.000
    C20      C        0.49020    0.75710    0.07020    1.000
    C21      C        0.41350    0.81900    0.02555    1.000
    C22      C        0.47920    0.77450    0.13195    1.000
    C23      C        0.54440    0.70990    0.17242    1.000
    C24      C        0.62060    0.62910    0.15079    1.000
    C25      C        0.45820    0.79490    0.32048    1.000
    C26      C        0.52030    0.72640    0.36020    1.000
    C27      C        0.51390    0.74540    0.42175    1.000
    C28      C        0.58740    0.68040    0.46635    1.000
    C29      C        0.44290    0.83050    0.44369    1.000
    C30      C        0.38050    0.89820    0.40490    1.000
    C31      C        0.30810    0.99230    0.42923    1.000
    C32      C        0.38790    0.87970    0.34315    1.000
    C33      C        0.20770    0.51820    0.43442    1.000
    C34      C        0.13250    0.61170    0.41095    1.000
    C35      C        0.06780    0.67620    0.45074    1.000
    C36      C        0.99020    0.75710    0.42980    1.000
    C37      C        0.91350    0.81900    0.47445    1.000
    C38      C        0.97920    0.77450    0.36805    1.000
    C39      C        0.04440    0.70990    0.32758    1.000
    C40      C        0.12060    0.62910    0.34921    1.000
    C41      C        0.95820    0.79490    0.17952    1.000
    C42      C        0.02030    0.72640    0.13980    1.000
    C43      C        0.01390    0.74540    0.07825    1.000
    C44      C        0.08740    0.68040    0.03365    1.000
    C45      C        0.94290    0.83050    0.05631    1.000
    C46      C        0.88050    0.89820    0.09510    1.000
    C47      C        0.80810    0.99230    0.07077    1.000
    C48      C        0.88790    0.87970    0.15685    1.000
    C49      C        0.29230    0.48180    0.93442    1.000
    C50      C        0.36750    0.38830    0.91095    1.000
    C51      C        0.43220    0.32380    0.95074    1.000
    C52      C        0.50980    0.24290    0.92980    1.000
    C53      C        0.58650    0.18100    0.97445    1.000
    C54      C        0.52080    0.22550    0.86805    1.000
    C55      C        0.45560    0.29010    0.82758    1.000
    C56      C        0.37940    0.37090    0.84921    1.000
    C57      C        0.54180    0.20510    0.67952    1.000
    C58      C        0.47970    0.27360    0.63980    1.000
    C59      C        0.48610    0.25460    0.57825    1.000
    C60      C        0.41260    0.31960    0.53365    1.000
    C61      C        0.55710    0.16950    0.55631    1.000
    C62      C        0.61950    0.10180    0.59510    1.000
    C63      C        0.69190    0.00770    0.57077    1.000
    C64      C        0.61210    0.12030    0.65685    1.000
    N1       N        0.96180    0.28120    0.73663    1.000
    N2       N        0.03680    0.21370    0.75593    1.000
    N3       N        0.53820    0.71880    0.23663    1.000
    N4       N        0.46320    0.78630    0.25593    1.000
    N5       N        0.03820    0.71880    0.26337    1.000
    N6       N        0.96320    0.78630    0.24407    1.000
    N7       N        0.46180    0.28120    0.76337    1.000
    N8       N        0.53680    0.21370    0.74407    1.000
    O1       O        0.77190    0.56008    0.60104    1.000
    O2       O        0.75730    0.47232    0.50998    1.000
    O3       O        0.09130    0.21400    0.47182    1.000
    O4       O        0.14390    0.09947    0.54613    1.000
    O5       O        0.85770    0.40300    0.94507    1.000
    O6       O        0.90770    0.28825    0.02005    1.000
    O7       O        0.22850    0.02117    0.98469    1.000
    O8       O        0.20960    0.92553    0.89588    1.000
    O9       O        0.72810    0.43992    0.10104    1.000
    O10      O        0.74270    0.52768    0.00998    1.000
    O11      O        0.40870    0.78600    0.97182    1.000
    O12      O        0.35610    0.90053    0.04613    1.000
    O13      O        0.64230    0.59700    0.44507    1.000
    O14      O        0.59230    0.71175    0.52005    1.000
    O15      O        0.27150    0.97883    0.48469    1.000
    O16      O        0.29040    0.07447    0.39588    1.000
    O17      O        0.22810    0.43992    0.39896    1.000
    O18      O        0.24270    0.52768    0.49002    1.000
    O19      O        0.90870    0.78600    0.52818    1.000
    O20      O        0.85610    0.90053    0.45387    1.000
    O21      O        0.14230    0.59700    0.05493    1.000
    O22      O        0.09230    0.71175    0.97995    1.000
    O23      O        0.77150    0.97883    0.01531    1.000
    O24      O        0.79040    0.07447    0.10412    1.000
    O25      O        0.27190    0.56008    0.89896    1.000
    O26      O        0.25730    0.47232    0.99002    1.000
    O27      O        0.59130    0.21400    0.02818    1.000
    O28      O        0.64390    0.09947    0.95387    1.000
    O29      O        0.35770    0.40300    0.55493    1.000
    O30      O        0.40770    0.28825    0.47995    1.000
    O31      O        0.72850    0.02117    0.51531    1.000
    O32      O        0.70960    0.92553    0.60412    1.000
