data_functionalizedCrystal
_audit_creation_method	'EQeq! by Chris Wilmer'
_symmetry_space_group_name_H-M	'P1'
_symmetry_Int_Tables_number	1
_symmetry_cell_setting	triclinic
loop_
_symmetry_equiv_pos_as_xyz
  x,y,z
_cell_length_a	17.088
_cell_length_b	14.769
_cell_length_c	14.165
_cell_angle_alpha	90
_cell_angle_beta	116.039
_cell_angle_gamma	90
loop_
_atom_site_label
_atom_site_type_symbol
_atom_site_fract_x
_atom_site_fract_y
_atom_site_fract_z
_atom_site_charge
Mof_Ni	Ni	0.79498	0.00151	0.99805	1.134
Mof_Ni	Ni	0.80473	0.01593	0.25453	1.152
Mof_O 	O 	0.4849	0.9169	0.3552	-0.129
Mof_O 	O 	0.8683	0.9867	0.9152	-0.366
Mof_N 	N 	0.3992	0.9262	0.2922	-0.083
Mof_N 	N 	0.9523	0.9762	0.9692	-0.067
Mof_C 	C 	0.3505	0.851	0.2664	0.062
Mof_H 	H 	0.3753	0.7945	0.2902	0.038
Mof_C 	C 	0.2614	0.86	0.203	-0.125
Mof_H 	H 	0.2262	0.8087	0.1853	0.086
Mof_C 	C 	0.2244	0.9432	0.1662	0.071
Mof_C 	C 	0.2757	0.015	0.1908	-0.127
Mof_H 	H 	0.2526	0.0714	0.1632	0.079
Mof_C 	C 	0.3661	0.0066	0.2593	0.064
Mof_H 	H 	0.4013	0.0577	0.2806	0.026
Mof_C 	C 	0.0046	0.0485	0.007	0.125
Mof_H 	H 	0.9808	0.1062	0.9901	-0.007
Mof_C 	C 	0.0915	0.0396	0.0694	-0.13
Mof_H 	H 	0.1262	0.0911	0.0927	0.084
Mof_C 	C 	0.1286	0.9556	0.0982	0.039
Mof_C 	C 	0.075	0.8812	0.057	-0.051
Mof_H 	H 	0.099	0.8235	0.0728	0.062
Mof_C 	C 	0.9882	0.89	0.9943	-0.009
Mof_H 	H 	0.9533	0.839	0.9684	0.051
Mof_O 	O 	0.3853	0.411	0.5903	-0.419
Mof_O 	O 	0.3884	0.3888	0.7481	-0.403
Mof_O 	O 	0.7295	0.1085	0.9058	-0.43
Mof_O 	O 	0.7176	0.0805	0.7452	-0.431
Mof_C 	C 	0.6461	0.2798	0.8142	0.061
Mof_C 	C 	0.7303	0.3111	0.8869	-0.098
Mof_H 	H 	0.7772	0.2715	0.9084	0.071
Mof_C 	C 	0.744	0.3972	0.9256	-0.018
Mof_H 	H 	0.7993	0.4153	0.9739	0.023
Mof_C 	C 	0.6733	0.4591	0.8919	-0.036
Mof_H 	H 	0.6826	0.5183	0.9169	0.034
Mof_C 	C 	0.5924	0.4322	0.8233	-0.073
Mof_H 	H 	0.5467	0.4736	0.8015	0.066
Mof_C 	C 	0.5761	0.3443	0.7851	0.035
Mof_C 	C 	0.491	0.3152	0.7085	-0.088
Mof_C 	C 	0.4824	0.2308	0.6617	-0.023
Mof_H 	H 	0.4286	0.2136	0.6088	0.047
Mof_C 	C 	0.55	0.1735	0.691	0.019
Mof_H 	H 	0.5418	0.1183	0.6563	0.03
Mof_C 	C 	0.6302	0.193	0.7697	-0.125
Mof_C 	C 	0.4143	0.3788	0.6789	0.393
Mof_C 	C 	0.7	0.1237	0.8095	0.402
Mof_O 	O 	0.889	0.9184	0.2544	-0.403
Mof_O 	O 	0.8597	0.8963	0.0864	-0.397
Mof_O 	O 	0.2251	0.6169	0.2615	-0.414
Mof_O 	O 	0.2035	0.5867	0.4035	-0.416
Mof_C 	C 	0.96	0.725	0.1582	0.112
Mof_C 	C 	0.8816	0.7004	0.0705	-0.184
Mof_H 	H 	0.8339	0.7391	0.0482	0.125
Mof_C 	C 	0.8748	0.6221	0.0187	0.15
Mof_H 	H 	0.8235	0.6074	0.9603	-0.047
Mof_C 	C 	0.948	0.5618	0.0551	-0.088
Mof_H 	H 	0.9435	0.5073	0.0202	0.089
Mof_C 	C 	0.0219	0.5822	0.1377	-0.035
Mof_H 	H 	0.0679	0.5412	0.1608	0.047
Mof_C 	C 	0.0322	0.6679	0.1925	-0.008
Mof_C 	C 	0.1097	0.6886	0.2809	-0.09
Mof_C 	C 	0.1161	0.7631	0.3369	-0.009
Mof_H 	H 	0.167	0.7746	0.3974	0.036
Mof_C 	C 	0.0442	0.8263	0.3042	-0.037
Mof_H 	H 	0.0495	0.8792	0.342	0.048
Mof_C 	C 	0.9681	0.8074	0.2168	-0.088
Mof_C 	C 	0.1872	0.6263	0.3185	0.38
Mof_C 	C 	0.8987	0.8816	0.1816	0.393
Mof_O 	O 	0.7264	0.0227	0.0896	-0.906
Mof_H 	H 	0.6867	0.9827	0.0729	0.37
Mof_H 	H 	0.7016	0.0741	0.0743	0.374
Mof_Ni	Ni	0.29498	0.50151	0.99805	1.135
Mof_Ni	Ni	0.30473	0.51593	0.25453	1.15
Mof_O 	O 	0.9849	0.4169	0.3552	-0.121
Mof_O 	O 	0.3683	0.4867	0.9152	-0.369
Mof_N 	N 	0.8992	0.4262	0.2922	-0.083
Mof_N 	N 	0.4523	0.4762	0.9692	-0.082
Mof_C 	C 	0.8505	0.351	0.2664	0.063
Mof_H 	H 	0.8753	0.2945	0.2902	0.039
Mof_C 	C 	0.7614	0.36	0.203	-0.126
Mof_H 	H 	0.7262	0.3087	0.1853	0.087
Mof_C 	C 	0.7244	0.4432	0.1662	0.072
Mof_C 	C 	0.7757	0.515	0.1908	-0.127
Mof_H 	H 	0.7526	0.5714	0.1632	0.08
Mof_C 	C 	0.8661	0.5066	0.2593	0.066
Mof_H 	H 	0.9013	0.5577	0.2806	0.029
Mof_C 	C 	0.5046	0.5485	0.007	0.193
Mof_H 	H 	0.4808	0.6062	0.9901	-0.042
Mof_C 	C 	0.5915	0.5396	0.0694	-0.158
Mof_H 	H 	0.6262	0.5911	0.0927	0.095
Mof_C 	C 	0.6286	0.4556	0.0982	0.04
Mof_C 	C 	0.575	0.3812	0.057	-0.013
Mof_H 	H 	0.599	0.3235	0.0728	0.053
Mof_C 	C 	0.4882	0.39	0.9943	-0.049
Mof_H 	H 	0.4533	0.339	0.9684	0.061
Mof_O 	O 	0.8853	0.911	0.5903	-0.416
Mof_O 	O 	0.8884	0.8888	0.7481	-0.401
Mof_O 	O 	0.2295	0.6085	0.9058	-0.428
Mof_O 	O 	0.2176	0.5805	0.7452	-0.43
Mof_C 	C 	0.1461	0.7798	0.8142	0.055
Mof_C 	C 	0.2303	0.8111	0.8869	-0.093
Mof_H 	H 	0.2772	0.7715	0.9084	0.069
Mof_C 	C 	0.244	0.8972	0.9256	-0.023
Mof_H 	H 	0.2993	0.9153	0.9739	0.025
Mof_C 	C 	0.1733	0.9591	0.8919	-0.027
Mof_H 	H 	0.1826	0.0183	0.9169	0.028
Mof_C 	C 	0.0924	0.9322	0.8233	-0.073
Mof_H 	H 	0.0467	0.9736	0.8015	0.061
Mof_C 	C 	0.0761	0.8443	0.7851	0.022
Mof_C 	C 	0.991	0.8152	0.7085	-0.082
Mof_C 	C 	0.9824	0.7308	0.6617	0.017
Mof_H 	H 	0.9286	0.7136	0.6088	0.035
Mof_C 	C 	0.05	0.6735	0.691	-0.026
Mof_H 	H 	0.0418	0.6183	0.6563	0.04
Mof_C 	C 	0.1302	0.693	0.7697	-0.111
Mof_C 	C 	0.9143	0.8788	0.6789	0.395
Mof_C 	C 	0.2	0.6237	0.8095	0.395
Mof_O 	O 	0.389	0.4184	0.2544	-0.409
Mof_O 	O 	0.3597	0.3963	0.0864	-0.4
Mof_O 	O 	0.7251	0.1169	0.2615	-0.412
Mof_O 	O 	0.7035	0.0867	0.4035	-0.414
Mof_C 	C 	0.46	0.225	0.1582	0.119
Mof_C 	C 	0.3816	0.2004	0.0705	-0.214
Mof_H 	H 	0.3339	0.2391	0.0482	0.137
Mof_C 	C 	0.3748	0.1221	0.0187	0.194
Mof_H 	H 	0.3235	0.1074	0.9603	-0.065
Mof_C 	C 	0.448	0.0618	0.0551	-0.155
Mof_H 	H 	0.4435	0.0073	0.0202	0.108
Mof_C 	C 	0.5219	0.0822	0.1377	0.027
Mof_H 	H 	0.5679	0.0412	0.1608	0.03
Mof_C 	C 	0.5322	0.1679	0.1925	-0.017
Mof_C 	C 	0.6097	0.1886	0.2809	-0.073
Mof_C 	C 	0.6161	0.2631	0.3369	-0.029
Mof_H 	H 	0.667	0.2746	0.3974	0.044
Mof_C 	C 	0.5442	0.3263	0.3042	0.006
Mof_H 	H 	0.5495	0.3792	0.342	0.038
Mof_C 	C 	0.4681	0.3074	0.2168	-0.122
Mof_C 	C 	0.6872	0.1263	0.3185	0.375
Mof_C 	C 	0.3987	0.3816	0.1816	0.401
Mof_O 	O 	0.2264	0.5227	0.0896	-0.907
Mof_H 	H 	0.1867	0.4827	0.0729	0.369
Mof_H 	H 	0.2016	0.5741	0.0743	0.372
Mof_Ni	Ni	0.79498	0.99849	0.49805	1.155
Mof_Ni	Ni	0.80473	0.98407	0.75453	1.151
Mof_O 	O 	0.4849	0.0831	0.8552	-0.147
Mof_O 	O 	0.8683	0.0133	0.4152	-0.365
Mof_N 	N 	0.3992	0.0738	0.7922	-0.086
Mof_N 	N 	0.9523	0.0238	0.4692	-0.031
Mof_C 	C 	0.3505	0.149	0.7664	0.057
Mof_H 	H 	0.3753	0.2055	0.7902	0.035
Mof_C 	C 	0.2614	0.14	0.703	-0.126
Mof_H 	H 	0.2262	0.1913	0.6853	0.082
Mof_C 	C 	0.2244	0.0568	0.6662	0.066
Mof_C 	C 	0.2757	0.985	0.6908	-0.127
Mof_H 	H 	0.2526	0.9286	0.6632	0.075
Mof_C 	C 	0.3661	0.9934	0.7593	0.063
Mof_H 	H 	0.4013	0.9423	0.7806	0.022
Mof_C 	C 	0.0046	0.9515	0.507	-0.035
Mof_H 	H 	0.9808	0.8938	0.4901	0.083
Mof_C 	C 	0.0915	0.9604	0.5694	-0.059
Mof_H 	H 	0.1262	0.9089	0.5927	0.05
Mof_C 	C 	0.1286	0.0444	0.5982	0.024
Mof_C 	C 	0.075	0.1188	0.557	-0.116
Mof_H 	H 	0.099	0.1765	0.5728	0.074
Mof_C 	C 	0.9882	0.11	0.4943	0.064
Mof_H 	H 	0.9533	0.161	0.4684	0.04
Mof_O 	O 	0.3853	0.589	0.0903	-0.396
Mof_O 	O 	0.3884	0.6112	0.2481	-0.398
Mof_O 	O 	0.7295	0.8915	0.4058	-0.414
Mof_O 	O 	0.7176	0.9195	0.2452	-0.425
Mof_C 	C 	0.6461	0.7202	0.3142	0.063
Mof_C 	C 	0.7303	0.6889	0.3869	-0.091
Mof_H 	H 	0.7772	0.7285	0.4084	0.078
Mof_C 	C 	0.744	0.6028	0.4256	-0.017
Mof_H 	H 	0.7993	0.5847	0.4739	0.039
Mof_C 	C 	0.6733	0.5409	0.3919	-0.028
Mof_H 	H 	0.6826	0.4817	0.4169	0.04
Mof_C 	C 	0.5924	0.5678	0.3233	-0.071
Mof_H 	H 	0.5467	0.5264	0.3015	0.069
Mof_C 	C 	0.5761	0.6557	0.2851	0.037
Mof_C 	C 	0.491	0.6848	0.2085	-0.08
Mof_C 	C 	0.4824	0.7692	0.1617	-0.024
Mof_H 	H 	0.4286	0.7864	0.1088	0.058
Mof_C 	C 	0.55	0.8265	0.191	0.024
Mof_H 	H 	0.5418	0.8817	0.1563	0.035
Mof_C 	C 	0.6302	0.807	0.2697	-0.121
Mof_C 	C 	0.4143	0.6212	0.1789	0.387
Mof_C 	C 	0.7	0.8763	0.3095	0.399
Mof_O 	O 	0.889	0.0816	0.7544	-0.407
Mof_O 	O 	0.8597	0.1037	0.5864	-0.416
Mof_O 	O 	0.2251	0.3831	0.7615	-0.422
Mof_O 	O 	0.2035	0.4133	0.9035	-0.435
Mof_C 	C 	0.96	0.275	0.6582	0.037
Mof_C 	C 	0.8816	0.2996	0.5705	-0.057
Mof_H 	H 	0.8339	0.2609	0.5482	0.067
Mof_C 	C 	0.8748	0.3779	0.5187	-0.056
Mof_H 	H 	0.8235	0.3926	0.4603	0.054
Mof_C 	C 	0.948	0.4382	0.5551	0.045
Mof_H 	H 	0.9435	0.4927	0.5202	0.026
Mof_C 	C 	0.0219	0.4178	0.6377	-0.137
Mof_H 	H 	0.0679	0.4588	0.6608	0.08
Mof_C 	C 	0.0322	0.3321	0.6925	0.054
Mof_C 	C 	0.1097	0.3114	0.7809	-0.13
Mof_C 	C 	0.1161	0.2369	0.8369	0.022
Mof_H 	H 	0.167	0.2254	0.8974	0.015
Mof_C 	C 	0.0442	0.1737	0.8042	-0.067
Mof_H 	H 	0.0495	0.1208	0.842	0.051
Mof_C 	C 	0.9681	0.1926	0.7168	-0.06
Mof_C 	C 	0.1872	0.3737	0.8185	0.394
Mof_C 	C 	0.8987	0.1184	0.6816	0.387
Mof_O 	O 	0.7264	0.9773	0.5896	-0.909
Mof_H 	H 	0.6867	0.0173	0.5729	0.359
Mof_H 	H 	0.7016	0.9259	0.5743	0.362
Mof_Ni	Ni	0.29498	0.49849	0.49805	1.154
Mof_Ni	Ni	0.30473	0.48407	0.75453	1.15
Mof_O 	O 	0.9849	0.5831	0.8552	-0.136
Mof_O 	O 	0.3683	0.5133	0.4152	-0.364
Mof_N 	N 	0.8992	0.5738	0.7922	-0.084
Mof_N 	N 	0.4523	0.5238	0.4692	-0.046
Mof_C 	C 	0.8505	0.649	0.7664	0.058
Mof_H 	H 	0.8753	0.7055	0.7902	0.036
Mof_C 	C 	0.7614	0.64	0.703	-0.127
Mof_H 	H 	0.7262	0.6913	0.6853	0.083
Mof_C 	C 	0.7244	0.5568	0.6662	0.069
Mof_C 	C 	0.7757	0.485	0.6908	-0.13
Mof_H 	H 	0.7526	0.4286	0.6632	0.076
Mof_C 	C 	0.8661	0.4934	0.7593	0.061
Mof_H 	H 	0.9013	0.4423	0.7806	0.026
Mof_C 	C 	0.5046	0.4515	0.507	0.033
Mof_H 	H 	0.4808	0.3938	0.4901	0.047
Mof_C 	C 	0.5915	0.4604	0.5694	-0.092
Mof_H 	H 	0.6262	0.4089	0.5927	0.063
Mof_C 	C 	0.6286	0.5444	0.5982	0.029
Mof_C 	C 	0.575	0.6188	0.557	-0.085
Mof_H 	H 	0.599	0.6765	0.5728	0.067
Mof_C 	C 	0.4882	0.61	0.4943	0.031
Mof_H 	H 	0.4533	0.661	0.4684	0.048
Mof_O 	O 	0.8853	0.089	0.0903	-0.392
Mof_O 	O 	0.8884	0.1112	0.2481	-0.395
Mof_O 	O 	0.2295	0.3915	0.4058	-0.414
Mof_O 	O 	0.2176	0.4195	0.2452	-0.425
Mof_C 	C 	0.1461	0.2202	0.3142	0.065
Mof_C 	C 	0.2303	0.1889	0.3869	-0.097
Mof_H 	H 	0.2772	0.2285	0.4084	0.079
Mof_C 	C 	0.244	0.1028	0.4256	-0.007
Mof_H 	H 	0.2993	0.0847	0.4739	0.034
Mof_C 	C 	0.1733	0.0409	0.3919	-0.044
Mof_H 	H 	0.1826	0.9817	0.4169	0.046
Mof_C 	C 	0.0924	0.0678	0.3233	-0.054
Mof_H 	H 	0.0467	0.0264	0.3015	0.056
Mof_C 	C 	0.0761	0.1557	0.2851	0.013
Mof_C 	C 	0.991	0.1848	0.2085	-0.068
Mof_C 	C 	0.9824	0.2692	0.1617	0.012
Mof_H 	H 	0.9286	0.2864	0.1088	0.049
Mof_C 	C 	0.05	0.3265	0.191	-0.018
Mof_H 	H 	0.0418	0.3817	0.1563	0.042
Mof_C 	C 	0.1302	0.307	0.2697	-0.111
Mof_C 	C 	0.9143	0.1212	0.1789	0.388
Mof_C 	C 	0.2	0.3763	0.3095	0.394
Mof_O 	O 	0.389	0.5816	0.7544	-0.412
Mof_O 	O 	0.3597	0.6037	0.5864	-0.419
Mof_O 	O 	0.7251	0.8831	0.7615	-0.419
Mof_O 	O 	0.7035	0.9133	0.9035	-0.43
Mof_C 	C 	0.46	0.775	0.6582	0.041
Mof_C 	C 	0.3816	0.7996	0.5705	-0.081
Mof_H 	H 	0.3339	0.7609	0.5482	0.075
Mof_C 	C 	0.3748	0.8779	0.5187	-0.022
Mof_H 	H 	0.3235	0.8926	0.4603	0.042
Mof_C 	C 	0.448	0.9382	0.5551	-0.016
Mof_H 	H 	0.4435	0.9927	0.5202	0.043
Mof_C 	C 	0.5219	0.9178	0.6377	-0.079
Mof_H 	H 	0.5679	0.9588	0.6608	0.065
Mof_C 	C 	0.5322	0.8321	0.6925	0.049
Mof_C 	C 	0.6097	0.8114	0.7809	-0.115
Mof_C 	C 	0.6161	0.7369	0.8369	0.003
Mof_H 	H 	0.667	0.7254	0.8974	0.023
Mof_C 	C 	0.5442	0.6737	0.8042	-0.025
Mof_H 	H 	0.5495	0.6208	0.842	0.042
Mof_C 	C 	0.4681	0.6926	0.7168	-0.093
Mof_C 	C 	0.6872	0.8737	0.8185	0.389
Mof_C 	C 	0.3987	0.6184	0.6816	0.394
Mof_O 	O 	0.2264	0.4773	0.5896	-0.91
Mof_H 	H 	0.1867	0.5173	0.5729	0.358
Mof_H 	H 	0.2016	0.4259	0.5743	0.361
_end
