# CIF file generated by openbabel 3.1.0, see https://openbabel.org
data_I
_chemical_name_common 'image0'
_cell_length_a 30.404
_cell_length_b 19.657
_cell_length_c 19.683
_cell_angle_alpha 90
_cell_angle_beta 127.63
_cell_angle_gamma 90
_space_group_name_H-M_alt 'P 1'
_space_group_name_Hall 'P 1'
loop_
    _symmetry_equiv_pos_as_xyz
    x,y,z
loop_
    _atom_site_label
    _atom_site_type_symbol
    _atom_site_fract_x
    _atom_site_fract_y
    _atom_site_fract_z
    _atom_site_occupancy
    W1       W        0.23458    0.44484    0.21149    1.000
    S1       S        0.17066    0.48330    0.22486    1.000
    S2       S        0.31284    0.47494    0.33855    1.000
    S3       S        0.23124    0.32716    0.21965    1.000
    Cu1      Cu       0.18039    0.37390    0.25343    1.000
    Cu2      Cu       0.29626    0.36841    0.34955    1.000
    Cu3      Cu       0.09471    0.25377    0.37022    1.000
    B1       B        0.22540    0.50830    0.04250    1.000
    H1       H        0.22400    0.52900    0.99500    1.000
    N1       N        0.16830    0.43670    0.06770    1.000
    N2       N        0.17040    0.47450    0.01070    1.000
    N3       N        0.23680    0.55250    0.17380    1.000
    N4       N        0.23850    0.56500    0.10520    1.000
    N5       N        0.28550    0.42610    0.16420    1.000
    N6       N        0.27290    0.45630    0.09040    1.000
    N7       N        0.06620    0.33540    0.40830    1.000
    C1       C        0.11630    0.40590    0.01660    1.000
    C2       C        0.08790    0.42610    0.93250    1.000
    H2       H        0.05170    0.41370    0.88570    1.000
    C3       C        0.12430    0.46890    0.93130    1.000
    C4       C        0.09490    0.35980    0.05120    1.000
    H3       H        0.11660    0.31820    0.07220    1.000
    H4       H        0.05630    0.34900    0.00600    1.000
    H5       H        0.09810    0.38240    0.09790    1.000
    C5       C        0.11390    0.50540    0.85610    1.000
    H6       H        0.11460    0.55410    0.86470    1.000
    H7       H        0.07780    0.49240    0.80440    1.000
    H8       H        0.14250    0.49340    0.85050    1.000
    C6       C        0.24640    0.61310    0.21110    1.000
    C7       C        0.25290    0.66090    0.17000    1.000
    H9       H        0.25870    0.70740    0.18370    1.000
    C8       C        0.24970    0.63130    0.10600    1.000
    C9       C        0.24230    0.62680    0.28520    1.000
    H10      H        0.20480    0.61770    0.26520    1.000
    H11      H        0.25160    0.67400    0.30310    1.000
    H12      H        0.26800    0.59730    0.33340    1.000
    C10      C        0.25500    0.66270    0.04200    1.000
    H13      H        0.27640    0.63290    0.03300    1.000
    H14      H        0.27370    0.70630    0.06340    1.000
    H15      H        0.21830    0.66940    0.98810    1.000
    C11      C        0.33170    0.38640    0.19500    1.000
    C12      C        0.34730    0.39450    0.14110    1.000
    H16      H        0.37800    0.37450    0.14810    1.000
    C13      C        0.30880    0.43720    0.07660    1.000
    C14      C        0.36240    0.34610    0.27550    1.000
    H17      H        0.37440    0.37580    0.32330    1.000
    H18      H        0.39460    0.32520    0.28480    1.000
    H19      H        0.33840    0.31090    0.27090    1.000
    C15      C        0.30740    0.46450    0.00490    1.000
    H20      H        0.27390    0.44920    0.95070    1.000
    H21      H        0.33960    0.44840    0.01050    1.000
    H22      H        0.30790    0.51390    0.00690    1.000
    C16      C        0.01400    0.36090    0.35780    1.000
    H23      H        0.98910    0.34470    0.30130    1.000
    C17      C        0.99570    0.41050    0.38670    1.000
    H24      H        0.95920    0.42720    0.35050    1.000
    C18      C        0.03420    0.43490    0.47270    1.000
    C19      C        0.08530    0.40650    0.52180    1.000
    H25      H        0.11050    0.42010    0.57940    1.000
    C20      C        0.10190    0.35810    0.49040    1.000
    H26      H        0.13820    0.34070    0.52640    1.000
    C21      C        0.02140    0.48400    0.51790    1.000
    H27      H        0.04830    0.49000    0.57730    1.000
    N8       N        0.12990    0.29830    0.32430    1.000
    C22      C        0.14690    0.32630    0.29370    1.000
    N9       N        0.35950    0.29380    0.51860    1.000
    C23      C        0.33620    0.32180    0.45450    1.000
    N10      N        0.02310    0.21300    0.27850    1.000
    C24      C        0.97690    0.21300    0.22150    1.000
    W2       W        0.73458    0.94484    0.21149    1.000
    S4       S        0.67066    0.98330    0.22486    1.000
    S5       S        0.81284    0.97494    0.33855    1.000
    S6       S        0.73124    0.82716    0.21965    1.000
    Cu4      Cu       0.68039    0.87390    0.25343    1.000
    Cu5      Cu       0.79626    0.86841    0.34955    1.000
    Cu6      Cu       0.59471    0.75377    0.37022    1.000
    B2       B        0.72540    0.00830    0.04250    1.000
    H28      H        0.72400    0.02900    0.99500    1.000
    N11      N        0.66830    0.93670    0.06770    1.000
    N12      N        0.67040    0.97450    0.01070    1.000
    N13      N        0.73680    0.05250    0.17380    1.000
    N14      N        0.73850    0.06500    0.10520    1.000
    N15      N        0.78550    0.92610    0.16420    1.000
    N16      N        0.77290    0.95630    0.09040    1.000
    N17      N        0.56620    0.83540    0.40830    1.000
    C25      C        0.61630    0.90590    0.01660    1.000
    C26      C        0.58790    0.92610    0.93250    1.000
    H29      H        0.55170    0.91370    0.88570    1.000
    C27      C        0.62430    0.96890    0.93130    1.000
    C28      C        0.59490    0.85980    0.05120    1.000
    H30      H        0.61660    0.81820    0.07220    1.000
    H31      H        0.55630    0.84900    0.00600    1.000
    H32      H        0.59810    0.88240    0.09790    1.000
    C29      C        0.61390    0.00540    0.85610    1.000
    H33      H        0.61460    0.05410    0.86470    1.000
    H34      H        0.57780    0.99240    0.80440    1.000
    H35      H        0.64250    0.99340    0.85050    1.000
    C30      C        0.74640    0.11310    0.21110    1.000
    C31      C        0.75290    0.16090    0.17000    1.000
    H36      H        0.75870    0.20740    0.18370    1.000
    C32      C        0.74970    0.13130    0.10600    1.000
    C33      C        0.74230    0.12680    0.28520    1.000
    H37      H        0.70480    0.11770    0.26520    1.000
    H38      H        0.75160    0.17400    0.30310    1.000
    H39      H        0.76800    0.09730    0.33340    1.000
    C34      C        0.75500    0.16270    0.04200    1.000
    H40      H        0.77640    0.13290    0.03300    1.000
    H41      H        0.77370    0.20630    0.06340    1.000
    H42      H        0.71830    0.16940    0.98810    1.000
    C35      C        0.83170    0.88640    0.19500    1.000
    C36      C        0.84730    0.89450    0.14110    1.000
    H43      H        0.87800    0.87450    0.14810    1.000
    C37      C        0.80880    0.93720    0.07660    1.000
    C38      C        0.86240    0.84610    0.27550    1.000
    H44      H        0.87440    0.87580    0.32330    1.000
    H45      H        0.89460    0.82520    0.28480    1.000
    H46      H        0.83840    0.81090    0.27090    1.000
    C39      C        0.80740    0.96450    0.00490    1.000
    H47      H        0.77390    0.94920    0.95070    1.000
    H48      H        0.83960    0.94840    0.01050    1.000
    H49      H        0.80790    0.01390    0.00690    1.000
    C40      C        0.51400    0.86090    0.35780    1.000
    H50      H        0.48910    0.84470    0.30130    1.000
    C41      C        0.49570    0.91050    0.38670    1.000
    H51      H        0.45920    0.92720    0.35050    1.000
    C42      C        0.53420    0.93490    0.47270    1.000
    C43      C        0.58530    0.90650    0.52180    1.000
    H52      H        0.61050    0.92010    0.57940    1.000
    C44      C        0.60190    0.85810    0.49040    1.000
    H53      H        0.63820    0.84070    0.52640    1.000
    C45      C        0.52140    0.98400    0.51790    1.000
    H54      H        0.54830    0.99000    0.57730    1.000
    N18      N        0.62990    0.79830    0.32430    1.000
    C46      C        0.64690    0.82630    0.29370    1.000
    N19      N        0.85950    0.79380    0.51860    1.000
    C47      C        0.83620    0.82180    0.45450    1.000
    N20      N        0.52310    0.71300    0.27850    1.000
    C48      C        0.47690    0.71300    0.22150    1.000
    W3       W        0.76542    0.44484    0.28851    1.000
    S7       S        0.82934    0.48330    0.27514    1.000
    S8       S        0.68716    0.47494    0.16145    1.000
    S9       S        0.76876    0.32716    0.28035    1.000
    Cu7      Cu       0.81961    0.37390    0.24657    1.000
    Cu8      Cu       0.70374    0.36841    0.15045    1.000
    Cu9      Cu       0.90529    0.25377    0.12978    1.000
    B3       B        0.77460    0.50830    0.45750    1.000
    H55      H        0.77600    0.52900    0.50500    1.000
    N21      N        0.83170    0.43670    0.43230    1.000
    N22      N        0.82960    0.47450    0.48930    1.000
    N23      N        0.76320    0.55250    0.32620    1.000
    N24      N        0.76150    0.56500    0.39480    1.000
    N25      N        0.71450    0.42610    0.33580    1.000
    N26      N        0.72710    0.45630    0.40960    1.000
    N27      N        0.93380    0.33540    0.09170    1.000
    C49      C        0.88370    0.40590    0.48340    1.000
    C50      C        0.91210    0.42610    0.56750    1.000
    H56      H        0.94830    0.41370    0.61430    1.000
    C51      C        0.87570    0.46890    0.56870    1.000
    C52      C        0.90510    0.35980    0.44880    1.000
    H57      H        0.88340    0.31820    0.42780    1.000
    H58      H        0.94370    0.34900    0.49400    1.000
    H59      H        0.90190    0.38240    0.40210    1.000
    C53      C        0.88610    0.50540    0.64390    1.000
    H60      H        0.88540    0.55410    0.63530    1.000
    H61      H        0.92220    0.49240    0.69560    1.000
    H62      H        0.85750    0.49340    0.64950    1.000
    C54      C        0.75360    0.61310    0.28890    1.000
    C55      C        0.74710    0.66090    0.33000    1.000
    H63      H        0.74130    0.70740    0.31630    1.000
    C56      C        0.75030    0.63130    0.39400    1.000
    C57      C        0.75770    0.62680    0.21480    1.000
    H64      H        0.79520    0.61770    0.23480    1.000
    H65      H        0.74840    0.67400    0.19690    1.000
    H66      H        0.73200    0.59730    0.16660    1.000
    C58      C        0.74500    0.66270    0.45800    1.000
    H67      H        0.72360    0.63290    0.46700    1.000
    H68      H        0.72630    0.70630    0.43660    1.000
    H69      H        0.78170    0.66940    0.51190    1.000
    C59      C        0.66830    0.38640    0.30500    1.000
    C60      C        0.65270    0.39450    0.35890    1.000
    H70      H        0.62200    0.37450    0.35190    1.000
    C61      C        0.69120    0.43720    0.42340    1.000
    C62      C        0.63760    0.34610    0.22450    1.000
    H71      H        0.62560    0.37580    0.17670    1.000
    H72      H        0.60540    0.32520    0.21520    1.000
    H73      H        0.66160    0.31090    0.22910    1.000
    C63      C        0.69260    0.46450    0.49510    1.000
    H74      H        0.72610    0.44920    0.54930    1.000
    H75      H        0.66040    0.44840    0.48950    1.000
    H76      H        0.69210    0.51390    0.49310    1.000
    C64      C        0.98600    0.36090    0.14220    1.000
    H77      H        0.01090    0.34470    0.19870    1.000
    C65      C        0.00430    0.41050    0.11330    1.000
    H78      H        0.04080    0.42720    0.14950    1.000
    C66      C        0.96580    0.43490    0.02730    1.000
    C67      C        0.91470    0.40650    0.97820    1.000
    H79      H        0.88950    0.42010    0.92060    1.000
    C68      C        0.89810    0.35810    0.00960    1.000
    H80      H        0.86180    0.34070    0.97360    1.000
    C69      C        0.97860    0.48400    0.98210    1.000
    H81      H        0.95170    0.49000    0.92270    1.000
    N28      N        0.87010    0.29830    0.17570    1.000
    C70      C        0.85310    0.32630    0.20630    1.000
    N29      N        0.64050    0.29380    0.98140    1.000
    C71      C        0.66380    0.32180    0.04550    1.000
    W4       W        0.26542    0.94484    0.28851    1.000
    S10      S        0.32934    0.98330    0.27514    1.000
    S11      S        0.18716    0.97494    0.16145    1.000
    S12      S        0.26876    0.82716    0.28035    1.000
    Cu10     Cu       0.31961    0.87390    0.24657    1.000
    Cu11     Cu       0.20374    0.86841    0.15045    1.000
    Cu12     Cu       0.40529    0.75377    0.12978    1.000
    B4       B        0.27460    0.00830    0.45750    1.000
    H82      H        0.27600    0.02900    0.50500    1.000
    N30      N        0.33170    0.93670    0.43230    1.000
    N31      N        0.32960    0.97450    0.48930    1.000
    N32      N        0.26320    0.05250    0.32620    1.000
    N33      N        0.26150    0.06500    0.39480    1.000
    N34      N        0.21450    0.92610    0.33580    1.000
    N35      N        0.22710    0.95630    0.40960    1.000
    N36      N        0.43380    0.83540    0.09170    1.000
    C72      C        0.38370    0.90590    0.48340    1.000
    C73      C        0.41210    0.92610    0.56750    1.000
    H83      H        0.44830    0.91370    0.61430    1.000
    C74      C        0.37570    0.96890    0.56870    1.000
    C75      C        0.40510    0.85980    0.44880    1.000
    H84      H        0.38340    0.81820    0.42780    1.000
    H85      H        0.44370    0.84900    0.49400    1.000
    H86      H        0.40190    0.88240    0.40210    1.000
    C76      C        0.38610    0.00540    0.64390    1.000
    H87      H        0.38540    0.05410    0.63530    1.000
    H88      H        0.42220    0.99240    0.69560    1.000
    H89      H        0.35750    0.99340    0.64950    1.000
    C77      C        0.25360    0.11310    0.28890    1.000
    C78      C        0.24710    0.16090    0.33000    1.000
    H90      H        0.24130    0.20740    0.31630    1.000
    C79      C        0.25030    0.13130    0.39400    1.000
    C80      C        0.25770    0.12680    0.21480    1.000
    H91      H        0.29520    0.11770    0.23480    1.000
    H92      H        0.24840    0.17400    0.19690    1.000
    H93      H        0.23200    0.09730    0.16660    1.000
    C81      C        0.24500    0.16270    0.45800    1.000
    H94      H        0.22360    0.13290    0.46700    1.000
    H95      H        0.22630    0.20630    0.43660    1.000
    H96      H        0.28170    0.16940    0.51190    1.000
    C82      C        0.16830    0.88640    0.30500    1.000
    C83      C        0.15270    0.89450    0.35890    1.000
    H97      H        0.12200    0.87450    0.35190    1.000
    C84      C        0.19120    0.93720    0.42340    1.000
    C85      C        0.13760    0.84610    0.22450    1.000
    H98      H        0.12560    0.87580    0.17670    1.000
    H99      H        0.10540    0.82520    0.21520    1.000
    H100     H        0.16160    0.81090    0.22910    1.000
    C86      C        0.19260    0.96450    0.49510    1.000
    H101     H        0.22610    0.94920    0.54930    1.000
    H102     H        0.16040    0.94840    0.48950    1.000
    H103     H        0.19210    0.01390    0.49310    1.000
    C87      C        0.48600    0.86090    0.14220    1.000
    H104     H        0.51090    0.84470    0.19870    1.000
    C88      C        0.50430    0.91050    0.11330    1.000
    H105     H        0.54080    0.92720    0.14950    1.000
    C89      C        0.46580    0.93490    0.02730    1.000
    C90      C        0.41470    0.90650    0.97820    1.000
    H106     H        0.38950    0.92010    0.92060    1.000
    C91      C        0.39810    0.85810    0.00960    1.000
    H107     H        0.36180    0.84070    0.97360    1.000
    C92      C        0.47860    0.98400    0.98210    1.000
    H108     H        0.45170    0.99000    0.92270    1.000
    N37      N        0.37010    0.79830    0.17570    1.000
    C93      C        0.35310    0.82630    0.20630    1.000
    N38      N        0.14050    0.79380    0.98140    1.000
    C94      C        0.16380    0.82180    0.04550    1.000
    W5       W        0.76542    0.55516    0.78851    1.000
    S13      S        0.82934    0.51670    0.77514    1.000
    S14      S        0.68716    0.52506    0.66145    1.000
    S15      S        0.76876    0.67284    0.78035    1.000
    Cu13     Cu       0.81961    0.62610    0.74657    1.000
    Cu14     Cu       0.70374    0.63159    0.65045    1.000
    Cu15     Cu       0.90529    0.74623    0.62978    1.000
    B5       B        0.77460    0.49170    0.95750    1.000
    H109     H        0.77600    0.47100    0.00500    1.000
    N39      N        0.83170    0.56330    0.93230    1.000
    N40      N        0.82960    0.52550    0.98930    1.000
    N41      N        0.76320    0.44750    0.82620    1.000
    N42      N        0.76150    0.43500    0.89480    1.000
    N43      N        0.71450    0.57390    0.83580    1.000
    N44      N        0.72710    0.54370    0.90960    1.000
    N45      N        0.93380    0.66460    0.59170    1.000
    C95      C        0.88370    0.59410    0.98340    1.000
    C96      C        0.91210    0.57390    0.06750    1.000
    H110     H        0.94830    0.58630    0.11430    1.000
    C97      C        0.87570    0.53110    0.06870    1.000
    C98      C        0.90510    0.64020    0.94880    1.000
    H111     H        0.88340    0.68180    0.92780    1.000
    H112     H        0.94370    0.65100    0.99400    1.000
    H113     H        0.90190    0.61760    0.90210    1.000
    C99      C        0.88610    0.49460    0.14390    1.000
    H114     H        0.88540    0.44590    0.13530    1.000
    H115     H        0.92220    0.50760    0.19560    1.000
    H116     H        0.85750    0.50660    0.14950    1.000
    C100     C        0.75360    0.38690    0.78890    1.000
    C101     C        0.74710    0.33910    0.83000    1.000
    H117     H        0.74130    0.29260    0.81630    1.000
    C102     C        0.75030    0.36870    0.89400    1.000
    C103     C        0.75770    0.37320    0.71480    1.000
    H118     H        0.79520    0.38230    0.73480    1.000
    H119     H        0.74840    0.32600    0.69690    1.000
    H120     H        0.73200    0.40270    0.66660    1.000
    C104     C        0.74500    0.33730    0.95800    1.000
    H121     H        0.72360    0.36710    0.96700    1.000
    H122     H        0.72630    0.29370    0.93660    1.000
    H123     H        0.78170    0.33060    0.01190    1.000
    C105     C        0.66830    0.61360    0.80500    1.000
    C106     C        0.65270    0.60550    0.85890    1.000
    H124     H        0.62200    0.62550    0.85190    1.000
    C107     C        0.69120    0.56280    0.92340    1.000
    C108     C        0.63760    0.65390    0.72450    1.000
    H125     H        0.62560    0.62420    0.67670    1.000
    H126     H        0.60540    0.67480    0.71520    1.000
    H127     H        0.66160    0.68910    0.72910    1.000
    C109     C        0.69260    0.53550    0.99510    1.000
    H128     H        0.72610    0.55080    0.04930    1.000
    H129     H        0.66040    0.55160    0.98950    1.000
    H130     H        0.69210    0.48610    0.99310    1.000
    C110     C        0.98600    0.63910    0.64220    1.000
    H131     H        0.01090    0.65530    0.69870    1.000
    C111     C        0.00430    0.58950    0.61330    1.000
    H132     H        0.04080    0.57280    0.64950    1.000
    C112     C        0.96580    0.56510    0.52730    1.000
    C113     C        0.91470    0.59350    0.47820    1.000
    H133     H        0.88950    0.57990    0.42060    1.000
    C114     C        0.89810    0.64190    0.50960    1.000
    H134     H        0.86180    0.65930    0.47360    1.000
    C115     C        0.97860    0.51600    0.48210    1.000
    H135     H        0.95170    0.51000    0.42270    1.000
    N46      N        0.87010    0.70170    0.67570    1.000
    C116     C        0.85310    0.67370    0.70630    1.000
    N47      N        0.64050    0.70620    0.48140    1.000
    C117     C        0.66380    0.67820    0.54550    1.000
    N48      N        0.97690    0.78700    0.72150    1.000
    C118     C        0.02310    0.78700    0.77850    1.000
    W6       W        0.26542    0.05516    0.78851    1.000
    S16      S        0.32934    0.01670    0.77514    1.000
    S17      S        0.18716    0.02506    0.66145    1.000
    S18      S        0.26876    0.17284    0.78035    1.000
    Cu16     Cu       0.31961    0.12610    0.74657    1.000
    Cu17     Cu       0.20374    0.13159    0.65045    1.000
    Cu18     Cu       0.40529    0.24623    0.62978    1.000
    B6       B        0.27460    0.99170    0.95750    1.000
    H136     H        0.27600    0.97100    0.00500    1.000
    N49      N        0.33170    0.06330    0.93230    1.000
    N50      N        0.32960    0.02550    0.98930    1.000
    N51      N        0.26320    0.94750    0.82620    1.000
    N52      N        0.26150    0.93500    0.89480    1.000
    N53      N        0.21450    0.07390    0.83580    1.000
    N54      N        0.22710    0.04370    0.90960    1.000
    N55      N        0.43380    0.16460    0.59170    1.000
    C119     C        0.38370    0.09410    0.98340    1.000
    C120     C        0.41210    0.07390    0.06750    1.000
    H137     H        0.44830    0.08630    0.11430    1.000
    C121     C        0.37570    0.03110    0.06870    1.000
    C122     C        0.40510    0.14020    0.94880    1.000
    H138     H        0.38340    0.18180    0.92780    1.000
    H139     H        0.44370    0.15100    0.99400    1.000
    H140     H        0.40190    0.11760    0.90210    1.000
    C123     C        0.38610    0.99460    0.14390    1.000
    H141     H        0.38540    0.94590    0.13530    1.000
    H142     H        0.42220    0.00760    0.19560    1.000
    H143     H        0.35750    0.00660    0.14950    1.000
    C124     C        0.25360    0.88690    0.78890    1.000
    C125     C        0.24710    0.83910    0.83000    1.000
    H144     H        0.24130    0.79260    0.81630    1.000
    C126     C        0.25030    0.86870    0.89400    1.000
    C127     C        0.25770    0.87320    0.71480    1.000
    H145     H        0.29520    0.88230    0.73480    1.000
    H146     H        0.24840    0.82600    0.69690    1.000
    H147     H        0.23200    0.90270    0.66660    1.000
    C128     C        0.24500    0.83730    0.95800    1.000
    H148     H        0.22360    0.86710    0.96700    1.000
    H149     H        0.22630    0.79370    0.93660    1.000
    H150     H        0.28170    0.83060    0.01190    1.000
    C129     C        0.16830    0.11360    0.80500    1.000
    C130     C        0.15270    0.10550    0.85890    1.000
    H151     H        0.12200    0.12550    0.85190    1.000
    C131     C        0.19120    0.06280    0.92340    1.000
    C132     C        0.13760    0.15390    0.72450    1.000
    H152     H        0.12560    0.12420    0.67670    1.000
    H153     H        0.10540    0.17480    0.71520    1.000
    H154     H        0.16160    0.18910    0.72910    1.000
    C133     C        0.19260    0.03550    0.99510    1.000
    H155     H        0.22610    0.05080    0.04930    1.000
    H156     H        0.16040    0.05160    0.98950    1.000
    H157     H        0.19210    0.98610    0.99310    1.000
    C134     C        0.48600    0.13910    0.64220    1.000
    H158     H        0.51090    0.15530    0.69870    1.000
    C135     C        0.50430    0.08950    0.61330    1.000
    H159     H        0.54080    0.07280    0.64950    1.000
    C136     C        0.46580    0.06510    0.52730    1.000
    C137     C        0.41470    0.09350    0.47820    1.000
    H160     H        0.38950    0.07990    0.42060    1.000
    C138     C        0.39810    0.14190    0.50960    1.000
    H161     H        0.36180    0.15930    0.47360    1.000
    C139     C        0.47860    0.01600    0.48210    1.000
    H162     H        0.45170    0.01000    0.42270    1.000
    N56      N        0.37010    0.20170    0.67570    1.000
    C140     C        0.35310    0.17370    0.70630    1.000
    N57      N        0.14050    0.20620    0.48140    1.000
    C141     C        0.16380    0.17820    0.54550    1.000
    N58      N        0.47690    0.28700    0.72150    1.000
    C142     C        0.52310    0.28700    0.77850    1.000
    W7       W        0.23458    0.55516    0.71149    1.000
    S19      S        0.17066    0.51670    0.72486    1.000
    S20      S        0.31284    0.52506    0.83855    1.000
    S21      S        0.23124    0.67284    0.71965    1.000
    Cu19     Cu       0.18039    0.62610    0.75343    1.000
    Cu20     Cu       0.29626    0.63159    0.84955    1.000
    Cu21     Cu       0.09471    0.74623    0.87022    1.000
    B7       B        0.22540    0.49170    0.54250    1.000
    H163     H        0.22400    0.47100    0.49500    1.000
    N59      N        0.16830    0.56330    0.56770    1.000
    N60      N        0.17040    0.52550    0.51070    1.000
    N61      N        0.23680    0.44750    0.67380    1.000
    N62      N        0.23850    0.43500    0.60520    1.000
    N63      N        0.28550    0.57390    0.66420    1.000
    N64      N        0.27290    0.54370    0.59040    1.000
    N65      N        0.06620    0.66460    0.90830    1.000
    C143     C        0.11630    0.59410    0.51660    1.000
    C144     C        0.08790    0.57390    0.43250    1.000
    H164     H        0.05170    0.58630    0.38570    1.000
    C145     C        0.12430    0.53110    0.43130    1.000
    C146     C        0.09490    0.64020    0.55120    1.000
    H165     H        0.11660    0.68180    0.57220    1.000
    H166     H        0.05630    0.65100    0.50600    1.000
    H167     H        0.09810    0.61760    0.59790    1.000
    C147     C        0.11390    0.49460    0.35610    1.000
    H168     H        0.11460    0.44590    0.36470    1.000
    H169     H        0.07780    0.50760    0.30440    1.000
    H170     H        0.14250    0.50660    0.35050    1.000
    C148     C        0.24640    0.38690    0.71110    1.000
    C149     C        0.25290    0.33910    0.67000    1.000
    H171     H        0.25870    0.29260    0.68370    1.000
    C150     C        0.24970    0.36870    0.60600    1.000
    C151     C        0.24230    0.37320    0.78520    1.000
    H172     H        0.20480    0.38230    0.76520    1.000
    H173     H        0.25160    0.32600    0.80310    1.000
    H174     H        0.26800    0.40270    0.83340    1.000
    C152     C        0.25500    0.33730    0.54200    1.000
    H175     H        0.27640    0.36710    0.53300    1.000
    H176     H        0.27370    0.29370    0.56340    1.000
    H177     H        0.21830    0.33060    0.48810    1.000
    C153     C        0.33170    0.61360    0.69500    1.000
    C154     C        0.34730    0.60550    0.64110    1.000
    H178     H        0.37800    0.62550    0.64810    1.000
    C155     C        0.30880    0.56280    0.57660    1.000
    C156     C        0.36240    0.65390    0.77550    1.000
    H179     H        0.37440    0.62420    0.82330    1.000
    H180     H        0.39460    0.67480    0.78480    1.000
    H181     H        0.33840    0.68910    0.77090    1.000
    C157     C        0.30740    0.53550    0.50490    1.000
    H182     H        0.27390    0.55080    0.45070    1.000
    H183     H        0.33960    0.55160    0.51050    1.000
    H184     H        0.30790    0.48610    0.50690    1.000
    C158     C        0.01400    0.63910    0.85780    1.000
    H185     H        0.98910    0.65530    0.80130    1.000
    C159     C        0.99570    0.58950    0.88670    1.000
    H186     H        0.95920    0.57280    0.85050    1.000
    C160     C        0.03420    0.56510    0.97270    1.000
    C161     C        0.08530    0.59350    0.02180    1.000
    H187     H        0.11050    0.57990    0.07940    1.000
    C162     C        0.10190    0.64190    0.99040    1.000
    H188     H        0.13820    0.65930    0.02640    1.000
    C163     C        0.02140    0.51600    0.01790    1.000
    H189     H        0.04830    0.51000    0.07730    1.000
    N66      N        0.12990    0.70170    0.82430    1.000
    C164     C        0.14690    0.67370    0.79370    1.000
    N67      N        0.35950    0.70620    0.01860    1.000
    C165     C        0.33620    0.67820    0.95450    1.000
    W8       W        0.73458    0.05516    0.71149    1.000
    S22      S        0.67066    0.01670    0.72486    1.000
    S23      S        0.81284    0.02506    0.83855    1.000
    S24      S        0.73124    0.17284    0.71965    1.000
    Cu22     Cu       0.68039    0.12610    0.75343    1.000
    Cu23     Cu       0.79626    0.13159    0.84955    1.000
    Cu24     Cu       0.59471    0.24623    0.87022    1.000
    B8       B        0.72540    0.99170    0.54250    1.000
    H190     H        0.72400    0.97100    0.49500    1.000
    N68      N        0.66830    0.06330    0.56770    1.000
    N69      N        0.67040    0.02550    0.51070    1.000
    N70      N        0.73680    0.94750    0.67380    1.000
    N71      N        0.73850    0.93500    0.60520    1.000
    N72      N        0.78550    0.07390    0.66420    1.000
    N73      N        0.77290    0.04370    0.59040    1.000
    N74      N        0.56620    0.16460    0.90830    1.000
    C166     C        0.61630    0.09410    0.51660    1.000
    C167     C        0.58790    0.07390    0.43250    1.000
    H191     H        0.55170    0.08630    0.38570    1.000
    C168     C        0.62430    0.03110    0.43130    1.000
    C169     C        0.59490    0.14020    0.55120    1.000
    H192     H        0.61660    0.18180    0.57220    1.000
    H193     H        0.55630    0.15100    0.50600    1.000
    H194     H        0.59810    0.11760    0.59790    1.000
    C170     C        0.61390    0.99460    0.35610    1.000
    H195     H        0.61460    0.94590    0.36470    1.000
    H196     H        0.57780    0.00760    0.30440    1.000
    H197     H        0.64250    0.00660    0.35050    1.000
    C171     C        0.74640    0.88690    0.71110    1.000
    C172     C        0.75290    0.83910    0.67000    1.000
    H198     H        0.75870    0.79260    0.68370    1.000
    C173     C        0.74970    0.86870    0.60600    1.000
    C174     C        0.74230    0.87320    0.78520    1.000
    H199     H        0.70480    0.88230    0.76520    1.000
    H200     H        0.75160    0.82600    0.80310    1.000
    H201     H        0.76800    0.90270    0.83340    1.000
    C175     C        0.75500    0.83730    0.54200    1.000
    H202     H        0.77640    0.86710    0.53300    1.000
    H203     H        0.77370    0.79370    0.56340    1.000
    H204     H        0.71830    0.83060    0.48810    1.000
    C176     C        0.83170    0.11360    0.69500    1.000
    C177     C        0.84730    0.10550    0.64110    1.000
    H205     H        0.87800    0.12550    0.64810    1.000
    C178     C        0.80880    0.06280    0.57660    1.000
    C179     C        0.86240    0.15390    0.77550    1.000
    H206     H        0.87440    0.12420    0.82330    1.000
    H207     H        0.89460    0.17480    0.78480    1.000
    H208     H        0.83840    0.18910    0.77090    1.000
    C180     C        0.80740    0.03550    0.50490    1.000
    H209     H        0.77390    0.05080    0.45070    1.000
    H210     H        0.83960    0.05160    0.51050    1.000
    H211     H        0.80790    0.98610    0.50690    1.000
    C181     C        0.51400    0.13910    0.85780    1.000
    H212     H        0.48910    0.15530    0.80130    1.000
    C182     C        0.49570    0.08950    0.88670    1.000
    H213     H        0.45920    0.07280    0.85050    1.000
    C183     C        0.53420    0.06510    0.97270    1.000
    C184     C        0.58530    0.09350    0.02180    1.000
    H214     H        0.61050    0.07990    0.07940    1.000
    C185     C        0.60190    0.14190    0.99040    1.000
    H215     H        0.63820    0.15930    0.02640    1.000
    C186     C        0.52140    0.01600    0.01790    1.000
    H216     H        0.54830    0.01000    0.07730    1.000
    N75      N        0.62990    0.20170    0.82430    1.000
    C187     C        0.64690    0.17370    0.79370    1.000
    N76      N        0.85950    0.20620    0.01860    1.000
    C188     C        0.83620    0.17820    0.95450    1.000
