# CIF file generated by openbabel 3.1.0, see https://openbabel.org
data_I
_chemical_name_common 'EMIGEN_charged'
_cell_length_a 24.8438
_cell_length_b 24.8438
_cell_length_c 25.3161
_cell_angle_alpha 60.6153
_cell_angle_beta 60.6153
_cell_angle_gamma 90
_space_group_name_H-M_alt 'P 1'
_space_group_name_Hall 'P 1'
loop_
    _symmetry_equiv_pos_as_xyz
    x,y,z
loop_
    _atom_site_label
    _atom_site_type_symbol
    _atom_site_fract_x
    _atom_site_fract_y
    _atom_site_fract_z
    _atom_site_occupancy
    In1      In       0.56875    0.18197    0.92838    1.000
    In2      In       0.52522    0.86543    0.07352    1.000
    In3      In       0.53761    0.85736    0.21842    1.000
    In4      In       0.56138    0.02522    0.07388    1.000
    In5      In       0.50287    0.88965    0.92838    1.000
    In6      In       0.40126    0.06105    0.07352    1.000
    In7      In       0.24397    0.92422    0.21842    1.000
    In8      In       0.36474    0.90090    0.07388    1.000
    In9      In       0.63965    0.75287    0.42838    1.000
    In10     In       0.81105    0.65126    0.57352    1.000
    In11     In       0.67422    0.49397    0.71842    1.000
    In12     In       0.65090    0.61474    0.57388    1.000
    In13     In       0.93197    0.81875    0.42838    1.000
    In14     In       0.61543    0.77522    0.57352    1.000
    In15     In       0.60736    0.78761    0.71842    1.000
    In16     In       0.77522    0.81138    0.57388    1.000
    In17     In       0.54263    0.04263    0.91474    1.000
    In18     In       0.38435    0.88435    0.23130    1.000
    In19     In       0.79263    0.79263    0.41474    1.000
    In20     In       0.63435    0.63435    0.73130    1.000
    H1       H        0.70110    0.26670    0.84520    1.000
    H2       H        0.73860    0.38810    0.80380    1.000
    H3       H        0.55630    0.34490    0.78580    1.000
    H4       H        0.52570    0.28160    0.86580    1.000
    H5       H        0.46820    0.32900    0.87760    1.000
    H6       H        0.52430    0.39790    0.82020    1.000
    H7       H        0.51270    0.34860    0.89840    1.000
    H8       H        0.45370    0.88810    0.84520    1.000
    H9       H        0.45760    0.80810    0.80380    1.000
    H10      H        0.65790    0.86930    0.78580    1.000
    H11      H        0.60850    0.85260    0.86580    1.000
    H12      H        0.65420    0.79340    0.87760    1.000
    H13      H        0.65550    0.78190    0.82020    1.000
    H14      H        0.58890    0.75300    0.89840    1.000
    H15      H        0.63810    0.70370    0.34520    1.000
    H16      H        0.55810    0.70760    0.30380    1.000
    H17      H        0.61930    0.90790    0.28580    1.000
    H18      H        0.60260    0.85850    0.36580    1.000
    H19      H        0.54340    0.90420    0.37760    1.000
    H20      H        0.53190    0.90550    0.32020    1.000
    H21      H        0.50300    0.83890    0.39840    1.000
    H22      H        0.01670    0.95110    0.34520    1.000
    H23      H        0.13810    0.98860    0.30380    1.000
    H24      H        0.09490    0.80630    0.28580    1.000
    H25      H        0.03160    0.77570    0.36580    1.000
    H26      H        0.07900    0.71820    0.37760    1.000
    H27      H        0.14790    0.77430    0.32020    1.000
    H28      H        0.09860    0.76270    0.39840    1.000
    C1       C        0.61340    0.33720    0.82260    1.000
    C2       C        0.67740    0.29740    0.84120    1.000
    C3       C        0.70330    0.36500    0.81000    1.000
    C4       C        0.54800    0.32900    0.83400    1.000
    C5       C        0.51200    0.35200    0.85800    1.000
    C6       C        0.56400    0.84020    0.82260    1.000
    C7       C        0.48140    0.86140    0.84120    1.000
    C8       C        0.48670    0.82500    0.81000    1.000
    C9       C        0.61800    0.83700    0.83400    1.000
    C10      C        0.63000    0.79000    0.85800    1.000
    C11      C        0.59020    0.81400    0.32260    1.000
    C12      C        0.61140    0.73140    0.34120    1.000
    C13      C        0.57500    0.73670    0.31000    1.000
    C14      C        0.58700    0.86800    0.33400    1.000
    C15      C        0.54000    0.88000    0.35800    1.000
    C16      C        0.08720    0.86340    0.32260    1.000
    C17      C        0.04740    0.92740    0.34120    1.000
    C18      C        0.11500    0.95330    0.31000    1.000
    C19      C        0.07900    0.79800    0.33400    1.000
    C20      C        0.10200    0.76200    0.35800    1.000
    S1       S        0.45720    0.17640    0.99620    1.000
    S2       S        0.56380    0.80920    0.14900    1.000
    S3       S        0.40532    0.84372    0.15216    1.000
    S4       S        0.58369    0.98579    0.99322    1.000
    S5       S        0.59840    0.15810    0.83760    1.000
    S6       S        0.42330    0.82810    0.30700    1.000
    S7       S        0.60090    0.97000    0.14980    1.000
    S8       S        0.61730    0.14020    0.99760    1.000
    S9       S        0.54660    0.82740    0.99620    1.000
    S10      S        0.28720    0.04180    0.14900    1.000
    S11      S        0.44252    0.00412    0.15216    1.000
    S12      S        0.42309    0.02099    0.99322    1.000
    S13      S        0.56400    0.00430    0.83760    1.000
    S14      S        0.26970    0.86490    0.30700    1.000
    S15      S        0.24930    0.88020    0.14980    1.000
    S16      S        0.38510    0.86220    0.99760    1.000
    S17      S        0.57740    0.79660    0.49620    1.000
    S18      S        0.79180    0.53720    0.64900    1.000
    S19      S        0.75412    0.69252    0.65216    1.000
    S20      S        0.77099    0.67309    0.49322    1.000
    S21      S        0.75430    0.81400    0.33760    1.000
    S22      S        0.61490    0.51970    0.80700    1.000
    S23      S        0.63020    0.49930    0.64980    1.000
    S24      S        0.61220    0.63510    0.49760    1.000
    S25      S        0.92640    0.70720    0.49620    1.000
    S26      S        0.55920    0.81380    0.64900    1.000
    S27      S        0.59372    0.65532    0.65216    1.000
    S28      S        0.73579    0.83369    0.49322    1.000
    S29      S        0.90810    0.84840    0.33760    1.000
    S30      S        0.57810    0.67330    0.80700    1.000
    S31      S        0.72000    0.85090    0.64980    1.000
    S32      S        0.89020    0.86730    0.49760    1.000
    N1       N        0.61960    0.28500    0.86260    1.000
    N2       N        0.66010    0.38720    0.78800    1.000
    N3       N        0.51780    0.85240    0.86260    1.000
    N4       N        0.55190    0.82480    0.78800    1.000
    N5       N        0.60240    0.76780    0.36260    1.000
    N6       N        0.57480    0.80190    0.28800    1.000
    N7       N        0.03500    0.86960    0.36260    1.000
    N8       N        0.13720    0.91010    0.28800    1.000
    In21     In       0.81803    0.49713    0.07162    1.000
    In22     In       0.13457    0.59874    0.92648    1.000
    In23     In       0.14264    0.75603    0.78158    1.000
    In24     In       0.97478    0.63526    0.92612    1.000
    In25     In       0.11035    0.43125    0.07162    1.000
    In26     In       0.93895    0.47478    0.92648    1.000
    In27     In       0.07578    0.46239    0.78158    1.000
    In28     In       0.09910    0.43862    0.92612    1.000
    In29     In       0.24713    0.06803    0.57162    1.000
    In30     In       0.34874    0.38457    0.42648    1.000
    In31     In       0.50603    0.39264    0.28158    1.000
    In32     In       0.38526    0.22478    0.42612    1.000
    In33     In       0.18125    0.36035    0.57162    1.000
    In34     In       0.22478    0.18895    0.42648    1.000
    In35     In       0.21239    0.32578    0.28158    1.000
    In36     In       0.18862    0.34910    0.42612    1.000
    In37     In       0.95737    0.45737    0.08526    1.000
    In38     In       0.11565    0.61565    0.76870    1.000
    In39     In       0.20737    0.20737    0.58526    1.000
    In40     In       0.36565    0.36565    0.26870    1.000
    H29      H        0.73330    0.54630    0.15480    1.000
    H30      H        0.61190    0.54240    0.19620    1.000
    H31      H        0.65510    0.34210    0.21420    1.000
    H32      H        0.71840    0.39150    0.13420    1.000
    H33      H        0.67100    0.34580    0.12240    1.000
    H34      H        0.60210    0.34450    0.17980    1.000
    H35      H        0.65140    0.41110    0.10160    1.000
    H36      H        0.11190    0.29890    0.15480    1.000
    H37      H        0.19190    0.26140    0.19620    1.000
    H38      H        0.13070    0.44370    0.21420    1.000
    H39      H        0.14740    0.47430    0.13420    1.000
    H40      H        0.20660    0.53180    0.12240    1.000
    H41      H        0.21810    0.47570    0.17980    1.000
    H42      H        0.24700    0.48730    0.10160    1.000
    H43      H        0.29630    0.98330    0.65480    1.000
    H44      H        0.29240    0.86190    0.69620    1.000
    H45      H        0.09210    0.90510    0.71420    1.000
    H46      H        0.14150    0.96840    0.63420    1.000
    H47      H        0.09580    0.92100    0.62240    1.000
    H48      H        0.09450    0.85210    0.67980    1.000
    H49      H        0.16110    0.90140    0.60160    1.000
    H50      H        0.04890    0.36190    0.65480    1.000
    H51      H        0.01140    0.44190    0.69620    1.000
    H52      H        0.19370    0.38070    0.71420    1.000
    H53      H        0.22430    0.39740    0.63420    1.000
    H54      H        0.28180    0.45660    0.62240    1.000
    H55      H        0.22570    0.46810    0.67980    1.000
    H56      H        0.23730    0.49700    0.60160    1.000
    C21      C        0.66280    0.43600    0.17740    1.000
    C22      C        0.70260    0.51860    0.15880    1.000
    C23      C        0.63500    0.51330    0.19000    1.000
    C24      C        0.67100    0.38200    0.16600    1.000
    C25      C        0.64800    0.37000    0.14200    1.000
    C26      C        0.15980    0.38660    0.17740    1.000
    C27      C        0.13860    0.32260    0.15880    1.000
    C28      C        0.17500    0.29670    0.19000    1.000
    C29      C        0.16300    0.45200    0.16600    1.000
    C30      C        0.21000    0.48800    0.14200    1.000
    C31      C        0.18600    0.91280    0.67740    1.000
    C32      C        0.26860    0.95260    0.65880    1.000
    C33      C        0.26330    0.88500    0.69000    1.000
    C34      C        0.13200    0.92100    0.66600    1.000
    C35      C        0.12000    0.89800    0.64200    1.000
    C36      C        0.13660    0.40980    0.67740    1.000
    C37      C        0.07260    0.38860    0.65880    1.000
    C38      C        0.04670    0.42500    0.69000    1.000
    C39      C        0.20200    0.41300    0.66600    1.000
    C40      C        0.23800    0.46000    0.64200    1.000
    S33      S        0.82360    0.45340    0.00380    1.000
    S34      S        0.19080    0.71280    0.85100    1.000
    S35      S        0.15628    0.55748    0.84784    1.000
    S36      S        0.01421    0.57691    0.00678    1.000
    S37      S        0.84190    0.43600    0.16240    1.000
    S38      S        0.17190    0.73030    0.69300    1.000
    S39      S        0.03000    0.75070    0.85020    1.000
    S40      S        0.85980    0.61490    0.00240    1.000
    S41      S        0.17260    0.54280    0.00380    1.000
    S42      S        0.95820    0.43620    0.85100    1.000
    S43      S        0.99588    0.59468    0.84784    1.000
    S44      S        0.97901    0.41631    0.00678    1.000
    S45      S        0.99570    0.40160    0.16240    1.000
    S46      S        0.13510    0.57670    0.69300    1.000
    S47      S        0.11980    0.39910    0.85020    1.000
    S48      S        0.13780    0.38270    0.00240    1.000
    S49      S        0.20340    0.07360    0.50380    1.000
    S50      S        0.46280    0.44080    0.35100    1.000
    S51      S        0.30748    0.40628    0.34784    1.000
    S52      S        0.32691    0.26421    0.50678    1.000
    S53      S        0.18600    0.09190    0.66240    1.000
    S54      S        0.48030    0.42190    0.19300    1.000
    S55      S        0.50070    0.28000    0.35020    1.000
    S56      S        0.36490    0.10980    0.50240    1.000
    S57      S        0.29280    0.42260    0.50380    1.000
    S58      S        0.18620    0.20820    0.35100    1.000
    S59      S        0.34468    0.24588    0.34784    1.000
    S60      S        0.16631    0.22901    0.50678    1.000
    S61      S        0.15160    0.24570    0.66240    1.000
    S62      S        0.32670    0.38510    0.19300    1.000
    S63      S        0.14910    0.36980    0.35020    1.000
    S64      S        0.13270    0.38780    0.50240    1.000
    N9       N        0.71500    0.48220    0.13740    1.000
    N10      N        0.61280    0.44810    0.21200    1.000
    N11      N        0.14760    0.38040    0.13740    1.000
    N12      N        0.17520    0.33990    0.21200    1.000
    N13      N        0.23220    0.96500    0.63740    1.000
    N14      N        0.19810    0.86280    0.71200    1.000
    N15      N        0.13040    0.39760    0.63740    1.000
    N16      N        0.08990    0.42520    0.71200    1.000
