data_functionalizedCrystal
_audit_creation_method	'EQeq! by Chris Wilmer'
_symmetry_space_group_name_H-M	'P1'
_symmetry_Int_Tables_number	1
_symmetry_cell_setting	triclinic
loop_
_symmetry_equiv_pos_as_xyz
  x,y,z
_cell_length_a	8.5699
_cell_length_b	12.5347
_cell_length_c	12.5347
_cell_angle_alpha	116.789
_cell_angle_beta	99.3584
_cell_angle_gamma	80.6416
loop_
_atom_site_label
_atom_site_type_symbol
_atom_site_fract_x
_atom_site_fract_y
_atom_site_fract_z
_atom_site_charge
Mof_Cu	Cu	0.92432	0.59674	0.99238	0.915
Mof_Cu	Cu	0.57568	0.99238	0.59674	0.917
Mof_Cu	Cu	0.07568	0.40326	0.00762	0.916
Mof_Cu	Cu	0.42432	0.00762	0.40326	0.918
Mof_H 	H 	0.7478	0.2666	0.655	0.186
Mof_H 	H 	0.8049	0.3556	0.6132	0.174
Mof_H 	H 	0.0476	0.2365	0.5673	-0.044
Mof_H 	H 	0.003	0.1511	0.6195	-0.024
Mof_H 	H 	0.9588	0.0567	0.4079	0.188
Mof_H 	H 	0.8439	0.1709	0.4079	0.172
Mof_H 	H 	0.8236	0.8577	0.1631	0.02
Mof_H 	H 	0.6479	0.0215	0.1727	0.078
Mof_H 	H 	0.5044	0.8339	0.8239	0.071
Mof_H 	H 	0.6825	0.675	0.825	0.012
Mof_H 	H 	0.7522	0.655	0.2666	0.186
Mof_H 	H 	0.6951	0.6132	0.3556	0.175
Mof_H 	H 	0.4524	0.5673	0.2365	-0.044
Mof_H 	H 	0.497	0.6195	0.1511	-0.024
Mof_H 	H 	0.5412	0.4079	0.0567	0.187
Mof_H 	H 	0.6561	0.4079	0.1709	0.172
Mof_H 	H 	0.6764	0.1631	0.8577	0.019
Mof_H 	H 	0.8521	0.1727	0.0215	0.081
Mof_H 	H 	0.9956	0.8239	0.8339	0.07
Mof_H 	H 	0.8175	0.825	0.675	0.012
Mof_H 	H 	0.2522	0.7334	0.345	0.186
Mof_H 	H 	0.1951	0.6444	0.3868	0.174
Mof_H 	H 	0.9524	0.7635	0.4327	-0.044
Mof_H 	H 	0.997	0.8489	0.3805	-0.024
Mof_H 	H 	0.0412	0.9433	0.5921	0.188
Mof_H 	H 	0.1561	0.8291	0.5921	0.172
Mof_H 	H 	0.1764	0.1423	0.8369	0.02
Mof_H 	H 	0.3521	0.9785	0.8273	0.078
Mof_H 	H 	0.4956	0.1661	0.1761	0.071
Mof_H 	H 	0.3175	0.325	0.175	0.012
Mof_H 	H 	0.2478	0.345	0.7334	0.186
Mof_H 	H 	0.3049	0.3868	0.6444	0.175
Mof_H 	H 	0.5476	0.4327	0.7635	-0.044
Mof_H 	H 	0.503	0.3805	0.8489	-0.024
Mof_H 	H 	0.4588	0.5921	0.9433	0.187
Mof_H 	H 	0.3439	0.5921	0.8291	0.172
Mof_H 	H 	0.3236	0.8369	0.1423	0.019
Mof_H 	H 	0.1479	0.8273	0.9785	0.081
Mof_H 	H 	0.0044	0.1761	0.1661	0.07
Mof_H 	H 	0.1825	0.175	0.325	0.012
Mof_C 	C 	0.9059	0.37754	0.78046	0.468
Mof_C 	C 	0.8417	0.30218	0.65302	-0.479
Mof_C 	C 	0.9586	0.20142	0.57718	0.261
Mof_C 	C 	0.8796	0.12217	0.45303	-0.479
Mof_C 	C 	0.7386	0.06839	0.46121	0.462
Mof_C 	C 	0.7581	0.85267	0.09253	0.08
Mof_C 	C 	0.6531	0.951	0.0988	-0.113
Mof_C 	C 	0.556	0.94742	0.99858	0.051
Mof_C 	C 	0.569	0.84192	0.89568	-0.123
Mof_C 	C 	0.6767	0.74732	0.89708	0.07
Mof_C 	C 	0.5941	0.78046	0.37754	0.468
Mof_C 	C 	0.6583	0.65302	0.30218	-0.479
Mof_C 	C 	0.5414	0.57718	0.20142	0.261
Mof_C 	C 	0.6204	0.45303	0.12217	-0.478
Mof_C 	C 	0.7614	0.46121	0.06839	0.461
Mof_C 	C 	0.7419	0.09253	0.85267	0.08
Mof_C 	C 	0.8469	0.0988	0.951	-0.118
Mof_C 	C 	0.944	0.99858	0.94742	0.051
Mof_C 	C 	0.931	0.89568	0.84192	-0.123
Mof_C 	C 	0.8233	0.89708	0.74732	0.07
Mof_C 	C 	0.0941	0.62246	0.21954	0.468
Mof_C 	C 	0.1583	0.69782	0.34698	-0.479
Mof_C 	C 	0.0414	0.79858	0.42282	0.261
Mof_C 	C 	0.1204	0.87783	0.54697	-0.479
Mof_C 	C 	0.2614	0.93161	0.53879	0.462
Mof_C 	C 	0.2419	0.14733	0.90747	0.08
Mof_C 	C 	0.3469	0.049	0.9012	-0.113
Mof_C 	C 	0.444	0.05258	0.00142	0.051
Mof_C 	C 	0.431	0.15808	0.10432	-0.123
Mof_C 	C 	0.3233	0.25268	0.10292	0.07
Mof_C 	C 	0.4059	0.21954	0.62246	0.468
Mof_C 	C 	0.3417	0.34698	0.69782	-0.479
Mof_C 	C 	0.4586	0.42282	0.79858	0.261
Mof_C 	C 	0.3796	0.54697	0.87783	-0.478
Mof_C 	C 	0.2386	0.53879	0.93161	0.461
Mof_C 	C 	0.2581	0.90747	0.14733	0.08
Mof_C 	C 	0.1531	0.9012	0.049	-0.118
Mof_C 	C 	0.056	0.00142	0.05258	0.051
Mof_C 	C 	0.069	0.10432	0.15808	-0.123
Mof_C 	C 	0.1767	0.10292	0.25268	0.07
Mof_N 	N 	0.7717	0.75188	0.99272	-0.193
Mof_N 	N 	0.7283	0.99272	0.75188	-0.192
Mof_N 	N 	0.2283	0.24812	0.00728	-0.193
Mof_N 	N 	0.2717	0.00728	0.24812	-0.192
Mof_O 	O 	0.8654	0.48839	0.82307	-0.44
Mof_O 	O 	0.9909	0.32427	0.83695	-0.438
Mof_O 	O 	0.7488	0.03838	0.54504	-0.441
Mof_O 	O 	0.6199	0.0587	0.38474	-0.437
Mof_O 	O 	0.6346	0.82307	0.48839	-0.44
Mof_O 	O 	0.5091	0.83695	0.32427	-0.436
Mof_O 	O 	0.7512	0.54504	0.03838	-0.439
Mof_O 	O 	0.8801	0.38474	0.0587	-0.435
Mof_O 	O 	0.1346	0.51161	0.17693	-0.44
Mof_O 	O 	0.0091	0.67573	0.16305	-0.438
Mof_O 	O 	0.2512	0.96162	0.45496	-0.441
Mof_O 	O 	0.3801	0.9413	0.61526	-0.437
Mof_O 	O 	0.3654	0.17693	0.51161	-0.44
Mof_O 	O 	0.4909	0.16305	0.67573	-0.436
Mof_O 	O 	0.2488	0.45496	0.96162	-0.439
Mof_O 	O 	0.1199	0.61526	0.9413	-0.435
_end
