data_functionalizedCrystal
_audit_creation_method	'EQeq! by Chris Wilmer'
_symmetry_space_group_name_H-M	'P1'
_symmetry_Int_Tables_number	1
_symmetry_cell_setting	triclinic
loop_
_symmetry_equiv_pos_as_xyz
  x,y,z
_cell_length_a	13.261
_cell_length_b	15.134
_cell_length_c	15.547
_cell_angle_alpha	90
_cell_angle_beta	93.449
_cell_angle_gamma	90
loop_
_atom_site_label
_atom_site_type_symbol
_atom_site_fract_x
_atom_site_fract_y
_atom_site_fract_z
_atom_site_charge
Mof_Cu	Cu	0.94971	0.18875	0.1024	0.871
Mof_C 	C 	0.5836	0.3229	0.7604	0.099
Mof_H 	H 	0.5597	0.3806	0.7625	-0.004
Mof_C 	C 	0.6527	0.2944	0.8238	-0.146
Mof_H 	H 	0.6749	0.3328	0.8677	0.099
Mof_C 	C 	0.6888	0.2101	0.8226	0.081
Mof_C 	C 	0.6544	0.1556	0.7547	-0.15
Mof_H 	H 	0.6773	0.0978	0.7507	0.092
Mof_C 	C 	0.5859	0.1896	0.6942	0.105
Mof_H 	H 	0.5633	0.1531	0.6489	-0.029
Mof_C 	C 	0.7632	0.1768	0.8866	0.093
Mof_C 	C 	0.3111	0.258	0.7305	0.092
Mof_H 	H 	0.3291	0.3129	0.7534	-0.005
Mof_C 	C 	0.2506	0.2047	0.7762	-0.151
Mof_H 	H 	0.2265	0.2248	0.8277	0.098
Mof_C 	C 	0.2252	0.122	0.7466	0.082
Mof_C 	C 	0.2611	0.0976	0.6675	-0.16
Mof_H 	H 	0.2451	0.0428	0.6433	0.082
Mof_C 	C 	0.3204	0.1562	0.6262	0.104
Mof_H 	H 	0.3445	0.1385	0.574	-0.026
Mof_C 	C 	0.1638	0.0625	0.7943	0.057
Mof_N 	N 	0.5498	0.2709	0.696	-0.238
Mof_N 	N 	0.7943	0.2214	0.9579	-0.085
Mof_N 	N 	0.8603	0.1667	0.9954	-0.136
Mof_N 	N 	0.8714	0.093	0.9513	-0.107
Mof_N 	N 	0.8082	0.098	0.8809	-0.085
Mof_N 	N 	0.3458	0.2352	0.6546	-0.241
Mof_N 	N 	0.116	0.0873	0.864	-0.083
Mof_N 	N 	0.0725	0.0142	0.8904	-0.162
Mof_N 	N 	0.0932	0.9469	0.8401	-0.112
Mof_N 	N 	0.1517	0.9758	0.7781	-0.069
Mof_N 	N 	0.055	0.1171	0.0501	-0.289
Mof_N 	N 	0.1426	0.1337	0.0578	-0.05
Mof_N 	N 	0.2251	0.1517	0.0643	-0.086
Mof_Cu	Cu	0.55029	0.68875	0.3976	0.87
Mof_C 	C 	0.9164	0.8229	0.7396	0.1
Mof_H 	H 	0.9403	0.8806	0.7375	0.011
Mof_C 	C 	0.8473	0.7944	0.6762	-0.139
Mof_H 	H 	0.8251	0.8328	0.6323	0.097
Mof_C 	C 	0.8112	0.7101	0.6774	0.08
Mof_C 	C 	0.8456	0.6556	0.7453	-0.143
Mof_H 	H 	0.8227	0.5978	0.7493	0.1
Mof_C 	C 	0.9141	0.6896	0.8058	0.107
Mof_H 	H 	0.9367	0.6531	0.8511	-0.01
Mof_C 	C 	0.7368	0.6768	0.6134	0.093
Mof_C 	C 	0.1889	0.758	0.7695	0.089
Mof_H 	H 	0.1709	0.8129	0.7466	-0.005
Mof_C 	C 	0.2494	0.7047	0.7238	-0.144
Mof_H 	H 	0.2735	0.7248	0.6723	0.094
Mof_C 	C 	0.2748	0.622	0.7534	0.075
Mof_C 	C 	0.2389	0.5976	0.8325	-0.15
Mof_H 	H 	0.2549	0.5428	0.8567	0.094
Mof_C 	C 	0.1796	0.6562	0.8738	0.104
Mof_H 	H 	0.1555	0.6385	0.926	-0.015
Mof_C 	C 	0.3362	0.5625	0.7057	0.089
Mof_N 	N 	0.9502	0.7709	0.804	-0.225
Mof_N 	N 	0.7057	0.7214	0.5421	-0.093
Mof_N 	N 	0.6397	0.6667	0.5046	-0.153
Mof_N 	N 	0.6286	0.593	0.5487	-0.119
Mof_N 	N 	0.6918	0.598	0.6191	-0.082
Mof_N 	N 	0.1542	0.7352	0.8454	-0.238
Mof_N 	N 	0.384	0.5873	0.636	-0.087
Mof_N 	N 	0.4275	0.5142	0.6096	-0.149
Mof_N 	N 	0.4068	0.4469	0.6599	-0.122
Mof_N 	N 	0.3483	0.4758	0.7219	-0.09
Mof_N 	N 	0.445	0.6171	0.4499	-0.264
Mof_N 	N 	0.3574	0.6337	0.4422	-0.041
Mof_N 	N 	0.2749	0.6517	0.4357	-0.073
Mof_Cu	Cu	0.05029	0.81125	0.8976	0.864
Mof_C 	C 	0.4164	0.6771	0.2396	0.094
Mof_H 	H 	0.4403	0.6194	0.2375	-0.008
Mof_C 	C 	0.3473	0.7056	0.1762	-0.146
Mof_H 	H 	0.3251	0.6672	0.1323	0.082
Mof_C 	C 	0.3112	0.7899	0.1774	0.074
Mof_C 	C 	0.3456	0.8444	0.2453	-0.149
Mof_H 	H 	0.3227	0.9022	0.2493	0.099
Mof_C 	C 	0.4141	0.8104	0.3058	0.103
Mof_H 	H 	0.4367	0.8469	0.3511	-0.021
Mof_C 	C 	0.2368	0.8232	0.1134	0.086
Mof_C 	C 	0.6889	0.742	0.2695	0.087
Mof_H 	H 	0.6709	0.6871	0.2466	-0.004
Mof_C 	C 	0.7494	0.7953	0.2238	-0.134
Mof_H 	H 	0.7735	0.7752	0.1723	0.088
Mof_C 	C 	0.7748	0.878	0.2534	0.066
Mof_C 	C 	0.7389	0.9024	0.3325	-0.14
Mof_H 	H 	0.7549	0.9572	0.3567	0.1
Mof_C 	C 	0.6796	0.8438	0.3738	0.102
Mof_H 	H 	0.6555	0.8615	0.426	-0.013
Mof_C 	C 	0.8362	0.9375	0.2057	0.124
Mof_N 	N 	0.4502	0.7291	0.304	-0.237
Mof_N 	N 	0.2057	0.7786	0.0421	-0.105
Mof_N 	N 	0.1397	0.8333	0.0046	-0.169
Mof_N 	N 	0.1286	0.907	0.0487	-0.121
Mof_N 	N 	0.1918	0.902	0.1191	-0.082
Mof_N 	N 	0.6542	0.7648	0.3454	-0.236
Mof_N 	N 	0.884	0.9127	0.136	-0.091
Mof_N 	N 	0.9275	0.9858	0.1096	-0.121
Mof_N 	N 	0.9068	0.0531	0.1599	-0.135
Mof_N 	N 	0.8483	0.0242	0.2219	-0.114
Mof_N 	N 	0.945	0.8829	0.9499	-0.226
Mof_N 	N 	0.8574	0.8663	0.9422	-0.032
Mof_N 	N 	0.7749	0.8483	0.9357	-0.052
Mof_Cu	Cu	0.44971	0.31125	0.6024	0.868
Mof_C 	C 	0.0836	0.1771	0.2604	0.093
Mof_H 	H 	0.0597	0.1194	0.2625	-0.021
Mof_C 	C 	0.1527	0.2056	0.3238	-0.152
Mof_H 	H 	0.1749	0.1672	0.3677	0.083
Mof_C 	C 	0.1888	0.2899	0.3226	0.074
Mof_C 	C 	0.1544	0.3444	0.2547	-0.155
Mof_H 	H 	0.1773	0.4022	0.2507	0.09
Mof_C 	C 	0.0859	0.3104	0.1942	0.101
Mof_H 	H 	0.0633	0.3469	0.1489	-0.039
Mof_C 	C 	0.2632	0.3232	0.3866	0.085
Mof_C 	C 	0.8111	0.242	0.2305	0.089
Mof_H 	H 	0.8291	0.1871	0.2534	-0.004
Mof_C 	C 	0.7506	0.2953	0.2762	-0.143
Mof_H 	H 	0.7265	0.2752	0.3277	0.091
Mof_C 	C 	0.7252	0.378	0.2466	0.074
Mof_C 	C 	0.7611	0.4024	0.1675	-0.152
Mof_H 	H 	0.7451	0.4572	0.1433	0.087
Mof_C 	C 	0.8204	0.3438	0.1262	0.103
Mof_H 	H 	0.8445	0.3615	0.074	-0.025
Mof_C 	C 	0.6638	0.4375	0.2943	0.088
Mof_N 	N 	0.0498	0.2291	0.196	-0.249
Mof_N 	N 	0.2943	0.2786	0.4579	-0.099
Mof_N 	N 	0.3603	0.3333	0.4954	-0.156
Mof_N 	N 	0.3714	0.407	0.4513	-0.121
Mof_N 	N 	0.3082	0.402	0.3809	-0.086
Mof_N 	N 	0.8458	0.2648	0.1546	-0.24
Mof_N 	N 	0.616	0.4127	0.364	-0.088
Mof_N 	N 	0.5725	0.4858	0.3904	-0.149
Mof_N 	N 	0.5932	0.5531	0.3401	-0.122
Mof_N 	N 	0.6517	0.5242	0.2781	-0.09
Mof_N 	N 	0.555	0.3829	0.5501	-0.264
Mof_N 	N 	0.6426	0.3663	0.5578	-0.041
Mof_N 	N 	0.7251	0.3483	0.5643	-0.065
Mof_Cu	Cu	-0	0	-0	0.826
Mof_Cu	Cu	0.5	0.5	0.5	0.874
_end
