data_functionalizedCrystal
_audit_creation_method	'EQeq! by Chris Wilmer'
_symmetry_space_group_name_H-M	'P1'
_symmetry_Int_Tables_number	1
_symmetry_cell_setting	triclinic
loop_
_symmetry_equiv_pos_as_xyz
  x,y,z
_cell_length_a	11.1668
_cell_length_b	12.4554
_cell_length_c	22.2593
_cell_angle_alpha	101.986
_cell_angle_beta	103.319
_cell_angle_gamma	95.548
loop_
_atom_site_label
_atom_site_type_symbol
_atom_site_fract_x
_atom_site_fract_y
_atom_site_fract_z
_atom_site_charge
Mof_Eu	Eu	0.3013	0.44646	0.4514	2.931
Mof_Eu	Eu	0.95955	0.63154	0.9494	2.833
Mof_Eu	Eu	0.6987	0.55354	0.5486	2.931
Mof_Eu	Eu	0.04045	0.36846	0.0506	2.833
Mof_Co	Co	0.32222	0.08606	0.74277	1.175
Mof_Co	Co	0.67778	0.91394	0.25723	1.175
Mof_H 	H 	0.2253	0.1264	0.6116	0.04
Mof_H 	H 	0.3022	0.2362	0.5496	0.036
Mof_H 	H 	0.5968	0.3598	0.703	0.049
Mof_H 	H 	0.6762	0.3651	0.8074	0.017
Mof_H 	H 	0.6846	0.1817	0.9337	0.023
Mof_H 	H 	0.5022	0.0747	0.8697	0.032
Mof_H 	H 	0.3167	0.8478	0.7735	0.034
Mof_H 	H 	0.2403	0.7725	0.842	0.068
Mof_H 	H 	0.1482	0.062	0.9195	0.071
Mof_H 	H 	0.1581	0.242	0.9179	0.032
Mof_H 	H 	0.1986	0.4575	0.813	0.072
Mof_H 	H 	0.2707	0.3256	0.7497	0.015
Mof_H 	H 	0.0533	0.1304	0.7196	0.021
Mof_H 	H 	0.8623	0.0401	0.6516	0.088
Mof_H 	H 	0.042	0.7853	0.5872	0.061
Mof_H 	H 	0.23	0.7467	0.582	0.055
Mof_H 	H 	0.5983	0.834	0.6655	0.036
Mof_H 	H 	0.56	0.9843	0.7324	0.051
Mof_H 	H 	0.2571	0.3254	0.318	0.234
Mof_H 	H 	0.126	0.3175	0.3327	0.233
Mof_H 	H 	0.161	0.6016	0.3991	0.272
Mof_H 	H 	0.0689	0.4898	0.3823	0.251
Mof_H 	H 	0.1179	0.3864	0.5163	0.239
Mof_H 	H 	0.2261	0.4676	0.5689	0.234
Mof_H 	H 	0.9486	0.6441	0.8194	0.255
Mof_H 	H 	0.8339	0.5566	0.8148	0.228
Mof_H 	H 	0.7434	0.7238	0.9686	0.227
Mof_H 	H 	0.6942	0.6105	0.9178	0.218
Mof_H 	H 	0.018	0.8006	0.0651	0.346
Mof_H 	H 	0.017	0.8619	0.0226	0.543
Mof_H 	H 	0.7747	0.8736	0.3884	0.04
Mof_H 	H 	0.6978	0.7638	0.4504	0.036
Mof_H 	H 	0.4032	0.6402	0.297	0.049
Mof_H 	H 	0.3238	0.6349	0.1926	0.017
Mof_H 	H 	0.3154	0.8183	0.0663	0.023
Mof_H 	H 	0.4978	0.9253	0.1303	0.032
Mof_H 	H 	0.6833	0.1522	0.2265	0.034
Mof_H 	H 	0.7597	0.2275	0.158	0.068
Mof_H 	H 	0.8518	0.938	0.0805	0.071
Mof_H 	H 	0.8419	0.758	0.0821	0.032
Mof_H 	H 	0.8014	0.5425	0.187	0.072
Mof_H 	H 	0.7293	0.6744	0.2503	0.015
Mof_H 	H 	0.9467	0.8696	0.2804	0.021
Mof_H 	H 	0.1377	0.9599	0.3484	0.088
Mof_H 	H 	0.958	0.2147	0.4128	0.061
Mof_H 	H 	0.77	0.2533	0.418	0.055
Mof_H 	H 	0.4017	0.166	0.3345	0.036
Mof_H 	H 	0.44	0.0157	0.2676	0.051
Mof_H 	H 	0.7429	0.6746	0.682	0.234
Mof_H 	H 	0.874	0.6825	0.6673	0.233
Mof_H 	H 	0.839	0.3984	0.6009	0.272
Mof_H 	H 	0.9311	0.5102	0.6177	0.251
Mof_H 	H 	0.8821	0.6136	0.4837	0.239
Mof_H 	H 	0.7739	0.5324	0.4311	0.234
Mof_H 	H 	0.0514	0.3559	0.1806	0.255
Mof_H 	H 	0.1661	0.4434	0.1852	0.228
Mof_H 	H 	0.2566	0.2762	0.0314	0.227
Mof_H 	H 	0.3058	0.3895	0.0822	0.218
Mof_H 	H 	0.982	0.1994	0.9349	0.346
Mof_H 	H 	0.983	0.1381	0.9774	0.543
Mof_C 	C 	0.3012	0.1728	0.6288	0.001
Mof_C 	C 	0.3459	0.2411	0.5913	0.023
Mof_C 	C 	0.4543	0.313	0.6186	-0.133
Mof_C 	C 	0.5227	0.3116	0.6832	-0.019
Mof_C 	C 	0.4778	0.2403	0.7138	0.047
Mof_C 	C 	0.5356	0.2316	0.7787	0.002
Mof_C 	C 	0.6417	0.306	0.8206	0.042
Mof_C 	C 	0.695	0.2905	0.8823	-0.21
Mof_C 	C 	0.6463	0.2002	0.8963	0.062
Mof_C 	C 	0.5386	0.1322	0.8559	-0.011
Mof_C 	C 	0.5063	0.3903	0.5842	0.553
Mof_C 	C 	0.8054	0.3688	0.9258	0.685
Mof_C 	C 	0.2827	0.8913	0.8026	0.02
Mof_C 	C 	0.2383	0.8474	0.8433	-0.027
Mof_C 	C 	0.1875	0.9107	0.889	-0.073
Mof_C 	C 	0.1816	0.0188	0.8899	-0.04
Mof_C 	C 	0.2264	0.0647	0.8456	0.054
Mof_C 	C 	0.2295	0.1822	0.844	0.004
Mof_C 	C 	0.184	0.2605	0.8841	0.004
Mof_C 	C 	0.1775	0.365	0.8737	-0.133
Mof_C 	C 	0.2066	0.3889	0.8226	-0.025
Mof_C 	C 	0.2495	0.3066	0.7846	0.054
Mof_C 	C 	0.1342	0.8584	0.932	0.409
Mof_C 	C 	0.1215	0.4398	0.9157	0.508
Mof_C 	C 	0.0495	0.0625	0.6917	0.062
Mof_C 	C 	0.9337	0.0069	0.6534	-0.043
Mof_C 	C 	0.9296	0.9023	0.6188	-0.063
Mof_C 	C 	0.0442	0.8541	0.6139	-0.037
Mof_C 	C 	0.1526	0.9168	0.6508	0.05
Mof_C 	C 	0.2751	0.8852	0.6499	0.014
Mof_C 	C 	0.2963	0.7955	0.6111	0.027
Mof_C 	C 	0.4222	0.7749	0.6145	-0.149
Mof_C 	C 	0.5167	0.8477	0.6614	0.038
Mof_C 	C 	0.4949	0.9377	0.7012	-0.006
Mof_C 	C 	0.8065	0.8292	0.5827	0.438
Mof_C 	C 	0.4553	0.6777	0.5723	0.619
Mof_C 	C 	0.6988	0.8272	0.3712	0.001
Mof_C 	C 	0.6541	0.7589	0.4087	0.023
Mof_C 	C 	0.5457	0.687	0.3814	-0.133
Mof_C 	C 	0.4773	0.6884	0.3168	-0.019
Mof_C 	C 	0.5222	0.7597	0.2862	0.047
Mof_C 	C 	0.4644	0.7684	0.2213	0.002
Mof_C 	C 	0.3583	0.694	0.1794	0.042
Mof_C 	C 	0.305	0.7095	0.1177	-0.21
Mof_C 	C 	0.3537	0.7998	0.1037	0.062
Mof_C 	C 	0.4614	0.8678	0.1441	-0.011
Mof_C 	C 	0.4937	0.6097	0.4158	0.553
Mof_C 	C 	0.1946	0.6312	0.0742	0.685
Mof_C 	C 	0.7173	0.1087	0.1974	0.02
Mof_C 	C 	0.7617	0.1526	0.1567	-0.027
Mof_C 	C 	0.8125	0.0893	0.111	-0.073
Mof_C 	C 	0.8184	0.9812	0.1101	-0.04
Mof_C 	C 	0.7736	0.9353	0.1544	0.054
Mof_C 	C 	0.7705	0.8178	0.156	0.004
Mof_C 	C 	0.816	0.7395	0.1159	0.004
Mof_C 	C 	0.8225	0.635	0.1263	-0.133
Mof_C 	C 	0.7934	0.6111	0.1774	-0.025
Mof_C 	C 	0.7505	0.6934	0.2154	0.054
Mof_C 	C 	0.8658	0.1416	0.068	0.409
Mof_C 	C 	0.8785	0.5602	0.0843	0.508
Mof_C 	C 	0.9505	0.9375	0.3083	0.062
Mof_C 	C 	0.0663	0.9931	0.3466	-0.043
Mof_C 	C 	0.0704	0.0977	0.3812	-0.063
Mof_C 	C 	0.9558	0.1459	0.3861	-0.037
Mof_C 	C 	0.8474	0.0832	0.3492	0.05
Mof_C 	C 	0.7249	0.1148	0.3501	0.014
Mof_C 	C 	0.7037	0.2045	0.3889	0.027
Mof_C 	C 	0.5778	0.2251	0.3855	-0.149
Mof_C 	C 	0.4833	0.1523	0.3386	0.038
Mof_C 	C 	0.5051	0.0623	0.2988	-0.006
Mof_C 	C 	0.1935	0.1708	0.4173	0.438
Mof_C 	C 	0.5447	0.3223	0.4277	0.619
Mof_N 	N 	0.3686	0.1741	0.6907	-0.246
Mof_N 	N 	0.4853	0.1464	0.7975	-0.227
Mof_N 	N 	0.2788	0.0065	0.80298	-0.237
Mof_N 	N 	0.2644	0.2076	0.79038	-0.244
Mof_N 	N 	0.1555	0.0209	0.6895	-0.239
Mof_N 	N 	0.3747	0.9584	0.69445	-0.224
Mof_N 	N 	0.6314	0.8259	0.3093	-0.246
Mof_N 	N 	0.5147	0.8536	0.2025	-0.227
Mof_N 	N 	0.7212	0.9935	0.19702	-0.237
Mof_N 	N 	0.7356	0.7924	0.20962	-0.244
Mof_N 	N 	0.8445	0.9791	0.3105	-0.239
Mof_N 	N 	0.6253	0.0416	0.30555	-0.224
Mof_O 	O 	0.43	0.4096	0.53765	-0.696
Mof_O 	O 	0.621	0.4325	0.60075	-0.615
Mof_O 	O 	0.8401	0.4511	0.90913	-0.681
Mof_O 	O 	0.856	0.3407	0.97199	-0.698
Mof_O 	O 	0.0916	0.7559	0.91862	-0.536
Mof_O 	O 	0.1289	0.9236	0.98305	-0.326
Mof_O 	O 	0.0955	0.4159	0.96286	-0.655
Mof_O 	O 	0.0915	0.5278	0.89665	-0.539
Mof_O 	O 	0.7134	0.8743	0.57189	-0.279
Mof_O 	O 	0.8046	0.7272	0.56161	-0.618
Mof_O 	O 	0.3635	0.6226	0.52904	-0.586
Mof_O 	O 	0.555	0.6464	0.58699	-0.693
Mof_O 	O 	0.2012	0.3665	0.33717	-0.659
Mof_O 	O 	0.1319	0.5412	0.4155	-0.695
Mof_O 	O 	0.1733	0.4554	0.52643	-0.664
Mof_O 	O 	0.8801	0.6287	0.83721	-0.666
Mof_O 	O 	0.7537	0.6773	0.9304	-0.691
Mof_O 	O 	0.9788	0.8101	0.02524	-1.045
Mof_O 	O 	0.57	0.5904	0.46235	-0.696
Mof_O 	O 	0.379	0.5675	0.39925	-0.615
Mof_O 	O 	0.1599	0.5489	0.09087	-0.681
Mof_O 	O 	0.144	0.6593	0.02801	-0.698
Mof_O 	O 	0.9084	0.2441	0.08138	-0.536
Mof_O 	O 	0.8711	0.0764	0.01695	-0.326
Mof_O 	O 	0.9045	0.5841	0.03714	-0.655
Mof_O 	O 	0.9085	0.4722	0.10335	-0.539
Mof_O 	O 	0.2866	0.1257	0.42811	-0.279
Mof_O 	O 	0.1954	0.2728	0.43839	-0.618
Mof_O 	O 	0.6365	0.3774	0.47096	-0.586
Mof_O 	O 	0.445	0.3536	0.41301	-0.693
Mof_O 	O 	0.7988	0.6335	0.66283	-0.659
Mof_O 	O 	0.8681	0.4588	0.5845	-0.695
Mof_O 	O 	0.8267	0.5446	0.47357	-0.664
Mof_O 	O 	0.1199	0.3713	0.16279	-0.666
Mof_O 	O 	0.2463	0.3227	0.0696	-0.691
Mof_O 	O 	0.0212	0.1899	0.97476	-1.045
Mof_N 	N 	0.8623	0.0361	0.7997	0.061
Mof_O 	O 	0.9017	0.9478	0.7969	-0.126
Mof_O 	O 	0.9093	0.117	0.8443	-0.162
Mof_O 	O 	0.7755	0.0465	0.75853	-0.126
Mof_N 	N 	0.1243	0.6056	0.7089	0.053
Mof_O 	O 	0.0384	0.6235	0.73492	-0.146
Mof_O 	O 	0.2123	0.5709	0.73857	-0.131
Mof_O 	O 	0.1251	0.6293	0.6584	-0.148
Mof_N 	N 	0.2117	0.8486	0.4614	0.055
Mof_O 	O 	0.3164	0.8971	0.4775	-0.094
Mof_O 	O 	0.1896	0.7481	0.43794	-0.135
Mof_O 	O 	0.1241	0.8989	0.46877	-0.109
Mof_N 	N 	0.1377	0.9639	0.2003	0.061
Mof_O 	O 	0.0983	0.0522	0.2031	-0.126
Mof_O 	O 	0.0907	0.883	0.1557	-0.162
Mof_O 	O 	0.2245	0.9535	0.24147	-0.126
Mof_N 	N 	0.8757	0.3944	0.2911	0.053
Mof_O 	O 	0.9616	0.3765	0.26508	-0.146
Mof_O 	O 	0.7877	0.4291	0.26143	-0.131
Mof_O 	O 	0.8749	0.3707	0.3416	-0.148
Mof_N 	N 	0.7883	0.1514	0.5386	0.055
Mof_O 	O 	0.6836	0.1029	0.5225	-0.094
Mof_O 	O 	0.8104	0.2519	0.56206	-0.135
Mof_O 	O 	0.8759	0.1011	0.53123	-0.109
_end
