# CIF file generated by openbabel 3.1.0, see https://openbabel.org
data_I
_chemical_name_common 'image0'
_cell_length_a 30.727
_cell_length_b 15.769
_cell_length_c 22.11
_cell_angle_alpha 90
_cell_angle_beta 133.08
_cell_angle_gamma 90
_space_group_name_H-M_alt 'P 1'
_space_group_name_Hall 'P 1'
loop_
    _symmetry_equiv_pos_as_xyz
    x,y,z
loop_
    _atom_site_label
    _atom_site_type_symbol
    _atom_site_fract_x
    _atom_site_fract_y
    _atom_site_fract_z
    _atom_site_occupancy
    Ce1      Ce       0.66945    0.37180    0.01442    1.000
    Ce2      Ce       0.88997    0.13689    0.32709    1.000
    N1       N        0.63290    0.23260    0.03560    1.000
    N2       N        0.66250    0.49760    0.25920    1.000
    O1       O        0.55970    0.35360    0.93120    1.000
    O2       O        0.48080    0.28210    0.88830    1.000
    O3       O        0.74700    0.26640    0.12700    1.000
    O4       O        0.77650    0.15030    0.20510    1.000
    O5       O        0.63360    0.52860    0.11710    1.000
    O6       O        0.67370    0.40340    0.12680    1.000
    O7       O        0.62420    0.61550    0.29600    1.000
    O8       O        0.65900    0.54710    0.40960    1.000
    C1       C        0.53530    0.29190    0.93070    1.000
    C2       C        0.57590    0.22010    0.98870    1.000
    C3       C        0.55400    0.14670    0.99620    1.000
    H1       H        0.51330    0.13930    0.96310    1.000
    C4       C        0.59410    0.08500    0.05380    1.000
    H2       H        0.58080    0.03480    0.05850    1.000
    C5       C        0.65590    0.10110    0.10510    1.000
    H3       H        0.68400    0.06210    0.14530    1.000
    C6       C        0.67360    0.17620    0.09420    1.000
    C7       C        0.73780    0.19970    0.14730    1.000
    C8       C        0.66220    0.45980    0.15340    1.000
    C9       C        0.68400    0.44400    0.23800    1.000
    C10      C        0.72590    0.38300    0.29290    1.000
    H4       H        0.74380    0.34950    0.28040    1.000
    C11      C        0.74000    0.37410    0.36570    1.000
    H5       H        0.76730    0.33280    0.40330    1.000
    C12      C        0.71470    0.42460    0.38440    1.000
    H6       H        0.72360    0.41700    0.43350    1.000
    C13      C        0.67550    0.48760    0.32930    1.000
    C14      C        0.65010    0.55360    0.34540    1.000
    Ce3      Ce       0.16945    0.87180    0.01442    1.000
    Ce4      Ce       0.38997    0.63689    0.32709    1.000
    N3       N        0.13290    0.73260    0.03560    1.000
    N4       N        0.16250    0.99760    0.25920    1.000
    O9       O        0.05970    0.85360    0.93120    1.000
    O10      O        0.98080    0.78210    0.88830    1.000
    O11      O        0.24700    0.76640    0.12700    1.000
    O12      O        0.27650    0.65030    0.20510    1.000
    O13      O        0.13360    0.02860    0.11710    1.000
    O14      O        0.17370    0.90340    0.12680    1.000
    O15      O        0.12420    0.11550    0.29600    1.000
    O16      O        0.15900    0.04710    0.40960    1.000
    C15      C        0.03530    0.79190    0.93070    1.000
    C16      C        0.07590    0.72010    0.98870    1.000
    C17      C        0.05400    0.64670    0.99620    1.000
    H7       H        0.01330    0.63930    0.96310    1.000
    C18      C        0.09410    0.58500    0.05380    1.000
    H8       H        0.08080    0.53480    0.05850    1.000
    C19      C        0.15590    0.60110    0.10510    1.000
    H9       H        0.18400    0.56210    0.14530    1.000
    C20      C        0.17360    0.67620    0.09420    1.000
    C21      C        0.23780    0.69970    0.14730    1.000
    C22      C        0.16220    0.95980    0.15340    1.000
    C23      C        0.18400    0.94400    0.23800    1.000
    C24      C        0.22590    0.88300    0.29290    1.000
    H10      H        0.24380    0.84950    0.28040    1.000
    C25      C        0.24000    0.87410    0.36570    1.000
    H11      H        0.26730    0.83280    0.40330    1.000
    C26      C        0.21470    0.92460    0.38440    1.000
    H12      H        0.22360    0.91700    0.43350    1.000
    C27      C        0.17550    0.98760    0.32930    1.000
    C28      C        0.15010    0.05360    0.34540    1.000
    Ce5      Ce       0.33055    0.37180    0.48558    1.000
    Ce6      Ce       0.11003    0.13689    0.17291    1.000
    N5       N        0.36710    0.23260    0.46440    1.000
    N6       N        0.33750    0.49760    0.24080    1.000
    O17      O        0.44030    0.35360    0.56880    1.000
    O18      O        0.51920    0.28210    0.61170    1.000
    O19      O        0.25300    0.26640    0.37300    1.000
    O20      O        0.22350    0.15030    0.29490    1.000
    O21      O        0.36640    0.52860    0.38290    1.000
    O22      O        0.32630    0.40340    0.37320    1.000
    O23      O        0.37580    0.61550    0.20400    1.000
    O24      O        0.34100    0.54710    0.09040    1.000
    C29      C        0.46470    0.29190    0.56930    1.000
    C30      C        0.42410    0.22010    0.51130    1.000
    C31      C        0.44600    0.14670    0.50380    1.000
    H13      H        0.48670    0.13930    0.53690    1.000
    C32      C        0.40590    0.08500    0.44620    1.000
    H14      H        0.41920    0.03480    0.44150    1.000
    C33      C        0.34410    0.10110    0.39490    1.000
    H15      H        0.31600    0.06210    0.35470    1.000
    C34      C        0.32640    0.17620    0.40580    1.000
    C35      C        0.26220    0.19970    0.35270    1.000
    C36      C        0.33780    0.45980    0.34660    1.000
    C37      C        0.31600    0.44400    0.26200    1.000
    C38      C        0.27410    0.38300    0.20710    1.000
    H16      H        0.25620    0.34950    0.21960    1.000
    C39      C        0.26000    0.37410    0.13430    1.000
    H17      H        0.23270    0.33280    0.09670    1.000
    C40      C        0.28530    0.42460    0.11560    1.000
    H18      H        0.27640    0.41700    0.06650    1.000
    C41      C        0.32450    0.48760    0.17070    1.000
    C42      C        0.34990    0.55360    0.15460    1.000
    Ce7      Ce       0.83055    0.87180    0.48558    1.000
    Ce8      Ce       0.61003    0.63689    0.17291    1.000
    N7       N        0.86710    0.73260    0.46440    1.000
    N8       N        0.83750    0.99760    0.24080    1.000
    O25      O        0.94030    0.85360    0.56880    1.000
    O26      O        0.01920    0.78210    0.61170    1.000
    O27      O        0.75300    0.76640    0.37300    1.000
    O28      O        0.72350    0.65030    0.29490    1.000
    O29      O        0.86640    0.02860    0.38290    1.000
    O30      O        0.82630    0.90340    0.37320    1.000
    O31      O        0.87580    0.11550    0.20400    1.000
    O32      O        0.84100    0.04710    0.09040    1.000
    C43      C        0.96470    0.79190    0.56930    1.000
    C44      C        0.92410    0.72010    0.51130    1.000
    C45      C        0.94600    0.64670    0.50380    1.000
    H19      H        0.98670    0.63930    0.53690    1.000
    C46      C        0.90590    0.58500    0.44620    1.000
    H20      H        0.91920    0.53480    0.44150    1.000
    C47      C        0.84410    0.60110    0.39490    1.000
    H21      H        0.81600    0.56210    0.35470    1.000
    C48      C        0.82640    0.67620    0.40580    1.000
    C49      C        0.76220    0.69970    0.35270    1.000
    C50      C        0.83780    0.95980    0.34660    1.000
    C51      C        0.81600    0.94400    0.26200    1.000
    C52      C        0.77410    0.88300    0.20710    1.000
    H22      H        0.75620    0.84950    0.21960    1.000
    C53      C        0.76000    0.87410    0.13430    1.000
    H23      H        0.73270    0.83280    0.09670    1.000
    C54      C        0.78530    0.92460    0.11560    1.000
    H24      H        0.77640    0.91700    0.06650    1.000
    C55      C        0.82450    0.98760    0.17070    1.000
    C56      C        0.84990    0.05360    0.15460    1.000
    Ce9      Ce       0.33055    0.62820    0.98558    1.000
    Ce10     Ce       0.11003    0.86311    0.67291    1.000
    N9       N        0.36710    0.76740    0.96440    1.000
    N10      N        0.33750    0.50240    0.74080    1.000
    O33      O        0.44030    0.64640    0.06880    1.000
    O34      O        0.51920    0.71790    0.11170    1.000
    O35      O        0.25300    0.73360    0.87300    1.000
    O36      O        0.22350    0.84970    0.79490    1.000
    O37      O        0.36640    0.47140    0.88290    1.000
    O38      O        0.32630    0.59660    0.87320    1.000
    O39      O        0.37580    0.38450    0.70400    1.000
    O40      O        0.34100    0.45290    0.59040    1.000
    C57      C        0.46470    0.70810    0.06930    1.000
    C58      C        0.42410    0.77990    0.01130    1.000
    C59      C        0.44600    0.85330    0.00380    1.000
    H25      H        0.48670    0.86070    0.03690    1.000
    C60      C        0.40590    0.91500    0.94620    1.000
    H26      H        0.41920    0.96520    0.94150    1.000
    C61      C        0.34410    0.89890    0.89490    1.000
    H27      H        0.31600    0.93790    0.85470    1.000
    C62      C        0.32640    0.82380    0.90580    1.000
    C63      C        0.26220    0.80030    0.85270    1.000
    C64      C        0.33780    0.54020    0.84660    1.000
    C65      C        0.31600    0.55600    0.76200    1.000
    C66      C        0.27410    0.61700    0.70710    1.000
    H28      H        0.25620    0.65050    0.71960    1.000
    C67      C        0.26000    0.62590    0.63430    1.000
    H29      H        0.23270    0.66720    0.59670    1.000
    C68      C        0.28530    0.57540    0.61560    1.000
    H30      H        0.27640    0.58300    0.56650    1.000
    C69      C        0.32450    0.51240    0.67070    1.000
    C70      C        0.34990    0.44640    0.65460    1.000
    Ce11     Ce       0.83055    0.12820    0.98558    1.000
    Ce12     Ce       0.61003    0.36311    0.67291    1.000
    N11      N        0.86710    0.26740    0.96440    1.000
    N12      N        0.83750    0.00240    0.74080    1.000
    O41      O        0.94030    0.14640    0.06880    1.000
    O42      O        0.01920    0.21790    0.11170    1.000
    O43      O        0.75300    0.23360    0.87300    1.000
    O44      O        0.72350    0.34970    0.79490    1.000
    O45      O        0.86640    0.97140    0.88290    1.000
    O46      O        0.82630    0.09660    0.87320    1.000
    O47      O        0.87580    0.88450    0.70400    1.000
    O48      O        0.84100    0.95290    0.59040    1.000
    C71      C        0.96470    0.20810    0.06930    1.000
    C72      C        0.92410    0.27990    0.01130    1.000
    C73      C        0.94600    0.35330    0.00380    1.000
    H31      H        0.98670    0.36070    0.03690    1.000
    C74      C        0.90590    0.41500    0.94620    1.000
    H32      H        0.91920    0.46520    0.94150    1.000
    C75      C        0.84410    0.39890    0.89490    1.000
    H33      H        0.81600    0.43790    0.85470    1.000
    C76      C        0.82640    0.32380    0.90580    1.000
    C77      C        0.76220    0.30030    0.85270    1.000
    C78      C        0.83780    0.04020    0.84660    1.000
    C79      C        0.81600    0.05600    0.76200    1.000
    C80      C        0.77410    0.11700    0.70710    1.000
    H34      H        0.75620    0.15050    0.71960    1.000
    C81      C        0.76000    0.12590    0.63430    1.000
    H35      H        0.73270    0.16720    0.59670    1.000
    C82      C        0.78530    0.07540    0.61560    1.000
    H36      H        0.77640    0.08300    0.56650    1.000
    C83      C        0.82450    0.01240    0.67070    1.000
    C84      C        0.84990    0.94640    0.65460    1.000
    Ce13     Ce       0.66945    0.62820    0.51442    1.000
    Ce14     Ce       0.88997    0.86311    0.82709    1.000
    N13      N        0.63290    0.76740    0.53560    1.000
    N14      N        0.66250    0.50240    0.75920    1.000
    O49      O        0.55970    0.64640    0.43120    1.000
    O50      O        0.48080    0.71790    0.38830    1.000
    O51      O        0.74700    0.73360    0.62700    1.000
    O52      O        0.77650    0.84970    0.70510    1.000
    O53      O        0.63360    0.47140    0.61710    1.000
    O54      O        0.67370    0.59660    0.62680    1.000
    O55      O        0.62420    0.38450    0.79600    1.000
    O56      O        0.65900    0.45290    0.90960    1.000
    C85      C        0.53530    0.70810    0.43070    1.000
    C86      C        0.57590    0.77990    0.48870    1.000
    C87      C        0.55400    0.85330    0.49620    1.000
    H37      H        0.51330    0.86070    0.46310    1.000
    C88      C        0.59410    0.91500    0.55380    1.000
    H38      H        0.58080    0.96520    0.55850    1.000
    C89      C        0.65590    0.89890    0.60510    1.000
    H39      H        0.68400    0.93790    0.64530    1.000
    C90      C        0.67360    0.82380    0.59420    1.000
    C91      C        0.73780    0.80030    0.64730    1.000
    C92      C        0.66220    0.54020    0.65340    1.000
    C93      C        0.68400    0.55600    0.73800    1.000
    C94      C        0.72590    0.61700    0.79290    1.000
    H40      H        0.74380    0.65050    0.78040    1.000
    C95      C        0.74000    0.62590    0.86570    1.000
    H41      H        0.76730    0.66720    0.90330    1.000
    C96      C        0.71470    0.57540    0.88440    1.000
    H42      H        0.72360    0.58300    0.93350    1.000
    C97      C        0.67550    0.51240    0.82930    1.000
    C98      C        0.65010    0.44640    0.84540    1.000
    Ce15     Ce       0.16945    0.12820    0.51442    1.000
    Ce16     Ce       0.38997    0.36311    0.82709    1.000
    N15      N        0.13290    0.26740    0.53560    1.000
    N16      N        0.16250    0.00240    0.75920    1.000
    O57      O        0.05970    0.14640    0.43120    1.000
    O58      O        0.98080    0.21790    0.38830    1.000
    O59      O        0.24700    0.23360    0.62700    1.000
    O60      O        0.27650    0.34970    0.70510    1.000
    O61      O        0.13360    0.97140    0.61710    1.000
    O62      O        0.17370    0.09660    0.62680    1.000
    O63      O        0.12420    0.88450    0.79600    1.000
    O64      O        0.15900    0.95290    0.90960    1.000
    C99      C        0.03530    0.20810    0.43070    1.000
    C100     C        0.07590    0.27990    0.48870    1.000
    C101     C        0.05400    0.35330    0.49620    1.000
    H43      H        0.01330    0.36070    0.46310    1.000
    C102     C        0.09410    0.41500    0.55380    1.000
    H44      H        0.08080    0.46520    0.55850    1.000
    C103     C        0.15590    0.39890    0.60510    1.000
    H45      H        0.18400    0.43790    0.64530    1.000
    C104     C        0.17360    0.32380    0.59420    1.000
    C105     C        0.23780    0.30030    0.64730    1.000
    C106     C        0.16220    0.04020    0.65340    1.000
    C107     C        0.18400    0.05600    0.73800    1.000
    C108     C        0.22590    0.11700    0.79290    1.000
    H46      H        0.24380    0.15050    0.78040    1.000
    C109     C        0.24000    0.12590    0.86570    1.000
    H47      H        0.26730    0.16720    0.90330    1.000
    C110     C        0.21470    0.07540    0.88440    1.000
    H48      H        0.22360    0.08300    0.93350    1.000
    C111     C        0.17550    0.01240    0.82930    1.000
    C112     C        0.15010    0.94640    0.84540    1.000
