# CIF file generated by openbabel 3.1.0, see https://openbabel.org
data_I
_chemical_name_common 'PEQWAK_clean'
_cell_length_a 7.535
_cell_length_b 10.466
_cell_length_c 21.513
_cell_angle_alpha 90
_cell_angle_beta 90
_cell_angle_gamma 96.666
_space_group_name_H-M_alt 'P 1'
_space_group_name_Hall 'P 1'
loop_
    _symmetry_equiv_pos_as_xyz
    x,y,z
loop_
    _atom_site_label
    _atom_site_type_symbol
    _atom_site_fract_x
    _atom_site_fract_y
    _atom_site_fract_z
    _atom_site_occupancy
    Mn1      Mn       0.62560    0.66741    0.76239    1.000
    Mn2      Mn       0.87440    0.33259    0.26239    1.000
    Mn3      Mn       0.37440    0.33259    0.23761    1.000
    Mn4      Mn       0.12560    0.66741    0.73761    1.000
    H1       H        0.75310    0.92860    0.62540    1.000
    H2       H        0.83630    0.03600    0.53520    1.000
    H3       H        0.59630    0.42810    0.57310    1.000
    H4       H        0.06680    0.64440    0.59960    1.000
    H5       H        0.69250    0.35760    0.48020    1.000
    H6       H        0.24270    0.88090    0.56880    1.000
    H7       H        0.74690    0.07140    0.12540    1.000
    H8       H        0.66370    0.96400    0.03520    1.000
    H9       H        0.90370    0.57190    0.07310    1.000
    H10      H        0.43320    0.35560    0.09960    1.000
    H11      H        0.80750    0.64240    0.98020    1.000
    H12      H        0.25730    0.11910    0.06880    1.000
    H13      H        0.24690    0.07140    0.37460    1.000
    H14      H        0.16370    0.96400    0.46480    1.000
    H15      H        0.40370    0.57190    0.42690    1.000
    H16      H        0.93320    0.35560    0.40040    1.000
    H17      H        0.30750    0.64240    0.51980    1.000
    H18      H        0.75730    0.11910    0.43120    1.000
    H19      H        0.25310    0.92860    0.87460    1.000
    H20      H        0.33630    0.03600    0.96480    1.000
    H21      H        0.09630    0.42810    0.92690    1.000
    H22      H        0.56680    0.64440    0.90040    1.000
    H23      H        0.19250    0.35760    0.01980    1.000
    H24      H        0.74270    0.88090    0.93120    1.000
    C1       C        0.66750    0.94100    0.59549    1.000
    C2       C        0.82570    0.54240    0.59694    1.000
    C3       C        0.75910    0.58310    0.65791    1.000
    C4       C        0.71700    0.00480    0.54138    1.000
    C5       C        0.48600    0.89380    0.60589    1.000
    C6       C        0.59070    0.02400    0.49508    1.000
    C7       C        0.71140    0.45600    0.55947    1.000
    C8       C        0.99310    0.58630    0.57567    1.000
    C9       C        0.76880    0.41400    0.50409    1.000
    C10      C        0.05580    0.54460    0.51785    1.000
    C11      C        0.36180    0.91170    0.56162    1.000
    C12      C        0.43430    0.82290    0.66541    1.000
    C13      C        0.83250    0.05900    0.09549    1.000
    C14      C        0.67430    0.45760    0.09694    1.000
    C15      C        0.74090    0.41690    0.15791    1.000
    C16      C        0.78300    0.99520    0.04138    1.000
    C17      C        0.01400    0.10620    0.10589    1.000
    C18      C        0.90930    0.97600    0.99508    1.000
    C19      C        0.78860    0.54400    0.05947    1.000
    C20      C        0.50690    0.41370    0.07567    1.000
    C21      C        0.73120    0.58600    0.00409    1.000
    C22      C        0.44420    0.45540    0.01785    1.000
    C23      C        0.13820    0.08830    0.06162    1.000
    C24      C        0.06570    0.17710    0.16541    1.000
    C25      C        0.33250    0.05900    0.40451    1.000
    C26      C        0.17430    0.45760    0.40306    1.000
    C27      C        0.24090    0.41690    0.34209    1.000
    C28      C        0.28300    0.99520    0.45862    1.000
    C29      C        0.51400    0.10620    0.39411    1.000
    C30      C        0.40930    0.97600    0.50492    1.000
    C31      C        0.28860    0.54400    0.44053    1.000
    C32      C        0.00690    0.41370    0.42433    1.000
    C33      C        0.23120    0.58600    0.49591    1.000
    C34      C        0.94420    0.45540    0.48215    1.000
    C35      C        0.63820    0.08830    0.43838    1.000
    C36      C        0.56570    0.17710    0.33459    1.000
    C37      C        0.16750    0.94100    0.90451    1.000
    C38      C        0.32570    0.54240    0.90306    1.000
    C39      C        0.25910    0.58310    0.84209    1.000
    C40      C        0.21700    0.00480    0.95862    1.000
    C41      C        0.98600    0.89380    0.89411    1.000
    C42      C        0.09070    0.02400    0.00492    1.000
    C43      C        0.21140    0.45600    0.94053    1.000
    C44      C        0.49310    0.58630    0.92433    1.000
    C45      C        0.26880    0.41400    0.99591    1.000
    C46      C        0.55580    0.54460    0.98215    1.000
    C47      C        0.86180    0.91170    0.93838    1.000
    C48      C        0.93430    0.82290    0.83459    1.000
    O1       O        0.86480    0.64742    0.69632    1.000
    O2       O        0.59840    0.55448    0.67149    1.000
    O3       O        0.55160    0.81905    0.70607    1.000
    O4       O        0.27390    0.77418    0.66993    1.000
    O5       O        0.63520    0.35258    0.19632    1.000
    O6       O        0.90160    0.44552    0.17149    1.000
    O7       O        0.94840    0.18095    0.20607    1.000
    O8       O        0.22610    0.22582    0.16993    1.000
    O9       O        0.13520    0.35258    0.30368    1.000
    O10      O        0.40160    0.44552    0.32851    1.000
    O11      O        0.44840    0.18095    0.29393    1.000
    O12      O        0.72610    0.22582    0.33007    1.000
    O13      O        0.36480    0.64742    0.80368    1.000
    O14      O        0.09840    0.55448    0.82851    1.000
    O15      O        0.05160    0.81905    0.79393    1.000
    O16      O        0.77390    0.77418    0.83007    1.000
