data_functionalizedCrystal
_audit_creation_method	'EQeq! by Chris Wilmer'
_symmetry_space_group_name_H-M	'P1'
_symmetry_Int_Tables_number	1
_symmetry_cell_setting	triclinic
loop_
_symmetry_equiv_pos_as_xyz
  x,y,z
_cell_length_a	6.8883
_cell_length_b	14.7074
_cell_length_c	14.981
_cell_angle_alpha	90
_cell_angle_beta	90
_cell_angle_gamma	90
loop_
_atom_site_label
_atom_site_type_symbol
_atom_site_fract_x
_atom_site_fract_y
_atom_site_fract_z
_atom_site_charge
Mof_Sr	Sr	0.85538	0.30768	0.54664	1.501
Mof_Sr	Sr	0.64462	0.69232	0.04664	1.495
Mof_Sr	Sr	0.14462	0.80768	0.95336	1.492
Mof_Sr	Sr	0.35538	0.19232	0.45336	1.499
Mof_H 	H 	0.8445	0.1557	0.2516	0.014
Mof_H 	H 	0.8931	0.047	0.1398	0.035
Mof_H 	H 	0.8761	0.9923	0.5144	0.057
Mof_H 	H 	0.8943	0.7318	0.4412	0.035
Mof_H 	H 	0.8889	0.772	0.2938	0.053
Mof_H 	H 	0.8911	0.8422	0.5512	0.025
Mof_H 	H 	0.6555	0.8443	0.7516	0.014
Mof_H 	H 	0.6069	0.953	0.6398	0.036
Mof_H 	H 	0.6239	0.0077	0.0144	0.053
Mof_H 	H 	0.6057	0.2682	0.9412	0.037
Mof_H 	H 	0.6111	0.228	0.7938	0.053
Mof_H 	H 	0.6089	0.1578	0.0512	0.021
Mof_H 	H 	0.1555	0.6557	0.2484	0.015
Mof_H 	H 	0.1069	0.547	0.3602	0.035
Mof_H 	H 	0.1239	0.4923	0.9856	0.054
Mof_H 	H 	0.1057	0.2318	0.0588	0.035
Mof_H 	H 	0.1111	0.272	0.2062	0.053
Mof_H 	H 	0.1089	0.3422	0.9488	0.023
Mof_H 	H 	0.3445	0.3443	0.7484	0.014
Mof_H 	H 	0.3931	0.453	0.8602	0.035
Mof_H 	H 	0.3761	0.5077	0.4856	0.057
Mof_H 	H 	0.3943	0.7682	0.5588	0.035
Mof_H 	H 	0.3889	0.728	0.7062	0.053
Mof_H 	H 	0.3911	0.6578	0.4488	0.025
Mof_C 	C 	0.8658	0.07018	0.35494	-0.171
Mof_C 	C 	0.8791	0.97788	0.37846	0.041
Mof_C 	C 	0.8619	0.095	0.267	-0.009
Mof_C 	C 	0.8848	0.9098	0.3115	0.026
Mof_C 	C 	0.858	0.14592	0.42336	0.399
Mof_C 	C 	0.8843	0.0289	0.1992	-0.032
Mof_C 	C 	0.893	0.9387	0.22	-0.123
Mof_C 	C 	0.9097	0.8729	0.1418	0.414
Mof_C 	C 	0.8804	0.9489	0.4693	-0.106
Mof_C 	C 	0.8907	0.7929	0.4254	-0.045
Mof_C 	C 	0.8883	0.817	0.3374	-0.079
Mof_C 	C 	0.8879	0.8592	0.4914	-0.02
Mof_C 	C 	0.6342	0.92982	0.85494	-0.17
Mof_C 	C 	0.6209	0.02212	0.87846	0.041
Mof_C 	C 	0.6381	0.905	0.767	-0.01
Mof_C 	C 	0.6152	0.0902	0.8115	0.027
Mof_C 	C 	0.642	0.85408	0.92336	0.399
Mof_C 	C 	0.6157	0.9711	0.6992	-0.03
Mof_C 	C 	0.607	0.0613	0.72	-0.125
Mof_C 	C 	0.5903	0.1271	0.6418	0.42
Mof_C 	C 	0.6196	0.0511	0.9693	-0.101
Mof_C 	C 	0.6093	0.2071	0.9254	-0.047
Mof_C 	C 	0.6117	0.183	0.8374	-0.078
Mof_C 	C 	0.6121	0.1408	0.9914	-0.015
Mof_C 	C 	0.1342	0.57018	0.14506	-0.168
Mof_C 	C 	0.1209	0.47788	0.12154	0.039
Mof_C 	C 	0.1381	0.595	0.233	-0.012
Mof_C 	C 	0.1152	0.4098	0.1885	0.028
Mof_C 	C 	0.142	0.64592	0.07664	0.398
Mof_C 	C 	0.1157	0.5289	0.3008	-0.028
Mof_C 	C 	0.107	0.4387	0.28	-0.126
Mof_C 	C 	0.0903	0.3729	0.3582	0.42
Mof_C 	C 	0.1196	0.4489	0.0307	-0.102
Mof_C 	C 	0.1093	0.2929	0.0746	-0.045
Mof_C 	C 	0.1117	0.317	0.1626	-0.08
Mof_C 	C 	0.1121	0.3592	0.0086	-0.018
Mof_C 	C 	0.3658	0.42982	0.64506	-0.17
Mof_C 	C 	0.3791	0.52212	0.62154	0.04
Mof_C 	C 	0.3619	0.405	0.733	-0.011
Mof_C 	C 	0.3848	0.5902	0.6885	0.028
Mof_C 	C 	0.358	0.35408	0.57664	0.399
Mof_C 	C 	0.3843	0.4711	0.8008	-0.029
Mof_C 	C 	0.393	0.5613	0.78	-0.125
Mof_C 	C 	0.4097	0.6271	0.8582	0.419
Mof_C 	C 	0.3804	0.5511	0.5307	-0.105
Mof_C 	C 	0.3907	0.7071	0.5746	-0.044
Mof_C 	C 	0.3883	0.683	0.6626	-0.08
Mof_C 	C 	0.3879	0.6408	0.5086	-0.021
Mof_O 	O 	0.7191	0.20035	0.41966	-0.541
Mof_O 	O 	0.9951	0.15251	0.47878	-0.526
Mof_O 	O 	0.8163	0.7997	0.145	-0.481
Mof_O 	O 	0.0138	0.8982	0.0789	-0.467
Mof_O 	O 	0.7809	0.79965	0.91966	-0.538
Mof_O 	O 	0.5049	0.84749	0.97878	-0.524
Mof_O 	O 	0.6837	0.2003	0.645	-0.482
Mof_O 	O 	0.4862	0.1018	0.5789	-0.472
Mof_O 	O 	0.2809	0.70035	0.08034	-0.539
Mof_O 	O 	0.0049	0.65251	0.02122	-0.522
Mof_O 	O 	0.1837	0.2997	0.355	-0.482
Mof_O 	O 	0.9862	0.3982	0.4211	-0.473
Mof_O 	O 	0.2191	0.29965	0.58034	-0.541
Mof_O 	O 	0.4951	0.34749	0.52122	-0.526
Mof_O 	O 	0.3163	0.7003	0.855	-0.482
Mof_O 	O 	0.5138	0.6018	0.9211	-0.471
_end
