data_functionalizedCrystal
_audit_creation_method	'EQeq! by Chris Wilmer'
_symmetry_space_group_name_H-M	'P1'
_symmetry_Int_Tables_number	1
_symmetry_cell_setting	triclinic
loop_
_symmetry_equiv_pos_as_xyz
  x,y,z
_cell_length_a	17.094
_cell_length_b	13.1873
_cell_length_c	21.49
_cell_angle_alpha	90
_cell_angle_beta	98.457
_cell_angle_gamma	90
loop_
_atom_site_label
_atom_site_type_symbol
_atom_site_fract_x
_atom_site_fract_y
_atom_site_fract_z
_atom_site_charge
Mof_Ba	Ba	0.1294	0.4602	0.9879	1.718
Mof_N 	N 	0.4396	0.3702	0.9946	-0.125
Mof_N 	N 	0.2726	0.8568	0.6877	-0.179
Mof_O 	O 	0.4724	0.5102	0.9112	-0.442
Mof_O 	O 	0.4115	0.4305	0.8269	-0.419
Mof_O 	O 	0.4034	0.5638	0.0107	-0.45
Mof_O 	O 	0.2825	0.5346	0.0334	-0.413
Mof_O 	O 	0.4924	0.1066	0.0267	-0.592
Mof_O 	O 	0.373	0.1747	0.0142	-0.412
Mof_O 	O 	0.3515	0.6929	0.7422	-0.466
Mof_O 	O 	0.4481	0.6997	0.6827	-0.383
Mof_O 	O 	0.2075	0.6724	0.6774	-0.452
Mof_O 	O 	0.1704	0.6868	0.5743	-0.445
Mof_O 	O 	0.2825	0.0289	0.6087	-0.413
Mof_O 	O 	0.286	0.1358	0.689	-0.288
Mof_C 	C 	0.4154	0.3492	0.9269	-0.075
Mof_C 	C 	0.4339	0.435	0.8846	0.331
Mof_C 	C 	0.3687	0.3924	0.0273	-0.127
Mof_C 	C 	0.3481	0.5038	0.0229	0.335
Mof_C 	C 	0.4875	0.2849	0.0264	-0.119
Mof_C 	C 	0.4467	0.1814	0.021	0.366
Mof_C 	C 	0.3533	0.8325	0.6716	-0.074
Mof_C 	C 	0.3868	0.735	0.6999	0.318
Mof_C 	C 	0.2107	0.8369	0.6316	-0.065
Mof_C 	C 	0.1952	0.7239	0.6258	0.36
Mof_C 	C 	0.2682	0.9621	0.7114	-0.015
Mof_C 	C 	0.2801	0.0486	0.6646	0.303
Mof_Ba	Ba	0.6294	0.9602	0.4879	1.827
Mof_N 	N 	0.9396	0.8702	0.4946	-0.155
Mof_N 	N 	0.7726	0.3568	0.1877	-0.177
Mof_O 	O 	0.9724	0.0102	0.4112	-0.387
Mof_O 	O 	0.9115	0.9305	0.3269	-0.327
Mof_O 	O 	0.9034	0.0638	0.5107	-0.354
Mof_O 	O 	0.7825	0.0346	0.5334	-0.39
Mof_O 	O 	0.9924	0.6066	0.5267	-0.473
Mof_O 	O 	0.873	0.6747	0.5142	-0.38
Mof_O 	O 	0.8515	0.1929	0.2422	-0.424
Mof_O 	O 	0.9481	0.1997	0.1827	-0.284
Mof_O 	O 	0.7075	0.1724	0.1774	-0.446
Mof_O 	O 	0.6704	0.1868	0.0743	-0.453
Mof_O 	O 	0.7825	0.5289	0.1087	-0.415
Mof_O 	O 	0.786	0.6358	0.189	-0.268
Mof_C 	C 	0.9154	0.8492	0.4269	-0.057
Mof_C 	C 	0.9339	0.935	0.3846	0.36
Mof_C 	C 	0.8687	0.8924	0.5273	-0.035
Mof_C 	C 	0.8481	0.0038	0.5229	0.283
Mof_C 	C 	0.9875	0.7849	0.5264	0.021
Mof_C 	C 	0.9467	0.6814	0.521	0.331
Mof_C 	C 	0.8533	0.3325	0.1716	-0.062
Mof_C 	C 	0.8868	0.235	0.1999	0.308
Mof_C 	C 	0.7107	0.3369	0.1316	-0.079
Mof_C 	C 	0.6952	0.2239	0.1258	0.376
Mof_C 	C 	0.7682	0.4621	0.2114	-0.051
Mof_C 	C 	0.7801	0.5486	0.1646	0.351
Mof_Ba	Ba	0.8706	0.4602	0.5121	1.9
Mof_N 	N 	0.5604	0.3702	0.5054	-0.172
Mof_N 	N 	0.7274	0.8568	0.8123	-0.182
Mof_O 	O 	0.5276	0.5102	0.5888	-0.457
Mof_O 	O 	0.5885	0.4305	0.6731	-0.42
Mof_O 	O 	0.5966	0.5638	0.4893	-0.426
Mof_O 	O 	0.7175	0.5346	0.4666	-0.396
Mof_O 	O 	0.5076	0.1066	0.4733	-0.569
Mof_O 	O 	0.627	0.1747	0.4858	-0.397
Mof_O 	O 	0.6485	0.6929	0.7578	-0.466
Mof_O 	O 	0.5519	0.6997	0.8173	-0.384
Mof_O 	O 	0.7925	0.6724	0.8226	-0.425
Mof_O 	O 	0.8296	0.6868	0.9257	-0.381
Mof_O 	O 	0.7175	0.0289	0.8913	-0.412
Mof_O 	O 	0.714	0.1358	0.811	-0.278
Mof_C 	C 	0.5846	0.3492	0.5731	-0.094
Mof_C 	C 	0.5661	0.435	0.6154	0.332
Mof_C 	C 	0.6313	0.3924	0.4727	-0.091
Mof_C 	C 	0.6519	0.5038	0.4771	0.331
Mof_C 	C 	0.5125	0.2849	0.4736	-0.073
Mof_C 	C 	0.5533	0.1814	0.479	0.355
Mof_C 	C 	0.6467	0.8325	0.8284	-0.077
Mof_C 	C 	0.6132	0.735	0.8001	0.317
Mof_C 	C 	0.7893	0.8369	0.8684	-0.03
Mof_C 	C 	0.8048	0.7239	0.8742	0.364
Mof_C 	C 	0.7318	0.9621	0.7886	-0.008
Mof_C 	C 	0.7199	0.0486	0.8354	0.305
Mof_Ba	Ba	0.3706	0.9602	0.0121	1.698
Mof_N 	N 	0.0604	0.8702	0.0054	-0.214
Mof_N 	N 	0.2274	0.3568	0.3123	-0.173
Mof_O 	O 	0.0276	0.0102	0.0888	-0.55
Mof_O 	O 	0.0885	0.9305	0.1731	-0.404
Mof_O 	O 	0.0966	0.0638	0.9893	-0.435
Mof_O 	O 	0.2175	0.0346	0.9666	-0.375
Mof_O 	O 	0.0076	0.6066	0.9733	-0.61
Mof_O 	O 	0.127	0.6747	0.9858	-0.372
Mof_O 	O 	0.1485	0.1929	0.2578	-0.47
Mof_O 	O 	0.0519	0.1997	0.3173	-0.408
Mof_O 	O 	0.2925	0.1724	0.3226	-0.444
Mof_O 	O 	0.3296	0.1868	0.4257	-0.427
Mof_O 	O 	0.2175	0.5289	0.3913	-0.404
Mof_O 	O 	0.214	0.6358	0.311	-0.296
Mof_C 	C 	0.0846	0.8492	0.0731	-0.136
Mof_C 	C 	0.0661	0.935	0.1154	0.381
Mof_C 	C 	0.1313	0.8924	0.9727	-0.016
Mof_C 	C 	0.1519	0.0038	0.9771	0.278
Mof_C 	C 	0.0125	0.7849	0.9736	-0.102
Mof_C 	C 	0.0533	0.6814	0.979	0.365
Mof_C 	C 	0.1467	0.3325	0.3284	-0.107
Mof_C 	C 	0.1132	0.235	0.3001	0.316
Mof_C 	C 	0.2893	0.3369	0.3684	-0.065
Mof_C 	C 	0.3048	0.2239	0.3742	0.367
Mof_C 	C 	0.2318	0.4621	0.2886	-0.073
Mof_C 	C 	0.2199	0.5486	0.3354	0.341
Mof_Ba	Ba	0.8706	0.5398	0.0121	1.777
Mof_N 	N 	0.5604	0.6298	0.0054	-0.217
Mof_N 	N 	0.7274	0.1432	0.3123	-0.173
Mof_O 	O 	0.5276	0.4898	0.0888	-0.464
Mof_O 	O 	0.5885	0.5695	0.1731	-0.42
Mof_O 	O 	0.5966	0.4362	0.9893	-0.391
Mof_O 	O 	0.7175	0.4654	0.9666	-0.361
Mof_O 	O 	0.5076	0.8934	0.9733	-0.514
Mof_O 	O 	0.627	0.8253	0.9858	-0.351
Mof_O 	O 	0.6485	0.3071	0.2578	-0.468
Mof_O 	O 	0.5519	0.3003	0.3173	-0.388
Mof_O 	O 	0.7925	0.3276	0.3226	-0.43
Mof_O 	O 	0.8296	0.3132	0.4257	-0.413
Mof_O 	O 	0.7175	0.9711	0.3913	-0.408
Mof_O 	O 	0.714	0.8642	0.311	-0.283
Mof_C 	C 	0.5846	0.6508	0.0731	-0.107
Mof_C 	C 	0.5661	0.565	0.1154	0.333
Mof_C 	C 	0.6313	0.6076	0.9727	-0.045
Mof_C 	C 	0.6519	0.4962	0.9771	0.322
Mof_C 	C 	0.5125	0.7151	0.9736	-0.022
Mof_C 	C 	0.5533	0.8186	0.979	0.343
Mof_C 	C 	0.6467	0.1675	0.3284	-0.102
Mof_C 	C 	0.6132	0.265	0.3001	0.322
Mof_C 	C 	0.7893	0.1631	0.3684	-0.061
Mof_C 	C 	0.8048	0.2761	0.3742	0.379
Mof_C 	C 	0.7318	0.0379	0.2886	-0.091
Mof_C 	C 	0.7199	0.9514	0.3354	0.385
Mof_Ba	Ba	0.3706	0.0398	0.5121	1.663
Mof_N 	N 	0.0604	0.1298	0.5054	-0.176
Mof_N 	N 	0.2274	0.6432	0.8123	-0.174
Mof_O 	O 	0.0276	0.9898	0.5888	-0.456
Mof_O 	O 	0.0885	0.0695	0.6731	-0.433
Mof_O 	O 	0.0966	0.9362	0.4893	-0.457
Mof_O 	O 	0.2175	0.9654	0.4666	-0.376
Mof_O 	O 	0.0076	0.3934	0.4733	-0.637
Mof_O 	O 	0.127	0.3253	0.4858	-0.388
Mof_O 	O 	0.1485	0.8071	0.7578	-0.471
Mof_O 	O 	0.0519	0.8003	0.8173	-0.415
Mof_O 	O 	0.2925	0.8276	0.8226	-0.432
Mof_O 	O 	0.3296	0.8132	0.9257	-0.402
Mof_O 	O 	0.2175	0.4711	0.8913	-0.405
Mof_O 	O 	0.214	0.3642	0.811	-0.302
Mof_C 	C 	0.0846	0.1508	0.5731	-0.11
Mof_C 	C 	0.0661	0.065	0.6154	0.278
Mof_C 	C 	0.1313	0.1076	0.4727	-0.131
Mof_C 	C 	0.1519	0.9962	0.4771	0.381
Mof_C 	C 	0.0125	0.2151	0.4736	-0.157
Mof_C 	C 	0.0533	0.3186	0.479	0.378
Mof_C 	C 	0.1467	0.6675	0.8284	-0.109
Mof_C 	C 	0.1132	0.765	0.8001	0.319
Mof_C 	C 	0.2893	0.6631	0.8684	-0.056
Mof_C 	C 	0.3048	0.7761	0.8742	0.362
Mof_C 	C 	0.2318	0.5379	0.7886	-0.073
Mof_C 	C 	0.2199	0.4514	0.8354	0.343
Mof_Ba	Ba	0.1294	0.5398	0.4879	1.598
Mof_N 	N 	0.4396	0.6298	0.4946	-0.173
Mof_N 	N 	0.2726	0.1432	0.1877	-0.168
Mof_O 	O 	0.4724	0.4898	0.4112	-0.457
Mof_O 	O 	0.4115	0.5695	0.3269	-0.418
Mof_O 	O 	0.4034	0.4362	0.5107	-0.423
Mof_O 	O 	0.2825	0.4654	0.5334	-0.379
Mof_O 	O 	0.4924	0.8934	0.5267	-0.541
Mof_O 	O 	0.373	0.8253	0.5142	-0.369
Mof_O 	O 	0.3515	0.3071	0.2422	-0.468
Mof_O 	O 	0.4481	0.3003	0.1827	-0.388
Mof_O 	O 	0.2075	0.3276	0.1774	-0.458
Mof_O 	O 	0.1704	0.3132	0.0743	-0.477
Mof_O 	O 	0.2825	0.9711	0.1087	-0.408
Mof_O 	O 	0.286	0.8642	0.189	-0.293
Mof_C 	C 	0.4154	0.6508	0.4269	-0.089
Mof_C 	C 	0.4339	0.565	0.3846	0.333
Mof_C 	C 	0.3687	0.6076	0.5273	-0.085
Mof_C 	C 	0.3481	0.4962	0.5229	0.327
Mof_C 	C 	0.4875	0.7151	0.5264	-0.073
Mof_C 	C 	0.4467	0.8186	0.521	0.355
Mof_C 	C 	0.3533	0.1675	0.1716	-0.099
Mof_C 	C 	0.3868	0.265	0.1999	0.322
Mof_C 	C 	0.2107	0.1631	0.1316	-0.096
Mof_C 	C 	0.1952	0.2761	0.1258	0.374
Mof_C 	C 	0.2682	0.0379	0.2114	-0.103
Mof_C 	C 	0.2801	0.9514	0.1646	0.388
Mof_Ba	Ba	0.6294	0.0398	0.9879	1.785
Mof_N 	N 	0.9396	0.1298	0.9946	-0.116
Mof_N 	N 	0.7726	0.6432	0.6877	-0.178
Mof_O 	O 	0.9724	0.9898	0.9112	-0.297
Mof_O 	O 	0.9115	0.0695	0.8269	-0.353
Mof_O 	O 	0.9034	0.9362	0.0107	-0.373
Mof_O 	O 	0.7825	0.9654	0.0334	-0.391
Mof_O 	O 	0.9924	0.3934	0.0267	-0.497
Mof_O 	O 	0.873	0.3253	0.0142	-0.393
Mof_O 	O 	0.8515	0.8071	0.7422	-0.427
Mof_O 	O 	0.9481	0.8003	0.6827	-0.295
Mof_O 	O 	0.7075	0.8276	0.6774	-0.436
Mof_O 	O 	0.6704	0.8132	0.5743	-0.432
Mof_O 	O 	0.7825	0.4711	0.6087	-0.416
Mof_O 	O 	0.786	0.3642	0.689	-0.273
Mof_C 	C 	0.9154	0.1508	0.9269	-0.031
Mof_C 	C 	0.9339	0.065	0.8846	0.269
Mof_C 	C 	0.8687	0.1076	0.0273	-0.128
Mof_C 	C 	0.8481	0.9962	0.0229	0.367
Mof_C 	C 	0.9875	0.2151	0.0264	-0.023
Mof_C 	C 	0.9467	0.3186	0.021	0.341
Mof_C 	C 	0.8533	0.6675	0.6716	-0.064
Mof_C 	C 	0.8868	0.765	0.6999	0.311
Mof_C 	C 	0.7107	0.6631	0.6316	-0.07
Mof_C 	C 	0.6952	0.7761	0.6258	0.372
Mof_C 	C 	0.7682	0.5379	0.7114	-0.052
Mof_C 	C 	0.7801	0.4514	0.6646	0.354
Mof_Ba	Ba	0.5	0.5303	0.75	1.7
Mof_Ba	Ba	1.35171e-33	0.0303	0.25	1.315
Mof_Ba	Ba	0.5	0.4697	0.25	1.7
Mof_Ba	Ba	4.05513e-33	0.9697	0.75	1.477
Mof_Co	Co	0.5	0.5	-0	1.201
Mof_Co	Co	2.70342e-33	0	0.5	1.137
Mof_Co	Co	0.5	0.5	0.5	1.226
Mof_Co	Co	-0	0	-0	1.118
Mof_Co	Co	0.25	0.75	0.75	1.218
Mof_Co	Co	0.75	0.75	0.75	1.219
Mof_Co	Co	0.75	0.25	0.25	1.22
Mof_Co	Co	0.25	0.25	0.25	1.219
_end
