# CIF file generated by openbabel 3.1.0, see https://openbabel.org
data_I
_chemical_name_common 'QALNEW_clean'
_cell_length_a 9.4891
_cell_length_b 9.5461
_cell_length_c 10.9842
_cell_angle_alpha 90
_cell_angle_beta 90
_cell_angle_gamma 90
_space_group_name_H-M_alt 'P 1'
_space_group_name_Hall 'P 1'
loop_
    _symmetry_equiv_pos_as_xyz
    x,y,z
loop_
    _atom_site_label
    _atom_site_type_symbol
    _atom_site_fract_x
    _atom_site_fract_y
    _atom_site_fract_z
    _atom_site_occupancy
    Eu1      Eu       0.18189    0.19323    0.18458    1.000
    Eu2      Eu       0.31811    0.80677    0.68458    1.000
    Eu3      Eu       0.81811    0.69323    0.31542    1.000
    Eu4      Eu       0.68189    0.30677    0.81542    1.000
    H1       H        0.72350    0.18790    0.13750    1.000
    H2       H        0.82430    0.34380    0.03710    1.000
    H3       H        0.67680    0.28590    0.31810    1.000
    H4       H        0.58010    0.45590    0.31780    1.000
    H5       H        0.77650    0.81210    0.63750    1.000
    H6       H        0.67570    0.65620    0.53710    1.000
    H7       H        0.82320    0.71410    0.81810    1.000
    H8       H        0.91990    0.54410    0.81780    1.000
    H9       H        0.27650    0.68790    0.36250    1.000
    H10      H        0.17570    0.84380    0.46290    1.000
    H11      H        0.32320    0.78590    0.18190    1.000
    H12      H        0.41990    0.95590    0.18220    1.000
    H13      H        0.22350    0.31210    0.86250    1.000
    H14      H        0.32430    0.15620    0.96290    1.000
    H15      H        0.17680    0.21410    0.68190    1.000
    H16      H        0.08010    0.04410    0.68220    1.000
    C1       C        0.53840    0.26090    0.10310    1.000
    C2       C        0.69660    0.27610    0.13640    1.000
    C3       C        0.71790    0.33700    0.26210    1.000
    C4       C        0.87610    0.33850    0.29280    1.000
    C5       C        0.96160    0.73910    0.60310    1.000
    C6       C        0.80340    0.72390    0.63640    1.000
    C7       C        0.78210    0.66300    0.76210    1.000
    C8       C        0.62390    0.66150    0.79280    1.000
    C9       C        0.46160    0.76090    0.39690    1.000
    C10      C        0.30340    0.77610    0.36360    1.000
    C11      C        0.28210    0.83700    0.23790    1.000
    C12      C        0.12390    0.83850    0.20720    1.000
    C13      C        0.03840    0.23910    0.89690    1.000
    C14      C        0.19660    0.22390    0.86360    1.000
    C15      C        0.21790    0.16300    0.73790    1.000
    C16      C        0.37610    0.16150    0.70720    1.000
    O1       O        0.45200    0.24250    0.18660    1.000
    O2       O        0.51080    0.26140    0.99120    1.000
    O3       O        0.76540    0.35570    0.04450    1.000
    O4       O        0.66020    0.47360    0.27220    1.000
    O5       O        0.94010    0.22390    0.28520    1.000
    O6       O        0.93040    0.45240    0.32710    1.000
    O7       O        0.04800    0.75750    0.68660    1.000
    O8       O        0.98920    0.73860    0.49120    1.000
    O9       O        0.73460    0.64430    0.54450    1.000
    O10      O        0.83980    0.52640    0.77220    1.000
    O11      O        0.55990    0.77610    0.78520    1.000
    O12      O        0.56960    0.54760    0.82710    1.000
    O13      O        0.54800    0.74250    0.31340    1.000
    O14      O        0.48920    0.76140    0.50880    1.000
    O15      O        0.23460    0.85570    0.45550    1.000
    O16      O        0.33980    0.97360    0.22780    1.000
    O17      O        0.05990    0.72390    0.21480    1.000
    O18      O        0.06960    0.95240    0.17290    1.000
    O19      O        0.95200    0.25750    0.81340    1.000
    O20      O        0.01080    0.23860    0.00880    1.000
    O21      O        0.26540    0.14430    0.95550    1.000
    O22      O        0.16020    0.02640    0.72780    1.000
    O23      O        0.44010    0.27610    0.71480    1.000
    O24      O        0.43040    0.04760    0.67290    1.000
