data_functionalizedCrystal
_audit_creation_method	'EQeq! by Chris Wilmer'
_symmetry_space_group_name_H-M	'P1'
_symmetry_Int_Tables_number	1
_symmetry_cell_setting	triclinic
loop_
_symmetry_equiv_pos_as_xyz
  x,y,z
_cell_length_a	17.9465
_cell_length_b	17.9465
_cell_length_c	17.9465
_cell_angle_alpha	60
_cell_angle_beta	60
_cell_angle_gamma	60
loop_
_atom_site_label
_atom_site_type_symbol
_atom_site_fract_x
_atom_site_fract_y
_atom_site_fract_z
_atom_site_charge
Mof_Ni	Ni	0.82873	0.05709	0.05709	1.012
Mof_Ni	Ni	0.05709	0.82873	0.05709	1.012
Mof_Ni	Ni	0.05709	0.05709	0.82873	1.012
Mof_Ni	Ni	0.05709	0.05709	0.05709	1.01
Mof_Ni	Ni	0.94291	0.17127	0.94291	1.013
Mof_Ni	Ni	0.17127	0.94291	0.94291	1.013
Mof_Ni	Ni	0.94291	0.94291	0.17127	1.013
Mof_Ni	Ni	0.94291	0.94291	0.94291	1.009
Mof_H 	H 	0.87564	0.12436	0.12436	0.194
Mof_H 	H 	0.12436	0.87564	0.87564	0.194
Mof_H 	H 	0.87564	0.12436	0.87564	0.194
Mof_H 	H 	0.12436	0.87564	0.12436	0.194
Mof_H 	H 	0.87564	0.87564	0.12436	0.194
Mof_H 	H 	0.12436	0.12436	0.87564	0.194
Mof_H 	H 	0.51465	0.64505	0.92015	0.047
Mof_H 	H 	0.39251	0.76539	0.92105	0.008
Mof_H 	H 	0.64505	0.51465	0.92015	0.047
Mof_H 	H 	0.76539	0.39251	0.92105	0.008
Mof_H 	H 	0.92015	0.92015	0.51465	0.047
Mof_H 	H 	0.92105	0.92105	0.39251	0.007
Mof_H 	H 	0.92015	0.92015	0.64505	0.047
Mof_H 	H 	0.92105	0.92105	0.76539	0.009
Mof_H 	H 	0.51465	0.92015	0.92015	0.047
Mof_H 	H 	0.39251	0.92105	0.92105	0.007
Mof_H 	H 	0.64505	0.92015	0.92015	0.047
Mof_H 	H 	0.76539	0.92105	0.92105	0.009
Mof_H 	H 	0.92015	0.51465	0.64505	0.047
Mof_H 	H 	0.92105	0.39251	0.76539	0.008
Mof_H 	H 	0.92015	0.64505	0.51465	0.047
Mof_H 	H 	0.92105	0.76539	0.39251	0.008
Mof_H 	H 	0.51465	0.92015	0.64505	0.047
Mof_H 	H 	0.39251	0.92105	0.76539	0.008
Mof_H 	H 	0.64505	0.92015	0.51465	0.047
Mof_H 	H 	0.76539	0.92105	0.39251	0.008
Mof_H 	H 	0.92015	0.64505	0.92015	0.047
Mof_H 	H 	0.92105	0.76539	0.92105	0.009
Mof_H 	H 	0.92015	0.51465	0.92015	0.047
Mof_H 	H 	0.92105	0.39251	0.92105	0.007
Mof_H 	H 	0.35495	0.48535	0.07985	0.047
Mof_H 	H 	0.23461	0.60749	0.07895	0.008
Mof_H 	H 	0.48535	0.35495	0.07985	0.047
Mof_H 	H 	0.60749	0.23461	0.07895	0.008
Mof_H 	H 	0.07985	0.07985	0.48535	0.047
Mof_H 	H 	0.07895	0.07895	0.60749	0.008
Mof_H 	H 	0.07985	0.07985	0.35495	0.047
Mof_H 	H 	0.07895	0.07895	0.23461	0.007
Mof_H 	H 	0.07985	0.48535	0.07985	0.047
Mof_H 	H 	0.07895	0.60749	0.07895	0.008
Mof_H 	H 	0.07985	0.35495	0.07985	0.047
Mof_H 	H 	0.07895	0.23461	0.07895	0.007
Mof_H 	H 	0.48535	0.07985	0.35495	0.047
Mof_H 	H 	0.60749	0.07895	0.23461	0.008
Mof_H 	H 	0.35495	0.07985	0.48535	0.047
Mof_H 	H 	0.23461	0.07895	0.60749	0.008
Mof_H 	H 	0.07985	0.48535	0.35495	0.047
Mof_H 	H 	0.07895	0.60749	0.23461	0.008
Mof_H 	H 	0.07985	0.35495	0.48535	0.047
Mof_H 	H 	0.07895	0.23461	0.60749	0.008
Mof_H 	H 	0.35495	0.07985	0.07985	0.047
Mof_H 	H 	0.23461	0.07895	0.07895	0.007
Mof_H 	H 	0.48535	0.07985	0.07985	0.047
Mof_H 	H 	0.60749	0.07895	0.07895	0.008
Mof_C 	C 	0.42254	0.57746	-0	0.035
Mof_C 	C 	0.34176	0.65824	-0	-0.043
Mof_C 	C 	0.57746	0.42254	-0	0.035
Mof_C 	C 	0.65824	0.34176	-0	-0.043
Mof_C 	C 	-1.39077e-17	-2.78154e-17	0.42254	0.036
Mof_C 	C 	-2.78154e-17	0	0.34176	-0.046
Mof_C 	C 	-6.95386e-17	0	0.57746	0.035
Mof_C 	C 	-4.17232e-17	-2.78154e-17	0.65824	-0.038
Mof_C 	C 	0.42254	0	-0	0.036
Mof_C 	C 	0.34176	0	-0	-0.046
Mof_C 	C 	0.57746	0	-0	0.035
Mof_C 	C 	0.65824	0	-0	-0.038
Mof_C 	C 	-4.17232e-17	0.42254	0.57746	0.035
Mof_C 	C 	-9.7354e-17	0.34176	0.65824	-0.043
Mof_C 	C 	-6.95386e-17	0.57746	0.42254	0.035
Mof_C 	C 	-5.56309e-17	0.65824	0.34176	-0.043
Mof_C 	C 	0.42254	0	0.57746	0.035
Mof_C 	C 	0.34176	-2.78154e-17	0.65824	-0.043
Mof_C 	C 	0.57746	-2.78154e-17	0.42254	0.035
Mof_C 	C 	0.65824	0	0.34176	-0.043
Mof_C 	C 	-5.56309e-17	0.57746	-0	0.035
Mof_C 	C 	-0	0.65824	-0	-0.038
Mof_C 	C 	-0	0.42254	-0	0.036
Mof_C 	C 	-0	0.34176	-0	-0.046
Mof_C 	C 	0.50871	0.58615	0.95257	-0.061
Mof_C 	C 	0.34055	0.74615	0.95665	0.03
Mof_C 	C 	0.58615	0.50871	0.95257	-0.061
Mof_C 	C 	0.74615	0.34055	0.95665	0.03
Mof_C 	C 	0.95257	0.95257	0.50871	-0.061
Mof_C 	C 	0.95665	0.95665	0.34055	0.033
Mof_C 	C 	0.95257	0.95257	0.58615	-0.063
Mof_C 	C 	0.95665	0.95665	0.74615	0.024
Mof_C 	C 	0.50871	0.95257	0.95257	-0.061
Mof_C 	C 	0.34055	0.95665	0.95665	0.033
Mof_C 	C 	0.58615	0.95257	0.95257	-0.063
Mof_C 	C 	0.74615	0.95665	0.95665	0.024
Mof_C 	C 	0.95257	0.50871	0.58615	-0.061
Mof_C 	C 	0.95665	0.34055	0.74615	0.03
Mof_C 	C 	0.95257	0.58615	0.50871	-0.061
Mof_C 	C 	0.95665	0.74615	0.34055	0.03
Mof_C 	C 	0.50871	0.95257	0.58615	-0.061
Mof_C 	C 	0.34055	0.95665	0.74615	0.03
Mof_C 	C 	0.58615	0.95257	0.50871	-0.061
Mof_C 	C 	0.74615	0.95665	0.34055	0.03
Mof_C 	C 	0.95257	0.58615	0.95257	-0.063
Mof_C 	C 	0.95665	0.74615	0.95665	0.024
Mof_C 	C 	0.95257	0.50871	0.95257	-0.061
Mof_C 	C 	0.95665	0.34055	0.95665	0.033
Mof_C 	C 	0.41385	0.49129	0.04743	-0.06
Mof_C 	C 	0.25385	0.65945	0.04335	0.031
Mof_C 	C 	0.49129	0.41385	0.04743	-0.06
Mof_C 	C 	0.65945	0.25385	0.04335	0.031
Mof_C 	C 	0.04743	0.04743	0.49129	-0.06
Mof_C 	C 	0.04335	0.04335	0.65945	0.03
Mof_C 	C 	0.04743	0.04743	0.41385	-0.061
Mof_C 	C 	0.04335	0.04335	0.25385	0.032
Mof_C 	C 	0.04743	0.49129	0.04743	-0.06
Mof_C 	C 	0.04335	0.65945	0.04335	0.03
Mof_C 	C 	0.04743	0.41385	0.04743	-0.061
Mof_C 	C 	0.04335	0.25385	0.04335	0.032
Mof_C 	C 	0.49129	0.04743	0.41385	-0.06
Mof_C 	C 	0.65945	0.04335	0.25385	0.031
Mof_C 	C 	0.41385	0.04743	0.49129	-0.06
Mof_C 	C 	0.25385	0.04335	0.65945	0.031
Mof_C 	C 	0.04743	0.49129	0.41385	-0.06
Mof_C 	C 	0.04335	0.65945	0.25385	0.031
Mof_C 	C 	0.04743	0.41385	0.49129	-0.06
Mof_C 	C 	0.04335	0.25385	0.65945	0.031
Mof_C 	C 	0.41385	0.04743	0.04743	-0.061
Mof_C 	C 	0.25385	0.04335	0.04335	0.032
Mof_C 	C 	0.49129	0.04743	0.04743	-0.06
Mof_C 	C 	0.65945	0.04335	0.04335	0.03
Mof_N 	N 	0.25193	0.80165	0.97321	-0.208
Mof_N 	N 	0.80165	0.25193	0.97321	-0.208
Mof_N 	N 	0.97321	0.97321	0.25193	-0.208
Mof_N 	N 	0.97321	0.97321	0.80165	-0.21
Mof_N 	N 	0.25193	0.97321	0.97321	-0.208
Mof_N 	N 	0.80165	0.97321	0.97321	-0.21
Mof_N 	N 	0.97321	0.25193	0.80165	-0.208
Mof_N 	N 	0.97321	0.80165	0.25193	-0.208
Mof_N 	N 	0.25193	0.97321	0.80165	-0.208
Mof_N 	N 	0.80165	0.97321	0.25193	-0.208
Mof_N 	N 	0.97321	0.80165	0.97321	-0.21
Mof_N 	N 	0.97321	0.25193	0.97321	-0.208
Mof_N 	N 	0.19835	0.74807	0.02679	-0.207
Mof_N 	N 	0.74807	0.19835	0.02679	-0.207
Mof_N 	N 	0.02679	0.02679	0.74807	-0.205
Mof_N 	N 	0.02679	0.02679	0.19835	-0.209
Mof_N 	N 	0.02679	0.74807	0.02679	-0.205
Mof_N 	N 	0.02679	0.19835	0.02679	-0.209
Mof_N 	N 	0.74807	0.02679	0.19835	-0.207
Mof_N 	N 	0.19835	0.02679	0.74807	-0.207
Mof_N 	N 	0.02679	0.74807	0.19835	-0.207
Mof_N 	N 	0.02679	0.19835	0.74807	-0.207
Mof_N 	N 	0.19835	0.02679	0.02679	-0.209
Mof_N 	N 	0.74807	0.02679	0.02679	-0.205
Mof_O 	O 	0.91307	0.08693	0.08693	-0.794
Mof_O 	O 	0.08693	0.91307	0.91307	-0.794
Mof_O 	O 	0.91307	0.08693	0.91307	-0.794
Mof_O 	O 	0.08693	0.91307	0.08693	-0.794
Mof_O 	O 	0.91307	0.91307	0.08693	-0.794
Mof_O 	O 	0.08693	0.08693	0.91307	-0.794
_end
