data_functionalizedCrystal
_audit_creation_method	'EQeq! by Chris Wilmer'
_symmetry_space_group_name_H-M	'P1'
_symmetry_Int_Tables_number	1
_symmetry_cell_setting	triclinic
loop_
_symmetry_equiv_pos_as_xyz
  x,y,z
_cell_length_a	14.825
_cell_length_b	16.6722
_cell_length_c	16.6722
_cell_angle_alpha	118.835
_cell_angle_beta	96.3173
_cell_angle_gamma	96.3173
loop_
_atom_site_label
_atom_site_type_symbol
_atom_site_fract_x
_atom_site_fract_y
_atom_site_fract_z
_atom_site_charge
Mof_Co	Co	0.00939	0.01089	0.20095	1.196
Mof_Co	Co	0.99061	0.79905	0.98911	1.205
Mof_Co	Co	-2.01605e-18	0.80203	0.19797	1.195
Mof_H 	H 	0.722	0.1546	0.6952	0.03
Mof_H 	H 	0.6471	0.1465	0.6155	0.024
Mof_H 	H 	0.4553	0.0385	0.6631	0.015
Mof_H 	H 	0.5111	0.9896	0.5828	-0.006
Mof_H 	H 	0.5616	0.2332	0.7384	0.048
Mof_H 	H 	0.63	0.2318	0.8164	0.055
Mof_H 	H 	0.6292	0.9884	0.6998	-0.009
Mof_H 	H 	0.5652	0.0356	0.7724	0.017
Mof_H 	H 	0.3581	0.9423	0.5141	0.159
Mof_H 	H 	0.7035	0.9317	0.7657	0.222
Mof_H 	H 	0.7723	0.1784	0.9798	0.231
Mof_H 	H 	0.7725	0.144	0.5462	0.195
Mof_H 	H 	0.8457	0.106	0.4244	-0.077
Mof_H 	H 	0.8003	0.8424	0.3586	-0.063
Mof_H 	H 	0.7107	0.8739	0.4713	0.19
Mof_H 	H 	0.9986	0.8354	0.397	0.012
Mof_H 	H 	0.9963	0.7571	0.4767	0.08
Mof_H 	H 	0.2627	0.139	0.4188	-0.023
Mof_H 	H 	0.3984	0.185	0.5214	0.166
Mof_H 	H 	0.2169	0.9011	0.4183	-0.021
Mof_H 	H 	0.9887	0.8318	0.823	0.014
Mof_H 	H 	0.9923	0.7541	0.6663	0.085
Mof_H 	H 	0.9863	0.5182	0.675	0.091
Mof_H 	H 	0.9803	0.5992	0.8282	0.013
Mof_H 	H 	0.8416	0.122	0.0636	-0.081
Mof_H 	H 	0.7987	0.8773	0.8433	-0.076
Mof_H 	H 	0.278	0.3048	0.8454	0.027
Mof_H 	H 	0.3529	0.3845	0.8535	0.023
Mof_H 	H 	0.5447	0.3369	0.9615	0.016
Mof_H 	H 	0.4889	0.4172	0.0104	-0.005
Mof_H 	H 	0.4384	0.2616	0.7668	0.048
Mof_H 	H 	0.37	0.1836	0.7682	0.054
Mof_H 	H 	0.3708	0.3002	0.0116	-0.008
Mof_H 	H 	0.4348	0.2276	0.9644	0.018
Mof_H 	H 	0.6419	0.4859	0.0577	0.159
Mof_H 	H 	0.2965	0.2343	0.0683	0.22
Mof_H 	H 	0.2277	0.0202	0.8216	0.226
Mof_H 	H 	0.2275	0.4538	0.856	0.195
Mof_H 	H 	0.1543	0.5756	0.894	-0.083
Mof_H 	H 	0.1997	0.6414	0.1576	-0.065
Mof_H 	H 	0.2893	0.5287	0.1261	0.191
Mof_H 	H 	0.0014	0.603	0.1646	0.009
Mof_H 	H 	0.0037	0.5233	0.2429	0.079
Mof_H 	H 	0.7373	0.5812	0.861	-0.023
Mof_H 	H 	0.6016	0.4786	0.815	0.166
Mof_H 	H 	0.7831	0.5817	0.0989	-0.018
Mof_H 	H 	0.0113	0.177	0.1682	0.008
Mof_H 	H 	0.0077	0.3337	0.2459	0.083
Mof_H 	H 	0.0137	0.325	0.4818	0.086
Mof_H 	H 	0.0197	0.1718	0.4008	0.008
Mof_H 	H 	0.1584	0.9364	0.878	-0.083
Mof_H 	H 	0.2013	0.1567	0.1227	-0.074
Mof_C 	C 	0.5902	0.1025	0.6985	-0.041
Mof_C 	C 	0.6662	0.1164	0.65	0.069
Mof_C 	C 	0.502	0.0494	0.6312	0.112
Mof_C 	C 	0.5746	0.198	0.7692	0.011
Mof_C 	C 	0.6157	0.0476	0.745	0.113
Mof_C 	C 	0.3885	0.0693	0.5307	0.375
Mof_C 	C 	0.3374	0.9836	0.497	-0.373
Mof_C 	C 	0.7362	0.061	0.8624	0.542
Mof_C 	C 	0.7376	0.973	0.825	-0.544
Mof_C 	C 	0.775	0.1153	0.9509	-0.514
Mof_C 	C 	0.7317	0.014	0.521	0.425
Mof_C 	C 	0.775	0.0819	0.5065	-0.453
Mof_C 	C 	0.8206	0.0597	0.4359	0.373
Mof_C 	C 	0.8309	0.9695	0.3803	-0.369
Mof_C 	C 	0.7919	0.9032	0.3954	0.323
Mof_C 	C 	0.7397	0.9216	0.4636	-0.432
Mof_C 	C 	0.9989	0.7717	0.3655	0.085
Mof_C 	C 	0.9982	0.7252	0.4134	-0.11
Mof_C 	C 	0.9963	0.5777	0.5541	0.11
Mof_C 	C 	0.1392	0.9806	0.3332	0.394
Mof_C 	C 	0.2263	0.0131	0.4047	-0.2
Mof_C 	C 	0.2813	0.099	0.4388	0.212
Mof_C 	C 	0.3619	0.1271	0.5003	-0.347
Mof_C 	C 	0.2545	0.9579	0.4371	0.19
Mof_C 	C 	0.9883	0.7681	0.7927	0.083
Mof_C 	C 	0.9911	0.7218	0.6988	-0.126
Mof_C 	C 	0.9922	0.6279	0.6533	0.063
Mof_C 	C 	0.9873	0.582	0.7038	-0.133
Mof_C 	C 	0.9837	0.6312	0.7954	0.092
Mof_C 	C 	0.8808	0.9546	0.0146	0.415
Mof_C 	C 	0.8837	0.9436	0.3024	0.443
Mof_C 	C 	0.8293	0.9932	0.9622	-0.36
Mof_C 	C 	0.8184	0.0819	0.0005	0.377
Mof_C 	C 	0.7909	0.9391	0.8741	0.367
Mof_C 	C 	0.4098	0.3015	0.8975	-0.041
Mof_C 	C 	0.3338	0.35	0.8836	0.071
Mof_C 	C 	0.498	0.3688	0.9506	0.11
Mof_C 	C 	0.4254	0.2308	0.802	0.011
Mof_C 	C 	0.3843	0.255	0.9524	0.112
Mof_C 	C 	0.6115	0.4693	0.9307	0.373
Mof_C 	C 	0.6626	0.503	0.0164	-0.371
Mof_C 	C 	0.2638	0.1376	0.939	0.534
Mof_C 	C 	0.2624	0.175	0.027	-0.538
Mof_C 	C 	0.225	0.0491	0.8847	-0.506
Mof_C 	C 	0.2683	0.479	0.986	0.427
Mof_C 	C 	0.225	0.4935	0.9181	-0.458
Mof_C 	C 	0.1794	0.5641	0.9403	0.377
Mof_C 	C 	0.1691	0.6197	0.0305	-0.376
Mof_C 	C 	0.2081	0.6046	0.0968	0.327
Mof_C 	C 	0.2603	0.5364	0.0784	-0.436
Mof_C 	C 	0.0011	0.6345	0.2283	0.072
Mof_C 	C 	0.0018	0.5866	0.2748	-0.123
Mof_C 	C 	0.0037	0.4459	0.4223	0.095
Mof_C 	C 	0.8608	0.6668	0.0194	0.396
Mof_C 	C 	0.7737	0.5953	0.9869	-0.201
Mof_C 	C 	0.7187	0.5612	0.901	0.213
Mof_C 	C 	0.6381	0.4997	0.8729	-0.346
Mof_C 	C 	0.7455	0.5629	0.0421	0.191
Mof_C 	C 	0.0117	0.2073	0.2319	0.08
Mof_C 	C 	0.0089	0.3012	0.2782	-0.13
Mof_C 	C 	0.0078	0.3467	0.3721	0.063
Mof_C 	C 	0.0127	0.2962	0.418	-0.137
Mof_C 	C 	0.0163	0.2046	0.3688	0.09
Mof_C 	C 	0.1192	0.9854	0.0454	0.41
Mof_C 	C 	0.1163	0.6976	0.0564	0.445
Mof_C 	C 	0.1707	0.0378	0.0068	-0.354
Mof_C 	C 	0.1816	0.9995	0.9181	0.365
Mof_C 	C 	0.2091	0.1259	0.0609	0.359
Mof_C 	C 	-1.20963e-17	0.6309	0.3691	0.043
Mof_C 	C 	8.0642e-18	0.5803	0.4197	0.09
Mof_N 	N 	0.9967	0.6276	0.5106	-0.133
Mof_N 	N 	0.9849	0.7234	0.842	-0.209
Mof_N 	N 	0.0033	0.4894	0.3724	-0.139
Mof_N 	N 	0.0151	0.158	0.2766	-0.213
Mof_N 	N 	-2.01605e-18	0.728	0.272	-0.213
Mof_N 	N 	-0	0.4873	0.5127	-0.146
Mof_O 	O 	0.4731	0.1024	0.5914	-0.278
Mof_O 	O 	0.6962	0.1032	0.8162	-0.307
Mof_O 	O 	0.6815	0.0263	0.5891	-0.276
Mof_O 	O 	0.0932	0.90522	0.31298	-0.441
Mof_O 	O 	0.1205	0.03187	0.30133	-0.406
Mof_O 	O 	0.9159	0.00653	0.28567	-0.398
Mof_O 	O 	0.8931	0.8612	0.2594	-0.436
Mof_O 	O 	0.9042	0.0068	0.1	-0.393
Mof_O 	O 	0.8972	0.8758	0.9684	-0.41
Mof_O 	O 	0.5269	0.4086	0.8976	-0.278
Mof_O 	O 	0.3038	0.1838	0.8968	-0.306
Mof_O 	O 	0.3185	0.4109	0.9737	-0.277
Mof_O 	O 	0.9068	0.68702	0.09478	-0.431
Mof_O 	O 	0.8795	0.69867	0.96813	-0.403
Mof_O 	O 	0.0841	0.71433	0.99347	-0.411
Mof_O 	O 	0.1069	0.7406	0.1388	-0.443
Mof_O 	O 	0.0958	0.9	0.9932	-0.403
Mof_O 	O 	0.1028	0.0316	0.1242	-0.412
Mof_O 	O 	1.00803e-18	0.8722	0.1278	-0.62
Mof_O 	O 	0.5	0.1886	0.8114	-0.171
_end
