# CIF file generated by openbabel 3.1.0, see https://openbabel.org
data_I
_chemical_name_common 'image0'
_cell_length_a 32.14
_cell_length_b 9.156
_cell_length_c 26.864
_cell_angle_alpha 90
_cell_angle_beta 112.859
_cell_angle_gamma 90
_space_group_name_H-M_alt 'P 1'
_space_group_name_Hall 'P 1'
loop_
    _symmetry_equiv_pos_as_xyz
    x,y,z
loop_
    _atom_site_label
    _atom_site_type_symbol
    _atom_site_fract_x
    _atom_site_fract_y
    _atom_site_fract_z
    _atom_site_occupancy
    Sm1      Sm       0.11166    0.89489    0.90881    1.000
    O1       O        0.42300    0.41620    0.69280    1.000
    O2       O        0.37670    0.23660    0.65650    1.000
    O3       O        0.53780    0.30720    0.88410    1.000
    O4       O        0.52260    0.12500    0.92930    1.000
    O5       O        0.17110    0.03310    0.89730    1.000
    O6       O        0.19220    0.91430    0.97190    1.000
    O7       O        0.40550    0.01360    0.03010    1.000
    H1       H        0.42430    0.94790    0.03680    1.000
    O8       O        0.36750    0.84140    0.04960    1.000
    N1       N        0.37120    0.93840    0.81170    1.000
    H2       H        0.38040    0.89330    0.84220    1.000
    N2       N        0.29820    0.37110    0.91290    1.000
    H3       H        0.32320    0.41900    0.92550    1.000
    C1       C        0.51280    0.20940    0.88910    1.000
    C2       C        0.46740    0.18810    0.84300    1.000
    C3       C        0.45580    0.26160    0.79400    1.000
    H4       H        0.47490    0.33330    0.79040    1.000
    C4       C        0.41630    0.22930    0.75090    1.000
    C5       C        0.38750    0.11970    0.75570    1.000
    H5       H        0.36140    0.09470    0.72610    1.000
    C6       C        0.39840    0.04780    0.80570    1.000
    C7       C        0.43810    0.08040    0.84790    1.000
    H6       H        0.44570    0.03040    0.88040    1.000
    C8       C        0.40420    0.29750    0.69740    1.000
    C9       C        0.32890    0.89410    0.77100    1.000
    H7       H        0.33320    0.86450    0.73860    1.000
    H8       H        0.30780    0.97510    0.76190    1.000
    C10      C        0.31010    0.76650    0.79260    1.000
    C11      C        0.32070    0.62390    0.78470    1.000
    C12      C        0.30490    0.50990    0.80790    1.000
    C13      C        0.27880    0.54380    0.83820    1.000
    C14      C        0.26920    0.68640    0.84650    1.000
    C15      C        0.28560    0.79760    0.82300    1.000
    C16      C        0.27680    0.95540    0.83570    1.000
    H9       H        0.28940    0.02170    0.81760    1.000
    H10      H        0.29070    0.97150    0.87390    1.000
    H11      H        0.24490    0.97150    0.82340    1.000
    C17      C        0.24270    0.71860    0.88030    1.000
    H12      H        0.21770    0.65220    0.87090    1.000
    H13      H        0.23160    0.81700    0.87380    1.000
    H14      H        0.26180    0.70720    0.91780    1.000
    C18      C        0.31590    0.35010    0.80110    1.000
    H15      H        0.31040    0.33190    0.76380    1.000
    H16      H        0.29710    0.28730    0.81200    1.000
    H17      H        0.34710    0.33110    0.82300    1.000
    C19      C        0.34790    0.58830    0.75110    1.000
    H18      H        0.34170    0.65940    0.72290    1.000
    H19      H        0.33980    0.49290    0.73550    1.000
    H20      H        0.37950    0.59000    0.77370    1.000
    C20      C        0.26160    0.41950    0.86350    1.000
    H21      H        0.23640    0.45350    0.87170    1.000
    H22      H        0.25130    0.33880    0.83830    1.000
    C21      C        0.29240    0.24770    0.93930    1.000
    C22      C        0.25070    0.18610    0.92910    1.000
    H23      H        0.22510    0.22950    0.90380    1.000
    C23      C        0.24600    0.06170    0.95560    1.000
    C24      C        0.28460    0.98970    0.99110    1.000
    H24      H        0.28210    0.90520    0.00890    1.000
    C25      C        0.32650    0.04680    0.99920    1.000
    C26      C        0.33120    0.17690    0.97540    1.000
    H25      H        0.35960    0.21700    0.98330    1.000
    C27      C        0.36720    0.96010    0.02870    1.000
    C28      C        0.20080    0.99900    0.94210    1.000
    Sm2      Sm       0.61166    0.39489    0.90881    1.000
    O9       O        0.92300    0.91620    0.69280    1.000
    O10      O        0.87670    0.73660    0.65650    1.000
    O11      O        0.03780    0.80720    0.88410    1.000
    O12      O        0.02260    0.62500    0.92930    1.000
    O13      O        0.67110    0.53310    0.89730    1.000
    O14      O        0.69220    0.41430    0.97190    1.000
    O15      O        0.90550    0.51360    0.03010    1.000
    H26      H        0.92430    0.44790    0.03680    1.000
    O16      O        0.86750    0.34140    0.04960    1.000
    N3       N        0.87120    0.43840    0.81170    1.000
    H27      H        0.88040    0.39330    0.84220    1.000
    N4       N        0.79820    0.87110    0.91290    1.000
    H28      H        0.82320    0.91900    0.92550    1.000
    C29      C        0.01280    0.70940    0.88910    1.000
    C30      C        0.96740    0.68810    0.84300    1.000
    C31      C        0.95580    0.76160    0.79400    1.000
    H29      H        0.97490    0.83330    0.79040    1.000
    C32      C        0.91630    0.72930    0.75090    1.000
    C33      C        0.88750    0.61970    0.75570    1.000
    H30      H        0.86140    0.59470    0.72610    1.000
    C34      C        0.89840    0.54780    0.80570    1.000
    C35      C        0.93810    0.58040    0.84790    1.000
    H31      H        0.94570    0.53040    0.88040    1.000
    C36      C        0.90420    0.79750    0.69740    1.000
    C37      C        0.82890    0.39410    0.77100    1.000
    H32      H        0.83320    0.36450    0.73860    1.000
    H33      H        0.80780    0.47510    0.76190    1.000
    C38      C        0.81010    0.26650    0.79260    1.000
    C39      C        0.82070    0.12390    0.78470    1.000
    C40      C        0.80490    0.00990    0.80790    1.000
    C41      C        0.77880    0.04380    0.83820    1.000
    C42      C        0.76920    0.18640    0.84650    1.000
    C43      C        0.78560    0.29760    0.82300    1.000
    C44      C        0.77680    0.45540    0.83570    1.000
    H34      H        0.78940    0.52170    0.81760    1.000
    H35      H        0.79070    0.47150    0.87390    1.000
    H36      H        0.74490    0.47150    0.82340    1.000
    C45      C        0.74270    0.21860    0.88030    1.000
    H37      H        0.71770    0.15220    0.87090    1.000
    H38      H        0.73160    0.31700    0.87380    1.000
    H39      H        0.76180    0.20720    0.91780    1.000
    C46      C        0.81590    0.85010    0.80110    1.000
    H40      H        0.81040    0.83190    0.76380    1.000
    H41      H        0.79710    0.78730    0.81200    1.000
    H42      H        0.84710    0.83110    0.82300    1.000
    C47      C        0.84790    0.08830    0.75110    1.000
    H43      H        0.84170    0.15940    0.72290    1.000
    H44      H        0.83980    0.99290    0.73550    1.000
    H45      H        0.87950    0.09000    0.77370    1.000
    C48      C        0.76160    0.91950    0.86350    1.000
    H46      H        0.73640    0.95350    0.87170    1.000
    H47      H        0.75130    0.83880    0.83830    1.000
    C49      C        0.79240    0.74770    0.93930    1.000
    C50      C        0.75070    0.68610    0.92910    1.000
    H48      H        0.72510    0.72950    0.90380    1.000
    C51      C        0.74600    0.56170    0.95560    1.000
    C52      C        0.78460    0.48970    0.99110    1.000
    H49      H        0.78210    0.40520    0.00890    1.000
    C53      C        0.82650    0.54680    0.99920    1.000
    C54      C        0.83120    0.67690    0.97540    1.000
    H50      H        0.85960    0.71700    0.98330    1.000
    C55      C        0.86720    0.46010    0.02870    1.000
    C56      C        0.70080    0.49900    0.94210    1.000
    Sm3      Sm       0.88834    0.89489    0.59119    1.000
    O17      O        0.57700    0.41620    0.80720    1.000
    O18      O        0.62330    0.23660    0.84350    1.000
    O19      O        0.46220    0.30720    0.61590    1.000
    O20      O        0.47740    0.12500    0.57070    1.000
    O21      O        0.82890    0.03310    0.60270    1.000
    O22      O        0.80780    0.91430    0.52810    1.000
    O23      O        0.59450    0.01360    0.46990    1.000
    H51      H        0.57570    0.94790    0.46320    1.000
    O24      O        0.63250    0.84140    0.45040    1.000
    N5       N        0.62880    0.93840    0.68830    1.000
    H52      H        0.61960    0.89330    0.65780    1.000
    N6       N        0.70180    0.37110    0.58710    1.000
    H53      H        0.67680    0.41900    0.57450    1.000
    C57      C        0.48720    0.20940    0.61090    1.000
    C58      C        0.53260    0.18810    0.65700    1.000
    C59      C        0.54420    0.26160    0.70600    1.000
    H54      H        0.52510    0.33330    0.70960    1.000
    C60      C        0.58370    0.22930    0.74910    1.000
    C61      C        0.61250    0.11970    0.74430    1.000
    H55      H        0.63860    0.09470    0.77390    1.000
    C62      C        0.60160    0.04780    0.69430    1.000
    C63      C        0.56190    0.08040    0.65210    1.000
    H56      H        0.55430    0.03040    0.61960    1.000
    C64      C        0.59580    0.29750    0.80260    1.000
    C65      C        0.67110    0.89410    0.72900    1.000
    H57      H        0.66680    0.86450    0.76140    1.000
    H58      H        0.69220    0.97510    0.73810    1.000
    C66      C        0.68990    0.76650    0.70740    1.000
    C67      C        0.67930    0.62390    0.71530    1.000
    C68      C        0.69510    0.50990    0.69210    1.000
    C69      C        0.72120    0.54380    0.66180    1.000
    C70      C        0.73080    0.68640    0.65350    1.000
    C71      C        0.71440    0.79760    0.67700    1.000
    C72      C        0.72320    0.95540    0.66430    1.000
    H59      H        0.71060    0.02170    0.68240    1.000
    H60      H        0.70930    0.97150    0.62610    1.000
    H61      H        0.75510    0.97150    0.67660    1.000
    C73      C        0.75730    0.71860    0.61970    1.000
    H62      H        0.78230    0.65220    0.62910    1.000
    H63      H        0.76840    0.81700    0.62620    1.000
    H64      H        0.73820    0.70720    0.58220    1.000
    C74      C        0.68410    0.35010    0.69890    1.000
    H65      H        0.68960    0.33190    0.73620    1.000
    H66      H        0.70290    0.28730    0.68800    1.000
    H67      H        0.65290    0.33110    0.67700    1.000
    C75      C        0.65210    0.58830    0.74890    1.000
    H68      H        0.65830    0.65940    0.77710    1.000
    H69      H        0.66020    0.49290    0.76450    1.000
    H70      H        0.62050    0.59000    0.72630    1.000
    C76      C        0.73840    0.41950    0.63650    1.000
    H71      H        0.76360    0.45350    0.62830    1.000
    H72      H        0.74870    0.33880    0.66170    1.000
    C77      C        0.70760    0.24770    0.56070    1.000
    C78      C        0.74930    0.18610    0.57090    1.000
    H73      H        0.77490    0.22950    0.59620    1.000
    C79      C        0.75400    0.06170    0.54440    1.000
    C80      C        0.71540    0.98970    0.50890    1.000
    H74      H        0.71790    0.90520    0.49110    1.000
    C81      C        0.67350    0.04680    0.50080    1.000
    C82      C        0.66880    0.17690    0.52460    1.000
    H75      H        0.64040    0.21700    0.51670    1.000
    C83      C        0.63280    0.96010    0.47130    1.000
    C84      C        0.79920    0.99900    0.55790    1.000
    Sm4      Sm       0.38834    0.39489    0.59119    1.000
    O25      O        0.07700    0.91620    0.80720    1.000
    O26      O        0.12330    0.73660    0.84350    1.000
    O27      O        0.96220    0.80720    0.61590    1.000
    O28      O        0.97740    0.62500    0.57070    1.000
    O29      O        0.32890    0.53310    0.60270    1.000
    O30      O        0.30780    0.41430    0.52810    1.000
    O31      O        0.09450    0.51360    0.46990    1.000
    H76      H        0.07570    0.44790    0.46320    1.000
    O32      O        0.13250    0.34140    0.45040    1.000
    N7       N        0.12880    0.43840    0.68830    1.000
    H77      H        0.11960    0.39330    0.65780    1.000
    N8       N        0.20180    0.87110    0.58710    1.000
    H78      H        0.17680    0.91900    0.57450    1.000
    C85      C        0.98720    0.70940    0.61090    1.000
    C86      C        0.03260    0.68810    0.65700    1.000
    C87      C        0.04420    0.76160    0.70600    1.000
    H79      H        0.02510    0.83330    0.70960    1.000
    C88      C        0.08370    0.72930    0.74910    1.000
    C89      C        0.11250    0.61970    0.74430    1.000
    H80      H        0.13860    0.59470    0.77390    1.000
    C90      C        0.10160    0.54780    0.69430    1.000
    C91      C        0.06190    0.58040    0.65210    1.000
    H81      H        0.05430    0.53040    0.61960    1.000
    C92      C        0.09580    0.79750    0.80260    1.000
    C93      C        0.17110    0.39410    0.72900    1.000
    H82      H        0.16680    0.36450    0.76140    1.000
    H83      H        0.19220    0.47510    0.73810    1.000
    C94      C        0.18990    0.26650    0.70740    1.000
    C95      C        0.17930    0.12390    0.71530    1.000
    C96      C        0.19510    0.00990    0.69210    1.000
    C97      C        0.22120    0.04380    0.66180    1.000
    C98      C        0.23080    0.18640    0.65350    1.000
    C99      C        0.21440    0.29760    0.67700    1.000
    C100     C        0.22320    0.45540    0.66430    1.000
    H84      H        0.21060    0.52170    0.68240    1.000
    H85      H        0.20930    0.47150    0.62610    1.000
    H86      H        0.25510    0.47150    0.67660    1.000
    C101     C        0.25730    0.21860    0.61970    1.000
    H87      H        0.28230    0.15220    0.62910    1.000
    H88      H        0.26840    0.31700    0.62620    1.000
    H89      H        0.23820    0.20720    0.58220    1.000
    C102     C        0.18410    0.85010    0.69890    1.000
    H90      H        0.18960    0.83190    0.73620    1.000
    H91      H        0.20290    0.78730    0.68800    1.000
    H92      H        0.15290    0.83110    0.67700    1.000
    C103     C        0.15210    0.08830    0.74890    1.000
    H93      H        0.15830    0.15940    0.77710    1.000
    H94      H        0.16020    0.99290    0.76450    1.000
    H95      H        0.12050    0.09000    0.72630    1.000
    C104     C        0.23840    0.91950    0.63650    1.000
    H96      H        0.26360    0.95350    0.62830    1.000
    H97      H        0.24870    0.83880    0.66170    1.000
    C105     C        0.20760    0.74770    0.56070    1.000
    C106     C        0.24930    0.68610    0.57090    1.000
    H98      H        0.27490    0.72950    0.59620    1.000
    C107     C        0.25400    0.56170    0.54440    1.000
    C108     C        0.21540    0.48970    0.50890    1.000
    H99      H        0.21790    0.40520    0.49110    1.000
    C109     C        0.17350    0.54680    0.50080    1.000
    C110     C        0.16880    0.67690    0.52460    1.000
    H100     H        0.14040    0.71700    0.51670    1.000
    C111     C        0.13280    0.46010    0.47130    1.000
    C112     C        0.29920    0.49900    0.55790    1.000
    Sm5      Sm       0.88834    0.10511    0.09119    1.000
    O33      O        0.57700    0.58380    0.30720    1.000
    O34      O        0.62330    0.76340    0.34350    1.000
    O35      O        0.46220    0.69280    0.11590    1.000
    O36      O        0.47740    0.87500    0.07070    1.000
    O37      O        0.82890    0.96690    0.10270    1.000
    O38      O        0.80780    0.08570    0.02810    1.000
    O39      O        0.59450    0.98640    0.96990    1.000
    H101     H        0.57570    0.05210    0.96320    1.000
    O40      O        0.63250    0.15860    0.95040    1.000
    N9       N        0.62880    0.06160    0.18830    1.000
    H102     H        0.61960    0.10670    0.15780    1.000
    N10      N        0.70180    0.62890    0.08710    1.000
    H103     H        0.67680    0.58100    0.07450    1.000
    C113     C        0.48720    0.79060    0.11090    1.000
    C114     C        0.53260    0.81190    0.15700    1.000
    C115     C        0.54420    0.73840    0.20600    1.000
    H104     H        0.52510    0.66670    0.20960    1.000
    C116     C        0.58370    0.77070    0.24910    1.000
    C117     C        0.61250    0.88030    0.24430    1.000
    H105     H        0.63860    0.90530    0.27390    1.000
    C118     C        0.60160    0.95220    0.19430    1.000
    C119     C        0.56190    0.91960    0.15210    1.000
    H106     H        0.55430    0.96960    0.11960    1.000
    C120     C        0.59580    0.70250    0.30260    1.000
    C121     C        0.67110    0.10590    0.22900    1.000
    H107     H        0.66680    0.13550    0.26140    1.000
    H108     H        0.69220    0.02490    0.23810    1.000
    C122     C        0.68990    0.23350    0.20740    1.000
    C123     C        0.67930    0.37610    0.21530    1.000
    C124     C        0.69510    0.49010    0.19210    1.000
    C125     C        0.72120    0.45620    0.16180    1.000
    C126     C        0.73080    0.31360    0.15350    1.000
    C127     C        0.71440    0.20240    0.17700    1.000
    C128     C        0.72320    0.04460    0.16430    1.000
    H109     H        0.71060    0.97830    0.18240    1.000
    H110     H        0.70930    0.02850    0.12610    1.000
    H111     H        0.75510    0.02850    0.17660    1.000
    C129     C        0.75730    0.28140    0.11970    1.000
    H112     H        0.78230    0.34780    0.12910    1.000
    H113     H        0.76840    0.18300    0.12620    1.000
    H114     H        0.73820    0.29280    0.08220    1.000
    C130     C        0.68410    0.64990    0.19890    1.000
    H115     H        0.68960    0.66810    0.23620    1.000
    H116     H        0.70290    0.71270    0.18800    1.000
    H117     H        0.65290    0.66890    0.17700    1.000
    C131     C        0.65210    0.41170    0.24890    1.000
    H118     H        0.65830    0.34060    0.27710    1.000
    H119     H        0.66020    0.50710    0.26450    1.000
    H120     H        0.62050    0.41000    0.22630    1.000
    C132     C        0.73840    0.58050    0.13650    1.000
    H121     H        0.76360    0.54650    0.12830    1.000
    H122     H        0.74870    0.66120    0.16170    1.000
    C133     C        0.70760    0.75230    0.06070    1.000
    C134     C        0.74930    0.81390    0.07090    1.000
    H123     H        0.77490    0.77050    0.09620    1.000
    C135     C        0.75400    0.93830    0.04440    1.000
    C136     C        0.71540    0.01030    0.00890    1.000
    H124     H        0.71790    0.09480    0.99110    1.000
    C137     C        0.67350    0.95320    0.00080    1.000
    C138     C        0.66880    0.82310    0.02460    1.000
    H125     H        0.64040    0.78300    0.01670    1.000
    C139     C        0.63280    0.03990    0.97130    1.000
    C140     C        0.79920    0.00100    0.05790    1.000
    Sm6      Sm       0.38834    0.60511    0.09119    1.000
    O41      O        0.07700    0.08380    0.30720    1.000
    O42      O        0.12330    0.26340    0.34350    1.000
    O43      O        0.96220    0.19280    0.11590    1.000
    O44      O        0.97740    0.37500    0.07070    1.000
    O45      O        0.32890    0.46690    0.10270    1.000
    O46      O        0.30780    0.58570    0.02810    1.000
    O47      O        0.09450    0.48640    0.96990    1.000
    H126     H        0.07570    0.55210    0.96320    1.000
    O48      O        0.13250    0.65860    0.95040    1.000
    N11      N        0.12880    0.56160    0.18830    1.000
    H127     H        0.11960    0.60670    0.15780    1.000
    N12      N        0.20180    0.12890    0.08710    1.000
    H128     H        0.17680    0.08100    0.07450    1.000
    C141     C        0.98720    0.29060    0.11090    1.000
    C142     C        0.03260    0.31190    0.15700    1.000
    C143     C        0.04420    0.23840    0.20600    1.000
    H129     H        0.02510    0.16670    0.20960    1.000
    C144     C        0.08370    0.27070    0.24910    1.000
    C145     C        0.11250    0.38030    0.24430    1.000
    H130     H        0.13860    0.40530    0.27390    1.000
    C146     C        0.10160    0.45220    0.19430    1.000
    C147     C        0.06190    0.41960    0.15210    1.000
    H131     H        0.05430    0.46960    0.11960    1.000
    C148     C        0.09580    0.20250    0.30260    1.000
    C149     C        0.17110    0.60590    0.22900    1.000
    H132     H        0.16680    0.63550    0.26140    1.000
    H133     H        0.19220    0.52490    0.23810    1.000
    C150     C        0.18990    0.73350    0.20740    1.000
    C151     C        0.17930    0.87610    0.21530    1.000
    C152     C        0.19510    0.99010    0.19210    1.000
    C153     C        0.22120    0.95620    0.16180    1.000
    C154     C        0.23080    0.81360    0.15350    1.000
    C155     C        0.21440    0.70240    0.17700    1.000
    C156     C        0.22320    0.54460    0.16430    1.000
    H134     H        0.21060    0.47830    0.18240    1.000
    H135     H        0.20930    0.52850    0.12610    1.000
    H136     H        0.25510    0.52850    0.17660    1.000
    C157     C        0.25730    0.78140    0.11970    1.000
    H137     H        0.28230    0.84780    0.12910    1.000
    H138     H        0.26840    0.68300    0.12620    1.000
    H139     H        0.23820    0.79280    0.08220    1.000
    C158     C        0.18410    0.14990    0.19890    1.000
    H140     H        0.18960    0.16810    0.23620    1.000
    H141     H        0.20290    0.21270    0.18800    1.000
    H142     H        0.15290    0.16890    0.17700    1.000
    C159     C        0.15210    0.91170    0.24890    1.000
    H143     H        0.15830    0.84060    0.27710    1.000
    H144     H        0.16020    0.00710    0.26450    1.000
    H145     H        0.12050    0.91000    0.22630    1.000
    C160     C        0.23840    0.08050    0.13650    1.000
    H146     H        0.26360    0.04650    0.12830    1.000
    H147     H        0.24870    0.16120    0.16170    1.000
    C161     C        0.20760    0.25230    0.06070    1.000
    C162     C        0.24930    0.31390    0.07090    1.000
    H148     H        0.27490    0.27050    0.09620    1.000
    C163     C        0.25400    0.43830    0.04440    1.000
    C164     C        0.21540    0.51030    0.00890    1.000
    H149     H        0.21790    0.59480    0.99110    1.000
    C165     C        0.17350    0.45320    0.00080    1.000
    C166     C        0.16880    0.32310    0.02460    1.000
    H150     H        0.14040    0.28300    0.01670    1.000
    C167     C        0.13280    0.53990    0.97130    1.000
    C168     C        0.29920    0.50100    0.05790    1.000
    Sm7      Sm       0.11166    0.10511    0.40881    1.000
    O49      O        0.42300    0.58380    0.19280    1.000
    O50      O        0.37670    0.76340    0.15650    1.000
    O51      O        0.53780    0.69280    0.38410    1.000
    O52      O        0.52260    0.87500    0.42930    1.000
    O53      O        0.17110    0.96690    0.39730    1.000
    O54      O        0.19220    0.08570    0.47190    1.000
    O55      O        0.40550    0.98640    0.53010    1.000
    H151     H        0.42430    0.05210    0.53680    1.000
    O56      O        0.36750    0.15860    0.54960    1.000
    N13      N        0.37120    0.06160    0.31170    1.000
    H152     H        0.38040    0.10670    0.34220    1.000
    N14      N        0.29820    0.62890    0.41290    1.000
    H153     H        0.32320    0.58100    0.42550    1.000
    C169     C        0.51280    0.79060    0.38910    1.000
    C170     C        0.46740    0.81190    0.34300    1.000
    C171     C        0.45580    0.73840    0.29400    1.000
    H154     H        0.47490    0.66670    0.29040    1.000
    C172     C        0.41630    0.77070    0.25090    1.000
    C173     C        0.38750    0.88030    0.25570    1.000
    H155     H        0.36140    0.90530    0.22610    1.000
    C174     C        0.39840    0.95220    0.30570    1.000
    C175     C        0.43810    0.91960    0.34790    1.000
    H156     H        0.44570    0.96960    0.38040    1.000
    C176     C        0.40420    0.70250    0.19740    1.000
    C177     C        0.32890    0.10590    0.27100    1.000
    H157     H        0.33320    0.13550    0.23860    1.000
    H158     H        0.30780    0.02490    0.26190    1.000
    C178     C        0.31010    0.23350    0.29260    1.000
    C179     C        0.32070    0.37610    0.28470    1.000
    C180     C        0.30490    0.49010    0.30790    1.000
    C181     C        0.27880    0.45620    0.33820    1.000
    C182     C        0.26920    0.31360    0.34650    1.000
    C183     C        0.28560    0.20240    0.32300    1.000
    C184     C        0.27680    0.04460    0.33570    1.000
    H159     H        0.28940    0.97830    0.31760    1.000
    H160     H        0.29070    0.02850    0.37390    1.000
    H161     H        0.24490    0.02850    0.32340    1.000
    C185     C        0.24270    0.28140    0.38030    1.000
    H162     H        0.21770    0.34780    0.37090    1.000
    H163     H        0.23160    0.18300    0.37380    1.000
    H164     H        0.26180    0.29280    0.41780    1.000
    C186     C        0.31590    0.64990    0.30110    1.000
    H165     H        0.31040    0.66810    0.26380    1.000
    H166     H        0.29710    0.71270    0.31200    1.000
    H167     H        0.34710    0.66890    0.32300    1.000
    C187     C        0.34790    0.41170    0.25110    1.000
    H168     H        0.34170    0.34060    0.22290    1.000
    H169     H        0.33980    0.50710    0.23550    1.000
    H170     H        0.37950    0.41000    0.27370    1.000
    C188     C        0.26160    0.58050    0.36350    1.000
    H171     H        0.23640    0.54650    0.37170    1.000
    H172     H        0.25130    0.66120    0.33830    1.000
    C189     C        0.29240    0.75230    0.43930    1.000
    C190     C        0.25070    0.81390    0.42910    1.000
    H173     H        0.22510    0.77050    0.40380    1.000
    C191     C        0.24600    0.93830    0.45560    1.000
    C192     C        0.28460    0.01030    0.49110    1.000
    H174     H        0.28210    0.09480    0.50890    1.000
    C193     C        0.32650    0.95320    0.49920    1.000
    C194     C        0.33120    0.82310    0.47540    1.000
    H175     H        0.35960    0.78300    0.48330    1.000
    C195     C        0.36720    0.03990    0.52870    1.000
    C196     C        0.20080    0.00100    0.44210    1.000
    Sm8      Sm       0.61166    0.60511    0.40881    1.000
    O57      O        0.92300    0.08380    0.19280    1.000
    O58      O        0.87670    0.26340    0.15650    1.000
    O59      O        0.03780    0.19280    0.38410    1.000
    O60      O        0.02260    0.37500    0.42930    1.000
    O61      O        0.67110    0.46690    0.39730    1.000
    O62      O        0.69220    0.58570    0.47190    1.000
    O63      O        0.90550    0.48640    0.53010    1.000
    H176     H        0.92430    0.55210    0.53680    1.000
    O64      O        0.86750    0.65860    0.54960    1.000
    N15      N        0.87120    0.56160    0.31170    1.000
    H177     H        0.88040    0.60670    0.34220    1.000
    N16      N        0.79820    0.12890    0.41290    1.000
    H178     H        0.82320    0.08100    0.42550    1.000
    C197     C        0.01280    0.29060    0.38910    1.000
    C198     C        0.96740    0.31190    0.34300    1.000
    C199     C        0.95580    0.23840    0.29400    1.000
    H179     H        0.97490    0.16670    0.29040    1.000
    C200     C        0.91630    0.27070    0.25090    1.000
    C201     C        0.88750    0.38030    0.25570    1.000
    H180     H        0.86140    0.40530    0.22610    1.000
    C202     C        0.89840    0.45220    0.30570    1.000
    C203     C        0.93810    0.41960    0.34790    1.000
    H181     H        0.94570    0.46960    0.38040    1.000
    C204     C        0.90420    0.20250    0.19740    1.000
    C205     C        0.82890    0.60590    0.27100    1.000
    H182     H        0.83320    0.63550    0.23860    1.000
    H183     H        0.80780    0.52490    0.26190    1.000
    C206     C        0.81010    0.73350    0.29260    1.000
    C207     C        0.82070    0.87610    0.28470    1.000
    C208     C        0.80490    0.99010    0.30790    1.000
    C209     C        0.77880    0.95620    0.33820    1.000
    C210     C        0.76920    0.81360    0.34650    1.000
    C211     C        0.78560    0.70240    0.32300    1.000
    C212     C        0.77680    0.54460    0.33570    1.000
    H184     H        0.78940    0.47830    0.31760    1.000
    H185     H        0.79070    0.52850    0.37390    1.000
    H186     H        0.74490    0.52850    0.32340    1.000
    C213     C        0.74270    0.78140    0.38030    1.000
    H187     H        0.71770    0.84780    0.37090    1.000
    H188     H        0.73160    0.68300    0.37380    1.000
    H189     H        0.76180    0.79280    0.41780    1.000
    C214     C        0.81590    0.14990    0.30110    1.000
    H190     H        0.81040    0.16810    0.26380    1.000
    H191     H        0.79710    0.21270    0.31200    1.000
    H192     H        0.84710    0.16890    0.32300    1.000
    C215     C        0.84790    0.91170    0.25110    1.000
    H193     H        0.84170    0.84060    0.22290    1.000
    H194     H        0.83980    0.00710    0.23550    1.000
    H195     H        0.87950    0.91000    0.27370    1.000
    C216     C        0.76160    0.08050    0.36350    1.000
    H196     H        0.73640    0.04650    0.37170    1.000
    H197     H        0.75130    0.16120    0.33830    1.000
    C217     C        0.79240    0.25230    0.43930    1.000
    C218     C        0.75070    0.31390    0.42910    1.000
    H198     H        0.72510    0.27050    0.40380    1.000
    C219     C        0.74600    0.43830    0.45560    1.000
    C220     C        0.78460    0.51030    0.49110    1.000
    H199     H        0.78210    0.59480    0.50890    1.000
    C221     C        0.82650    0.45320    0.49920    1.000
    C222     C        0.83120    0.32310    0.47540    1.000
    H200     H        0.85960    0.28300    0.48330    1.000
    C223     C        0.86720    0.53990    0.52870    1.000
    C224     C        0.70080    0.50100    0.44210    1.000
