data_functionalizedCrystal
_audit_creation_method	'EQeq! by Chris Wilmer'
_symmetry_space_group_name_H-M	'P1'
_symmetry_Int_Tables_number	1
_symmetry_cell_setting	triclinic
loop_
_symmetry_equiv_pos_as_xyz
  x,y,z
_cell_length_a	6.958
_cell_length_b	11.152
_cell_length_c	26.118
_cell_angle_alpha	97.896
_cell_angle_beta	90
_cell_angle_gamma	90
loop_
_atom_site_label
_atom_site_type_symbol
_atom_site_fract_x
_atom_site_fract_y
_atom_site_fract_z
_atom_site_charge
Mof_Cd	Cd	0.83239	0.62995	0.87361	0.431
Mof_Cd	Cd	0.33239	0.37005	0.62639	0.428
Mof_Cd	Cd	0.16761	0.37005	0.12639	0.431
Mof_Cd	Cd	0.66761	0.62995	0.37361	0.428
Mof_Co	Co	0.08231	0.49576	0.7502	1.108
Mof_Co	Co	0.58231	0.50424	0.7498	1.11
Mof_Co	Co	0.91769	0.50424	0.2498	1.108
Mof_Co	Co	0.41769	0.49576	0.2502	1.11
Mof_H 	H 	0.2398	0.5308	0.9647	0.058
Mof_H 	H 	0.9511	0.0598	0.8168	0.051
Mof_H 	H 	0.3647	0.7705	0.0888	0.049
Mof_H 	H 	0.1799	0.3181	0.9215	0.047
Mof_H 	H 	0.4378	0.8599	0.9466	0.053
Mof_H 	H 	0.4488	0.9105	0.035	0.05
Mof_H 	H 	0.1649	0.1886	0.9834	0.076
Mof_H 	H 	0.0532	0.9934	0.9607	0.047
Mof_H 	H 	0.7398	0.4692	0.5353	0.058
Mof_H 	H 	0.4511	0.9402	0.6832	0.052
Mof_H 	H 	0.8647	0.2295	0.4112	0.048
Mof_H 	H 	0.6799	0.6819	0.5785	0.048
Mof_H 	H 	0.9378	0.1401	0.5534	0.054
Mof_H 	H 	0.9488	0.0895	0.465	0.049
Mof_H 	H 	0.6649	0.8114	0.5166	0.075
Mof_H 	H 	0.5532	0.0066	0.5393	0.046
Mof_H 	H 	0.7602	0.4692	0.0353	0.058
Mof_H 	H 	0.0489	0.9402	0.1832	0.051
Mof_H 	H 	0.6353	0.2295	0.9112	0.049
Mof_H 	H 	0.8201	0.6819	0.0785	0.047
Mof_H 	H 	0.5622	0.1401	0.0534	0.053
Mof_H 	H 	0.5512	0.0895	0.965	0.05
Mof_H 	H 	0.8351	0.8114	0.0166	0.076
Mof_H 	H 	0.9468	0.0066	0.0393	0.047
Mof_H 	H 	0.2602	0.5308	0.4647	0.058
Mof_H 	H 	0.5489	0.0598	0.3168	0.052
Mof_H 	H 	0.1353	0.7705	0.5888	0.048
Mof_H 	H 	0.3201	0.3181	0.4215	0.048
Mof_H 	H 	0.0622	0.8599	0.4466	0.054
Mof_H 	H 	0.0512	0.9105	0.535	0.049
Mof_H 	H 	0.3351	0.1886	0.4834	0.075
Mof_H 	H 	0.4468	0.9934	0.4607	0.046
Mof_C 	C 	0.3335	0.6537	0.89028	0.119
Mof_C 	C 	0.2834	0.6069	0.97893	-0.019
Mof_C 	C 	0.9891	0.0069	0.88683	-0.062
Mof_C 	C 	0.9949	0.085	0.85015	-0.01
Mof_C 	C 	0.2947	0.6358	0.03203	-0.056
Mof_C 	C 	0.3366	0.6903	0.94668	-0.01
Mof_C 	C 	0.2421	0.5426	0.06577	0.296
Mof_C 	C 	0.3572	0.75	0.05316	-0.013
Mof_C 	C 	0.1315	0.2402	0.91302	-0.016
Mof_C 	C 	0.0666	0.2013	0.86345	-0.04
Mof_C 	C 	0.4005	0.8039	0.968	-0.035
Mof_C 	C 	0.4085	0.8336	0.02081	-0.041
Mof_C 	C 	0.0692	0.2826	0.82503	0.105
Mof_C 	C 	0.9115	0.8803	0.87382	0.295
Mof_C 	C 	0.1241	0.1629	0.94977	-0.063
Mof_C 	C 	0.0551	0.0463	0.93609	-0.007
Mof_C 	C 	0.8335	0.3463	0.60972	0.119
Mof_C 	C 	0.7834	0.3931	0.52107	-0.019
Mof_C 	C 	0.4891	0.9931	0.61317	-0.063
Mof_C 	C 	0.4949	0.915	0.64985	-0.018
Mof_C 	C 	0.7947	0.3642	0.46797	-0.057
Mof_C 	C 	0.8366	0.3097	0.55332	-0.009
Mof_C 	C 	0.7421	0.4574	0.43423	0.296
Mof_C 	C 	0.8572	0.25	0.44684	-0.013
Mof_C 	C 	0.6315	0.7598	0.58698	-0.018
Mof_C 	C 	0.5666	0.7987	0.63655	-0.032
Mof_C 	C 	0.9005	0.1961	0.532	-0.035
Mof_C 	C 	0.9085	0.1664	0.47919	-0.042
Mof_C 	C 	0.5692	0.7174	0.67497	0.106
Mof_C 	C 	0.4115	0.1197	0.62618	0.294
Mof_C 	C 	0.6241	0.8371	0.55023	-0.062
Mof_C 	C 	0.5551	0.9537	0.56391	-0.003
Mof_C 	C 	0.6665	0.3463	0.10972	0.119
Mof_C 	C 	0.7166	0.3931	0.02107	-0.019
Mof_C 	C 	0.0109	0.9931	0.11317	-0.062
Mof_C 	C 	0.0051	0.915	0.14985	-0.01
Mof_C 	C 	0.7053	0.3642	0.96797	-0.056
Mof_C 	C 	0.6634	0.3097	0.05332	-0.01
Mof_C 	C 	0.7579	0.4574	0.93423	0.296
Mof_C 	C 	0.6428	0.25	0.94684	-0.013
Mof_C 	C 	0.8685	0.7598	0.08698	-0.016
Mof_C 	C 	0.9334	0.7987	0.13655	-0.04
Mof_C 	C 	0.5995	0.1961	0.032	-0.035
Mof_C 	C 	0.5915	0.1664	0.97919	-0.041
Mof_C 	C 	0.9308	0.7174	0.17497	0.105
Mof_C 	C 	0.0885	0.1197	0.12618	0.295
Mof_C 	C 	0.8759	0.8371	0.05023	-0.063
Mof_C 	C 	0.9449	0.9537	0.06391	-0.007
Mof_C 	C 	0.1665	0.6537	0.39028	0.119
Mof_C 	C 	0.2166	0.6069	0.47893	-0.019
Mof_C 	C 	0.5109	0.0069	0.38683	-0.063
Mof_C 	C 	0.5051	0.085	0.35015	-0.018
Mof_C 	C 	0.2053	0.6358	0.53203	-0.057
Mof_C 	C 	0.1634	0.6903	0.44668	-0.009
Mof_C 	C 	0.2579	0.5426	0.56577	0.296
Mof_C 	C 	0.1428	0.75	0.55316	-0.013
Mof_C 	C 	0.3685	0.2402	0.41302	-0.018
Mof_C 	C 	0.4334	0.2013	0.36345	-0.032
Mof_C 	C 	0.0995	0.8039	0.468	-0.035
Mof_C 	C 	0.0915	0.8336	0.52081	-0.042
Mof_C 	C 	0.4308	0.2826	0.32503	0.106
Mof_C 	C 	0.5885	0.8803	0.37382	0.294
Mof_C 	C 	0.3759	0.1629	0.44977	-0.062
Mof_C 	C 	0.4449	0.0463	0.43609	-0.003
Mof_N 	N 	0.4901	0.6439	0.86052	-0.112
Mof_N 	N 	0.2392	0.5896	0.81401	-0.173
Mof_N 	N 	0.1758	0.6206	0.86236	-0.114
Mof_N 	N 	0.4249	0.6024	0.81274	-0.171
Mof_N 	N 	0.0696	0.3473	0.79484	-0.254
Mof_N 	N 	0.9901	0.3561	0.63948	-0.11
Mof_N 	N 	0.7392	0.4104	0.68599	-0.172
Mof_N 	N 	0.6758	0.3794	0.63764	-0.112
Mof_N 	N 	0.9249	0.3976	0.68726	-0.169
Mof_N 	N 	0.5696	0.6527	0.70516	-0.251
Mof_N 	N 	0.5099	0.3561	0.13948	-0.112
Mof_N 	N 	0.7608	0.4104	0.18599	-0.173
Mof_N 	N 	0.8242	0.3794	0.13764	-0.114
Mof_N 	N 	0.5751	0.3976	0.18726	-0.171
Mof_N 	N 	0.9304	0.6527	0.20516	-0.254
Mof_N 	N 	0.0099	0.6439	0.36052	-0.11
Mof_N 	N 	0.2608	0.5896	0.31401	-0.172
Mof_N 	N 	0.3242	0.6206	0.36236	-0.112
Mof_N 	N 	0.0751	0.6024	0.31274	-0.169
Mof_N 	N 	0.4304	0.3473	0.29484	-0.251
Mof_O 	O 	0.2424	0.5713	0.1143	-0.293
Mof_O 	O 	0.1979	0.4381	0.04587	-0.27
Mof_O 	O 	0.8862	0.8383	0.82703	-0.254
Mof_O 	O 	0.8785	0.8216	0.91049	-0.276
Mof_O 	O 	0.8341	0.57413	0.7844	-0.496
Mof_O 	O 	0.7424	0.4287	0.3857	-0.295
Mof_O 	O 	0.6979	0.5619	0.45413	-0.27
Mof_O 	O 	0.3862	0.1617	0.67297	-0.256
Mof_O 	O 	0.3785	0.1784	0.58951	-0.277
Mof_O 	O 	0.3341	0.42587	0.7156	-0.5
Mof_O 	O 	0.7576	0.4287	0.8857	-0.293
Mof_O 	O 	0.8021	0.5619	0.95413	-0.27
Mof_O 	O 	0.1138	0.1617	0.17297	-0.254
Mof_O 	O 	0.1215	0.1784	0.08951	-0.276
Mof_O 	O 	0.1659	0.42587	0.2156	-0.496
Mof_O 	O 	0.2576	0.5713	0.6143	-0.295
Mof_O 	O 	0.3021	0.4381	0.54587	-0.27
Mof_O 	O 	0.6138	0.8383	0.32703	-0.256
Mof_O 	O 	0.6215	0.8216	0.41049	-0.277
Mof_O 	O 	0.6659	0.57413	0.2844	-0.5
_end
