data_functionalizedCrystal
_audit_creation_method	'EQeq! by Chris Wilmer'
_symmetry_space_group_name_H-M	'P1'
_symmetry_Int_Tables_number	1
_symmetry_cell_setting	triclinic
loop_
_symmetry_equiv_pos_as_xyz
  x,y,z
_cell_length_a	18.6137
_cell_length_b	18.6137
_cell_length_c	18.6137
_cell_angle_alpha	60
_cell_angle_beta	60
_cell_angle_gamma	60
loop_
_atom_site_label
_atom_site_type_symbol
_atom_site_fract_x
_atom_site_fract_y
_atom_site_fract_z
_atom_site_charge
Mof_Cu	Cu	-3.73954e-17	0.5699	0.4301	0.799
Mof_Cu	Cu	1.24651e-17	0	0.4301	0.683
Mof_Cu	Cu	0.5699	0	-0	0.695
Mof_Cu	Cu	0.4301	0	-0	0.682
Mof_Cu	Cu	-4.98605e-17	0.4301	0.5699	0.798
Mof_Cu	Cu	0.4301	-2.49303e-17	0.5699	0.798
Mof_Cu	Cu	-0	0.5699	-0	0.694
Mof_Cu	Cu	-4.98605e-17	-2.49303e-17	0.5699	0.694
Mof_Cu	Cu	-0	0.4301	-0	0.682
Mof_Cu	Cu	0.4301	0.5699	-0	0.798
Mof_Cu	Cu	0.5699	0	0.4301	0.798
Mof_Cu	Cu	0.5699	0.4301	-0	0.798
Mof_H 	H 	0.967	0.2724	0.2724	0.052
Mof_H 	H 	0.7276	0.7276	0.033	0.055
Mof_H 	H 	0.5118	0.033	0.7276	0.029
Mof_H 	H 	0.2724	0.2724	0.4882	0.007
Mof_H 	H 	0.2724	0.967	0.4882	0.075
Mof_H 	H 	0.033	0.7276	0.5118	0.029
Mof_H 	H 	0.2724	0.4882	0.2724	0.007
Mof_H 	H 	0.7276	0.5118	0.033	0.029
Mof_H 	H 	0.967	0.2724	0.4882	0.075
Mof_H 	H 	0.033	0.5118	0.7276	0.029
Mof_H 	H 	0.967	0.4882	0.2724	0.075
Mof_H 	H 	0.7276	0.033	0.5118	0.029
Mof_H 	H 	0.5118	0.7276	0.033	0.029
Mof_H 	H 	0.7276	0.7276	0.5118	0.093
Mof_H 	H 	0.2724	0.2724	0.967	0.052
Mof_H 	H 	0.4882	0.2724	0.2724	0.007
Mof_H 	H 	0.5118	0.7276	0.7276	0.093
Mof_H 	H 	0.4882	0.967	0.2724	0.075
Mof_H 	H 	0.7276	0.5118	0.7276	0.093
Mof_H 	H 	0.4882	0.2724	0.967	0.075
Mof_H 	H 	0.033	0.7276	0.7276	0.055
Mof_H 	H 	0.7276	0.033	0.7276	0.055
Mof_H 	H 	0.2724	0.967	0.2724	0.052
Mof_H 	H 	0.2724	0.4882	0.967	0.075
Mof_C 	C 	0.30095	0.96787	0.30095	0.039
Mof_C 	C 	0.25728	0.38714	0.38714	-0.173
Mof_C 	C 	0.43023	0.30095	0.96787	0.037
Mof_C 	C 	0.56887	0.83767	0.56887	0.346
Mof_C 	C 	0.56977	0.69905	0.03213	0.058
Mof_C 	C 	0.43113	0.16233	0.97541	0.35
Mof_C 	C 	0.61286	0.61286	0.03156	-0.139
Mof_C 	C 	0.03213	0.69905	0.56977	0.058
Mof_C 	C 	0.56887	0.56887	0.02459	0.373
Mof_C 	C 	0.96787	0.30095	0.43023	0.037
Mof_C 	C 	0.43023	0.96787	0.30095	0.037
Mof_C 	C 	0.16233	0.97541	0.43113	0.35
Mof_C 	C 	0.83767	0.56887	0.56887	0.346
Mof_C 	C 	0.96844	0.38714	0.25728	-0.081
Mof_C 	C 	0.30095	0.43023	0.96787	0.037
Mof_C 	C 	0.61286	0.61286	0.74272	-0.039
Mof_C 	C 	0.03156	0.61286	0.61286	-0.139
Mof_C 	C 	0.61286	0.03156	0.74272	-0.114
Mof_C 	C 	0.74272	0.61286	0.03156	-0.114
Mof_C 	C 	0.96787	0.30095	0.30095	0.039
Mof_C 	C 	0.43113	0.43113	0.16233	0.379
Mof_C 	C 	0.38714	0.38714	0.96844	-0.064
Mof_C 	C 	0.61286	0.74272	0.61286	-0.039
Mof_C 	C 	0.56887	0.02459	0.83767	0.353
Mof_C 	C 	0.69905	0.56977	0.03213	0.058
Mof_C 	C 	0.56887	0.02459	0.56887	0.373
Mof_C 	C 	0.74272	0.03156	0.61286	-0.114
Mof_C 	C 	0.96844	0.25728	0.38714	-0.081
Mof_C 	C 	0.30095	0.30095	0.96787	0.039
Mof_C 	C 	0.83767	0.02459	0.56887	0.353
Mof_C 	C 	0.56887	0.56887	0.83767	0.346
Mof_C 	C 	0.02459	0.56887	0.83767	0.353
Mof_C 	C 	0.25728	0.96844	0.38714	-0.081
Mof_C 	C 	0.69905	0.03213	0.69905	0.052
Mof_C 	C 	0.97541	0.16233	0.43113	0.35
Mof_C 	C 	0.16233	0.43113	0.97541	0.35
Mof_C 	C 	0.69905	0.03213	0.56977	0.058
Mof_C 	C 	0.38714	0.96844	0.25728	-0.081
Mof_C 	C 	0.03156	0.61286	0.74272	-0.114
Mof_C 	C 	0.30095	0.96787	0.43023	0.037
Mof_C 	C 	0.61286	0.74272	0.03156	-0.114
Mof_C 	C 	0.97541	0.43113	0.43113	0.349
Mof_C 	C 	0.43113	0.97541	0.43113	0.349
Mof_C 	C 	0.74272	0.61286	0.61286	-0.039
Mof_C 	C 	0.43023	0.30095	0.30095	0.081
Mof_C 	C 	0.69905	0.69905	0.56977	0.024
Mof_C 	C 	0.25728	0.38714	0.96844	-0.081
Mof_C 	C 	0.38714	0.25728	0.96844	-0.081
Mof_C 	C 	0.30095	0.30095	0.43023	0.081
Mof_C 	C 	0.61286	0.03156	0.61286	-0.139
Mof_C 	C 	0.83767	0.56887	0.02459	0.353
Mof_C 	C 	0.16233	0.43113	0.43113	0.379
Mof_C 	C 	0.38714	0.38714	0.25728	-0.173
Mof_C 	C 	0.43113	0.16233	0.43113	0.379
Mof_C 	C 	0.69905	0.69905	0.03213	0.052
Mof_C 	C 	0.03213	0.56977	0.69905	0.058
Mof_C 	C 	0.02459	0.56887	0.56887	0.373
Mof_C 	C 	0.38714	0.96844	0.38714	-0.064
Mof_C 	C 	0.96787	0.43023	0.30095	0.037
Mof_C 	C 	0.69905	0.56977	0.69905	0.024
Mof_C 	C 	0.03213	0.69905	0.69905	0.052
Mof_C 	C 	0.38714	0.25728	0.38714	-0.173
Mof_C 	C 	0.56977	0.69905	0.69905	0.024
Mof_C 	C 	0.56887	0.83767	0.02459	0.353
Mof_C 	C 	0.02459	0.83767	0.56887	0.353
Mof_C 	C 	0.30095	0.43023	0.30095	0.081
Mof_C 	C 	0.56977	0.03213	0.69905	0.058
Mof_C 	C 	0.03156	0.74272	0.61286	-0.114
Mof_C 	C 	0.43113	0.43113	0.97541	0.349
Mof_C 	C 	0.96844	0.38714	0.38714	-0.064
Mof_C 	C 	0.97541	0.43113	0.16233	0.35
Mof_C 	C 	0.43113	0.97541	0.16233	0.35
Mof_O 	O 	0.38752	0.97888	0.50756	-0.292
Mof_O 	O 	0.97888	0.50756	0.38752	-0.292
Mof_O 	O 	0.61248	0.02112	0.49244	-0.462
Mof_O 	O 	0.50756	0.38752	0.97888	-0.292
Mof_O 	O 	0.49244	0.02112	0.61248	-0.462
Mof_O 	O 	0.87396	0.49244	0.02112	-0.366
Mof_O 	O 	0.87396	0.02112	0.61248	-0.346
Mof_O 	O 	0.02112	0.49244	0.61248	-0.462
Mof_O 	O 	0.61248	0.87396	0.02112	-0.346
Mof_O 	O 	0.97888	0.38752	0.50756	-0.292
Mof_O 	O 	0.49244	0.61248	0.02112	-0.462
Mof_O 	O 	0.50756	0.97888	0.38752	-0.292
Mof_O 	O 	0.61248	0.49244	0.87396	-0.284
Mof_O 	O 	0.02112	0.87396	0.61248	-0.346
Mof_O 	O 	0.61248	0.49244	0.02112	-0.462
Mof_O 	O 	0.49244	0.02112	0.87396	-0.366
Mof_O 	O 	0.49244	0.61248	0.87396	-0.284
Mof_O 	O 	0.12604	0.50756	0.97888	-0.334
Mof_O 	O 	0.87396	0.61248	0.49244	-0.284
Mof_O 	O 	0.12604	0.97888	0.50756	-0.334
Mof_O 	O 	0.61248	0.02112	0.87396	-0.346
Mof_O 	O 	0.97888	0.12604	0.50756	-0.334
Mof_O 	O 	0.02112	0.49244	0.87396	-0.366
Mof_O 	O 	0.49244	0.87396	0.61248	-0.284
Mof_O 	O 	0.02112	0.61248	0.87396	-0.346
Mof_O 	O 	0.87396	0.61248	0.02112	-0.346
Mof_O 	O 	0.12604	0.50756	0.38752	-0.474
Mof_O 	O 	0.49244	0.87396	0.02112	-0.366
Mof_O 	O 	0.38752	0.12604	0.50756	-0.474
Mof_O 	O 	0.38752	0.50756	0.12604	-0.474
Mof_O 	O 	0.38752	0.12604	0.97888	-0.353
Mof_O 	O 	0.12604	0.97888	0.38752	-0.353
Mof_O 	O 	0.97888	0.12604	0.38752	-0.353
Mof_O 	O 	0.12604	0.38752	0.50756	-0.474
Mof_O 	O 	0.50756	0.97888	0.12604	-0.334
Mof_O 	O 	0.12604	0.38752	0.97888	-0.353
Mof_O 	O 	0.38752	0.50756	0.97888	-0.292
Mof_O 	O 	0.38752	0.97888	0.12604	-0.353
Mof_O 	O 	0.50756	0.38752	0.12604	-0.474
Mof_O 	O 	0.87396	0.02112	0.49244	-0.366
Mof_O 	O 	0.50756	0.12604	0.38752	-0.474
Mof_O 	O 	0.97888	0.38752	0.12604	-0.353
Mof_O 	O 	0.61248	0.87396	0.49244	-0.284
Mof_O 	O 	0.50756	0.12604	0.97888	-0.334
Mof_O 	O 	0.02112	0.61248	0.49244	-0.462
Mof_O 	O 	0.87396	0.49244	0.61248	-0.284
Mof_O 	O 	0.02112	0.87396	0.49244	-0.366
Mof_O 	O 	0.97888	0.50756	0.12604	-0.334
_end
