data_functionalizedCrystal
_audit_creation_method	'EQeq! by Chris Wilmer'
_symmetry_space_group_name_H-M	'P1'
_symmetry_Int_Tables_number	1
_symmetry_cell_setting	triclinic
loop_
_symmetry_equiv_pos_as_xyz
  x,y,z
_cell_length_a	10.799
_cell_length_b	10.799
_cell_length_c	20.897
_cell_angle_alpha	90
_cell_angle_beta	90
_cell_angle_gamma	90
loop_
_atom_site_label
_atom_site_type_symbol
_atom_site_fract_x
_atom_site_fract_y
_atom_site_fract_z
_atom_site_charge
Mof_O 	O 	0.5387	0.1194	0.6446	-0.46
Mof_N 	N 	0.2897	0.0502	0.7078	-0.188
Mof_C 	C 	0.9849	0.1165	0.667	0.001
Mof_N 	N 	0.9747	0.1744	0.6217	-0.341
Mof_N 	N 	0.5365	0.114	0.7787	-0.24
Mof_C 	C 	0.194	0.0302	0.721	-0.064
Mof_C 	C 	0.6088	0.2185	0.6538	0.335
Mof_C 	C 	0.6433	0.2633	0.7116	-0.31
Mof_H 	H 	0.719	0.351	0.708	0.062
Mof_C 	C 	0.6512	0.2805	0.5929	-0.528
Mof_H 	H 	0.618	0.2369	0.5567	0.115
Mof_H 	H 	0.74	0.2793	0.5909	0.048
Mof_H 	H 	0.6226	0.3646	0.5923	0.135
Mof_C 	C 	0.6019	0.2196	0.7715	0.27
Mof_C 	C 	0.6336	0.2949	0.8308	-0.69
Mof_H 	H 	0.6001	0.2548	0.8679	0.201
Mof_H 	H 	0.5987	0.3763	0.8269	0.216
Mof_H 	H 	0.7219	0.3011	0.8349	0.215
Mof_C 	C 	0.4957	0.0605	0.8392	-0.23
Mof_H 	H 	0.5459	0.0938	0.8737	-0.01
Mof_H 	H 	0.4104	0.0842	0.8471	0.027
Mof_O 	O 	0.4613	0.8806	0.6446	-0.416
Mof_N 	N 	0.7103	0.9498	0.7078	-0.177
Mof_C 	C 	0.0151	0.8835	0.667	-0.02
Mof_N 	N 	0.0253	0.8256	0.6217	-0.334
Mof_N 	N 	0.4635	0.886	0.7787	-0.276
Mof_C 	C 	0.806	0.9698	0.721	0.041
Mof_C 	C 	0.3912	0.7815	0.6538	0.361
Mof_C 	C 	0.3567	0.7367	0.7116	-0.32
Mof_H 	H 	0.281	0.649	0.708	0.066
Mof_C 	C 	0.3488	0.7195	0.5929	-0.583
Mof_H 	H 	0.382	0.7631	0.5567	0.147
Mof_H 	H 	0.26	0.7207	0.5909	0.079
Mof_H 	H 	0.3774	0.6354	0.5923	0.154
Mof_C 	C 	0.3981	0.7804	0.7715	0.319
Mof_C 	C 	0.3664	0.7051	0.8308	-0.756
Mof_H 	H 	0.3999	0.7452	0.8679	0.235
Mof_H 	H 	0.4013	0.6237	0.8269	0.235
Mof_H 	H 	0.2781	0.6989	0.8349	0.245
Mof_C 	C 	0.5043	0.9395	0.8392	0.241
Mof_H 	H 	0.4541	0.9062	0.8737	-0.116
Mof_H 	H 	0.5896	0.9158	0.8471	-0.103
Mof_O 	O 	0.8806	0.5387	0.1446	-0.417
Mof_N 	N 	0.9498	0.2897	0.2078	-0.172
Mof_C 	C 	0.8835	0.9849	0.167	0.062
Mof_N 	N 	0.8256	0.9747	0.1217	-0.327
Mof_N 	N 	0.886	0.5365	0.2787	-0.275
Mof_C 	C 	0.9698	0.194	0.221	0.001
Mof_C 	C 	0.7815	0.6088	0.1538	0.333
Mof_C 	C 	0.7367	0.6433	0.2116	-0.3
Mof_H 	H 	0.649	0.719	0.208	0.063
Mof_C 	C 	0.7195	0.6512	0.0929	-0.505
Mof_H 	H 	0.7631	0.618	0.0567	0.095
Mof_H 	H 	0.7207	0.74	0.0909	0.049
Mof_H 	H 	0.6354	0.6226	0.0923	0.118
Mof_C 	C 	0.7804	0.6019	0.2715	0.294
Mof_C 	C 	0.7051	0.6336	0.3308	-0.688
Mof_H 	H 	0.7452	0.6001	0.3679	0.193
Mof_H 	H 	0.6237	0.5987	0.3269	0.21
Mof_H 	H 	0.6989	0.7219	0.3349	0.215
Mof_C 	C 	0.9395	0.4957	0.3392	0.252
Mof_H 	H 	0.9062	0.5459	0.3737	-0.156
Mof_H 	H 	0.9158	0.4104	0.3471	-0.124
Mof_O 	O 	0.1194	0.4613	0.1446	-0.464
Mof_N 	N 	0.0502	0.7103	0.2078	-0.193
Mof_C 	C 	0.1165	0.0151	0.167	-0.089
Mof_N 	N 	0.1744	0.0253	0.1217	-0.31
Mof_N 	N 	0.114	0.4635	0.2787	-0.239
Mof_C 	C 	0.0302	0.806	0.221	-0.021
Mof_C 	C 	0.2185	0.3912	0.1538	0.336
Mof_C 	C 	0.2633	0.3567	0.2116	-0.303
Mof_H 	H 	0.351	0.281	0.208	0.062
Mof_C 	C 	0.2805	0.3488	0.0929	-0.547
Mof_H 	H 	0.2369	0.382	0.0567	0.102
Mof_H 	H 	0.2793	0.26	0.0909	0.07
Mof_H 	H 	0.3646	0.3774	0.0923	0.135
Mof_C 	C 	0.2196	0.3981	0.2715	0.249
Mof_C 	C 	0.2949	0.3664	0.3308	-0.614
Mof_H 	H 	0.2548	0.3999	0.3679	0.154
Mof_H 	H 	0.3763	0.4013	0.3269	0.188
Mof_H 	H 	0.3011	0.2781	0.3349	0.175
Mof_C 	C 	0.0605	0.5043	0.3392	-0.214
Mof_H 	H 	0.0938	0.4541	0.3737	-0.05
Mof_H 	H 	0.0842	0.5896	0.3471	0.002
Mof_O 	O 	0.4613	0.8806	0.3554	-0.415
Mof_N 	N 	0.7103	0.9498	0.2922	-0.177
Mof_C 	C 	0.0151	0.8835	0.333	-0.02
Mof_N 	N 	0.0253	0.8256	0.3783	-0.334
Mof_N 	N 	0.4635	0.886	0.2213	-0.273
Mof_C 	C 	0.806	0.9698	0.279	0.04
Mof_C 	C 	0.3912	0.7815	0.3462	0.356
Mof_C 	C 	0.3567	0.7367	0.2884	-0.311
Mof_H 	H 	0.281	0.649	0.292	0.065
Mof_C 	C 	0.3488	0.7195	0.4071	-0.578
Mof_H 	H 	0.382	0.7631	0.4433	0.146
Mof_H 	H 	0.26	0.7207	0.4091	0.077
Mof_H 	H 	0.3774	0.6354	0.4077	0.152
Mof_C 	C 	0.3981	0.7804	0.2285	0.299
Mof_C 	C 	0.3664	0.7051	0.1692	-0.691
Mof_H 	H 	0.3999	0.7452	0.1321	0.193
Mof_H 	H 	0.4013	0.6237	0.1731	0.209
Mof_H 	H 	0.2781	0.6989	0.1651	0.212
Mof_C 	C 	0.5043	0.9395	0.1608	0.243
Mof_H 	H 	0.4541	0.9062	0.1263	-0.14
Mof_H 	H 	0.5896	0.9158	0.1529	-0.114
Mof_O 	O 	0.5387	0.1194	0.3554	-0.458
Mof_N 	N 	0.2897	0.0502	0.2922	-0.187
Mof_C 	C 	0.9849	0.1165	0.333	0.001
Mof_N 	N 	0.9747	0.1744	0.3783	-0.341
Mof_N 	N 	0.5365	0.114	0.2213	-0.238
Mof_C 	C 	0.194	0.0302	0.279	-0.064
Mof_C 	C 	0.6088	0.2185	0.3462	0.331
Mof_C 	C 	0.6433	0.2633	0.2884	-0.301
Mof_H 	H 	0.719	0.351	0.292	0.061
Mof_C 	C 	0.6512	0.2805	0.4071	-0.524
Mof_H 	H 	0.618	0.2369	0.4433	0.114
Mof_H 	H 	0.74	0.2793	0.4091	0.046
Mof_H 	H 	0.6226	0.3646	0.4077	0.134
Mof_C 	C 	0.6019	0.2196	0.2285	0.251
Mof_C 	C 	0.6336	0.2949	0.1692	-0.626
Mof_H 	H 	0.6001	0.2548	0.1321	0.16
Mof_H 	H 	0.5987	0.3763	0.1731	0.191
Mof_H 	H 	0.7219	0.3011	0.1651	0.182
Mof_C 	C 	0.4957	0.0605	0.1608	-0.22
Mof_H 	H 	0.5459	0.0938	0.1263	-0.036
Mof_H 	H 	0.4104	0.0842	0.1529	0.014
Mof_O 	O 	0.1194	0.4613	0.8554	-0.459
Mof_N 	N 	0.0502	0.7103	0.7922	-0.189
Mof_C 	C 	0.1165	0.0151	0.833	-0.078
Mof_N 	N 	0.1744	0.0253	0.8783	-0.28
Mof_N 	N 	0.114	0.4635	0.7213	-0.244
Mof_C 	C 	0.0302	0.806	0.779	-0.014
Mof_C 	C 	0.2185	0.3912	0.8462	0.409
Mof_C 	C 	0.2633	0.3567	0.7884	-0.336
Mof_H 	H 	0.351	0.281	0.792	0.069
Mof_C 	C 	0.2805	0.3488	0.9071	-0.754
Mof_H 	H 	0.2369	0.382	0.9433	0.233
Mof_H 	H 	0.2793	0.26	0.9091	0.166
Mof_H 	H 	0.3646	0.3774	0.9077	0.23
Mof_C 	C 	0.2196	0.3981	0.7285	0.264
Mof_C 	C 	0.2949	0.3664	0.6692	-0.629
Mof_H 	H 	0.2548	0.3999	0.6321	0.159
Mof_H 	H 	0.3763	0.4013	0.6731	0.193
Mof_H 	H 	0.3011	0.2781	0.6651	0.18
Mof_C 	C 	0.0605	0.5043	0.6608	-0.215
Mof_H 	H 	0.0938	0.4541	0.6263	-0.05
Mof_H 	H 	0.0842	0.5896	0.6529	0.001
Mof_O 	O 	0.8806	0.5387	0.8554	-0.412
Mof_N 	N 	0.9498	0.2897	0.7922	-0.168
Mof_C 	C 	0.8835	0.9849	0.833	0.074
Mof_N 	N 	0.8256	0.9747	0.8783	-0.296
Mof_N 	N 	0.886	0.5365	0.7213	-0.279
Mof_C 	C 	0.9698	0.194	0.779	0.008
Mof_C 	C 	0.7815	0.6088	0.8462	0.406
Mof_C 	C 	0.7367	0.6433	0.7884	-0.334
Mof_H 	H 	0.649	0.719	0.792	0.071
Mof_C 	C 	0.7195	0.6512	0.9071	-0.714
Mof_H 	H 	0.7631	0.618	0.9433	0.227
Mof_H 	H 	0.7207	0.74	0.9091	0.147
Mof_H 	H 	0.6354	0.6226	0.9077	0.214
Mof_C 	C 	0.7804	0.6019	0.7285	0.308
Mof_C 	C 	0.7051	0.6336	0.6692	-0.703
Mof_H 	H 	0.7452	0.6001	0.6321	0.198
Mof_H 	H 	0.6237	0.5987	0.6731	0.215
Mof_H 	H 	0.6989	0.7219	0.6651	0.22
Mof_C 	C 	0.9395	0.4957	0.6608	0.253
Mof_H 	H 	0.9062	0.5459	0.6263	-0.157
Mof_H 	H 	0.9158	0.4104	0.6529	-0.125
Mof_W 	W 	-1.52756e-32	1.03586e-32	0.75	0.237
Mof_W 	W 	1.81385e-33	0	0.25	0.24
Mof_Mn	Mn	0.5	1.03586e-32	0.70668	0.88
Mof_Mn	Mn	1.18581e-32	0.5	0.20668	0.88
Mof_Mn	Mn	0.5	5.17928e-33	0.29332	0.881
Mof_Mn	Mn	5.75586e-33	0.5	0.79332	0.891
Mof_O 	O 	0.835	0.525	0.5	-0.649
Mof_K 	K 	0.9703	0.2993	0.5	2.444
Mof_O 	O 	0.165	0.475	0.5	-0.696
Mof_K 	K 	0.0297	0.7007	0.5	2.125
Mof_O 	O 	0.475	0.835	-0	-0.648
Mof_K 	K 	0.7007	0.9703	-0	2.236
Mof_O 	O 	0.525	0.165	-0	-0.69
Mof_K 	K 	0.2993	0.0297	-0	1.695
_end
