data_functionalizedCrystal
_audit_creation_method	'EQeq! by Chris Wilmer'
_symmetry_space_group_name_H-M	'P1'
_symmetry_Int_Tables_number	1
_symmetry_cell_setting	triclinic
loop_
_symmetry_equiv_pos_as_xyz
  x,y,z
_cell_length_a	8.1584
_cell_length_b	8.1584
_cell_length_c	12.1399
_cell_angle_alpha	90
_cell_angle_beta	90
_cell_angle_gamma	120
loop_
_atom_site_label
_atom_site_type_symbol
_atom_site_fract_x
_atom_site_fract_y
_atom_site_fract_z
_atom_site_charge
Mof_O 	O 	0.2934	0.7615	0.56851	-0.548
Mof_O 	O 	0.1621	0.4942	0.47464	-0.607
Mof_C 	C 	0.2621	0.5947	0.55308	0.641
Mof_C 	C 	0.3449	0.512	0.6304	-0.886
Mof_H 	H 	0.354	0.4102	0.5931	0.243
Mof_H 	H 	0.2635	0.4608	0.6954	0.23
Mof_H 	H 	0.4715	0.6108	0.6532	0.266
Mof_O 	O 	0.2385	0.5319	0.23518	-0.625
Mof_O 	O 	0.5058	0.6679	0.14131	-0.608
Mof_C 	C 	0.4053	0.6674	0.21975	0.713
Mof_C 	C 	0.488	0.8329	0.29707	-1.013
Mof_H 	H 	0.5898	0.9438	0.25977	0.333
Mof_H 	H 	0.5392	0.8027	0.36207	0.314
Mof_H 	H 	0.3892	0.8607	0.31987	0.305
Mof_O 	O 	0.4681	0.7066	0.90184	-0.492
Mof_O 	O 	0.3321	0.8379	0.80797	-0.495
Mof_C 	C 	0.3326	0.7379	0.88641	0.534
Mof_C 	C 	0.1671	0.6551	0.96373	-0.473
Mof_H 	H 	0.0562	0.646	0.92643	0.123
Mof_H 	H 	0.1973	0.7365	0.02873	0.073
Mof_H 	H 	0.1393	0.5285	0.98653	0.133
Mof_O 	O 	0.7615	0.2934	0.43149	-0.549
Mof_O 	O 	0.4942	0.1621	0.52536	-0.605
Mof_C 	C 	0.5947	0.2621	0.44692	0.636
Mof_C 	C 	0.512	0.3449	0.3696	-0.873
Mof_H 	H 	0.4102	0.354	0.4069	0.238
Mof_H 	H 	0.4608	0.2635	0.3046	0.221
Mof_H 	H 	0.6108	0.4715	0.3468	0.26
Mof_O 	O 	0.5319	0.2385	0.76482	-0.605
Mof_O 	O 	0.6679	0.5058	0.85869	-0.551
Mof_C 	C 	0.6674	0.4053	0.78025	0.701
Mof_C 	C 	0.8329	0.488	0.70293	-1.001
Mof_H 	H 	0.9438	0.5898	0.74023	0.338
Mof_H 	H 	0.8027	0.5392	0.63793	0.311
Mof_H 	H 	0.8607	0.3892	0.68013	0.304
Mof_O 	O 	0.7066	0.4681	0.09816	-0.601
Mof_O 	O 	0.8379	0.3321	0.19203	-0.569
Mof_C 	C 	0.7379	0.3326	0.11359	0.713
Mof_C 	C 	0.6551	0.1671	0.03627	-1.14
Mof_H 	H 	0.646	0.0562	0.07357	0.278
Mof_H 	H 	0.7365	0.1973	0.97127	0.383
Mof_H 	H 	0.5285	0.1393	0.01347	0.265
Mof_Sc	Sc	0.41648	1.8037e-32	0.66667	1.194
Mof_Sc	Sc	-2.01271e-17	0.41648	0.33333	1.203
Mof_Sc	Sc	0.58352	0.58352	-0	1.288
_end
