data_functionalizedCrystal
_audit_creation_method	'EQeq! by Chris Wilmer'
_symmetry_space_group_name_H-M	'P1'
_symmetry_Int_Tables_number	1
_symmetry_cell_setting	triclinic
loop_
_symmetry_equiv_pos_as_xyz
  x,y,z
_cell_length_a	14.2247
_cell_length_b	15.5954
_cell_length_c	17.7296
_cell_angle_alpha	90
_cell_angle_beta	113.65
_cell_angle_gamma	90
loop_
_atom_site_label
_atom_site_type_symbol
_atom_site_fract_x
_atom_site_fract_y
_atom_site_fract_z
_atom_site_charge
Mof_Zn	Zn	0.63013	0.79726	0.5	1.239
Mof_Zn	Zn	0.86987	0.79726	0.5	1.239
Mof_Zn	Zn	0.36987	0.20274	0.5	1.24
Mof_Zn	Zn	0.13013	0.20274	0.5	1.241
Mof_Zn	Zn	0.75	0.5	-0	1.221
Mof_Zn	Zn	0.25	0.5	-0	1.221
Mof_H 	H 	0.7236	0.6837	0.7272	0.006
Mof_H 	H 	0.7764	0.6837	0.2728	-0.008
Mof_H 	H 	0.5036	0.3163	0.7272	0.005
Mof_H 	H 	0.9964	0.3163	0.2728	-0.015
Mof_H 	H 	0.2764	0.3163	0.2728	-0.007
Mof_H 	H 	0.2236	0.3163	0.7272	0.005
Mof_H 	H 	0.4964	0.6837	0.2728	-0.007
Mof_H 	H 	0.0036	0.6837	0.7272	0.014
Mof_H 	H 	0.3907	0.9364	0.5	0.014
Mof_H 	H 	0.1093	0.9364	0.5	0.016
Mof_H 	H 	0.6093	0.0636	0.5	0.014
Mof_H 	H 	0.8907	0.0636	0.5	0.013
Mof_H 	H 	0.9583	0.5815	0.9166	0.041
Mof_H 	H 	0.5417	0.5815	0.0834	-0.008
Mof_H 	H 	0.4583	0.4185	0.9166	0.044
Mof_H 	H 	0.0417	0.4185	0.0834	-0.005
Mof_H 	H 	0.25	0.7165	0.5	0.005
Mof_H 	H 	0.75	0.2835	0.5	0.003
Mof_C 	C 	0.8271	0.6283	0.827	-0.161
Mof_C 	C 	0.7927	0.6693	0.7532	0.126
Mof_C 	C 	0.7588	0.6023	0.8692	0.399
Mof_C 	C 	0.6729	0.6283	0.173	-0.206
Mof_C 	C 	0.7073	0.6693	0.2468	0.15
Mof_C 	C 	0.7412	0.6023	0.1308	0.416
Mof_C 	C 	0.4999	0.3717	0.827	-0.162
Mof_C 	C 	0.4605	0.3307	0.7532	0.129
Mof_C 	C 	0.6104	0.3977	0.8692	0.4
Mof_C 	C 	0.0001	0.3717	0.173	-0.201
Mof_C 	C 	0.0395	0.3307	0.2468	0.161
Mof_C 	C 	0.8896	0.3977	0.1308	0.411
Mof_C 	C 	0.1729	0.3717	0.173	-0.205
Mof_C 	C 	0.2073	0.3307	0.2468	0.152
Mof_C 	C 	0.2412	0.3977	0.1308	0.416
Mof_C 	C 	0.3271	0.3717	0.827	-0.162
Mof_C 	C 	0.2927	0.3307	0.7532	0.129
Mof_C 	C 	0.2588	0.3977	0.8692	0.4
Mof_C 	C 	0.5001	0.6283	0.173	-0.205
Mof_C 	C 	0.5395	0.6693	0.2468	0.15
Mof_C 	C 	0.3896	0.6023	0.1308	0.416
Mof_C 	C 	0.9999	0.6283	0.827	-0.165
Mof_C 	C 	0.9605	0.6693	0.7532	0.115
Mof_C 	C 	0.1104	0.6023	0.8692	0.405
Mof_C 	C 	0.3339	0.9068	0.5	0.118
Mof_C 	C 	0.3343	0.8213	0.5	-0.196
Mof_C 	C 	0.428	0.7748	0.5	0.401
Mof_C 	C 	0.1661	0.9068	0.5	0.117
Mof_C 	C 	0.1657	0.8213	0.5	-0.195
Mof_C 	C 	0.072	0.7748	0.5	0.4
Mof_C 	C 	0.6661	0.0932	0.5	0.119
Mof_C 	C 	0.6657	0.1787	0.5	-0.198
Mof_C 	C 	0.572	0.2252	0.5	0.401
Mof_C 	C 	0.8339	0.0932	0.5	0.119
Mof_C 	C 	0.8343	0.1787	0.5	-0.198
Mof_C 	C 	0.928	0.2252	0.5	0.402
Mof_C 	C 	0.9327	0.6083	0.8654	0.089
Mof_C 	C 	0.858	0.69	0.716	-0.201
Mof_C 	C 	0.8168	0.7297	0.6336	0.464
Mof_C 	C 	0.5673	0.6083	0.1346	0.111
Mof_C 	C 	0.642	0.69	0.284	-0.231
Mof_C 	C 	0.6832	0.7297	0.3664	0.472
Mof_C 	C 	0.4327	0.3917	0.8654	0.089
Mof_C 	C 	0.358	0.31	0.716	-0.205
Mof_C 	C 	0.3168	0.2703	0.6336	0.466
Mof_C 	C 	0.0673	0.3917	0.1346	0.11
Mof_C 	C 	0.142	0.31	0.284	-0.235
Mof_C 	C 	0.1832	0.2703	0.3664	0.474
Mof_C 	C 	0.25	0.7761	0.5	0.087
Mof_C 	C 	0.25	0.9521	0.5	-0.203
Mof_C 	C 	0.25	0.0479	0.5	0.457
Mof_C 	C 	0.75	0.2239	0.5	0.089
Mof_C 	C 	0.75	0.0479	0.5	-0.205
Mof_C 	C 	0.75	0.9521	0.5	0.458
Mof_O 	O 	0.72264	0.7452	0.60048	-0.522
Mof_O 	O 	0.8055	0.5676	0.9384	-0.435
Mof_O 	O 	0.6669	0.6158	0.8356	-0.337
Mof_O 	O 	0.77736	0.7452	0.39952	-0.529
Mof_O 	O 	0.6945	0.5676	0.0616	-0.524
Mof_O 	O 	0.8331	0.6158	0.1644	-0.358
Mof_O 	O 	0.37784	0.2548	0.60048	-0.522
Mof_O 	O 	0.6329	0.4324	0.9384	-0.435
Mof_O 	O 	0.6687	0.3842	0.8356	-0.337
Mof_O 	O 	0.12216	0.2548	0.39952	-0.526
Mof_O 	O 	0.8671	0.4324	0.0616	-0.525
Mof_O 	O 	0.8313	0.3842	0.1644	-0.356
Mof_O 	O 	0.27736	0.2548	0.39952	-0.527
Mof_O 	O 	0.1945	0.4324	0.0616	-0.523
Mof_O 	O 	0.3331	0.3842	0.1644	-0.357
Mof_O 	O 	0.22264	0.2548	0.60048	-0.521
Mof_O 	O 	0.3055	0.4324	0.9384	-0.435
Mof_O 	O 	0.1669	0.3842	0.8356	-0.337
Mof_O 	O 	0.62216	0.7452	0.39952	-0.527
Mof_O 	O 	0.3671	0.5676	0.0616	-0.524
Mof_O 	O 	0.3313	0.6158	0.1644	-0.356
Mof_O 	O 	0.87784	0.7452	0.60048	-0.525
Mof_O 	O 	0.1329	0.5676	0.9384	-0.435
Mof_O 	O 	0.1687	0.6158	0.8356	-0.338
Mof_O 	O 	0.4982	0.8207	0.5	-0.484
Mof_O 	O 	0.4296	0.6964	0.5	-0.32
Mof_O 	O 	0.1723	0.0838	0.5	-0.51
Mof_O 	O 	0.0018	0.8207	0.5	-0.48
Mof_O 	O 	0.0704	0.6964	0.5	-0.318
Mof_O 	O 	0.3277	0.0838	0.5	-0.51
Mof_O 	O 	0.5018	0.1793	0.5	-0.484
Mof_O 	O 	0.5704	0.3036	0.5	-0.321
Mof_O 	O 	0.8277	0.9162	0.5	-0.513
Mof_O 	O 	0.9982	0.1793	0.5	-0.488
Mof_O 	O 	0.9296	0.3036	0.5	-0.323
Mof_O 	O 	0.6723	0.9162	0.5	-0.511
Mof_H 	H 	0.0538	0.2626	0.9674	0.163
Mof_H 	H 	0.0807	0.2746	0.8904	0.134
Mof_H 	H 	0.0343	0.3511	0.9216	0.145
Mof_H 	H 	0.9628	0.4107	0.8196	0.23
Mof_H 	H 	0.9576	0.2087	0.7322	0.486
Mof_H 	H 	0.9343	0.2949	0.6824	0.507
Mof_H 	H 	0.0269	0.2894	0.7684	0.511
Mof_H 	H 	0.9136	0.2626	0.9674	0.162
Mof_H 	H 	0.8097	0.2746	0.8904	0.135
Mof_H 	H 	0.8873	0.3511	0.9216	0.144
Mof_H 	H 	0.8568	0.4107	0.8196	0.232
Mof_H 	H 	0.7746	0.2087	0.7322	0.482
Mof_H 	H 	0.7481	0.2949	0.6824	0.503
Mof_H 	H 	0.7415	0.2894	0.7684	0.503
Mof_C 	C 	0.0336	0.29	0.9146	-0.349
Mof_C 	C 	0.9582	0.2701	0.7364	-1.54
Mof_C 	C 	0.881	0.29	0.9146	-0.353
Mof_C 	C 	0.7782	0.2701	0.7364	-1.523
Mof_C 	C 	0.8935	0.3935	0.787	-0.62
Mof_C 	C 	0.8889	0.2975	0.7778	0.895
Mof_N 	N 	0.9305	0.2624	0.861	-0.153
Mof_H 	H 	0.4462	0.2626	0.0326	0.078
Mof_H 	H 	0.4193	0.2746	0.1096	0.079
Mof_H 	H 	0.4657	0.3511	0.0784	0.081
Mof_H 	H 	0.5372	0.4107	0.1804	0.223
Mof_H 	H 	0.5424	0.2087	0.2678	0.462
Mof_H 	H 	0.5657	0.2949	0.3176	0.49
Mof_H 	H 	0.4731	0.2894	0.2316	0.488
Mof_H 	H 	0.5864	0.2626	0.0326	0.078
Mof_H 	H 	0.6903	0.2746	0.1096	0.078
Mof_H 	H 	0.6127	0.3511	0.0784	0.08
Mof_H 	H 	0.6432	0.4107	0.1804	0.223
Mof_H 	H 	0.7254	0.2087	0.2678	0.461
Mof_H 	H 	0.7519	0.2949	0.3176	0.489
Mof_H 	H 	0.7585	0.2894	0.2316	0.488
Mof_C 	C 	0.4664	0.29	0.0854	-0.244
Mof_C 	C 	0.5418	0.2701	0.2636	-1.484
Mof_C 	C 	0.619	0.29	0.0854	-0.242
Mof_C 	C 	0.7218	0.2701	0.2636	-1.483
Mof_C 	C 	0.6065	0.3935	0.213	-0.603
Mof_C 	C 	0.6111	0.2975	0.2222	0.871
Mof_N 	N 	0.5695	0.2624	0.139	-0.183
Mof_H 	H 	0.4136	0.7374	0.9674	0.165
Mof_H 	H 	0.3097	0.7254	0.8904	0.137
Mof_H 	H 	0.3873	0.6489	0.9216	0.147
Mof_H 	H 	0.3568	0.5893	0.8196	0.231
Mof_H 	H 	0.2746	0.7913	0.7322	0.48
Mof_H 	H 	0.2481	0.7051	0.6824	0.501
Mof_H 	H 	0.2415	0.7106	0.7684	0.501
Mof_H 	H 	0.5538	0.7374	0.9674	0.165
Mof_H 	H 	0.5807	0.7254	0.8904	0.136
Mof_H 	H 	0.5343	0.6489	0.9216	0.146
Mof_H 	H 	0.4628	0.5893	0.8196	0.231
Mof_H 	H 	0.4576	0.7913	0.7322	0.479
Mof_H 	H 	0.4343	0.7051	0.6824	0.5
Mof_H 	H 	0.5269	0.7106	0.7684	0.5
Mof_C 	C 	0.381	0.71	0.9146	-0.356
Mof_C 	C 	0.2782	0.7299	0.7364	-1.515
Mof_C 	C 	0.5336	0.71	0.9146	-0.356
Mof_C 	C 	0.4582	0.7299	0.7364	-1.513
Mof_C 	C 	0.3935	0.6065	0.787	-0.615
Mof_C 	C 	0.3889	0.7025	0.7778	0.886
Mof_N 	N 	0.4305	0.7376	0.861	-0.149
Mof_H 	H 	0.0864	0.7374	0.0326	0.083
Mof_H 	H 	0.1903	0.7254	0.1096	0.081
Mof_H 	H 	0.1127	0.6489	0.0784	0.084
Mof_H 	H 	0.1432	0.5893	0.1804	0.221
Mof_H 	H 	0.2254	0.7913	0.2678	0.457
Mof_H 	H 	0.2519	0.7051	0.3176	0.484
Mof_H 	H 	0.2585	0.7106	0.2316	0.483
Mof_H 	H 	0.9462	0.7374	0.0326	0.079
Mof_H 	H 	0.9193	0.7254	0.1096	0.082
Mof_H 	H 	0.9657	0.6489	0.0784	0.082
Mof_H 	H 	0.0372	0.5893	0.1804	0.224
Mof_H 	H 	0.0424	0.7913	0.2678	0.449
Mof_H 	H 	0.0657	0.7051	0.3176	0.477
Mof_H 	H 	0.9731	0.7106	0.2316	0.467
Mof_C 	C 	0.119	0.71	0.0854	-0.248
Mof_C 	C 	0.2218	0.7299	0.2636	-1.465
Mof_C 	C 	0.9664	0.71	0.0854	-0.257
Mof_C 	C 	0.0418	0.7299	0.2636	-1.434
Mof_C 	C 	0.1065	0.6065	0.213	-0.594
Mof_C 	C 	0.1111	0.7025	0.2222	0.853
Mof_N 	N 	0.0695	0.7376	0.139	-0.175
_end
