# CIF file generated by openbabel 3.1.0, see https://openbabel.org
data_I
_chemical_name_common 'image0'
_cell_length_a 15.5168
_cell_length_b 16.779
_cell_length_c 18.7394
_cell_angle_alpha 94.142
_cell_angle_beta 113.527
_cell_angle_gamma 110.215
_space_group_name_H-M_alt 'P 1'
_space_group_name_Hall 'P 1'
loop_
    _symmetry_equiv_pos_as_xyz
    x,y,z
loop_
    _atom_site_label
    _atom_site_type_symbol
    _atom_site_fract_x
    _atom_site_fract_y
    _atom_site_fract_z
    _atom_site_occupancy
    Zn1      Zn       0.42982    0.41057    0.28820    1.000
    Zn2      Zn       0.19115    0.87693    0.46624    1.000
    Zn3      Zn       0.00845    0.80840    0.27560    1.000
    S1       S        0.26838    0.13098    0.31983    1.000
    S2       S        0.76722    0.62936    0.35886    1.000
    S3       S        0.29331    0.65218    0.38312    1.000
    S4       S        0.74845    0.72240    0.99591    1.000
    O1       O        0.10950    0.91830    0.36370    1.000
    O2       O        0.12590    0.94250    0.25490    1.000
    O3       O        0.39370    0.37080    0.44240    1.000
    O4       O        0.39470    0.31050    0.33230    1.000
    O5       O        0.60240    0.49540    0.45460    1.000
    O6       O        0.56820    0.50210    0.32790    1.000
    O7       O        0.93330    0.74570    0.33360    1.000
    O8       O        0.05630    0.78680    0.45810    1.000
    O9       O        0.90560    0.77120    0.16250    1.000
    O10      O        0.86710    0.86770    0.20990    1.000
    O11      O        0.62690    0.63970    0.82510    1.000
    O12      O        0.50850    0.69240    0.80010    1.000
    O13      O        0.42190    0.55150    0.40950    1.000
    O14      O        0.33900    0.46930    0.28570    1.000
    O15      O        0.20890    0.78420    0.39800    1.000
    O16      O        0.08700    0.74020    0.27030    1.000
    C1       C        0.16750    0.62260    0.24030    1.000
    H1       H        0.11660    0.62410    0.19310    1.000
    C2       C        0.21790    0.56590    0.24420    1.000
    H2       H        0.20340    0.52590    0.19960    1.000
    C3       C        0.68890    0.81940    0.05310    1.000
    H3       H        0.68270    0.85650    0.08840    1.000
    C4       C        0.76530    0.79070    0.07490    1.000
    C5       C        0.63920    0.73100    0.93090    1.000
    C6       C        0.62090    0.78660    0.97150    1.000
    H4       H        0.56620    0.80240    0.94690    1.000
    C7       C        0.85210    0.81290    0.15560    1.000
    C8       C        0.80920    0.62740    0.50200    1.000
    H5       H        0.80430    0.61520    0.54820    1.000
    C9       C        0.20120    0.67320    0.31140    1.000
    C10      C        0.28770    0.57550    0.31780    1.000
    C11      C        0.58660    0.68360    0.84460    1.000
    C12      C        0.14410    0.96890    0.32580    1.000
    C13      C        0.22080    0.10830    0.43360    1.000
    H6       H        0.19320    0.08200    0.46610    1.000
    C14      C        0.89900    0.68600    0.50220    1.000
    H7       H        0.95990    0.71700    0.54890    1.000
    C15      C        0.35700    0.52870    0.34080    1.000
    C16      C        0.20840    0.06420    0.36560    1.000
    C17      C        0.62430    0.52540    0.40130    1.000
    C18      C        0.88930    0.69330    0.42940    1.000
    C19      C        0.16040    0.73810    0.32820    1.000
    C20      C        0.37330    0.30930    0.39000    1.000
    C21      C        0.73100    0.59100    0.42790    1.000
    C22      C        0.96620    0.74650    0.40700    1.000
    C23      C        0.31130    0.21960    0.39460    1.000
    C24      C        0.27930    0.19800    0.45090    1.000
    H8       H        0.29470    0.23820    0.49570    1.000
    Zn4      Zn       0.57018    0.58943    0.71180    1.000
    Zn5      Zn       0.80885    0.12307    0.53376    1.000
    Zn6      Zn       0.99155    0.19160    0.72440    1.000
    S5       S        0.73162    0.86902    0.68017    1.000
    S6       S        0.23278    0.37064    0.64114    1.000
    S7       S        0.70669    0.34782    0.61688    1.000
    S8       S        0.25155    0.27760    0.00409    1.000
    O17      O        0.89050    0.08170    0.63630    1.000
    O18      O        0.87410    0.05750    0.74510    1.000
    O19      O        0.60630    0.62920    0.55760    1.000
    O20      O        0.60530    0.68950    0.66770    1.000
    O21      O        0.39760    0.50460    0.54540    1.000
    O22      O        0.43180    0.49790    0.67210    1.000
    O23      O        0.06670    0.25430    0.66640    1.000
    O24      O        0.94370    0.21320    0.54190    1.000
    O25      O        0.09440    0.22880    0.83750    1.000
    O26      O        0.13290    0.13230    0.79010    1.000
    O27      O        0.37310    0.36030    0.17490    1.000
    O28      O        0.49150    0.30760    0.19990    1.000
    O29      O        0.57810    0.44850    0.59050    1.000
    O30      O        0.66100    0.53070    0.71430    1.000
    O31      O        0.79110    0.21580    0.60200    1.000
    O32      O        0.91300    0.25980    0.72970    1.000
    C25      C        0.83250    0.37740    0.75970    1.000
    H9       H        0.88340    0.37590    0.80690    1.000
    C26      C        0.78210    0.43410    0.75580    1.000
    H10      H        0.79660    0.47410    0.80040    1.000
    C27      C        0.31110    0.18060    0.94690    1.000
    H11      H        0.31730    0.14350    0.91160    1.000
    C28      C        0.23470    0.20930    0.92510    1.000
    C29      C        0.36080    0.26900    0.06910    1.000
    C30      C        0.37910    0.21340    0.02850    1.000
    H12      H        0.43380    0.19760    0.05310    1.000
    C31      C        0.14790    0.18710    0.84440    1.000
    C32      C        0.19080    0.37260    0.49800    1.000
    H13      H        0.19570    0.38480    0.45180    1.000
    C33      C        0.79880    0.32680    0.68860    1.000
    C34      C        0.71230    0.42450    0.68220    1.000
    C35      C        0.41340    0.31640    0.15540    1.000
    C36      C        0.85590    0.03110    0.67420    1.000
    C37      C        0.77920    0.89170    0.56640    1.000
    H14      H        0.80680    0.91800    0.53390    1.000
    C38      C        0.10100    0.31400    0.49780    1.000
    H15      H        0.04010    0.28300    0.45110    1.000
    C39      C        0.64300    0.47130    0.65920    1.000
    C40      C        0.79160    0.93580    0.63440    1.000
    C41      C        0.37570    0.47460    0.59870    1.000
    C42      C        0.11070    0.30670    0.57060    1.000
    C43      C        0.83960    0.26190    0.67180    1.000
    C44      C        0.62670    0.69070    0.61000    1.000
    C45      C        0.26900    0.40900    0.57210    1.000
    C46      C        0.03380    0.25350    0.59300    1.000
    C47      C        0.68870    0.78040    0.60540    1.000
    C48      C        0.72070    0.80200    0.54910    1.000
    H16      H        0.70530    0.76180    0.50430    1.000
    Zn7      Zn       0.50000    0.50000    0.50000    1.000
