# CIF file generated by openbabel 3.1.0, see https://openbabel.org
data_I
_chemical_name_common 'YAPRUE_charged'
_cell_length_a 15.454
_cell_length_b 18.7345
_cell_length_c 18.7345
_cell_angle_alpha 80.2055
_cell_angle_beta 65.6412
_cell_angle_gamma 65.6412
_space_group_name_H-M_alt 'P 1'
_space_group_name_Hall 'P 1'
loop_
    _symmetry_equiv_pos_as_xyz
    x,y,z
loop_
    _atom_site_label
    _atom_site_type_symbol
    _atom_site_fract_x
    _atom_site_fract_y
    _atom_site_fract_z
    _atom_site_occupancy
    Cs1      Cs       0.44572    0.50094    0.83728    1.000
    Cs2      Cs       0.78394    0.49906    0.16272    1.000
    Cs3      Cs       0.28300    0.16272    0.50094    1.000
    Cs4      Cs       0.94666    0.83728    0.49906    1.000
    H1       H        0.06000    0.40340    0.85440    1.000
    H2       H        0.01960    0.31950    0.01210    1.000
    H3       H        0.32200    0.49400    0.05180    1.000
    H4       H        0.97310    0.21980    0.32240    1.000
    H5       H        0.00860    0.37300    0.13600    1.000
    H6       H        0.41750    0.26910    0.18750    1.000
    H7       H        0.99570    0.55240    0.87760    1.000
    H8       H        0.09660    0.65980    0.69560    1.000
    H9       H        0.44090    0.68180    0.72260    1.000
    H10      H        0.09860    0.72640    0.64100    1.000
    H11      H        0.01880    0.98360    0.55220    1.000
    H12      H        0.35890    0.90310    0.70350    1.000
    H13      H        0.26290    0.40920    0.81560    1.000
    H14      H        0.10790    0.44150    0.92370    1.000
    H15      H        0.19150    0.28150    0.97510    1.000
    H16      H        0.14230    0.42420    0.04740    1.000
    H17      H        0.34130    0.30440    0.96560    1.000
    H18      H        0.41670    0.38330    0.98130    1.000
    H19      H        0.34240    0.36730    0.06650    1.000
    H20      H        0.14790    0.41590    0.15690    1.000
    H21      H        0.02770    0.38950    0.27310    1.000
    H22      H        0.08270    0.24430    0.20250    1.000
    H23      H        0.38960    0.33370    0.73350    1.000
    H24      H        0.27300    0.21460    0.17620    1.000
    H25      H        0.33650    0.16210    0.28110    1.000
    H26      H        0.30480    0.24960    0.30620    1.000
    H27      H        0.16780    0.55410    0.93070    1.000
    H28      H        0.13970    0.55860    0.81760    1.000
    H29      H        0.01400    0.72210    0.84010    1.000
    H30      H        0.21920    0.66070    0.72690    1.000
    H31      H        0.14600    0.74360    0.87000    1.000
    H32      H        0.31780    0.72100    0.84420    1.000
    H33      H        0.28230    0.77660    0.77820    1.000
    H34      H        0.24820    0.73780    0.63240    1.000
    H35      H        0.17720    0.82320    0.55160    1.000
    H36      H        0.00060    0.90430    0.68490    1.000
    H37      H        0.11740    0.57870    0.04270    1.000
    H38      H        0.12220    0.90780    0.74020    1.000
    H39      H        0.17880    0.01340    0.70800    1.000
    H40      H        0.27570    0.96500    0.63480    1.000
    H41      H        0.31780    0.59660    0.14560    1.000
    H42      H        0.35120    0.68050    0.98790    1.000
    H43      H        0.86780    0.50600    0.94820    1.000
    H44      H        0.51530    0.78020    0.67760    1.000
    H45      H        0.51760    0.62700    0.86400    1.000
    H46      H        0.87410    0.73090    0.81250    1.000
    H47      H        0.42570    0.44760    0.12240    1.000
    H48      H        0.45200    0.34020    0.30440    1.000
    H49      H        0.84530    0.31820    0.27740    1.000
    H50      H        0.46600    0.27360    0.35900    1.000
    H51      H        0.55460    0.01640    0.44780    1.000
    H52      H        0.96550    0.09690    0.29650    1.000
    H53      H        0.48770    0.59080    0.18440    1.000
    H54      H        0.47310    0.55850    0.07630    1.000
    H55      H        0.44810    0.71850    0.02490    1.000
    H56      H        0.61390    0.57580    0.95260    1.000
    H57      H        0.61130    0.69560    0.03440    1.000
    H58      H        0.78130    0.61670    0.01870    1.000
    H59      H        0.77620    0.63270    0.93350    1.000
    H60      H        0.72070    0.58410    0.84310    1.000
    H61      H        0.69030    0.61050    0.72690    1.000
    H62      H        0.52950    0.75570    0.79750    1.000
    H63      H        0.45680    0.66630    0.26650    1.000
    H64      H        0.66380    0.78540    0.82380    1.000
    H65      H        0.77970    0.83790    0.71890    1.000
    H66      H        0.86060    0.75040    0.69380    1.000
    H67      H        0.65260    0.44590    0.06930    1.000
    H68      H        0.51590    0.44140    0.18240    1.000
    H69      H        0.57620    0.27790    0.15990    1.000
    H70      H        0.60680    0.33930    0.27310    1.000
    H71      H        0.75960    0.25640    0.13000    1.000
    H72      H        0.88300    0.27900    0.15580    1.000
    H73      H        0.83710    0.22340    0.22180    1.000
    H74      H        0.61840    0.26220    0.36760    1.000
    H75      H        0.55200    0.17680    0.44840    1.000
    H76      H        0.58980    0.09570    0.31510    1.000
    H77      H        0.73880    0.42130    0.95730    1.000
    H78      H        0.77020    0.09220    0.25980    1.000
    H79      H        0.90020    0.98660    0.29200    1.000
    H80      H        0.87550    0.03500    0.36520    1.000
    H81      H        0.91440    0.14560    0.40340    1.000
    H82      H        0.03170    0.98790    0.31950    1.000
    H83      H        0.37380    0.94820    0.49400    1.000
    H84      H        0.29550    0.67760    0.21980    1.000
    H85      H        0.14460    0.86400    0.37300    1.000
    H86      H        0.60500    0.81250    0.26910    1.000
    H87      H        0.87330    0.12240    0.55240    1.000
    H88      H        0.79220    0.30440    0.65980    1.000
    H89      H        0.16350    0.27740    0.68180    1.000
    H90      H        0.73960    0.35900    0.72640    1.000
    H91      H        0.57100    0.44780    0.98360    1.000
    H92      H        0.06240    0.29650    0.90310    1.000
    H93      H        0.07850    0.18440    0.40920    1.000
    H94      H        0.03160    0.07630    0.44150    1.000
    H95      H        0.16660    0.02490    0.28150    1.000
    H96      H        0.18970    0.95260    0.42420    1.000
    H97      H        0.30690    0.03440    0.30440    1.000
    H98      H        0.39800    0.01870    0.38330    1.000
    H99      H        0.40890    0.93350    0.36730    1.000
    H100     H        0.30480    0.84310    0.41590    1.000
    H101     H        0.30080    0.72690    0.38950    1.000
    H102     H        0.28520    0.79750    0.24430    1.000
    H103     H        0.12310    0.26650    0.33370    1.000
    H104     H        0.44920    0.82380    0.21460    1.000
    H105     H        0.61760    0.71890    0.16210    1.000
    H106     H        0.61100    0.69380    0.24960    1.000
    H107     H        0.09850    0.06930    0.55410    1.000
    H108     H        0.95730    0.18240    0.55860    1.000
    H109     H        0.85410    0.15990    0.72210    1.000
    H110     H        0.94610    0.27310    0.66070    1.000
    H111     H        0.01600    0.13000    0.74360    1.000
    H112     H        0.16200    0.15580    0.72100    1.000
    H113     H        0.06050    0.22180    0.77660    1.000
    H114     H        0.88060    0.36760    0.73780    1.000
    H115     H        0.72880    0.44840    0.82320    1.000
    H116     H        0.68550    0.31510    0.90430    1.000
    H117     H        0.16010    0.95730    0.57870    1.000
    H118     H        0.86240    0.25980    0.90780    1.000
    H119     H        0.88680    0.29200    0.01340    1.000
    H120     H        0.91050    0.36520    0.96500    1.000
    H121     H        0.46340    0.85440    0.59660    1.000
    H122     H        0.33910    0.01210    0.68050    1.000
    H123     H        0.81600    0.05180    0.50600    1.000
    H124     H        0.19290    0.32240    0.78020    1.000
    H125     H        0.38160    0.13600    0.62700    1.000
    H126     H        0.68660    0.18750    0.73090    1.000
    H127     H        0.54810    0.87760    0.44760    1.000
    H128     H        0.75640    0.69560    0.34020    1.000
    H129     H        0.12270    0.72260    0.31820    1.000
    H130     H        0.82500    0.64100    0.27360    1.000
    H131     H        0.00240    0.55220    0.01640    1.000
    H132     H        0.26200    0.70350    0.09690    1.000
    H133     H        0.67210    0.81560    0.59080    1.000
    H134     H        0.54940    0.92370    0.55850    1.000
    H135     H        0.47300    0.97510    0.71850    1.000
    H136     H        0.56650    0.04740    0.57580    1.000
    H137     H        0.64570    0.96560    0.69560    1.000
    H138     H        0.80000    0.98130    0.61670    1.000
    H139     H        0.70970    0.06650    0.63270    1.000
    H140     H        0.56380    0.15690    0.58410    1.000
    H141     H        0.41720    0.27310    0.61050    1.000
    H142     H        0.32700    0.20250    0.75570    1.000
    H143     H        0.72330    0.73350    0.66630    1.000
    H144     H        0.48760    0.17620    0.78540    1.000
    H145     H        0.49860    0.28110    0.83790    1.000
    H146     H        0.55440    0.30620    0.75040    1.000
    H147     H        0.72190    0.93070    0.44590    1.000
    H148     H        0.69830    0.81760    0.44140    1.000
    H149     H        0.73610    0.84010    0.27790    1.000
    H150     H        0.87990    0.72690    0.33930    1.000
    H151     H        0.88960    0.87000    0.25640    1.000
    H152     H        0.03880    0.84420    0.27900    1.000
    H153     H        0.05890    0.77820    0.22340    1.000
    H154     H        0.98600    0.63240    0.26220    1.000
    H155     H        0.00040    0.55160    0.17680    1.000
    H156     H        0.90490    0.68490    0.09570    1.000
    H157     H        0.69610    0.04270    0.42130    1.000
    H158     H        0.03000    0.74020    0.09220    1.000
    H159     H        0.19220    0.70800    0.98660    1.000
    H160     H        0.24070    0.63480    0.03500    1.000
    C1       C        0.26050    0.37660    0.86400    1.000
    C2       C        0.15120    0.38490    0.91050    1.000
    C3       C        0.14680    0.33790    0.98810    1.000
    C4       C        0.18720    0.36840    0.03160    1.000
    C5       C        0.29730    0.36100    0.97820    1.000
    C6       C        0.34410    0.39390    0.01570    1.000
    C7       C        0.15580    0.36000    0.16960    1.000
    C8       C        0.05180    0.35860    0.22520    1.000
    C9       C        0.06230    0.27520    0.24940    1.000
    C10      C        0.38490    0.28390    0.76090    1.000
    C11      C        0.24710    0.24620    0.22400    1.000
    C12      C        0.32870    0.21580    0.26120    1.000
    C13      C        0.14320    0.60730    0.90790    1.000
    C14      C        0.09250    0.60450    0.85370    1.000
    C15      C        0.07170    0.67830    0.80470    1.000
    C16      C        0.16350    0.70030    0.76770    1.000
    C17      C        0.20260    0.70400    0.82940    1.000
    C18      C        0.29750    0.72290    0.80010    1.000
    C19      C        0.19390    0.78950    0.65530    1.000
    C20      C        0.12960    0.82110    0.60710    1.000
    C21      C        0.05360    0.90480    0.63140    1.000
    C22      C        0.06420    0.63300    0.04680    1.000
    C23      C        0.17050    0.91360    0.68620    1.000
    C24      C        0.22850    0.95990    0.68890    1.000
    C25      C        0.50110    0.62340    0.13600    1.000
    C26      C        0.44660    0.61510    0.08950    1.000
    C27      C        0.47280    0.66210    0.01190    1.000
    C28      C        0.58720    0.63160    0.96840    1.000
    C29      C        0.63650    0.63900    0.02180    1.000
    C30      C        0.75370    0.60610    0.98430    1.000
    C31      C        0.68540    0.64000    0.83040    1.000
    C32      C        0.63560    0.64140    0.77480    1.000
    C33      C        0.58690    0.72480    0.75060    1.000
    C34      C        0.42970    0.71610    0.23910    1.000
    C35      C        0.71730    0.75380    0.77600    1.000
    C36      C        0.80570    0.78420    0.73880    1.000
    C37      C        0.65840    0.39270    0.09210    1.000
    C38      C        0.55070    0.39550    0.14630    1.000
    C39      C        0.55470    0.32170    0.19530    1.000
    C40      C        0.63150    0.29970    0.23230    1.000
    C41      C        0.73600    0.29600    0.17060    1.000
    C42      C        0.82050    0.27710    0.19990    1.000
    C43      C        0.63870    0.21050    0.34470    1.000
    C44      C        0.55780    0.17890    0.39290    1.000
    C45      C        0.58980    0.09520    0.36860    1.000
    C46      C        0.74400    0.36700    0.95320    1.000
    C47      C        0.77030    0.08640    0.31380    1.000
    C48      C        0.87730    0.04010    0.31110    1.000
    C49      C        0.12450    0.13600    0.37660    1.000
    C50      C        0.06170    0.08950    0.38490    1.000
    C51      C        0.13490    0.01190    0.33790    1.000
    C52      C        0.21880    0.96840    0.36840    1.000
    C53      C        0.27550    0.02180    0.36100    1.000
    C54      C        0.35980    0.98430    0.39390    1.000
    C55      C        0.32540    0.83040    0.36000    1.000
    C56      C        0.27700    0.77480    0.35860    1.000
    C57      C        0.31170    0.75060    0.27520    1.000
    C58      C        0.14580    0.23910    0.28390    1.000
    C59      C        0.47110    0.77600    0.24620    1.000
    C60      C        0.58990    0.73880    0.21580    1.000
    C61      C        0.05110    0.09210    0.60730    1.000
    C62      C        0.94620    0.14630    0.60450    1.000
    C63      C        0.87640    0.19530    0.67830    1.000
    C64      C        0.93120    0.23230    0.70030    1.000
    C65      C        0.03200    0.17060    0.70400    1.000
    C66      C        0.09760    0.19990    0.72290    1.000
    C67      C        0.84920    0.34470    0.78950    1.000
    C68      C        0.73670    0.39290    0.82110    1.000
    C69      C        0.68500    0.36860    0.90480    1.000
    C70      C        0.11100    0.95320    0.63300    1.000
    C71      C        0.85670    0.31380    0.91360    1.000
    C72      C        0.91740    0.31110    0.95990    1.000
    C73      C        0.63710    0.86400    0.62340    1.000
    C74      C        0.53610    0.91050    0.61510    1.000
    C75      C        0.48470    0.98810    0.66210    1.000
    C76      C        0.55560    0.03160    0.63160    1.000
    C77      C        0.65830    0.97820    0.63900    1.000
    C78      C        0.73800    0.01570    0.60610    1.000
    C79      C        0.51580    0.16960    0.64000    1.000
    C80      C        0.41040    0.22520    0.64140    1.000
    C81      C        0.33750    0.24940    0.72480    1.000
    C82      C        0.66880    0.76090    0.71610    1.000
    C83      C        0.49330    0.22400    0.75380    1.000
    C84      C        0.54450    0.26120    0.78420    1.000
    C85      C        0.75050    0.90790    0.39270    1.000
    C86      C        0.69700    0.85370    0.39550    1.000
    C87      C        0.75000    0.80470    0.32170    1.000
    C88      C        0.86380    0.76770    0.29970    1.000
    C89      C        0.90660    0.82940    0.29600    1.000
    C90      C        0.02040    0.80010    0.27710    1.000
    C91      C        0.98340    0.65530    0.21050    1.000
    C92      C        0.95070    0.60710    0.17890    1.000
    C93      C        0.95840    0.63140    0.09520    1.000
    C94      C        0.69720    0.04680    0.36700    1.000
    C95      C        0.08410    0.68620    0.08640    1.000
    C96      C        0.18840    0.68890    0.04010    1.000
    O1       O        0.29910    0.40350    0.90710    1.000
    O2       O        0.11400    0.35880    0.86620    1.000
    O3       O        0.04450    0.34350    0.03810    1.000
    O4       O        0.19190    0.32030    0.09870    1.000
    O5       O        0.29040    0.47420    0.02800    1.000
    O6       O        0.23040    0.32530    0.20290    1.000
    O7       O        0.96580    0.27410    0.30730    1.000
    O8       O        0.32200    0.29900    0.84180    1.000
    O9       O        0.97890    0.39460    0.18880    1.000
    O10      O        0.42480    0.21560    0.20660    1.000
    O11      O        0.22830    0.62940    0.86600    1.000
    O12      O        0.00040    0.59290    0.90110    1.000
    O13      O        0.04000    0.66790    0.74690    1.000
    O14      O        0.13170    0.77520    0.73160    1.000
    O15      O        0.38000    0.66850    0.74110    1.000
    O16      O        0.24390    0.83800    0.65400    1.000
    O17      O        0.08040    0.77230    0.60810    1.000
    O18      O        0.00460    0.93700    0.57680    1.000
    O19      O        0.06740    0.66120    0.97040    1.000
    O20      O        0.28600    0.92790    0.73650    1.000
    O21      O        0.60970    0.59650    0.09290    1.000
    O22      O        0.33900    0.64120    0.13380    1.000
    O23      O        0.42610    0.65650    0.96190    1.000
    O24      O        0.61090    0.67970    0.90130    1.000
    O25      O        0.79260    0.52580    0.97200    1.000
    O26      O        0.75860    0.67470    0.79710    1.000
    O27      O        0.54720    0.72590    0.69270    1.000
    O28      O        0.46280    0.70100    0.15820    1.000
    O29      O        0.56230    0.60540    0.81120    1.000
    O30      O        0.84700    0.78440    0.79340    1.000
    O31      O        0.72370    0.37060    0.13400    1.000
    O32      O        0.49440    0.40710    0.09890    1.000
    O33      O        0.45480    0.33210    0.25310    1.000
    O34      O        0.63850    0.22480    0.26840    1.000
    O35      O        0.78960    0.33150    0.25890    1.000
    O36      O        0.73590    0.16200    0.34600    1.000
    O37      O        0.46080    0.22770    0.39190    1.000
    O38      O        0.51840    0.06300    0.42320    1.000
    O39      O        0.69900    0.33880    0.02960    1.000
    O40      O        0.95040    0.07210    0.26350    1.000
    O41      O        0.20620    0.09290    0.40350    1.000
    O42      O        0.98020    0.13380    0.35880    1.000
    O43      O        0.08260    0.96190    0.34350    1.000
    O44      O        0.29060    0.90130    0.32030    1.000
    O45      O        0.31840    0.97200    0.47420    1.000
    O46      O        0.43330    0.79710    0.32530    1.000
    O47      O        0.27310    0.69270    0.27410    1.000
    O48      O        0.16380    0.15820    0.29900    1.000
    O49      O        0.16770    0.81120    0.39460    1.000
    O50      O        0.63140    0.79340    0.21560    1.000
    O51      O        0.09430    0.13400    0.62940    1.000
    O52      O        0.90150    0.09890    0.59290    1.000
    O53      O        0.78690    0.25310    0.66790    1.000
    O54      O        0.86330    0.26840    0.77520    1.000
    O55      O        0.12110    0.25890    0.66850    1.000
    O56      O        0.89790    0.34600    0.83800    1.000
    O57      O        0.68850    0.39190    0.77230    1.000
    O58      O        0.58140    0.42320    0.93700    1.000
    O59      O        0.03780    0.02960    0.66120    1.000
    O60      O        0.02250    0.26350    0.92790    1.000
    O61      O        0.70260    0.90710    0.59650    1.000
    O62      O        0.47280    0.86620    0.64120    1.000
    O63      O        0.38800    0.03810    0.65650    1.000
    O64      O        0.51220    0.09870    0.67970    1.000
    O65      O        0.76460    0.02800    0.52580    1.000
    O66      O        0.55570    0.20290    0.67470    1.000
    O67      O        0.23990    0.30730    0.72590    1.000
    O68      O        0.62100    0.84180    0.70100    1.000
    O69      O        0.37350    0.18880    0.60540    1.000
    O70      O        0.64040    0.20660    0.78440    1.000
    O71      O        0.85770    0.86600    0.37060    1.000
    O72      O        0.59330    0.90110    0.40710    1.000
    O73      O        0.70790    0.74690    0.33210    1.000
    O74      O        0.90690    0.73160    0.22480    1.000
    O75      O        0.04850    0.74110    0.33150    1.000
    O76      O        0.08190    0.65400    0.16200    1.000
    O77      O        0.85270    0.60810    0.22770    1.000
    O78      O        0.94160    0.57680    0.06300    1.000
    O79      O        0.72860    0.97040    0.33880    1.000
    O80      O        0.21390    0.73650    0.07210    1.000
