data_functionalizedCrystal
_audit_creation_method	'EQeq! by Chris Wilmer'
_symmetry_space_group_name_H-M	'P1'
_symmetry_Int_Tables_number	1
_symmetry_cell_setting	triclinic
loop_
_symmetry_equiv_pos_as_xyz
  x,y,z
_cell_length_a	17.5279
_cell_length_b	17.5279
_cell_length_c	17.5279
_cell_angle_alpha	90
_cell_angle_beta	90
_cell_angle_gamma	90
loop_
_atom_site_label
_atom_site_type_symbol
_atom_site_fract_x
_atom_site_fract_y
_atom_site_fract_z
_atom_site_charge
Mof_Co	Co	0.87133	0.10553	0.23826	1.153
Mof_N 	N 	0.7924	0.0257	0.2111	-0.236
Mof_O 	O 	0.76964	0.17342	0.19427	-0.544
Mof_N 	N 	0.9618	0.0373	0.2653	-0.26
Mof_O 	O 	0.9308	0.1559	0.1541	-0.454
Mof_O 	O 	0.8546	0.1522	0.34035	-0.482
Mof_C 	C 	0.7852	0.9519	0.2146	0.095
Mof_C 	C 	0.7231	0.052	0.1812	-0.121
Mof_C 	C 	0.7128	0.1343	0.1732	0.4
Mof_C 	C 	0.018	0.0181	0.2156	0.05
Mof_C 	C 	0.9798	0.0005	0.3291	0.108
Mof_C 	C 	0.9314	0.2254	0.1381	0.348
Mof_N 	N 	0.7181	0.9255	0.1904	-0.295
Mof_H 	H 	0.8254	0.9195	0.2338	-0.058
Mof_C 	C 	0.6784	0.9891	0.1686	0.067
Mof_O 	O 	0.90124	0.27904	0.17816	-0.52
Mof_C 	C 	0.0675	0.9702	0.2511	-0.095
Mof_H 	H 	0.0222	0.0332	0.1663	0.008
Mof_N 	N 	0.0429	0.9597	0.3247	-0.239
Mof_H 	H 	0.9515	0.0017	0.3743	-0.039
Mof_H 	H 	0.6302	0.9902	0.1511	-0.018
Mof_Co	Co	0.62867	0.89447	0.73826	1.154
Mof_N 	N 	0.7076	0.9743	0.7111	-0.235
Mof_O 	O 	0.73036	0.82658	0.69427	-0.543
Mof_N 	N 	0.5382	0.9627	0.7653	-0.259
Mof_O 	O 	0.5692	0.8441	0.6541	-0.453
Mof_O 	O 	0.6454	0.8478	0.84035	-0.481
Mof_C 	C 	0.7148	0.0481	0.7146	0.096
Mof_C 	C 	0.7769	0.948	0.6812	-0.12
Mof_C 	C 	0.7872	0.8657	0.6732	0.4
Mof_C 	C 	0.482	0.9819	0.7156	0.051
Mof_C 	C 	0.5202	0.9995	0.8291	0.107
Mof_C 	C 	0.5686	0.7746	0.6381	0.349
Mof_N 	N 	0.7819	0.0745	0.6904	-0.295
Mof_H 	H 	0.6746	0.0805	0.7338	-0.058
Mof_C 	C 	0.8216	0.0109	0.6686	0.068
Mof_O 	O 	0.59876	0.72096	0.67816	-0.52
Mof_C 	C 	0.4325	0.0298	0.7511	-0.095
Mof_H 	H 	0.4778	0.9668	0.6663	0.008
Mof_N 	N 	0.4571	0.0403	0.8247	-0.239
Mof_H 	H 	0.5485	0.9983	0.8743	-0.039
Mof_H 	H 	0.8698	0.0098	0.6511	-0.019
Mof_Co	Co	0.12867	0.60553	0.26174	1.154
Mof_N 	N 	0.2076	0.5257	0.2889	-0.235
Mof_O 	O 	0.23036	0.67342	0.30573	-0.543
Mof_N 	N 	0.0382	0.5373	0.2347	-0.259
Mof_O 	O 	0.0692	0.6559	0.3459	-0.453
Mof_O 	O 	0.1454	0.6522	0.15965	-0.481
Mof_C 	C 	0.2148	0.4519	0.2854	0.096
Mof_C 	C 	0.2769	0.552	0.3188	-0.12
Mof_C 	C 	0.2872	0.6343	0.3268	0.4
Mof_C 	C 	0.982	0.5181	0.2844	0.051
Mof_C 	C 	0.0202	0.5005	0.1709	0.107
Mof_C 	C 	0.0686	0.7254	0.3619	0.349
Mof_N 	N 	0.2819	0.4255	0.3096	-0.295
Mof_H 	H 	0.1746	0.4195	0.2662	-0.058
Mof_C 	C 	0.3216	0.4891	0.3314	0.068
Mof_O 	O 	0.09876	0.77904	0.32184	-0.52
Mof_C 	C 	0.9325	0.4702	0.2489	-0.095
Mof_H 	H 	0.9778	0.5332	0.3337	0.007
Mof_N 	N 	0.9571	0.4597	0.1753	-0.239
Mof_H 	H 	0.0485	0.5017	0.1257	-0.039
Mof_H 	H 	0.3698	0.4902	0.3489	-0.018
Mof_Co	Co	0.37133	0.39447	0.76174	1.154
Mof_N 	N 	0.2924	0.4743	0.7889	-0.235
Mof_O 	O 	0.26964	0.32658	0.80573	-0.543
Mof_N 	N 	0.4618	0.4627	0.7347	-0.259
Mof_O 	O 	0.4308	0.3441	0.8459	-0.453
Mof_O 	O 	0.3546	0.3478	0.65965	-0.481
Mof_C 	C 	0.2852	0.5481	0.7854	0.096
Mof_C 	C 	0.2231	0.448	0.8188	-0.12
Mof_C 	C 	0.2128	0.3657	0.8268	0.4
Mof_C 	C 	0.518	0.4819	0.7844	0.051
Mof_C 	C 	0.4798	0.4995	0.6709	0.108
Mof_C 	C 	0.4314	0.2746	0.8619	0.349
Mof_N 	N 	0.2181	0.5745	0.8096	-0.295
Mof_H 	H 	0.3254	0.5805	0.7662	-0.058
Mof_C 	C 	0.1784	0.5109	0.8314	0.068
Mof_O 	O 	0.40124	0.22096	0.82184	-0.52
Mof_C 	C 	0.5675	0.5298	0.7489	-0.095
Mof_H 	H 	0.5222	0.4668	0.8337	0.007
Mof_N 	N 	0.5429	0.5403	0.6753	-0.239
Mof_H 	H 	0.4515	0.4983	0.6257	-0.039
Mof_H 	H 	0.1302	0.5098	0.8489	-0.018
Mof_Co	Co	0.23826	0.87133	0.10553	1.154
Mof_N 	N 	0.2111	0.7924	0.0257	-0.235
Mof_O 	O 	0.19427	0.76964	0.17342	-0.543
Mof_N 	N 	0.2653	0.9618	0.0373	-0.259
Mof_O 	O 	0.1541	0.9308	0.1559	-0.453
Mof_O 	O 	0.34035	0.8546	0.1522	-0.481
Mof_C 	C 	0.2146	0.7852	0.9519	0.096
Mof_C 	C 	0.1812	0.7231	0.052	-0.12
Mof_C 	C 	0.1732	0.7128	0.1343	0.4
Mof_C 	C 	0.2156	0.018	0.0181	0.05
Mof_C 	C 	0.3291	0.9798	0.0005	0.108
Mof_C 	C 	0.1381	0.9314	0.2254	0.348
Mof_N 	N 	0.1904	0.7181	0.9255	-0.295
Mof_H 	H 	0.2338	0.8254	0.9195	-0.058
Mof_C 	C 	0.1686	0.6784	0.9891	0.067
Mof_O 	O 	0.17816	0.90124	0.27904	-0.52
Mof_C 	C 	0.2511	0.0675	0.9702	-0.095
Mof_H 	H 	0.1663	0.0222	0.0332	0.008
Mof_N 	N 	0.3247	0.0429	0.9597	-0.239
Mof_H 	H 	0.3743	0.9515	0.0017	-0.039
Mof_H 	H 	0.1511	0.6302	0.9902	-0.018
Mof_Co	Co	0.73826	0.62867	0.89447	1.154
Mof_N 	N 	0.7111	0.7076	0.9743	-0.235
Mof_O 	O 	0.69427	0.73036	0.82658	-0.543
Mof_N 	N 	0.7653	0.5382	0.9627	-0.259
Mof_O 	O 	0.6541	0.5692	0.8441	-0.453
Mof_O 	O 	0.84035	0.6454	0.8478	-0.481
Mof_C 	C 	0.7146	0.7148	0.0481	0.096
Mof_C 	C 	0.6812	0.7769	0.948	-0.12
Mof_C 	C 	0.6732	0.7872	0.8657	0.4
Mof_C 	C 	0.7156	0.482	0.9819	0.051
Mof_C 	C 	0.8291	0.5202	0.9995	0.107
Mof_C 	C 	0.6381	0.5686	0.7746	0.349
Mof_N 	N 	0.6904	0.7819	0.0745	-0.295
Mof_H 	H 	0.7338	0.6746	0.0805	-0.058
Mof_C 	C 	0.6686	0.8216	0.0109	0.068
Mof_O 	O 	0.67816	0.59876	0.72096	-0.52
Mof_C 	C 	0.7511	0.4325	0.0298	-0.095
Mof_H 	H 	0.6663	0.4778	0.9668	0.008
Mof_N 	N 	0.8247	0.4571	0.0403	-0.239
Mof_H 	H 	0.8743	0.5485	0.9983	-0.039
Mof_H 	H 	0.6511	0.8698	0.0098	-0.019
Mof_Co	Co	0.26174	0.12867	0.60553	1.154
Mof_N 	N 	0.2889	0.2076	0.5257	-0.235
Mof_O 	O 	0.30573	0.23036	0.67342	-0.543
Mof_N 	N 	0.2347	0.0382	0.5373	-0.259
Mof_O 	O 	0.3459	0.0692	0.6559	-0.453
Mof_O 	O 	0.15965	0.1454	0.6522	-0.481
Mof_C 	C 	0.2854	0.2148	0.4519	0.096
Mof_C 	C 	0.3188	0.2769	0.552	-0.12
Mof_C 	C 	0.3268	0.2872	0.6343	0.4
Mof_C 	C 	0.2844	0.982	0.5181	0.051
Mof_C 	C 	0.1709	0.0202	0.5005	0.107
Mof_C 	C 	0.3619	0.0686	0.7254	0.349
Mof_N 	N 	0.3096	0.2819	0.4255	-0.295
Mof_H 	H 	0.2662	0.1746	0.4195	-0.058
Mof_C 	C 	0.3314	0.3216	0.4891	0.068
Mof_O 	O 	0.32184	0.09876	0.77904	-0.52
Mof_C 	C 	0.2489	0.9325	0.4702	-0.095
Mof_H 	H 	0.3337	0.9778	0.5332	0.007
Mof_N 	N 	0.1753	0.9571	0.4597	-0.239
Mof_H 	H 	0.1257	0.0485	0.5017	-0.039
Mof_H 	H 	0.3489	0.3698	0.4902	-0.018
Mof_Co	Co	0.76174	0.37133	0.39447	1.154
Mof_N 	N 	0.7889	0.2924	0.4743	-0.235
Mof_O 	O 	0.80573	0.26964	0.32658	-0.543
Mof_N 	N 	0.7347	0.4618	0.4627	-0.259
Mof_O 	O 	0.8459	0.4308	0.3441	-0.453
Mof_O 	O 	0.65965	0.3546	0.3478	-0.481
Mof_C 	C 	0.7854	0.2852	0.5481	0.096
Mof_C 	C 	0.8188	0.2231	0.448	-0.12
Mof_C 	C 	0.8268	0.2128	0.3657	0.4
Mof_C 	C 	0.7844	0.518	0.4819	0.051
Mof_C 	C 	0.6709	0.4798	0.4995	0.108
Mof_C 	C 	0.8619	0.4314	0.2746	0.349
Mof_N 	N 	0.8096	0.2181	0.5745	-0.295
Mof_H 	H 	0.7662	0.3254	0.5805	-0.058
Mof_C 	C 	0.8314	0.1784	0.5109	0.068
Mof_O 	O 	0.82184	0.40124	0.22096	-0.52
Mof_C 	C 	0.7489	0.5675	0.5298	-0.095
Mof_H 	H 	0.8337	0.5222	0.4668	0.007
Mof_N 	N 	0.6753	0.5429	0.5403	-0.239
Mof_H 	H 	0.6257	0.4515	0.4983	-0.039
Mof_H 	H 	0.8489	0.1302	0.5098	-0.018
Mof_Co	Co	0.10553	0.23826	0.87133	1.154
Mof_N 	N 	0.0257	0.2111	0.7924	-0.235
Mof_O 	O 	0.17342	0.19427	0.76964	-0.543
Mof_N 	N 	0.0373	0.2653	0.9618	-0.259
Mof_O 	O 	0.1559	0.1541	0.9308	-0.453
Mof_O 	O 	0.1522	0.34035	0.8546	-0.481
Mof_C 	C 	0.9519	0.2146	0.7852	0.096
Mof_C 	C 	0.052	0.1812	0.7231	-0.12
Mof_C 	C 	0.1343	0.1732	0.7128	0.4
Mof_C 	C 	0.0181	0.2156	0.018	0.05
Mof_C 	C 	0.0005	0.3291	0.9798	0.108
Mof_C 	C 	0.2254	0.1381	0.9314	0.348
Mof_N 	N 	0.9255	0.1904	0.7181	-0.295
Mof_H 	H 	0.9195	0.2338	0.8254	-0.058
Mof_C 	C 	0.9891	0.1686	0.6784	0.067
Mof_O 	O 	0.27904	0.17816	0.90124	-0.52
Mof_C 	C 	0.9702	0.2511	0.0675	-0.095
Mof_H 	H 	0.0332	0.1663	0.0222	0.008
Mof_N 	N 	0.9597	0.3247	0.0429	-0.239
Mof_H 	H 	0.0017	0.3743	0.9515	-0.039
Mof_H 	H 	0.9902	0.1511	0.6302	-0.018
Mof_Co	Co	0.89447	0.73826	0.62867	1.154
Mof_N 	N 	0.9743	0.7111	0.7076	-0.235
Mof_O 	O 	0.82658	0.69427	0.73036	-0.543
Mof_N 	N 	0.9627	0.7653	0.5382	-0.259
Mof_O 	O 	0.8441	0.6541	0.5692	-0.453
Mof_O 	O 	0.8478	0.84035	0.6454	-0.481
Mof_C 	C 	0.0481	0.7146	0.7148	0.096
Mof_C 	C 	0.948	0.6812	0.7769	-0.12
Mof_C 	C 	0.8657	0.6732	0.7872	0.4
Mof_C 	C 	0.9819	0.7156	0.482	0.051
Mof_C 	C 	0.9995	0.8291	0.5202	0.107
Mof_C 	C 	0.7746	0.6381	0.5686	0.349
Mof_N 	N 	0.0745	0.6904	0.7819	-0.295
Mof_H 	H 	0.0805	0.7338	0.6746	-0.058
Mof_C 	C 	0.0109	0.6686	0.8216	0.068
Mof_O 	O 	0.72096	0.67816	0.59876	-0.52
Mof_C 	C 	0.0298	0.7511	0.4325	-0.095
Mof_H 	H 	0.9668	0.6663	0.4778	0.008
Mof_N 	N 	0.0403	0.8247	0.4571	-0.239
Mof_H 	H 	0.9983	0.8743	0.5485	-0.039
Mof_H 	H 	0.0098	0.6511	0.8698	-0.019
Mof_Co	Co	0.60553	0.26174	0.12867	1.154
Mof_N 	N 	0.5257	0.2889	0.2076	-0.235
Mof_O 	O 	0.67342	0.30573	0.23036	-0.543
Mof_N 	N 	0.5373	0.2347	0.0382	-0.259
Mof_O 	O 	0.6559	0.3459	0.0692	-0.453
Mof_O 	O 	0.6522	0.15965	0.1454	-0.481
Mof_C 	C 	0.4519	0.2854	0.2148	0.096
Mof_C 	C 	0.552	0.3188	0.2769	-0.12
Mof_C 	C 	0.6343	0.3268	0.2872	0.4
Mof_C 	C 	0.5181	0.2844	0.982	0.051
Mof_C 	C 	0.5005	0.1709	0.0202	0.107
Mof_C 	C 	0.7254	0.3619	0.0686	0.349
Mof_N 	N 	0.4255	0.3096	0.2819	-0.295
Mof_H 	H 	0.4195	0.2662	0.1746	-0.058
Mof_C 	C 	0.4891	0.3314	0.3216	0.068
Mof_O 	O 	0.77904	0.32184	0.09876	-0.52
Mof_C 	C 	0.4702	0.2489	0.9325	-0.095
Mof_H 	H 	0.5332	0.3337	0.9778	0.007
Mof_N 	N 	0.4597	0.1753	0.9571	-0.239
Mof_H 	H 	0.5017	0.1257	0.0485	-0.039
Mof_H 	H 	0.4902	0.3489	0.3698	-0.018
Mof_Co	Co	0.39447	0.76174	0.37133	1.154
Mof_N 	N 	0.4743	0.7889	0.2924	-0.235
Mof_O 	O 	0.32658	0.80573	0.26964	-0.543
Mof_N 	N 	0.4627	0.7347	0.4618	-0.259
Mof_O 	O 	0.3441	0.8459	0.4308	-0.453
Mof_O 	O 	0.3478	0.65965	0.3546	-0.481
Mof_C 	C 	0.5481	0.7854	0.2852	0.096
Mof_C 	C 	0.448	0.8188	0.2231	-0.12
Mof_C 	C 	0.3657	0.8268	0.2128	0.4
Mof_C 	C 	0.4819	0.7844	0.518	0.051
Mof_C 	C 	0.4995	0.6709	0.4798	0.108
Mof_C 	C 	0.2746	0.8619	0.4314	0.349
Mof_N 	N 	0.5745	0.8096	0.2181	-0.295
Mof_H 	H 	0.5805	0.7662	0.3254	-0.058
Mof_C 	C 	0.5109	0.8314	0.1784	0.068
Mof_O 	O 	0.22096	0.82184	0.40124	-0.52
Mof_C 	C 	0.5298	0.7489	0.5675	-0.095
Mof_H 	H 	0.4668	0.8337	0.5222	0.007
Mof_N 	N 	0.5403	0.6753	0.5429	-0.239
Mof_H 	H 	0.4983	0.6257	0.4515	-0.039
Mof_H 	H 	0.5098	0.8489	0.1302	-0.018
Mof_Co	Co	0.78704	0.28704	0.21296	1.188
Mof_Co	Co	0.88895	0.38895	0.11105	1.128
Mof_Co	Co	0.71296	0.71296	0.71296	1.188
Mof_Co	Co	0.61105	0.61105	0.61105	1.128
Mof_Co	Co	0.21296	0.78704	0.28704	1.188
Mof_Co	Co	0.11105	0.88895	0.38895	1.128
Mof_Co	Co	0.28704	0.21296	0.78704	1.188
Mof_Co	Co	0.38895	0.11105	0.88895	1.128
Mof_Co	Co	0.68409	0.81591	0.18409	1.055
Mof_Co	Co	0.81591	0.18409	0.68409	1.055
Mof_Co	Co	0.31591	0.31591	0.31591	1.055
Mof_Co	Co	0.18409	0.68409	0.81591	1.055
_end
