# CIF file generated by openbabel 3.1.0, see https://openbabel.org
data_I
_chemical_name_common 'image0'
_cell_length_a 14.932
_cell_length_b 17.072
_cell_length_c 21.282
_cell_angle_alpha 90
_cell_angle_beta 90
_cell_angle_gamma 90
_space_group_name_H-M_alt 'P 1'
_space_group_name_Hall 'P 1'
loop_
    _symmetry_equiv_pos_as_xyz
    x,y,z
loop_
    _atom_site_label
    _atom_site_type_symbol
    _atom_site_fract_x
    _atom_site_fract_y
    _atom_site_fract_z
    _atom_site_occupancy
    Co1      Co       0.59889    0.46863    0.48766    1.000
    Co2      Co       0.44266    0.38951    0.39150    1.000
    O1       O        0.88202    0.57294    0.08150    1.000
    O2       O        0.83671    0.46204    0.12860    1.000
    O3       O        0.59924    0.81688    0.18809    1.000
    O4       O        0.64868    0.79047    0.09308    1.000
    O5       O        0.85256    0.86044    0.45922    1.000
    O6       O        0.95936    0.80540    0.39986    1.000
    O7       O        0.46295    0.43070    0.48043    1.000
    H1       H        0.44910    0.39090    0.50660    1.000
    N1       N        0.61822    0.54729    0.29534    1.000
    N2       N        0.59280    0.51029    0.39169    1.000
    N3       N        0.53525    0.46972    0.35228    1.000
    C1       C        0.64127    0.55732    0.35688    1.000
    C2       C        0.55091    0.49285    0.29472    1.000
    C3       C        0.65857    0.58450    0.24141    1.000
    C4       C        0.72297    0.54362    0.20780    1.000
    H2       H        0.73970    0.49340    0.22000    1.000
    C5       C        0.76236    0.57862    0.15545    1.000
    C6       C        0.73464    0.65279    0.13685    1.000
    H3       H        0.75930    0.67560    0.10110    1.000
    C7       C        0.67023    0.69324    0.17133    1.000
    C8       C        0.63230    0.65949    0.22481    1.000
    H4       H        0.59040    0.68670    0.24870    1.000
    C9       C        0.83306    0.53498    0.11889    1.000
    C10      C        0.63829    0.77207    0.14980    1.000
    C11      C        0.70660    0.61747    0.37795    1.000
    C12      C        0.67526    0.67988    0.41309    1.000
    H5       H        0.61540    0.68190    0.42510    1.000
    C13      C        0.73348    0.73949    0.43043    1.000
    H6       H        0.71270    0.78070    0.45500    1.000
    C14      C        0.82260    0.73825    0.41149    1.000
    C15      C        0.85423    0.67463    0.37693    1.000
    H7       H        0.91410    0.67260    0.36490    1.000
    C16      C        0.79658    0.61434    0.36045    1.000
    H8       H        0.81790    0.57180    0.33770    1.000
    C17      C        0.88338    0.80698    0.42529    1.000
    C18      C        0.50215    0.46782    0.23707    1.000
    H9       H        0.52610    0.49490    0.20130    1.000
    H10      H        0.43970    0.48010    0.24140    1.000
    H11      H        0.50920    0.41240    0.23140    1.000
    Co3      Co       0.90111    0.53137    0.98766    1.000
    Co4      Co       0.05734    0.61049    0.89150    1.000
    O8       O        0.61798    0.42706    0.58150    1.000
    O9       O        0.66329    0.53796    0.62860    1.000
    O10      O        0.90076    0.18312    0.68809    1.000
    O11      O        0.85132    0.20953    0.59308    1.000
    O12      O        0.64744    0.13956    0.95922    1.000
    O13      O        0.54064    0.19460    0.89986    1.000
    O14      O        0.03705    0.56930    0.98043    1.000
    H12      H        0.05090    0.60910    0.00660    1.000
    N4       N        0.88178    0.45271    0.79534    1.000
    N5       N        0.90720    0.48971    0.89169    1.000
    N6       N        0.96475    0.53028    0.85228    1.000
    C19      C        0.85873    0.44268    0.85688    1.000
    C20      C        0.94909    0.50715    0.79472    1.000
    C21      C        0.84143    0.41550    0.74141    1.000
    C22      C        0.77703    0.45638    0.70780    1.000
    H13      H        0.76030    0.50660    0.72000    1.000
    C23      C        0.73764    0.42138    0.65545    1.000
    C24      C        0.76536    0.34721    0.63685    1.000
    H14      H        0.74070    0.32440    0.60110    1.000
    C25      C        0.82977    0.30676    0.67133    1.000
    C26      C        0.86770    0.34051    0.72481    1.000
    H15      H        0.90960    0.31330    0.74870    1.000
    C27      C        0.66694    0.46502    0.61889    1.000
    C28      C        0.86171    0.22793    0.64980    1.000
    C29      C        0.79340    0.38253    0.87795    1.000
    C30      C        0.82474    0.32012    0.91309    1.000
    H16      H        0.88460    0.31810    0.92510    1.000
    C31      C        0.76652    0.26051    0.93043    1.000
    H17      H        0.78730    0.21930    0.95500    1.000
    C32      C        0.67740    0.26175    0.91149    1.000
    C33      C        0.64577    0.32537    0.87693    1.000
    H18      H        0.58590    0.32740    0.86490    1.000
    C34      C        0.70342    0.38566    0.86045    1.000
    H19      H        0.68210    0.42820    0.83770    1.000
    C35      C        0.61662    0.19302    0.92529    1.000
    C36      C        0.99785    0.53218    0.73707    1.000
    H20      H        0.97390    0.50510    0.70130    1.000
    H21      H        0.06030    0.51990    0.74140    1.000
    H22      H        0.99080    0.58760    0.73140    1.000
    Co5      Co       0.40111    0.96863    0.01234    1.000
    Co6      Co       0.55734    0.88951    0.10850    1.000
    O15      O        0.11798    0.07294    0.41850    1.000
    O16      O        0.16329    0.96204    0.37140    1.000
    O17      O        0.40076    0.31688    0.31191    1.000
    O18      O        0.35132    0.29047    0.40692    1.000
    O19      O        0.14744    0.36044    0.04078    1.000
    O20      O        0.04064    0.30540    0.10014    1.000
    O21      O        0.53705    0.93070    0.01957    1.000
    H23      H        0.55090    0.89090    0.99340    1.000
    N7       N        0.38178    0.04729    0.20466    1.000
    N8       N        0.40720    0.01029    0.10831    1.000
    N9       N        0.46475    0.96972    0.14772    1.000
    C37      C        0.35873    0.05732    0.14312    1.000
    C38      C        0.44909    0.99285    0.20528    1.000
    C39      C        0.34143    0.08450    0.25859    1.000
    C40      C        0.27703    0.04362    0.29220    1.000
    H24      H        0.26030    0.99340    0.28000    1.000
    C41      C        0.23764    0.07862    0.34455    1.000
    C42      C        0.26536    0.15279    0.36315    1.000
    H25      H        0.24070    0.17560    0.39890    1.000
    C43      C        0.32977    0.19324    0.32867    1.000
    C44      C        0.36770    0.15949    0.27519    1.000
    H26      H        0.40960    0.18670    0.25130    1.000
    C45      C        0.16694    0.03498    0.38111    1.000
    C46      C        0.36171    0.27207    0.35020    1.000
    C47      C        0.29340    0.11747    0.12205    1.000
    C48      C        0.32474    0.17988    0.08691    1.000
    H27      H        0.38460    0.18190    0.07490    1.000
    C49      C        0.26652    0.23949    0.06957    1.000
    H28      H        0.28730    0.28070    0.04500    1.000
    C50      C        0.17740    0.23825    0.08851    1.000
    C51      C        0.14577    0.17463    0.12307    1.000
    H29      H        0.08590    0.17260    0.13510    1.000
    C52      C        0.20342    0.11434    0.13955    1.000
    H30      H        0.18210    0.07180    0.16230    1.000
    C53      C        0.11662    0.30698    0.07471    1.000
    C54      C        0.49785    0.96782    0.26293    1.000
    H31      H        0.47390    0.99490    0.29870    1.000
    H32      H        0.56030    0.98010    0.25860    1.000
    H33      H        0.49080    0.91240    0.26860    1.000
    Co7      Co       0.09889    0.03137    0.51234    1.000
    Co8      Co       0.94266    0.11049    0.60850    1.000
    O22      O        0.38202    0.92706    0.91850    1.000
    O23      O        0.33671    0.03796    0.87140    1.000
    O24      O        0.09924    0.68312    0.81191    1.000
    O25      O        0.14868    0.70953    0.90692    1.000
    O26      O        0.35256    0.63956    0.54078    1.000
    O27      O        0.45936    0.69460    0.60014    1.000
    O28      O        0.96295    0.06930    0.51957    1.000
    H34      H        0.94910    0.10910    0.49340    1.000
    N10      N        0.11822    0.95271    0.70466    1.000
    N11      N        0.09280    0.98971    0.60831    1.000
    N12      N        0.03525    0.03028    0.64772    1.000
    C55      C        0.14127    0.94268    0.64312    1.000
    C56      C        0.05091    0.00715    0.70528    1.000
    C57      C        0.15857    0.91550    0.75859    1.000
    C58      C        0.22297    0.95638    0.79220    1.000
    H35      H        0.23970    0.00660    0.78000    1.000
    C59      C        0.26236    0.92138    0.84455    1.000
    C60      C        0.23464    0.84721    0.86315    1.000
    H36      H        0.25930    0.82440    0.89890    1.000
    C61      C        0.17023    0.80676    0.82867    1.000
    C62      C        0.13230    0.84051    0.77519    1.000
    H37      H        0.09040    0.81330    0.75130    1.000
    C63      C        0.33306    0.96502    0.88111    1.000
    C64      C        0.13829    0.72793    0.85020    1.000
    C65      C        0.20660    0.88253    0.62205    1.000
    C66      C        0.17526    0.82012    0.58691    1.000
    H38      H        0.11540    0.81810    0.57490    1.000
    C67      C        0.23348    0.76051    0.56957    1.000
    H39      H        0.21270    0.71930    0.54500    1.000
    C68      C        0.32260    0.76175    0.58851    1.000
    C69      C        0.35423    0.82537    0.62307    1.000
    H40      H        0.41410    0.82740    0.63510    1.000
    C70      C        0.29658    0.88566    0.63955    1.000
    H41      H        0.31790    0.92820    0.66230    1.000
    C71      C        0.38338    0.69302    0.57471    1.000
    C72      C        0.00215    0.03218    0.76293    1.000
    H42      H        0.02610    0.00510    0.79870    1.000
    H43      H        0.93970    0.01990    0.75860    1.000
    H44      H        0.00920    0.08760    0.76860    1.000
    Co9      Co       0.40111    0.53137    0.51234    1.000
    Co10     Co       0.55734    0.61049    0.60850    1.000
    O29      O        0.11798    0.42706    0.91850    1.000
    O30      O        0.16329    0.53796    0.87140    1.000
    O31      O        0.40076    0.18312    0.81191    1.000
    O32      O        0.35132    0.20953    0.90692    1.000
    O33      O        0.14744    0.13956    0.54078    1.000
    O34      O        0.04064    0.19460    0.60014    1.000
    O35      O        0.53705    0.56930    0.51957    1.000
    H45      H        0.55090    0.60910    0.49340    1.000
    N13      N        0.38178    0.45271    0.70466    1.000
    N14      N        0.40720    0.48971    0.60831    1.000
    N15      N        0.46475    0.53028    0.64772    1.000
    C73      C        0.35873    0.44268    0.64312    1.000
    C74      C        0.44909    0.50715    0.70528    1.000
    C75      C        0.34143    0.41550    0.75859    1.000
    C76      C        0.27703    0.45638    0.79220    1.000
    H46      H        0.26030    0.50660    0.78000    1.000
    C77      C        0.23764    0.42138    0.84455    1.000
    C78      C        0.26536    0.34721    0.86315    1.000
    H47      H        0.24070    0.32440    0.89890    1.000
    C79      C        0.32977    0.30676    0.82867    1.000
    C80      C        0.36770    0.34051    0.77519    1.000
    H48      H        0.40960    0.31330    0.75130    1.000
    C81      C        0.16694    0.46502    0.88111    1.000
    C82      C        0.36171    0.22793    0.85020    1.000
    C83      C        0.29340    0.38253    0.62205    1.000
    C84      C        0.32474    0.32012    0.58691    1.000
    H49      H        0.38460    0.31810    0.57490    1.000
    C85      C        0.26652    0.26051    0.56957    1.000
    H50      H        0.28730    0.21930    0.54500    1.000
    C86      C        0.17740    0.26175    0.58851    1.000
    C87      C        0.14577    0.32537    0.62307    1.000
    H51      H        0.08590    0.32740    0.63510    1.000
    C88      C        0.20342    0.38566    0.63955    1.000
    H52      H        0.18210    0.42820    0.66230    1.000
    C89      C        0.11662    0.19302    0.57471    1.000
    C90      C        0.49785    0.53218    0.76293    1.000
    H53      H        0.47390    0.50510    0.79870    1.000
    H54      H        0.56030    0.51990    0.75860    1.000
    H55      H        0.49080    0.58760    0.76860    1.000
    Co11     Co       0.09889    0.46863    0.01234    1.000
    Co12     Co       0.94266    0.38951    0.10850    1.000
    O36      O        0.38202    0.57294    0.41850    1.000
    O37      O        0.33671    0.46204    0.37140    1.000
    O38      O        0.09924    0.81688    0.31191    1.000
    O39      O        0.14868    0.79047    0.40692    1.000
    O40      O        0.35256    0.86044    0.04078    1.000
    O41      O        0.45936    0.80540    0.10014    1.000
    O42      O        0.96295    0.43070    0.01957    1.000
    H56      H        0.94910    0.39090    0.99340    1.000
    N16      N        0.11822    0.54729    0.20466    1.000
    N17      N        0.09280    0.51029    0.10831    1.000
    N18      N        0.03525    0.46972    0.14772    1.000
    C91      C        0.14127    0.55732    0.14312    1.000
    C92      C        0.05091    0.49285    0.20528    1.000
    C93      C        0.15857    0.58450    0.25859    1.000
    C94      C        0.22297    0.54362    0.29220    1.000
    H57      H        0.23970    0.49340    0.28000    1.000
    C95      C        0.26236    0.57862    0.34455    1.000
    C96      C        0.23464    0.65279    0.36315    1.000
    H58      H        0.25930    0.67560    0.39890    1.000
    C97      C        0.17023    0.69324    0.32867    1.000
    C98      C        0.13230    0.65949    0.27519    1.000
    H59      H        0.09040    0.68670    0.25130    1.000
    C99      C        0.33306    0.53498    0.38111    1.000
    C100     C        0.13829    0.77207    0.35020    1.000
    C101     C        0.20660    0.61747    0.12205    1.000
    C102     C        0.17526    0.67988    0.08691    1.000
    H60      H        0.11540    0.68190    0.07490    1.000
    C103     C        0.23348    0.73949    0.06957    1.000
    H61      H        0.21270    0.78070    0.04500    1.000
    C104     C        0.32260    0.73825    0.08851    1.000
    C105     C        0.35423    0.67463    0.12307    1.000
    H62      H        0.41410    0.67260    0.13510    1.000
    C106     C        0.29658    0.61434    0.13955    1.000
    H63      H        0.31790    0.57180    0.16230    1.000
    C107     C        0.38338    0.80698    0.07471    1.000
    C108     C        0.00215    0.46782    0.26293    1.000
    H64      H        0.02610    0.49490    0.29870    1.000
    H65      H        0.93970    0.48010    0.25860    1.000
    H66      H        0.00920    0.41240    0.26860    1.000
    Co13     Co       0.59889    0.03137    0.98766    1.000
    Co14     Co       0.44266    0.11049    0.89150    1.000
    O43      O        0.88202    0.92706    0.58150    1.000
    O44      O        0.83671    0.03796    0.62860    1.000
    O45      O        0.59924    0.68312    0.68809    1.000
    O46      O        0.64868    0.70953    0.59308    1.000
    O47      O        0.85256    0.63956    0.95922    1.000
    O48      O        0.95936    0.69460    0.89986    1.000
    O49      O        0.46295    0.06930    0.98043    1.000
    H67      H        0.44910    0.10910    0.00660    1.000
    N19      N        0.61822    0.95271    0.79534    1.000
    N20      N        0.59280    0.98971    0.89169    1.000
    N21      N        0.53525    0.03028    0.85228    1.000
    C109     C        0.64127    0.94268    0.85688    1.000
    C110     C        0.55091    0.00715    0.79472    1.000
    C111     C        0.65857    0.91550    0.74141    1.000
    C112     C        0.72297    0.95638    0.70780    1.000
    H68      H        0.73970    0.00660    0.72000    1.000
    C113     C        0.76236    0.92138    0.65545    1.000
    C114     C        0.73464    0.84721    0.63685    1.000
    H69      H        0.75930    0.82440    0.60110    1.000
    C115     C        0.67023    0.80676    0.67133    1.000
    C116     C        0.63230    0.84051    0.72481    1.000
    H70      H        0.59040    0.81330    0.74870    1.000
    C117     C        0.83306    0.96502    0.61889    1.000
    C118     C        0.63829    0.72793    0.64980    1.000
    C119     C        0.70660    0.88253    0.87795    1.000
    C120     C        0.67526    0.82012    0.91309    1.000
    H71      H        0.61540    0.81810    0.92510    1.000
    C121     C        0.73348    0.76051    0.93043    1.000
    H72      H        0.71270    0.71930    0.95500    1.000
    C122     C        0.82260    0.76175    0.91149    1.000
    C123     C        0.85423    0.82537    0.87693    1.000
    H73      H        0.91410    0.82740    0.86490    1.000
    C124     C        0.79658    0.88566    0.86045    1.000
    H74      H        0.81790    0.92820    0.83770    1.000
    C125     C        0.88338    0.69302    0.92529    1.000
    C126     C        0.50215    0.03218    0.73707    1.000
    H75      H        0.52610    0.00510    0.70130    1.000
    H76      H        0.43970    0.01990    0.74140    1.000
    H77      H        0.50920    0.08760    0.73140    1.000
    Co15     Co       0.90111    0.96863    0.48766    1.000
    Co16     Co       0.05734    0.88951    0.39150    1.000
    O50      O        0.61798    0.07294    0.08150    1.000
    O51      O        0.66329    0.96204    0.12860    1.000
    O52      O        0.90076    0.31688    0.18809    1.000
    O53      O        0.85132    0.29047    0.09308    1.000
    O54      O        0.64744    0.36044    0.45922    1.000
    O55      O        0.54064    0.30540    0.39986    1.000
    O56      O        0.03705    0.93070    0.48043    1.000
    H78      H        0.05090    0.89090    0.50660    1.000
    N22      N        0.88178    0.04729    0.29534    1.000
    N23      N        0.90720    0.01029    0.39169    1.000
    N24      N        0.96475    0.96972    0.35228    1.000
    C127     C        0.85873    0.05732    0.35688    1.000
    C128     C        0.94909    0.99285    0.29472    1.000
    C129     C        0.84143    0.08450    0.24141    1.000
    C130     C        0.77703    0.04362    0.20780    1.000
    H79      H        0.76030    0.99340    0.22000    1.000
    C131     C        0.73764    0.07862    0.15545    1.000
    C132     C        0.76536    0.15279    0.13685    1.000
    H80      H        0.74070    0.17560    0.10110    1.000
    C133     C        0.82977    0.19324    0.17133    1.000
    C134     C        0.86770    0.15949    0.22481    1.000
    H81      H        0.90960    0.18670    0.24870    1.000
    C135     C        0.66694    0.03498    0.11889    1.000
    C136     C        0.86171    0.27207    0.14980    1.000
    C137     C        0.79340    0.11747    0.37795    1.000
    C138     C        0.82474    0.17988    0.41309    1.000
    H82      H        0.88460    0.18190    0.42510    1.000
    C139     C        0.76652    0.23949    0.43043    1.000
    H83      H        0.78730    0.28070    0.45500    1.000
    C140     C        0.67740    0.23825    0.41149    1.000
    C141     C        0.64577    0.17463    0.37693    1.000
    H84      H        0.58590    0.17260    0.36490    1.000
    C142     C        0.70342    0.11434    0.36045    1.000
    H85      H        0.68210    0.07180    0.33770    1.000
    C143     C        0.61662    0.30698    0.42529    1.000
    C144     C        0.99785    0.96782    0.23707    1.000
    H86      H        0.97390    0.99490    0.20130    1.000
    H87      H        0.06030    0.98010    0.24140    1.000
    H88      H        0.99080    0.91240    0.23140    1.000
