data_functionalizedCrystal
_audit_creation_method	'EQeq! by Chris Wilmer'
_symmetry_space_group_name_H-M	'P1'
_symmetry_Int_Tables_number	1
_symmetry_cell_setting	triclinic
loop_
_symmetry_equiv_pos_as_xyz
  x,y,z
_cell_length_a	21.599
_cell_length_b	21.599
_cell_length_c	12.196
_cell_angle_alpha	90
_cell_angle_beta	90
_cell_angle_gamma	120
loop_
_atom_site_label
_atom_site_type_symbol
_atom_site_fract_x
_atom_site_fract_y
_atom_site_fract_z
_atom_site_charge
Mof_C 	C 	0.1176	0.4992	0.6344	0.094
Mof_C 	C 	0.158	0.6027	0.5679	0.12
Mof_C 	C 	0.0703	0.4255	0.6667	-0.034
Mof_C 	C 	0.0013	0.4027	0.7092	-0.102
Mof_H 	H 	0.9845	0.4348	0.7127	0.039
Mof_C 	C 	0.959	0.3343	0.7452	-0.018
Mof_H 	H 	0.9147	0.3207	0.7762	0.03
Mof_C 	C 	0.9811	0.2875	0.7359	-0.024
Mof_H 	H 	0.9489	0.24	0.7522	0.036
Mof_C 	C 	0.0474	0.3046	0.7042	-0.07
Mof_H 	H 	0.0636	0.2721	0.7083	0.042
Mof_C 	C 	0.0919	0.3761	0.6636	-0.044
Mof_H 	H 	0.1365	0.389	0.6345	0.027
Mof_C 	C 	0.1627	0.6674	0.5165	-0.077
Mof_C 	C 	0.1087	0.6848	0.5404	-0.035
Mof_H 	H 	0.0692	0.6536	0.5819	0.018
Mof_C 	C 	0.1147	0.7476	0.5022	-0.066
Mof_H 	H 	0.0806	0.7603	0.5196	0.042
Mof_C 	C 	0.1774	0.7945	0.4321	-0.035
Mof_H 	H 	0.1825	0.8368	0.4039	0.035
Mof_C 	C 	0.2256	0.7758	0.4103	-0.063
Mof_H 	H 	0.2643	0.8053	0.3658	0.041
Mof_C 	C 	0.2204	0.7133	0.4517	-0.029
Mof_H 	H 	0.2559	0.7022	0.4358	0.009
Mof_N 	N 	0.214	0.6027	0.6073	-0.188
Mof_N 	N 	0.1878	0.5341	0.6501	-0.179
Mof_N 	N 	0.0972	0.5434	0.5829	-0.224
Mof_C 	C 	0.5008	0.6184	0.6344	0.109
Mof_C 	C 	0.3973	0.5553	0.5679	0.119
Mof_C 	C 	0.5745	0.6448	0.6667	-0.077
Mof_C 	C 	0.5973	0.5986	0.7092	-0.007
Mof_H 	H 	0.5652	0.5497	0.7127	-0.006
Mof_C 	C 	0.6657	0.6247	0.7452	-0.102
Mof_H 	H 	0.6793	0.594	0.7762	0.058
Mof_C 	C 	0.7125	0.6936	0.7359	0.015
Mof_H 	H 	0.76	0.7089	0.7522	0.021
Mof_C 	C 	0.6954	0.7428	0.7042	-0.092
Mof_H 	H 	0.7279	0.7915	0.7083	0.056
Mof_C 	C 	0.6239	0.7158	0.6636	-0.01
Mof_H 	H 	0.611	0.7475	0.6345	0.016
Mof_C 	C 	0.3326	0.4953	0.5165	-0.078
Mof_C 	C 	0.3152	0.4239	0.5404	-0.035
Mof_H 	H 	0.3464	0.4156	0.5819	0.019
Mof_C 	C 	0.2524	0.3671	0.5022	-0.066
Mof_H 	H 	0.2397	0.3203	0.5196	0.044
Mof_C 	C 	0.2055	0.3829	0.4321	-0.035
Mof_H 	H 	0.1632	0.3457	0.4039	0.034
Mof_C 	C 	0.2242	0.4498	0.4103	-0.063
Mof_H 	H 	0.1947	0.459	0.3658	0.039
Mof_C 	C 	0.2867	0.5071	0.4517	-0.029
Mof_H 	H 	0.2978	0.5537	0.4358	0.009
Mof_N 	N 	0.3973	0.6113	0.6073	-0.188
Mof_N 	N 	0.4659	0.6537	0.6501	-0.182
Mof_N 	N 	0.4566	0.5538	0.5829	-0.227
Mof_C 	C 	0.3816	0.8824	0.6344	0.124
Mof_C 	C 	0.4447	0.842	0.5679	0.119
Mof_C 	C 	0.3552	0.9297	0.6667	-0.113
Mof_C 	C 	0.4014	0.9987	0.7092	0.083
Mof_H 	H 	0.4503	0.0155	0.7127	-0.044
Mof_C 	C 	0.3753	0.041	0.7452	-0.178
Mof_H 	H 	0.406	0.0853	0.7762	0.084
Mof_C 	C 	0.3064	0.0189	0.7359	0.047
Mof_H 	H 	0.2911	0.0511	0.7522	0.005
Mof_C 	C 	0.2572	0.9526	0.7042	-0.11
Mof_H 	H 	0.2085	0.9364	0.7083	0.063
Mof_C 	C 	0.2842	0.9081	0.6636	0.019
Mof_H 	H 	0.2525	0.8635	0.6345	0.007
Mof_C 	C 	0.5047	0.8373	0.5165	-0.075
Mof_C 	C 	0.5761	0.8913	0.5404	-0.035
Mof_H 	H 	0.5844	0.9308	0.5819	0.024
Mof_C 	C 	0.6329	0.8853	0.5022	-0.064
Mof_H 	H 	0.6797	0.9194	0.5196	0.048
Mof_C 	C 	0.6171	0.8226	0.4321	-0.035
Mof_H 	H 	0.6543	0.8175	0.4039	0.036
Mof_C 	C 	0.5502	0.7744	0.4103	-0.061
Mof_H 	H 	0.541	0.7357	0.3658	0.039
Mof_C 	C 	0.4929	0.7796	0.4517	-0.03
Mof_H 	H 	0.4463	0.7441	0.4358	0.009
Mof_N 	N 	0.3887	0.786	0.6073	-0.188
Mof_N 	N 	0.3463	0.8122	0.6501	-0.184
Mof_N 	N 	0.4462	0.9028	0.5829	-0.223
Mof_C 	C 	0.8824	0.5008	0.1344	0.123
Mof_C 	C 	0.842	0.3973	0.0679	0.135
Mof_C 	C 	0.9297	0.5745	0.1667	-0.118
Mof_C 	C 	0.9987	0.5973	0.2092	0.091
Mof_H 	H 	0.0155	0.5652	0.2127	-0.049
Mof_C 	C 	0.041	0.6657	0.2452	-0.188
Mof_H 	H 	0.0853	0.6793	0.2762	0.084
Mof_C 	C 	0.0189	0.7125	0.2359	0.05
Mof_H 	H 	0.0511	0.76	0.2522	0.001
Mof_C 	C 	0.9526	0.6954	0.2042	-0.115
Mof_H 	H 	0.9364	0.7279	0.2083	0.063
Mof_C 	C 	0.9081	0.6239	0.1636	0.021
Mof_H 	H 	0.8635	0.611	0.1345	0.003
Mof_C 	C 	0.8373	0.3326	0.0165	-0.14
Mof_C 	C 	0.8913	0.3152	0.0404	0.023
Mof_H 	H 	0.9308	0.3464	0.0819	0.002
Mof_C 	C 	0.8853	0.2524	0.0022	-0.146
Mof_H 	H 	0.9194	0.2397	0.0196	0.069
Mof_C 	C 	0.8226	0.2055	0.9321	0.057
Mof_H 	H 	0.8175	0.1632	0.9039	0.008
Mof_C 	C 	0.7744	0.2242	0.9103	-0.141
Mof_H 	H 	0.7357	0.1947	0.8658	0.07
Mof_C 	C 	0.7796	0.2867	0.9517	0.058
Mof_H 	H 	0.7441	0.2978	0.9358	-0.013
Mof_N 	N 	0.786	0.3973	0.1073	-0.192
Mof_N 	N 	0.8122	0.4659	0.1501	-0.185
Mof_N 	N 	0.9028	0.4566	0.0829	-0.224
Mof_C 	C 	0.4992	0.3816	0.1344	0.106
Mof_C 	C 	0.6027	0.4447	0.0679	0.136
Mof_C 	C 	0.4255	0.3552	0.1667	-0.077
Mof_C 	C 	0.4027	0.4014	0.2092	-0.008
Mof_H 	H 	0.4348	0.4503	0.2127	-0.007
Mof_C 	C 	0.3343	0.3753	0.2452	-0.104
Mof_H 	H 	0.3207	0.406	0.2762	0.055
Mof_C 	C 	0.2875	0.3064	0.2359	0.013
Mof_H 	H 	0.24	0.2911	0.2522	0.015
Mof_C 	C 	0.3046	0.2572	0.2042	-0.094
Mof_H 	H 	0.2721	0.2085	0.2083	0.049
Mof_C 	C 	0.3761	0.2842	0.1636	-0.012
Mof_H 	H 	0.389	0.2525	0.1345	0.013
Mof_C 	C 	0.6674	0.5047	0.0165	-0.144
Mof_C 	C 	0.6848	0.5761	0.0404	0.026
Mof_H 	H 	0.6536	0.5844	0.0819	-0.003
Mof_C 	C 	0.7476	0.6329	0.0022	-0.15
Mof_H 	H 	0.7603	0.6797	0.0196	0.069
Mof_C 	C 	0.7945	0.6171	0.9321	0.06
Mof_H 	H 	0.8368	0.6543	0.9039	0.008
Mof_C 	C 	0.7758	0.5502	0.9103	-0.145
Mof_H 	H 	0.8053	0.541	0.8658	0.073
Mof_C 	C 	0.7133	0.4929	0.9517	0.061
Mof_H 	H 	0.7022	0.4463	0.9358	-0.014
Mof_N 	N 	0.6027	0.3887	0.1073	-0.192
Mof_N 	N 	0.5341	0.3463	0.1501	-0.182
Mof_N 	N 	0.5434	0.4462	0.0829	-0.228
Mof_C 	C 	0.6184	0.1176	0.1344	0.091
Mof_C 	C 	0.5553	0.158	0.0679	0.136
Mof_C 	C 	0.6448	0.0703	0.1667	-0.036
Mof_C 	C 	0.5986	0.0013	0.2092	-0.101
Mof_H 	H 	0.5497	0.9845	0.2127	0.037
Mof_C 	C 	0.6247	0.959	0.2452	-0.022
Mof_H 	H 	0.594	0.9147	0.2762	0.028
Mof_C 	C 	0.6936	0.9811	0.2359	-0.023
Mof_H 	H 	0.7089	0.9489	0.2522	0.033
Mof_C 	C 	0.7428	0.0474	0.2042	-0.073
Mof_H 	H 	0.7915	0.0636	0.2083	0.041
Mof_C 	C 	0.7158	0.0919	0.1636	-0.044
Mof_H 	H 	0.7475	0.1365	0.1345	0.024
Mof_C 	C 	0.4953	0.1627	0.0165	-0.145
Mof_C 	C 	0.4239	0.1087	0.0404	0.026
Mof_H 	H 	0.4156	0.0692	0.0819	-0.005
Mof_C 	C 	0.3671	0.1147	0.0022	-0.152
Mof_H 	H 	0.3203	0.0806	0.0196	0.065
Mof_C 	C 	0.3829	0.1774	0.9321	0.061
Mof_H 	H 	0.3457	0.1825	0.9039	0.006
Mof_C 	C 	0.4498	0.2256	0.9103	-0.147
Mof_H 	H 	0.459	0.2643	0.8658	0.072
Mof_C 	C 	0.5071	0.2204	0.9517	0.062
Mof_H 	H 	0.5537	0.2559	0.9358	-0.015
Mof_N 	N 	0.6113	0.214	0.1073	-0.192
Mof_N 	N 	0.6537	0.1878	0.1501	-0.18
Mof_N 	N 	0.5538	0.0972	0.0829	-0.225
Mof_C 	C 	0.4992	0.1176	0.3656	0.093
Mof_C 	C 	0.6027	0.158	0.4321	0.12
Mof_C 	C 	0.4255	0.0703	0.3333	-0.034
Mof_C 	C 	0.4027	0.0013	0.2908	-0.102
Mof_H 	H 	0.4348	0.9845	0.2873	0.037
Mof_C 	C 	0.3343	0.959	0.2548	-0.019
Mof_H 	H 	0.3207	0.9147	0.2238	0.026
Mof_C 	C 	0.2875	0.9811	0.2641	-0.026
Mof_H 	H 	0.24	0.9489	0.2478	0.032
Mof_C 	C 	0.3046	0.0474	0.2958	-0.07
Mof_H 	H 	0.2721	0.0636	0.2917	0.039
Mof_C 	C 	0.3761	0.0919	0.3364	-0.045
Mof_H 	H 	0.389	0.1365	0.3655	0.027
Mof_C 	C 	0.6674	0.1627	0.4835	-0.077
Mof_C 	C 	0.6848	0.1087	0.4596	-0.035
Mof_H 	H 	0.6536	0.0692	0.4181	0.018
Mof_C 	C 	0.7476	0.1147	0.4978	-0.066
Mof_H 	H 	0.7603	0.0806	0.4804	0.042
Mof_C 	C 	0.7945	0.1774	0.5679	-0.034
Mof_H 	H 	0.8368	0.1825	0.5961	0.036
Mof_C 	C 	0.7758	0.2256	0.5897	-0.063
Mof_H 	H 	0.8053	0.2643	0.6342	0.042
Mof_C 	C 	0.7133	0.2204	0.5483	-0.029
Mof_H 	H 	0.7022	0.2559	0.5642	0.01
Mof_N 	N 	0.6027	0.214	0.3927	-0.187
Mof_N 	N 	0.5341	0.1878	0.3499	-0.178
Mof_N 	N 	0.5434	0.0972	0.4171	-0.223
Mof_C 	C 	0.6184	0.5008	0.3656	0.109
Mof_C 	C 	0.5553	0.3973	0.4321	0.12
Mof_C 	C 	0.6448	0.5745	0.3333	-0.076
Mof_C 	C 	0.5986	0.5973	0.2908	-0.008
Mof_H 	H 	0.5497	0.5652	0.2873	-0.007
Mof_C 	C 	0.6247	0.6657	0.2548	-0.102
Mof_H 	H 	0.594	0.6793	0.2238	0.053
Mof_C 	C 	0.6936	0.7125	0.2641	0.012
Mof_H 	H 	0.7089	0.76	0.2478	0.018
Mof_C 	C 	0.7428	0.6954	0.2958	-0.092
Mof_H 	H 	0.7915	0.7279	0.2917	0.053
Mof_C 	C 	0.7158	0.6239	0.3364	-0.011
Mof_H 	H 	0.7475	0.611	0.3655	0.016
Mof_C 	C 	0.4953	0.3326	0.4835	-0.077
Mof_C 	C 	0.4239	0.3152	0.4596	-0.035
Mof_H 	H 	0.4156	0.3464	0.4181	0.02
Mof_C 	C 	0.3671	0.2524	0.4978	-0.066
Mof_H 	H 	0.3203	0.2397	0.4804	0.044
Mof_C 	C 	0.3829	0.2055	0.5679	-0.035
Mof_H 	H 	0.3457	0.1632	0.5961	0.034
Mof_C 	C 	0.4498	0.2242	0.5897	-0.063
Mof_H 	H 	0.459	0.1947	0.6342	0.04
Mof_C 	C 	0.5071	0.2867	0.5483	-0.029
Mof_H 	H 	0.5537	0.2978	0.5642	0.01
Mof_N 	N 	0.6113	0.3973	0.3927	-0.188
Mof_N 	N 	0.6537	0.4659	0.3499	-0.181
Mof_N 	N 	0.5538	0.4566	0.4171	-0.227
Mof_C 	C 	0.8824	0.3816	0.3656	0.125
Mof_C 	C 	0.842	0.4447	0.4321	0.119
Mof_C 	C 	0.9297	0.3552	0.3333	-0.116
Mof_C 	C 	0.9987	0.4014	0.2908	0.09
Mof_H 	H 	0.0155	0.4503	0.2873	-0.049
Mof_C 	C 	0.041	0.3753	0.2548	-0.185
Mof_H 	H 	0.0853	0.406	0.2238	0.081
Mof_C 	C 	0.0189	0.3064	0.2641	0.047
Mof_H 	H 	0.0511	0.2911	0.2478	0
Mof_C 	C 	0.9526	0.2572	0.2958	-0.111
Mof_H 	H 	0.9364	0.2085	0.2917	0.061
Mof_C 	C 	0.9081	0.2842	0.3364	0.02
Mof_H 	H 	0.8635	0.2525	0.3655	0.006
Mof_C 	C 	0.8373	0.5047	0.4835	-0.074
Mof_C 	C 	0.8913	0.5761	0.4596	-0.035
Mof_H 	H 	0.9308	0.5844	0.4181	0.024
Mof_C 	C 	0.8853	0.6329	0.4978	-0.064
Mof_H 	H 	0.9194	0.6797	0.4804	0.048
Mof_C 	C 	0.8226	0.6171	0.5679	-0.035
Mof_H 	H 	0.8175	0.6543	0.5961	0.037
Mof_C 	C 	0.7744	0.5502	0.5897	-0.061
Mof_H 	H 	0.7357	0.541	0.6342	0.04
Mof_C 	C 	0.7796	0.4929	0.5483	-0.03
Mof_H 	H 	0.7441	0.4463	0.5642	0.01
Mof_N 	N 	0.786	0.3887	0.3927	-0.187
Mof_N 	N 	0.8122	0.3463	0.3499	-0.184
Mof_N 	N 	0.9028	0.4462	0.4171	-0.223
Mof_C 	C 	0.5008	0.8824	0.8656	0.126
Mof_C 	C 	0.3973	0.842	0.9321	0.102
Mof_C 	C 	0.5745	0.9297	0.8333	-0.106
Mof_C 	C 	0.5973	0.9987	0.7908	0.079
Mof_H 	H 	0.5652	0.0155	0.7873	-0.041
Mof_C 	C 	0.6657	0.041	0.7548	-0.172
Mof_H 	H 	0.6793	0.0853	0.7238	0.079
Mof_C 	C 	0.7125	0.0189	0.7641	0.042
Mof_H 	H 	0.76	0.0511	0.7478	0.008
Mof_C 	C 	0.6954	0.9526	0.7958	-0.103
Mof_H 	H 	0.7279	0.9364	0.7917	0.063
Mof_C 	C 	0.6239	0.9081	0.8364	0.016
Mof_H 	H 	0.611	0.8635	0.8655	0.012
Mof_C 	C 	0.3326	0.8373	0.9835	-0.001
Mof_C 	C 	0.3152	0.8913	0.9596	-0.099
Mof_H 	H 	0.3464	0.9308	0.9181	0.051
Mof_C 	C 	0.2524	0.8853	0.9978	0.025
Mof_H 	H 	0.2397	0.9194	0.9804	0.022
Mof_C 	C 	0.2055	0.8226	0.0679	-0.134
Mof_H 	H 	0.1632	0.8175	0.0961	0.065
Mof_C 	C 	0.2242	0.7744	0.0897	0.026
Mof_H 	H 	0.1947	0.7357	0.1342	0.006
Mof_C 	C 	0.2867	0.7796	0.0483	-0.125
Mof_H 	H 	0.2978	0.7441	0.0642	0.035
Mof_N 	N 	0.3973	0.786	0.8927	-0.182
Mof_N 	N 	0.4659	0.8122	0.8499	-0.183
Mof_N 	N 	0.4566	0.9028	0.9171	-0.212
Mof_C 	C 	0.3816	0.4992	0.8656	0.111
Mof_C 	C 	0.4447	0.6027	0.9321	0.103
Mof_C 	C 	0.3552	0.4255	0.8333	-0.069
Mof_C 	C 	0.4014	0.4027	0.7908	-0.012
Mof_H 	H 	0.4503	0.4348	0.7873	-0.002
Mof_C 	C 	0.3753	0.3343	0.7548	-0.094
Mof_H 	H 	0.406	0.3207	0.7238	0.053
Mof_C 	C 	0.3064	0.2875	0.7641	0.007
Mof_H 	H 	0.2911	0.24	0.7478	0.021
Mof_C 	C 	0.2572	0.3046	0.7958	-0.084
Mof_H 	H 	0.2085	0.2721	0.7917	0.05
Mof_C 	C 	0.2842	0.3761	0.8364	-0.015
Mof_H 	H 	0.2525	0.389	0.8655	0.021
Mof_C 	C 	0.5047	0.6674	0.9835	-0.006
Mof_C 	C 	0.5761	0.6848	0.9596	-0.097
Mof_H 	H 	0.5844	0.6536	0.9181	0.046
Mof_C 	C 	0.6329	0.7476	0.9978	0.021
Mof_H 	H 	0.6797	0.7603	0.9804	0.022
Mof_C 	C 	0.6171	0.7945	0.0679	-0.13
Mof_H 	H 	0.6543	0.8368	0.0961	0.066
Mof_C 	C 	0.5502	0.7758	0.0897	0.022
Mof_H 	H 	0.541	0.8053	0.1342	0.009
Mof_C 	C 	0.4929	0.7133	0.0483	-0.122
Mof_H 	H 	0.4463	0.7022	0.0642	0.034
Mof_N 	N 	0.3887	0.6027	0.8927	-0.182
Mof_N 	N 	0.3463	0.5341	0.8499	-0.18
Mof_N 	N 	0.4462	0.5434	0.9171	-0.215
Mof_C 	C 	0.1176	0.6184	0.8656	0.096
Mof_C 	C 	0.158	0.5553	0.9321	0.102
Mof_C 	C 	0.0703	0.6448	0.8333	-0.028
Mof_C 	C 	0.0013	0.5986	0.7908	-0.105
Mof_H 	H 	0.9845	0.5497	0.7873	0.041
Mof_C 	C 	0.959	0.6247	0.7548	-0.012
Mof_H 	H 	0.9147	0.594	0.7238	0.026
Mof_C 	C 	0.9811	0.6936	0.7641	-0.029
Mof_H 	H 	0.9489	0.7089	0.7478	0.039
Mof_C 	C 	0.0474	0.7428	0.7958	-0.063
Mof_H 	H 	0.0636	0.7915	0.7917	0.042
Mof_C 	C 	0.0919	0.7158	0.8364	-0.047
Mof_H 	H 	0.1365	0.7475	0.8655	0.032
Mof_C 	C 	0.1627	0.4953	0.9835	-0.002
Mof_C 	C 	0.1087	0.4239	0.9596	-0.101
Mof_H 	H 	0.0692	0.4156	0.9181	0.046
Mof_C 	C 	0.1147	0.3671	0.9978	0.025
Mof_H 	H 	0.0806	0.3203	0.9804	0.016
Mof_C 	C 	0.1774	0.3829	0.0679	-0.137
Mof_H 	H 	0.1825	0.3457	0.0961	0.065
Mof_C 	C 	0.2256	0.4498	0.0897	0.027
Mof_H 	H 	0.2643	0.459	0.1342	0.006
Mof_C 	C 	0.2204	0.5071	0.0483	-0.127
Mof_H 	H 	0.2559	0.5537	0.0642	0.035
Mof_N 	N 	0.214	0.6113	0.8927	-0.182
Mof_N 	N 	0.1878	0.6537	0.8499	-0.177
Mof_N 	N 	0.0972	0.5538	0.9171	-0.211
Mof_Ag	Ag	0.33333	0.66667	0.6013	0.406
Mof_Ag	Ag	0.66667	0.33333	0.1013	0.398
Mof_Ag	Ag	0.66667	0.33333	0.3987	0.409
Mof_Ag	Ag	0.33333	0.66667	0.8987	0.418
Mof_Ag	Ag	0.25981	0.51962	0.75	0.498
Mof_Ag	Ag	0.48038	0.74019	0.75	0.5
Mof_Ag	Ag	0.25981	0.74019	0.75	0.499
Mof_Ag	Ag	0.74019	0.48038	0.25	0.497
Mof_Ag	Ag	0.51962	0.25981	0.25	0.495
Mof_Ag	Ag	0.74019	0.25981	0.25	0.496
Mof_Ag	Ag	0.50121	0.50121	-0	0.526
Mof_Ag	Ag	0.49879	0	-0	0.503
Mof_Ag	Ag	4.6145e-17	0.49879	-0	0.5
Mof_Ag	Ag	0.49879	0.49879	0.5	0.561
Mof_Ag	Ag	0.50121	0	0.5	0.537
Mof_Ag	Ag	-8.07202e-17	0.50121	0.5	0.536
_end
