# CIF file generated by openbabel 3.1.0, see https://openbabel.org
data_I
_chemical_name_common 'image0'
_cell_length_a 13.4995
_cell_length_b 12.4212
_cell_length_c 40.153
_cell_angle_alpha 90
_cell_angle_beta 108.438
_cell_angle_gamma 90
_space_group_name_H-M_alt 'P 1'
_space_group_name_Hall 'P 1'
loop_
    _symmetry_equiv_pos_as_xyz
    x,y,z
loop_
    _atom_site_label
    _atom_site_type_symbol
    _atom_site_fract_x
    _atom_site_fract_y
    _atom_site_fract_z
    _atom_site_occupancy
    Ni1      Ni       0.67903    0.38792    0.30752    1.000
    Ni2      Ni       0.87118    0.09473    0.57757    1.000
    O1       O        0.77990    0.23610    0.57835    1.000
    O2       O        0.67780    0.35480    0.54228    1.000
    O3       O        0.93874    0.97079    0.55275    1.000
    O4       O        0.91953    0.90870    0.49866    1.000
    O5       O        0.73725    0.23072    0.30377    1.000
    O6       O        0.79589    0.08310    0.33615    1.000
    O7       O        0.63273    0.52211    0.33543    1.000
    O8       O        0.59370    0.55310    0.38476    1.000
    N1       N        0.94400    0.58370    0.32250    1.000
    N2       N        0.82600    0.45790    0.31954    1.000
    N3       N        0.64360    0.83340    0.21220    1.000
    N4       N        0.47480    0.83370    0.20446    1.000
    N5       N        0.96650    0.55500    0.17419    1.000
    N6       N        0.91010    0.44850    0.12872    1.000
    N7       N        0.82350    0.13840    0.52767    1.000
    N8       N        0.70724    0.33260    0.35609    1.000
    N9       N        0.53820    0.47790    0.20318    1.000
    N10      N        0.64070    0.43490    0.25587    1.000
    N11      N        0.16660    0.26590    0.08674    1.000
    N12      N        0.00880    0.31660    0.08586    1.000
    N13      N        0.58160    0.57180    0.06042    1.000
    N14      N        0.73820    0.50490    0.06829    1.000
    C1       C        0.95520    0.71580    0.27806    1.000
    C2       C        0.87410    0.78900    0.26454    1.000
    C3       C        0.83520    0.80580    0.22821    1.000
    C4       C        0.88130    0.75550    0.20573    1.000
    C5       C        0.96760    0.68950    0.22000    1.000
    C6       C        0.00280    0.66550    0.25565    1.000
    C7       C        0.73840    0.27780    0.54875    1.000
    C8       C        0.90900    0.97730    0.51934    1.000
    C9       C        0.76200    0.17550    0.33215    1.000
    C10      C        0.63320    0.49860    0.36600    1.000
    C11      C        0.99070    0.68650    0.31623    1.000
    H1       H        0.06780    0.68020    0.32470    1.000
    H2       H        0.97080    0.74460    0.32980    1.000
    C12      C        0.84500    0.55090    0.30733    1.000
    H3       H        0.79440    0.59070    0.28980    1.000
    C13      C        0.91800    0.43010    0.34444    1.000
    H4       H        0.92900    0.36650    0.35830    1.000
    C14      C        0.99120    0.50700    0.34641    1.000
    H5       H        0.06140    0.50710    0.36150    1.000
    C15      C        0.82710    0.84790    0.28907    1.000
    H6       H        0.80090    0.79540    0.30250    1.000
    H7       H        0.76930    0.89340    0.27530    1.000
    H8       H        0.88060    0.89290    0.30530    1.000
    C16      C        0.74380    0.88160    0.21297    1.000
    H9       H        0.75520    0.94830    0.22720    1.000
    H10      H        0.74060    0.90160    0.18880    1.000
    C17      C        0.55240    0.88310    0.19756    1.000
    H11      H        0.54440    0.94660    0.18380    1.000
    C18      C        0.51900    0.74850    0.22530    1.000
    H12      H        0.48270    0.69850    0.23510    1.000
    C19      C        0.62260    0.74640    0.22990    1.000
    H13      H        0.67140    0.69460    0.24290    1.000
    C20      C        0.83750    0.77190    0.16624    1.000
    H14      H        0.76120    0.76640    0.15880    1.000
    H15      H        0.86560    0.71670    0.15430    1.000
    H16      H        0.85750    0.84340    0.16020    1.000
    C21      C        0.02500    0.64360    0.19614    1.000
    H17      H        0.03630    0.70150    0.18080    1.000
    H18      H        0.09430    0.61680    0.21070    1.000
    C22      C        0.97240    0.52870    0.14276    1.000
    H19      H        0.01650    0.56380    0.13180    1.000
    C23      C        0.86200    0.42100    0.15304    1.000
    H20      H        0.81210    0.36510    0.15040    1.000
    C24      C        0.89700    0.48600    0.18117    1.000
    H21      H        0.87720    0.48420    0.20190    1.000
    C25      C        0.08870    0.58480    0.27029    1.000
    H22      H        0.15650    0.61940    0.27380    1.000
    H23      H        0.08030    0.52470    0.25380    1.000
    H24      H        0.08530    0.55780    0.29280    1.000
    C26      C        0.76600    0.22650    0.51837    1.000
    C27      C        0.73680    0.26440    0.48439    1.000
    H25      H        0.69560    0.32770    0.47810    1.000
    C28      C        0.76850    0.20880    0.45931    1.000
    C29      C        0.82560    0.11420    0.46973    1.000
    H26      H        0.84660    0.07310    0.45320    1.000
    C30      C        0.85160    0.08040    0.50426    1.000
    C31      C        0.68350    0.39130    0.38028    1.000
    C32      C        0.70150    0.35280    0.41381    1.000
    H27      H        0.68510    0.39600    0.43090    1.000
    C33      C        0.74380    0.25050    0.42274    1.000
    C34      C        0.76360    0.18870    0.39637    1.000
    H28      H        0.78950    0.11730    0.40110    1.000
    C35      C        0.74500    0.23320    0.36337    1.000
    C36      C        0.42550    0.48370    0.13974    1.000
    C37      C        0.36470    0.39190    0.12823    1.000
    C38      C        0.33570    0.36180    0.09286    1.000
    C39      C        0.37450    0.42030    0.06947    1.000
    C40      C        0.43520    0.51160    0.08154    1.000
    C41      C        0.46200    0.54450    0.11668    1.000
    C42      C        0.44440    0.52300    0.17673    1.000
    H29      H        0.45080    0.60240    0.17690    1.000
    H30      H        0.38250    0.50520    0.18380    1.000
    C43      C        0.54850    0.47230    0.23733    1.000
    H31      H        0.49560    0.49280    0.24710    1.000
    C44      C        0.69260    0.41560    0.23183    1.000
    H32      H        0.76150    0.38810    0.23720    1.000
    C45      C        0.62920    0.44220    0.19922    1.000
    H33      H        0.64520    0.43700    0.17790    1.000
    C46      C        0.32880    0.32540    0.15392    1.000
    H34      H        0.26150    0.35270    0.15480    1.000
    H35      H        0.38060    0.33040    0.17730    1.000
    H36      H        0.32110    0.25000    0.14630    1.000
    C47      C        0.26750    0.26420    0.08005    1.000
    H37      H        0.25410    0.25700    0.05450    1.000
    H38      H        0.30650    0.19950    0.09140    1.000
    C48      C        0.09620    0.34540    0.08000    1.000
    H39      H        0.10770    0.41470    0.07190    1.000
    C49      C        0.02470    0.21340    0.09718    1.000
    H40      H        0.97540    0.17040    0.10350    1.000
    C50      C        0.12140    0.18060    0.09811    1.000
    H41      H        0.15180    0.11190    0.10520    1.000
    C51      C        0.35350    0.38080    0.03220    1.000
    H42      H        0.27940    0.39060    0.01900    1.000
    H43      H        0.37150    0.30430    0.03250    1.000
    H44      H        0.39610    0.42200    0.02090    1.000
    C52      C        0.46990    0.58230    0.05649    1.000
    H45      H        0.42860    0.56350    0.03210    1.000
    H46      H        0.45490    0.65840    0.06050    1.000
    C53      C        0.64090    0.48340    0.06639    1.000
    H47      H        0.61600    0.41340    0.06900    1.000
    C54      C        0.74020    0.61410    0.06346    1.000
    H48      H        0.80020    0.65420    0.06360    1.000
    C55      C        0.64460    0.65620    0.05848    1.000
    H49      H        0.62490    0.72970    0.05440    1.000
    C56      C        0.52860    0.64260    0.12952    1.000
    H50      H        0.58280    0.64650    0.11810    1.000
    H51      H        0.56150    0.63780    0.15500    1.000
    H52      H        0.48490    0.70730    0.12380    1.000
    Ni3      Ni       0.32097    0.88792    0.19248    1.000
    Ni4      Ni       0.12882    0.59473    0.92243    1.000
    O9       O        0.22010    0.73610    0.92165    1.000
    O10      O        0.32220    0.85480    0.95772    1.000
    O11      O        0.06126    0.47079    0.94725    1.000
    O12      O        0.08047    0.40870    0.00134    1.000
    O13      O        0.26275    0.73072    0.19623    1.000
    O14      O        0.20411    0.58310    0.16385    1.000
    O15      O        0.36727    0.02211    0.16457    1.000
    O16      O        0.40630    0.05310    0.11524    1.000
    N15      N        0.05600    0.08370    0.17750    1.000
    N16      N        0.17400    0.95790    0.18046    1.000
    N17      N        0.35640    0.33340    0.28780    1.000
    N18      N        0.52520    0.33370    0.29554    1.000
    N19      N        0.03350    0.05500    0.32581    1.000
    N20      N        0.08990    0.94850    0.37128    1.000
    N21      N        0.17650    0.63840    0.97233    1.000
    N22      N        0.29276    0.83260    0.14391    1.000
    N23      N        0.46180    0.97790    0.29682    1.000
    N24      N        0.35930    0.93490    0.24413    1.000
    N25      N        0.83340    0.76590    0.41326    1.000
    N26      N        0.99120    0.81660    0.41414    1.000
    N27      N        0.41840    0.07180    0.43958    1.000
    N28      N        0.26180    0.00490    0.43171    1.000
    C57      C        0.04480    0.21580    0.22194    1.000
    C58      C        0.12590    0.28900    0.23546    1.000
    C59      C        0.16480    0.30580    0.27179    1.000
    C60      C        0.11870    0.25550    0.29427    1.000
    C61      C        0.03240    0.18950    0.28000    1.000
    C62      C        0.99720    0.16550    0.24435    1.000
    C63      C        0.26160    0.77780    0.95125    1.000
    C64      C        0.09100    0.47730    0.98066    1.000
    C65      C        0.23800    0.67550    0.16785    1.000
    C66      C        0.36680    0.99860    0.13400    1.000
    C67      C        0.00930    0.18650    0.18377    1.000
    H53      H        0.93220    0.18020    0.17530    1.000
    H54      H        0.02920    0.24460    0.17020    1.000
    C68      C        0.15500    0.05090    0.19267    1.000
    H55      H        0.20560    0.09070    0.21020    1.000
    C69      C        0.08200    0.93010    0.15556    1.000
    H56      H        0.07100    0.86650    0.14170    1.000
    C70      C        0.00880    0.00700    0.15359    1.000
    H57      H        0.93860    0.00710    0.13850    1.000
    C71      C        0.17290    0.34790    0.21093    1.000
    H58      H        0.19910    0.29540    0.19750    1.000
    H59      H        0.23070    0.39340    0.22470    1.000
    H60      H        0.11940    0.39290    0.19470    1.000
    C72      C        0.25620    0.38160    0.28703    1.000
    H61      H        0.24480    0.44830    0.27280    1.000
    H62      H        0.25940    0.40160    0.31120    1.000
    C73      C        0.44760    0.38310    0.30244    1.000
    H63      H        0.45560    0.44660    0.31620    1.000
    C74      C        0.48100    0.24850    0.27470    1.000
    H64      H        0.51730    0.19850    0.26490    1.000
    C75      C        0.37740    0.24640    0.27010    1.000
    H65      H        0.32860    0.19460    0.25710    1.000
    C76      C        0.16250    0.27190    0.33376    1.000
    H66      H        0.23880    0.26640    0.34120    1.000
    H67      H        0.13440    0.21670    0.34570    1.000
    H68      H        0.14250    0.34340    0.33980    1.000
    C77      C        0.97500    0.14360    0.30386    1.000
    H69      H        0.96370    0.20150    0.31920    1.000
    H70      H        0.90570    0.11680    0.28930    1.000
    C78      C        0.02760    0.02870    0.35724    1.000
    H71      H        0.98350    0.06380    0.36820    1.000
    C79      C        0.13800    0.92100    0.34696    1.000
    H72      H        0.18790    0.86510    0.34960    1.000
    C80      C        0.10300    0.98600    0.31883    1.000
    H73      H        0.12280    0.98420    0.29810    1.000
    C81      C        0.91130    0.08480    0.22971    1.000
    H74      H        0.84350    0.11940    0.22620    1.000
    H75      H        0.91970    0.02470    0.24620    1.000
    H76      H        0.91470    0.05780    0.20720    1.000
    C82      C        0.23400    0.72650    0.98163    1.000
    C83      C        0.26320    0.76440    0.01561    1.000
    H77      H        0.30440    0.82770    0.02190    1.000
    C84      C        0.23150    0.70880    0.04069    1.000
    C85      C        0.17440    0.61420    0.03027    1.000
    H78      H        0.15340    0.57310    0.04680    1.000
    C86      C        0.14840    0.58040    0.99574    1.000
    C87      C        0.31650    0.89130    0.11972    1.000
    C88      C        0.29850    0.85280    0.08619    1.000
    H79      H        0.31490    0.89600    0.06910    1.000
    C89      C        0.25620    0.75050    0.07726    1.000
    C90      C        0.23640    0.68870    0.10363    1.000
    H80      H        0.21050    0.61730    0.09890    1.000
    C91      C        0.25500    0.73320    0.13663    1.000
    C92      C        0.57450    0.98370    0.36026    1.000
    C93      C        0.63530    0.89190    0.37177    1.000
    C94      C        0.66430    0.86180    0.40714    1.000
    C95      C        0.62550    0.92030    0.43053    1.000
    C96      C        0.56480    0.01160    0.41846    1.000
    C97      C        0.53800    0.04450    0.38332    1.000
    C98      C        0.55560    0.02300    0.32327    1.000
    H81      H        0.54920    0.10240    0.32310    1.000
    H82      H        0.61750    0.00520    0.31620    1.000
    C99      C        0.45150    0.97230    0.26267    1.000
    H83      H        0.50440    0.99280    0.25290    1.000
    C100     C        0.30740    0.91560    0.26817    1.000
    H84      H        0.23850    0.88810    0.26280    1.000
    C101     C        0.37080    0.94220    0.30078    1.000
    H85      H        0.35480    0.93700    0.32210    1.000
    C102     C        0.67120    0.82540    0.34608    1.000
    H86      H        0.73850    0.85270    0.34520    1.000
    H87      H        0.61940    0.83040    0.32270    1.000
    H88      H        0.67890    0.75000    0.35370    1.000
    C103     C        0.73250    0.76420    0.41995    1.000
    H89      H        0.74590    0.75700    0.44550    1.000
    H90      H        0.69350    0.69950    0.40860    1.000
    C104     C        0.90380    0.84540    0.42000    1.000
    H91      H        0.89230    0.91470    0.42810    1.000
    C105     C        0.97530    0.71340    0.40282    1.000
    H92      H        0.02460    0.67040    0.39650    1.000
    C106     C        0.87860    0.68060    0.40189    1.000
    H93      H        0.84820    0.61190    0.39480    1.000
    C107     C        0.64650    0.88080    0.46780    1.000
    H94      H        0.72060    0.89060    0.48100    1.000
    H95      H        0.62850    0.80430    0.46750    1.000
    H96      H        0.60390    0.92200    0.47910    1.000
    C108     C        0.53010    0.08230    0.44351    1.000
    H97      H        0.57140    0.06350    0.46790    1.000
    H98      H        0.54510    0.15840    0.43950    1.000
    C109     C        0.35910    0.98340    0.43361    1.000
    H99      H        0.38400    0.91340    0.43100    1.000
    C110     C        0.25980    0.11410    0.43654    1.000
    H100     H        0.19980    0.15420    0.43640    1.000
    C111     C        0.35540    0.15620    0.44152    1.000
    H101     H        0.37510    0.22970    0.44560    1.000
    C112     C        0.47140    0.14260    0.37048    1.000
    H102     H        0.41720    0.14650    0.38190    1.000
    H103     H        0.43850    0.13780    0.34500    1.000
    H104     H        0.51510    0.20730    0.37620    1.000
    Ni5      Ni       0.32097    0.61208    0.69248    1.000
    Ni6      Ni       0.12882    0.90527    0.42243    1.000
    O17      O        0.22010    0.76390    0.42165    1.000
    O18      O        0.32220    0.64520    0.45772    1.000
    O19      O        0.06126    0.02921    0.44725    1.000
    O20      O        0.08047    0.09130    0.50134    1.000
    O21      O        0.26275    0.76928    0.69623    1.000
    O22      O        0.20411    0.91690    0.66385    1.000
    O23      O        0.36727    0.47789    0.66457    1.000
    O24      O        0.40630    0.44690    0.61524    1.000
    N29      N        0.05600    0.41630    0.67750    1.000
    N30      N        0.17400    0.54210    0.68046    1.000
    N31      N        0.35640    0.16660    0.78780    1.000
    N32      N        0.52520    0.16630    0.79554    1.000
    N33      N        0.03350    0.44500    0.82581    1.000
    N34      N        0.08990    0.55150    0.87128    1.000
    N35      N        0.17650    0.86160    0.47233    1.000
    N36      N        0.29276    0.66740    0.64391    1.000
    N37      N        0.46180    0.52210    0.79682    1.000
    N38      N        0.35930    0.56510    0.74413    1.000
    N39      N        0.83340    0.73410    0.91326    1.000
    N40      N        0.99120    0.68340    0.91414    1.000
    N41      N        0.41840    0.42820    0.93958    1.000
    N42      N        0.26180    0.49510    0.93171    1.000
    C113     C        0.04480    0.28420    0.72194    1.000
    C114     C        0.12590    0.21100    0.73546    1.000
    C115     C        0.16480    0.19420    0.77179    1.000
    C116     C        0.11870    0.24450    0.79427    1.000
    C117     C        0.03240    0.31050    0.78000    1.000
    C118     C        0.99720    0.33450    0.74435    1.000
    C119     C        0.26160    0.72220    0.45125    1.000
    C120     C        0.09100    0.02270    0.48066    1.000
    C121     C        0.23800    0.82450    0.66785    1.000
    C122     C        0.36680    0.50140    0.63400    1.000
    C123     C        0.00930    0.31350    0.68377    1.000
    H105     H        0.93220    0.31980    0.67530    1.000
    H106     H        0.02920    0.25540    0.67020    1.000
    C124     C        0.15500    0.44910    0.69267    1.000
    H107     H        0.20560    0.40930    0.71020    1.000
    C125     C        0.08200    0.56990    0.65556    1.000
    H108     H        0.07100    0.63350    0.64170    1.000
    C126     C        0.00880    0.49300    0.65359    1.000
    H109     H        0.93860    0.49290    0.63850    1.000
    C127     C        0.17290    0.15210    0.71093    1.000
    H110     H        0.19910    0.20460    0.69750    1.000
    H111     H        0.23070    0.10660    0.72470    1.000
    H112     H        0.11940    0.10710    0.69470    1.000
    C128     C        0.25620    0.11840    0.78703    1.000
    H113     H        0.24480    0.05170    0.77280    1.000
    H114     H        0.25940    0.09840    0.81120    1.000
    C129     C        0.44760    0.11690    0.80244    1.000
    H115     H        0.45560    0.05340    0.81620    1.000
    C130     C        0.48100    0.25150    0.77470    1.000
    H116     H        0.51730    0.30150    0.76490    1.000
    C131     C        0.37740    0.25360    0.77010    1.000
    H117     H        0.32860    0.30540    0.75710    1.000
    C132     C        0.16250    0.22810    0.83376    1.000
    H118     H        0.23880    0.23360    0.84120    1.000
    H119     H        0.13440    0.28330    0.84570    1.000
    H120     H        0.14250    0.15660    0.83980    1.000
    C133     C        0.97500    0.35640    0.80386    1.000
    H121     H        0.96370    0.29850    0.81920    1.000
    H122     H        0.90570    0.38320    0.78930    1.000
    C134     C        0.02760    0.47130    0.85724    1.000
    H123     H        0.98350    0.43620    0.86820    1.000
    C135     C        0.13800    0.57900    0.84696    1.000
    H124     H        0.18790    0.63490    0.84960    1.000
    C136     C        0.10300    0.51400    0.81883    1.000
    H125     H        0.12280    0.51580    0.79810    1.000
    C137     C        0.91130    0.41520    0.72971    1.000
    H126     H        0.84350    0.38060    0.72620    1.000
    H127     H        0.91970    0.47530    0.74620    1.000
    H128     H        0.91470    0.44220    0.70720    1.000
    C138     C        0.23400    0.77350    0.48163    1.000
    C139     C        0.26320    0.73560    0.51561    1.000
    H129     H        0.30440    0.67230    0.52190    1.000
    C140     C        0.23150    0.79120    0.54069    1.000
    C141     C        0.17440    0.88580    0.53027    1.000
    H130     H        0.15340    0.92690    0.54680    1.000
    C142     C        0.14840    0.91960    0.49574    1.000
    C143     C        0.31650    0.60870    0.61972    1.000
    C144     C        0.29850    0.64720    0.58619    1.000
    H131     H        0.31490    0.60400    0.56910    1.000
    C145     C        0.25620    0.74950    0.57726    1.000
    C146     C        0.23640    0.81130    0.60363    1.000
    H132     H        0.21050    0.88270    0.59890    1.000
    C147     C        0.25500    0.76680    0.63663    1.000
    C148     C        0.57450    0.51630    0.86026    1.000
    C149     C        0.63530    0.60810    0.87177    1.000
    C150     C        0.66430    0.63820    0.90714    1.000
    C151     C        0.62550    0.57970    0.93053    1.000
    C152     C        0.56480    0.48840    0.91846    1.000
    C153     C        0.53800    0.45550    0.88332    1.000
    C154     C        0.55560    0.47700    0.82327    1.000
    H133     H        0.54920    0.39760    0.82310    1.000
    H134     H        0.61750    0.49480    0.81620    1.000
    C155     C        0.45150    0.52770    0.76267    1.000
    H135     H        0.50440    0.50720    0.75290    1.000
    C156     C        0.30740    0.58440    0.76817    1.000
    H136     H        0.23850    0.61190    0.76280    1.000
    C157     C        0.37080    0.55780    0.80078    1.000
    H137     H        0.35480    0.56300    0.82210    1.000
    C158     C        0.67120    0.67460    0.84608    1.000
    H138     H        0.73850    0.64730    0.84520    1.000
    H139     H        0.61940    0.66960    0.82270    1.000
    H140     H        0.67890    0.75000    0.85370    1.000
    C159     C        0.73250    0.73580    0.91995    1.000
    H141     H        0.74590    0.74300    0.94550    1.000
    H142     H        0.69350    0.80050    0.90860    1.000
    C160     C        0.90380    0.65460    0.92000    1.000
    H143     H        0.89230    0.58530    0.92810    1.000
    C161     C        0.97530    0.78660    0.90282    1.000
    H144     H        0.02460    0.82960    0.89650    1.000
    C162     C        0.87860    0.81940    0.90189    1.000
    H145     H        0.84820    0.88810    0.89480    1.000
    C163     C        0.64650    0.61920    0.96780    1.000
    H146     H        0.72060    0.60940    0.98100    1.000
    H147     H        0.62850    0.69570    0.96750    1.000
    H148     H        0.60390    0.57800    0.97910    1.000
    C164     C        0.53010    0.41770    0.94351    1.000
    H149     H        0.57140    0.43650    0.96790    1.000
    H150     H        0.54510    0.34160    0.93950    1.000
    C165     C        0.35910    0.51660    0.93361    1.000
    H151     H        0.38400    0.58660    0.93100    1.000
    C166     C        0.25980    0.38590    0.93654    1.000
    H152     H        0.19980    0.34580    0.93640    1.000
    C167     C        0.35540    0.34380    0.94152    1.000
    H153     H        0.37510    0.27030    0.94560    1.000
    C168     C        0.47140    0.35740    0.87048    1.000
    H154     H        0.41720    0.35350    0.88190    1.000
    H155     H        0.43850    0.36220    0.84500    1.000
    H156     H        0.51510    0.29270    0.87620    1.000
    Ni7      Ni       0.67903    0.11208    0.80752    1.000
    Ni8      Ni       0.87118    0.40527    0.07757    1.000
    O25      O        0.77990    0.26390    0.07835    1.000
    O26      O        0.67780    0.14520    0.04228    1.000
    O27      O        0.93874    0.52921    0.05275    1.000
    O28      O        0.91953    0.59130    0.99866    1.000
    O29      O        0.73725    0.26928    0.80377    1.000
    O30      O        0.79589    0.41690    0.83615    1.000
    O31      O        0.63273    0.97789    0.83543    1.000
    O32      O        0.59370    0.94690    0.88476    1.000
    N43      N        0.94400    0.91630    0.82250    1.000
    N44      N        0.82600    0.04210    0.81954    1.000
    N45      N        0.64360    0.66660    0.71220    1.000
    N46      N        0.47480    0.66630    0.70446    1.000
    N47      N        0.96650    0.94500    0.67419    1.000
    N48      N        0.91010    0.05150    0.62872    1.000
    N49      N        0.82350    0.36160    0.02767    1.000
    N50      N        0.70724    0.16740    0.85609    1.000
    N51      N        0.53820    0.02210    0.70318    1.000
    N52      N        0.64070    0.06510    0.75587    1.000
    N53      N        0.16660    0.23410    0.58674    1.000
    N54      N        0.00880    0.18340    0.58586    1.000
    N55      N        0.58160    0.92820    0.56042    1.000
    N56      N        0.73820    0.99510    0.56829    1.000
    C169     C        0.95520    0.78420    0.77806    1.000
    C170     C        0.87410    0.71100    0.76454    1.000
    C171     C        0.83520    0.69420    0.72821    1.000
    C172     C        0.88130    0.74450    0.70573    1.000
    C173     C        0.96760    0.81050    0.72000    1.000
    C174     C        0.00280    0.83450    0.75565    1.000
    C175     C        0.73840    0.22220    0.04875    1.000
    C176     C        0.90900    0.52270    0.01934    1.000
    C177     C        0.76200    0.32450    0.83215    1.000
    C178     C        0.63320    0.00140    0.86600    1.000
    C179     C        0.99070    0.81350    0.81623    1.000
    H157     H        0.06780    0.81980    0.82470    1.000
    H158     H        0.97080    0.75540    0.82980    1.000
    C180     C        0.84500    0.94910    0.80733    1.000
    H159     H        0.79440    0.90930    0.78980    1.000
    C181     C        0.91800    0.06990    0.84444    1.000
    H160     H        0.92900    0.13350    0.85830    1.000
    C182     C        0.99120    0.99300    0.84641    1.000
    H161     H        0.06140    0.99290    0.86150    1.000
    C183     C        0.82710    0.65210    0.78907    1.000
    H162     H        0.80090    0.70460    0.80250    1.000
    H163     H        0.76930    0.60660    0.77530    1.000
    H164     H        0.88060    0.60710    0.80530    1.000
    C184     C        0.74380    0.61840    0.71297    1.000
    H165     H        0.75520    0.55170    0.72720    1.000
    H166     H        0.74060    0.59840    0.68880    1.000
    C185     C        0.55240    0.61690    0.69756    1.000
    H167     H        0.54440    0.55340    0.68380    1.000
    C186     C        0.51900    0.75150    0.72530    1.000
    H168     H        0.48270    0.80150    0.73510    1.000
    C187     C        0.62260    0.75360    0.72990    1.000
    H169     H        0.67140    0.80540    0.74290    1.000
    C188     C        0.83750    0.72810    0.66624    1.000
    H170     H        0.76120    0.73360    0.65880    1.000
    H171     H        0.86560    0.78330    0.65430    1.000
    H172     H        0.85750    0.65660    0.66020    1.000
    C189     C        0.02500    0.85640    0.69614    1.000
    H173     H        0.03630    0.79850    0.68080    1.000
    H174     H        0.09430    0.88320    0.71070    1.000
    C190     C        0.97240    0.97130    0.64276    1.000
    H175     H        0.01650    0.93620    0.63180    1.000
    C191     C        0.86200    0.07900    0.65304    1.000
    H176     H        0.81210    0.13490    0.65040    1.000
    C192     C        0.89700    0.01400    0.68117    1.000
    H177     H        0.87720    0.01580    0.70190    1.000
    C193     C        0.08870    0.91520    0.77029    1.000
    H178     H        0.15650    0.88060    0.77380    1.000
    H179     H        0.08030    0.97530    0.75380    1.000
    H180     H        0.08530    0.94220    0.79280    1.000
    C194     C        0.76600    0.27350    0.01837    1.000
    C195     C        0.73680    0.23560    0.98439    1.000
    H181     H        0.69560    0.17230    0.97810    1.000
    C196     C        0.76850    0.29120    0.95931    1.000
    C197     C        0.82560    0.38580    0.96973    1.000
    H182     H        0.84660    0.42690    0.95320    1.000
    C198     C        0.85160    0.41960    0.00426    1.000
    C199     C        0.68350    0.10870    0.88028    1.000
    C200     C        0.70150    0.14720    0.91381    1.000
    H183     H        0.68510    0.10400    0.93090    1.000
    C201     C        0.74380    0.24950    0.92274    1.000
    C202     C        0.76360    0.31130    0.89637    1.000
    H184     H        0.78950    0.38270    0.90110    1.000
    C203     C        0.74500    0.26680    0.86337    1.000
    C204     C        0.42550    0.01630    0.63974    1.000
    C205     C        0.36470    0.10810    0.62823    1.000
    C206     C        0.33570    0.13820    0.59286    1.000
    C207     C        0.37450    0.07970    0.56947    1.000
    C208     C        0.43520    0.98840    0.58154    1.000
    C209     C        0.46200    0.95550    0.61668    1.000
    C210     C        0.44440    0.97700    0.67673    1.000
    H185     H        0.45080    0.89760    0.67690    1.000
    H186     H        0.38250    0.99480    0.68380    1.000
    C211     C        0.54850    0.02770    0.73733    1.000
    H187     H        0.49560    0.00720    0.74710    1.000
    C212     C        0.69260    0.08440    0.73183    1.000
    H188     H        0.76150    0.11190    0.73720    1.000
    C213     C        0.62920    0.05780    0.69922    1.000
    H189     H        0.64520    0.06300    0.67790    1.000
    C214     C        0.32880    0.17460    0.65392    1.000
    H190     H        0.26150    0.14730    0.65480    1.000
    H191     H        0.38060    0.16960    0.67730    1.000
    H192     H        0.32110    0.25000    0.64630    1.000
    C215     C        0.26750    0.23580    0.58005    1.000
    H193     H        0.25410    0.24300    0.55450    1.000
    H194     H        0.30650    0.30050    0.59140    1.000
    C216     C        0.09620    0.15460    0.58000    1.000
    H195     H        0.10770    0.08530    0.57190    1.000
    C217     C        0.02470    0.28660    0.59718    1.000
    H196     H        0.97540    0.32960    0.60350    1.000
    C218     C        0.12140    0.31940    0.59811    1.000
    H197     H        0.15180    0.38810    0.60520    1.000
    C219     C        0.35350    0.11920    0.53220    1.000
    H198     H        0.27940    0.10940    0.51900    1.000
    H199     H        0.37150    0.19570    0.53250    1.000
    H200     H        0.39610    0.07800    0.52090    1.000
    C220     C        0.46990    0.91770    0.55649    1.000
    H201     H        0.42860    0.93650    0.53210    1.000
    H202     H        0.45490    0.84160    0.56050    1.000
    C221     C        0.64090    0.01660    0.56639    1.000
    H203     H        0.61600    0.08660    0.56900    1.000
    C222     C        0.74020    0.88590    0.56346    1.000
    H204     H        0.80020    0.84580    0.56360    1.000
    C223     C        0.64460    0.84380    0.55848    1.000
    H205     H        0.62490    0.77030    0.55440    1.000
    C224     C        0.52860    0.85740    0.62952    1.000
    H206     H        0.58280    0.85350    0.61810    1.000
    H207     H        0.56150    0.86220    0.65500    1.000
    H208     H        0.48490    0.79270    0.62380    1.000
