data_functionalizedCrystal
_audit_creation_method	'EQeq! by Chris Wilmer'
_symmetry_space_group_name_H-M	'P1'
_symmetry_Int_Tables_number	1
_symmetry_cell_setting	triclinic
loop_
_symmetry_equiv_pos_as_xyz
  x,y,z
_cell_length_a	10.5454
_cell_length_b	17.5986
_cell_length_c	19.9964
_cell_angle_alpha	90
_cell_angle_beta	90
_cell_angle_gamma	91.283
loop_
_atom_site_label
_atom_site_type_symbol
_atom_site_fract_x
_atom_site_fract_y
_atom_site_fract_z
_atom_site_charge
Mof_Tb	Tb	0.32093	0.99996	0.2653	2.04
Mof_Tb	Tb	0.25344	0.4922	0.01836	2.064
Mof_Tb	Tb	0.17907	4e-05	0.7653	2.034
Mof_Tb	Tb	0.24656	0.5078	0.51836	2.067
Mof_Tb	Tb	0.67907	4e-05	0.7347	2.04
Mof_Tb	Tb	0.74656	0.5078	0.98164	2.064
Mof_Tb	Tb	0.82093	0.99996	0.2347	2.035
Mof_Tb	Tb	0.75344	0.4922	0.48164	2.068
Mof_H 	H 	0.3602	0.2014	0.1747	0.039
Mof_H 	H 	0.3442	0.301	0.1033	0.009
Mof_H 	H 	0.7137	0.2834	0.053	0.035
Mof_H 	H 	0.7264	0.1777	0.121	0.021
Mof_H 	H 	0.2118	0.6703	0.1009	0.008
Mof_H 	H 	0.2432	0.7868	0.1567	0.036
Mof_H 	H 	0.8664	0.8144	0.1706	-0.005
Mof_H 	H 	0.8324	0.704	0.1088	0.038
Mof_H 	H 	0.1398	0.7986	0.6747	0.039
Mof_H 	H 	0.1558	0.699	0.6033	0.009
Mof_H 	H 	0.7863	0.7166	0.553	0.034
Mof_H 	H 	0.7736	0.8223	0.621	0.02
Mof_H 	H 	0.2882	0.3297	0.6009	0.009
Mof_H 	H 	0.2568	0.2132	0.6567	0.036
Mof_H 	H 	0.6336	0.1856	0.6706	-0.006
Mof_H 	H 	0.6676	0.296	0.6088	0.039
Mof_H 	H 	0.6398	0.7986	0.8253	0.039
Mof_H 	H 	0.6558	0.699	0.8967	0.009
Mof_H 	H 	0.2863	0.7166	0.947	0.035
Mof_H 	H 	0.2736	0.8223	0.879	0.021
Mof_H 	H 	0.7882	0.3297	0.8991	0.008
Mof_H 	H 	0.7568	0.2132	0.8433	0.036
Mof_H 	H 	0.1336	0.1856	0.8294	-0.005
Mof_H 	H 	0.1676	0.296	0.8912	0.038
Mof_H 	H 	0.8602	0.2014	0.3253	0.039
Mof_H 	H 	0.8442	0.301	0.3967	0.009
Mof_H 	H 	0.2137	0.2834	0.447	0.034
Mof_H 	H 	0.2264	0.1777	0.379	0.02
Mof_H 	H 	0.7118	0.6703	0.3991	0.009
Mof_H 	H 	0.7432	0.7868	0.3433	0.036
Mof_H 	H 	0.3664	0.8144	0.3294	-0.006
Mof_H 	H 	0.3324	0.704	0.3912	0.039
Mof_C 	C 	0.5587	0.1146	0.2016	0.485
Mof_C 	C 	0.5452	0.1801	0.1554	-0.13
Mof_C 	C 	0.4321	0.218	0.1495	0.001
Mof_C 	C 	0.4235	0.2771	0.1088	0.013
Mof_C 	C 	0.5304	0.3053	0.0736	-0.143
Mof_C 	C 	0.6418	0.2667	0.078	0.014
Mof_C 	C 	0.6495	0.2045	0.1184	0.003
Mof_C 	C 	0.5191	0.3768	0.0325	0.515
Mof_C 	C 	0.9971	0.6058	0.0544	0.549
Mof_C 	C 	0.019	0.6779	0.097	-0.145
Mof_C 	C 	0.142	0.7003	0.113	0.005
Mof_C 	C 	0.159	0.7688	0.1476	0.001
Mof_C 	C 	0.06	0.8102	0.1685	-0.15
Mof_C 	C 	0.9362	0.786	0.1551	0.013
Mof_C 	C 	0.9166	0.7206	0.119	-0.009
Mof_C 	C 	0.084	0.887	0.2037	0.522
Mof_C 	C 	0.9413	0.8854	0.7016	0.483
Mof_C 	C 	0.9548	0.8199	0.6554	-0.133
Mof_C 	C 	0.0679	0.782	0.6495	0.002
Mof_C 	C 	0.0765	0.7229	0.6088	0.013
Mof_C 	C 	0.9696	0.6947	0.5736	-0.145
Mof_C 	C 	0.8582	0.7333	0.578	0.013
Mof_C 	C 	0.8505	0.7955	0.6184	0.003
Mof_C 	C 	0.9809	0.6232	0.5325	0.514
Mof_C 	C 	0.5029	0.3942	0.5544	0.545
Mof_C 	C 	0.481	0.3221	0.597	-0.14
Mof_C 	C 	0.358	0.2997	0.613	0.003
Mof_C 	C 	0.341	0.2312	0.6476	0.003
Mof_C 	C 	0.44	0.1898	0.6685	-0.15
Mof_C 	C 	0.5638	0.214	0.6551	0.015
Mof_C 	C 	0.5834	0.2794	0.619	-0.012
Mof_C 	C 	0.416	0.113	0.7037	0.523
Mof_C 	C 	0.4413	0.8854	0.7984	0.485
Mof_C 	C 	0.4548	0.8199	0.8446	-0.13
Mof_C 	C 	0.5679	0.782	0.8505	0.001
Mof_C 	C 	0.5765	0.7229	0.8912	0.013
Mof_C 	C 	0.4696	0.6947	0.9264	-0.143
Mof_C 	C 	0.3582	0.7333	0.922	0.014
Mof_C 	C 	0.3505	0.7955	0.8816	0.003
Mof_C 	C 	0.4809	0.6232	0.9675	0.515
Mof_C 	C 	0.0029	0.3942	0.9456	0.549
Mof_C 	C 	0.981	0.3221	0.903	-0.145
Mof_C 	C 	0.858	0.2997	0.887	0.005
Mof_C 	C 	0.841	0.2312	0.8524	0.001
Mof_C 	C 	0.94	0.1898	0.8315	-0.15
Mof_C 	C 	0.0638	0.214	0.8449	0.013
Mof_C 	C 	0.0834	0.2794	0.881	-0.009
Mof_C 	C 	0.916	0.113	0.7963	0.522
Mof_C 	C 	0.0587	0.1146	0.2984	0.483
Mof_C 	C 	0.0452	0.1801	0.3446	-0.133
Mof_C 	C 	0.9321	0.218	0.3505	0.002
Mof_C 	C 	0.9235	0.2771	0.3912	0.013
Mof_C 	C 	0.0304	0.3053	0.4264	-0.145
Mof_C 	C 	0.1418	0.2667	0.422	0.013
Mof_C 	C 	0.1495	0.2045	0.3816	0.003
Mof_C 	C 	0.0191	0.3768	0.4675	0.514
Mof_C 	C 	0.4971	0.6058	0.4456	0.545
Mof_C 	C 	0.519	0.6779	0.403	-0.14
Mof_C 	C 	0.642	0.7003	0.387	0.003
Mof_C 	C 	0.659	0.7688	0.3524	0.003
Mof_C 	C 	0.56	0.8102	0.3315	-0.15
Mof_C 	C 	0.4362	0.786	0.3449	0.015
Mof_C 	C 	0.4166	0.7206	0.381	-0.012
Mof_C 	C 	0.584	0.887	0.2963	0.523
Mof_N 	N 	0.31	0.0231	0.1218	0.076
Mof_N 	N 	0.261	0.5228	0.8776	0.073
Mof_N 	N 	0.19	0.9769	0.6218	0.075
Mof_N 	N 	0.239	0.4772	0.3776	0.073
Mof_N 	N 	0.69	0.9769	0.8782	0.076
Mof_N 	N 	0.739	0.4772	0.1224	0.073
Mof_N 	N 	0.81	0.0231	0.3782	0.075
Mof_N 	N 	0.761	0.5228	0.6224	0.073
Mof_O 	O 	0.394	0.9848	0.1458	-0.281
Mof_O 	O 	0.2411	0.0593	0.1626	-0.297
Mof_O 	O 	0.2953	0.0298	0.0602	-0.136
Mof_O 	O 	0.4681	0.098	0.2425	-0.519
Mof_O 	O 	0.6625	0.078	0.2028	-0.564
Mof_O 	O 	0.4145	0.4094	0.029	-0.598
Mof_O 	O 	0.6181	0.4005	0.0015	-0.541
Mof_O 	O 	0.3355	0.4781	0.9001	-0.292
Mof_O 	O 	0.1789	0.5523	0.9128	-0.288
Mof_O 	O 	0.268	0.5427	0.8167	-0.14
Mof_O 	O 	0.8856	0.5956	0.0329	-0.548
Mof_O 	O 	0.0862	0.5629	0.0474	-0.617
Mof_O 	O 	0.988	0.9204	0.225	-0.598
Mof_O 	O 	0.1948	0.9085	0.2115	-0.555
Mof_O 	O 	0.106	0.0152	0.6458	-0.279
Mof_O 	O 	0.2589	0.9407	0.6626	-0.296
Mof_O 	O 	0.2047	0.9702	0.5602	-0.138
Mof_O 	O 	0.0319	0.902	0.7425	-0.516
Mof_O 	O 	0.8375	0.922	0.7028	-0.566
Mof_O 	O 	0.0855	0.5906	0.529	-0.598
Mof_O 	O 	0.8819	0.5995	0.5015	-0.542
Mof_O 	O 	0.1645	0.5219	0.4001	-0.292
Mof_O 	O 	0.3211	0.4477	0.4128	-0.289
Mof_O 	O 	0.232	0.4573	0.3167	-0.14
Mof_O 	O 	0.6144	0.4044	0.5329	-0.548
Mof_O 	O 	0.4138	0.4371	0.5474	-0.615
Mof_O 	O 	0.512	0.0796	0.725	-0.598
Mof_O 	O 	0.3052	0.0915	0.7115	-0.554
Mof_O 	O 	0.606	0.0152	0.8542	-0.281
Mof_O 	O 	0.7589	0.9407	0.8374	-0.297
Mof_O 	O 	0.7047	0.9702	0.9398	-0.136
Mof_O 	O 	0.5319	0.902	0.7575	-0.519
Mof_O 	O 	0.3375	0.922	0.7972	-0.564
Mof_O 	O 	0.5855	0.5906	0.971	-0.598
Mof_O 	O 	0.3819	0.5995	0.9985	-0.541
Mof_O 	O 	0.6645	0.5219	0.0999	-0.292
Mof_O 	O 	0.8211	0.4477	0.0872	-0.288
Mof_O 	O 	0.732	0.4573	0.1833	-0.14
Mof_O 	O 	0.1144	0.4044	0.9671	-0.548
Mof_O 	O 	0.9138	0.4371	0.9526	-0.617
Mof_O 	O 	0.012	0.0796	0.775	-0.598
Mof_O 	O 	0.8052	0.0915	0.7885	-0.555
Mof_O 	O 	0.894	0.9848	0.3542	-0.279
Mof_O 	O 	0.7411	0.0593	0.3374	-0.296
Mof_O 	O 	0.7953	0.0298	0.4398	-0.138
Mof_O 	O 	0.9681	0.098	0.2575	-0.516
Mof_O 	O 	0.1625	0.078	0.2972	-0.566
Mof_O 	O 	0.9145	0.4094	0.471	-0.598
Mof_O 	O 	0.1181	0.4005	0.4985	-0.542
Mof_O 	O 	0.8355	0.4781	0.5999	-0.292
Mof_O 	O 	0.6789	0.5523	0.5872	-0.289
Mof_O 	O 	0.768	0.5427	0.6833	-0.14
Mof_O 	O 	0.3856	0.5956	0.4671	-0.548
Mof_O 	O 	0.5862	0.5629	0.4526	-0.615
Mof_O 	O 	0.488	0.9204	0.275	-0.598
Mof_O 	O 	0.6948	0.9085	0.2885	-0.554
_end
