data_functionalizedCrystal
_audit_creation_method	'EQeq! by Chris Wilmer'
_symmetry_space_group_name_H-M	'P1'
_symmetry_Int_Tables_number	1
_symmetry_cell_setting	triclinic
loop_
_symmetry_equiv_pos_as_xyz
  x,y,z
_cell_length_a	13.652
_cell_length_b	24.698
_cell_length_c	30.143
_cell_angle_alpha	90
_cell_angle_beta	90
_cell_angle_gamma	94.935
loop_
_atom_site_label
_atom_site_type_symbol
_atom_site_fract_x
_atom_site_fract_y
_atom_site_fract_z
_atom_site_charge
Mof_Gd	Gd	0.35763	0.22222	0.74635	1.663
Mof_Gd	Gd	0.64	0.27732	0.77367	1.651
Mof_Gd	Gd	0.14237	0.27778	0.24635	1.663
Mof_Gd	Gd	0.86	0.22268	0.27367	1.65
Mof_Gd	Gd	0.64237	0.77778	0.25365	1.663
Mof_Gd	Gd	0.36	0.72268	0.22633	1.651
Mof_Gd	Gd	0.85763	0.72222	0.75365	1.663
Mof_Gd	Gd	0.14	0.77732	0.72633	1.65
Mof_H 	H 	0.6795	0.1414	0.7935	0.079
Mof_H 	H 	0.5295	0.0657	0.6938	0.099
Mof_H 	H 	0.0023	0.9533	0.7013	0.1
Mof_H 	H 	0.8113	0.8586	0.7738	0.08
Mof_H 	H 	0.5579	0.2833	0.9172	0.094
Mof_H 	H 	0.3022	0.1971	0.894	0.087
Mof_H 	H 	0.26	0.3316	0.1029	0.121
Mof_H 	H 	0.3509	0.1885	0.1348	0.125
Mof_H 	H 	0.7069	0.2944	0.6323	0.079
Mof_H 	H 	0.4336	0.2393	0.5989	0.089
Mof_H 	H 	0.6912	0.3213	0.3932	0.127
Mof_H 	H 	0.7259	0.1647	0.4169	0.123
Mof_H 	H 	0.8205	0.3586	0.2935	0.079
Mof_H 	H 	0.9705	0.4343	0.1938	0.099
Mof_H 	H 	0.4977	0.5467	0.2013	0.1
Mof_H 	H 	0.6887	0.6414	0.2738	0.08
Mof_H 	H 	0.9421	0.2167	0.4172	0.094
Mof_H 	H 	0.1978	0.3029	0.394	0.087
Mof_H 	H 	0.24	0.1684	0.6029	0.121
Mof_H 	H 	0.1491	0.3115	0.6348	0.125
Mof_H 	H 	0.7931	0.2056	0.1323	0.079
Mof_H 	H 	0.0664	0.2607	0.0989	0.089
Mof_H 	H 	0.8088	0.1787	0.8932	0.127
Mof_H 	H 	0.7741	0.3353	0.9169	0.123
Mof_H 	H 	0.3205	0.8586	0.2065	0.079
Mof_H 	H 	0.4705	0.9343	0.3062	0.099
Mof_H 	H 	0.9977	0.0467	0.2987	0.1
Mof_H 	H 	0.1887	0.1414	0.2262	0.08
Mof_H 	H 	0.4421	0.7167	0.0828	0.094
Mof_H 	H 	0.6978	0.8029	0.106	0.087
Mof_H 	H 	0.74	0.6684	0.8971	0.121
Mof_H 	H 	0.6491	0.8115	0.8652	0.125
Mof_H 	H 	0.2931	0.7056	0.3677	0.079
Mof_H 	H 	0.5664	0.7607	0.4011	0.089
Mof_H 	H 	0.3088	0.6787	0.6068	0.127
Mof_H 	H 	0.2741	0.8353	0.5831	0.123
Mof_H 	H 	0.1795	0.6414	0.7065	0.079
Mof_H 	H 	0.0295	0.5657	0.8062	0.099
Mof_H 	H 	0.5023	0.4533	0.7987	0.1
Mof_H 	H 	0.3113	0.3586	0.7262	0.08
Mof_H 	H 	0.0579	0.7833	0.5828	0.094
Mof_H 	H 	0.8022	0.6971	0.606	0.087
Mof_H 	H 	0.76	0.8316	0.3971	0.121
Mof_H 	H 	0.8509	0.6885	0.3652	0.125
Mof_H 	H 	0.2069	0.7944	0.8677	0.079
Mof_H 	H 	0.9336	0.7393	0.9011	0.089
Mof_H 	H 	0.1912	0.8213	0.1068	0.127
Mof_H 	H 	0.2259	0.6647	0.0831	0.123
Mof_C 	C 	0.5157	0.1503	0.745	0.388
Mof_C 	C 	0.5908	0.1094	0.7443	-0.052
Mof_C 	C 	0.6695	0.1123	0.7739	-0.062
Mof_C 	C 	0.7319	0.0717	0.7738	0.093
Mof_C 	C 	0.7235	0.0278	0.7443	0.003
Mof_C 	C 	0.6468	0.0284	0.7142	0.093
Mof_C 	C 	0.5808	0.0676	0.7142	-0.06
Mof_C 	C 	0.7936	0.9839	0.7437	0.002
Mof_C 	C 	0.8828	0.989	0.7212	0.095
Mof_C 	C 	0.9439	0.9481	0.7172	-0.063
Mof_C 	C 	0.9158	0.8978	0.7379	-0.046
Mof_C 	C 	0.8305	0.8917	0.7605	-0.056
Mof_C 	C 	0.7707	0.9342	0.7642	0.094
Mof_C 	C 	0.9822	0.8523	0.733	0.399
Mof_C 	C 	0.4549	0.2416	0.8484	0.417
Mof_C 	C 	0.4333	0.2401	0.8978	-0.043
Mof_C 	C 	0.4989	0.2661	0.9275	-0.056
Mof_C 	C 	0.4777	0.2668	0.9717	0.1
Mof_C 	C 	0.3905	0.2403	0.9895	0.012
Mof_C 	C 	0.3292	0.2139	0.9584	0.096
Mof_C 	C 	0.3476	0.2143	0.9135	-0.054
Mof_C 	C 	0.3612	0.2476	0.0372	-0.014
Mof_C 	C 	0.3158	0.2923	0.0514	0.125
Mof_C 	C 	0.287	0.2997	0.0948	-0.111
Mof_C 	C 	0.2981	0.2606	0.1253	0.04
Mof_C 	C 	0.3422	0.2152	0.1137	-0.112
Mof_C 	C 	0.3741	0.2089	0.0705	0.129
Mof_C 	C 	0.2597	0.2684	0.1717	0.283
Mof_C 	C 	0.5356	0.2645	0.671	0.432
Mof_C 	C 	0.5663	0.2662	0.6224	-0.055
Mof_C 	C 	0.6615	0.2818	0.6109	-0.047
Mof_C 	C 	0.6892	0.2786	0.567	0.091
Mof_C 	C 	0.6241	0.2612	0.5336	0.013
Mof_C 	C 	0.5288	0.2469	0.5476	0.094
Mof_C 	C 	0.4986	0.2492	0.5911	-0.047
Mof_C 	C 	0.6543	0.2554	0.4861	-0.02
Mof_C 	C 	0.6538	0.2964	0.4553	0.128
Mof_C 	C 	0.6868	0.2915	0.4122	-0.113
Mof_C 	C 	0.7133	0.2416	0.3977	0.038
Mof_C 	C 	0.7094	0.1985	0.4265	-0.111
Mof_C 	C 	0.6808	0.2056	0.47	0.13
Mof_C 	C 	0.7525	0.2354	0.3514	0.27
Mof_C 	C 	0.9843	0.3497	0.245	0.387
Mof_C 	C 	0.9092	0.3906	0.2443	-0.052
Mof_C 	C 	0.8305	0.3877	0.2739	-0.062
Mof_C 	C 	0.7681	0.4283	0.2738	0.094
Mof_C 	C 	0.7765	0.4722	0.2443	0.003
Mof_C 	C 	0.8532	0.4716	0.2142	0.093
Mof_C 	C 	0.9192	0.4324	0.2142	-0.061
Mof_C 	C 	0.7064	0.5161	0.2437	0.002
Mof_C 	C 	0.6172	0.511	0.2212	0.095
Mof_C 	C 	0.5561	0.5519	0.2172	-0.063
Mof_C 	C 	0.5842	0.6022	0.2379	-0.046
Mof_C 	C 	0.6695	0.6083	0.2605	-0.056
Mof_C 	C 	0.7293	0.5658	0.2642	0.094
Mof_C 	C 	0.5178	0.6477	0.233	0.399
Mof_C 	C 	0.0451	0.2584	0.3484	0.417
Mof_C 	C 	0.0667	0.2599	0.3978	-0.043
Mof_C 	C 	0.0011	0.2339	0.4275	-0.056
Mof_C 	C 	0.0223	0.2332	0.4717	0.1
Mof_C 	C 	0.1095	0.2597	0.4895	0.012
Mof_C 	C 	0.1708	0.2861	0.4584	0.096
Mof_C 	C 	0.1524	0.2857	0.4135	-0.054
Mof_C 	C 	0.1388	0.2524	0.5372	-0.015
Mof_C 	C 	0.1842	0.2077	0.5514	0.125
Mof_C 	C 	0.213	0.2003	0.5948	-0.111
Mof_C 	C 	0.2019	0.2394	0.6253	0.04
Mof_C 	C 	0.1578	0.2848	0.6137	-0.112
Mof_C 	C 	0.1259	0.2911	0.5705	0.129
Mof_C 	C 	0.2403	0.2316	0.6717	0.283
Mof_C 	C 	0.9644	0.2355	0.171	0.431
Mof_C 	C 	0.9337	0.2338	0.1224	-0.056
Mof_C 	C 	0.8385	0.2182	0.1109	-0.046
Mof_C 	C 	0.8108	0.2214	0.067	0.091
Mof_C 	C 	0.8759	0.2388	0.0336	0.013
Mof_C 	C 	0.9712	0.2531	0.0476	0.093
Mof_C 	C 	0.0014	0.2508	0.0911	-0.047
Mof_C 	C 	0.8457	0.2446	0.9861	-0.02
Mof_C 	C 	0.8462	0.2036	0.9553	0.128
Mof_C 	C 	0.8132	0.2085	0.9122	-0.113
Mof_C 	C 	0.7867	0.2584	0.8977	0.038
Mof_C 	C 	0.7906	0.3015	0.9265	-0.111
Mof_C 	C 	0.8192	0.2944	0.97	0.13
Mof_C 	C 	0.7475	0.2646	0.8514	0.27
Mof_C 	C 	0.4843	0.8497	0.255	0.388
Mof_C 	C 	0.4092	0.8906	0.2557	-0.052
Mof_C 	C 	0.3305	0.8877	0.2261	-0.062
Mof_C 	C 	0.2681	0.9283	0.2262	0.093
Mof_C 	C 	0.2765	0.9722	0.2557	0.003
Mof_C 	C 	0.3532	0.9716	0.2858	0.093
Mof_C 	C 	0.4192	0.9324	0.2858	-0.06
Mof_C 	C 	0.2064	0.0161	0.2563	0.002
Mof_C 	C 	0.1172	0.011	0.2788	0.095
Mof_C 	C 	0.0561	0.0519	0.2828	-0.063
Mof_C 	C 	0.0842	0.1022	0.2621	-0.046
Mof_C 	C 	0.1695	0.1083	0.2395	-0.056
Mof_C 	C 	0.2293	0.0658	0.2358	0.094
Mof_C 	C 	0.0178	0.1477	0.267	0.399
Mof_C 	C 	0.5451	0.7584	0.1516	0.417
Mof_C 	C 	0.5667	0.7599	0.1022	-0.043
Mof_C 	C 	0.5011	0.7339	0.0725	-0.056
Mof_C 	C 	0.5223	0.7332	0.0283	0.1
Mof_C 	C 	0.6095	0.7597	0.0105	0.012
Mof_C 	C 	0.6708	0.7861	0.0416	0.096
Mof_C 	C 	0.6524	0.7857	0.0865	-0.054
Mof_C 	C 	0.6388	0.7524	0.9628	-0.014
Mof_C 	C 	0.6842	0.7077	0.9486	0.125
Mof_C 	C 	0.713	0.7003	0.9052	-0.111
Mof_C 	C 	0.7019	0.7394	0.8747	0.04
Mof_C 	C 	0.6578	0.7848	0.8863	-0.112
Mof_C 	C 	0.6259	0.7911	0.9295	0.129
Mof_C 	C 	0.7403	0.7316	0.8283	0.283
Mof_C 	C 	0.4644	0.7355	0.329	0.432
Mof_C 	C 	0.4337	0.7338	0.3776	-0.055
Mof_C 	C 	0.3385	0.7182	0.3891	-0.047
Mof_C 	C 	0.3108	0.7214	0.433	0.091
Mof_C 	C 	0.3759	0.7388	0.4664	0.013
Mof_C 	C 	0.4712	0.7531	0.4524	0.094
Mof_C 	C 	0.5014	0.7508	0.4089	-0.047
Mof_C 	C 	0.3457	0.7446	0.5139	-0.02
Mof_C 	C 	0.3462	0.7036	0.5447	0.128
Mof_C 	C 	0.3132	0.7085	0.5878	-0.113
Mof_C 	C 	0.2867	0.7584	0.6023	0.038
Mof_C 	C 	0.2906	0.8015	0.5735	-0.111
Mof_C 	C 	0.3192	0.7944	0.53	0.13
Mof_C 	C 	0.2475	0.7646	0.6486	0.27
Mof_C 	C 	0.0157	0.6503	0.755	0.387
Mof_C 	C 	0.0908	0.6094	0.7557	-0.052
Mof_C 	C 	0.1695	0.6123	0.7261	-0.062
Mof_C 	C 	0.2319	0.5717	0.7262	0.094
Mof_C 	C 	0.2235	0.5278	0.7557	0.003
Mof_C 	C 	0.1468	0.5284	0.7858	0.093
Mof_C 	C 	0.0808	0.5676	0.7858	-0.061
Mof_C 	C 	0.2936	0.4839	0.7563	0.002
Mof_C 	C 	0.3828	0.489	0.7788	0.095
Mof_C 	C 	0.4439	0.4481	0.7828	-0.063
Mof_C 	C 	0.4158	0.3978	0.7621	-0.046
Mof_C 	C 	0.3305	0.3917	0.7395	-0.056
Mof_C 	C 	0.2707	0.4342	0.7358	0.094
Mof_C 	C 	0.4822	0.3523	0.767	0.399
Mof_C 	C 	0.9549	0.7416	0.6516	0.417
Mof_C 	C 	0.9333	0.7401	0.6022	-0.043
Mof_C 	C 	0.9989	0.7661	0.5725	-0.056
Mof_C 	C 	0.9777	0.7668	0.5283	0.1
Mof_C 	C 	0.8905	0.7403	0.5105	0.012
Mof_C 	C 	0.8292	0.7139	0.5416	0.096
Mof_C 	C 	0.8476	0.7143	0.5865	-0.054
Mof_C 	C 	0.8612	0.7476	0.4628	-0.015
Mof_C 	C 	0.8158	0.7923	0.4486	0.125
Mof_C 	C 	0.787	0.7997	0.4052	-0.111
Mof_C 	C 	0.7981	0.7606	0.3747	0.04
Mof_C 	C 	0.8422	0.7152	0.3863	-0.112
Mof_C 	C 	0.8741	0.7089	0.4295	0.129
Mof_C 	C 	0.7597	0.7684	0.3283	0.283
Mof_C 	C 	0.0356	0.7645	0.829	0.431
Mof_C 	C 	0.0663	0.7662	0.8776	-0.056
Mof_C 	C 	0.1615	0.7818	0.8891	-0.046
Mof_C 	C 	0.1892	0.7786	0.933	0.091
Mof_C 	C 	0.1241	0.7612	0.9664	0.013
Mof_C 	C 	0.0288	0.7469	0.9524	0.093
Mof_C 	C 	0.9986	0.7492	0.9089	-0.047
Mof_C 	C 	0.1543	0.7554	0.0139	-0.02
Mof_C 	C 	0.1538	0.7964	0.0447	0.128
Mof_C 	C 	0.1868	0.7915	0.0878	-0.113
Mof_C 	C 	0.2133	0.7416	0.1023	0.038
Mof_C 	C 	0.2094	0.6985	0.0735	-0.111
Mof_C 	C 	0.1808	0.7056	0.03	0.13
Mof_C 	C 	0.2525	0.7354	0.1486	0.27
Mof_N 	N 	0.8103	0.0748	0.8077	0.004
Mof_N 	N 	0.6294	0.986	0.6799	-0.003
Mof_N 	N 	0.918	0.0411	0.6993	-0.003
Mof_N 	N 	0.6804	0.9254	0.79	0
Mof_N 	N 	0.5488	0.296	0.0016	-0.005
Mof_N 	N 	0.2357	0.1832	0.9721	-0.006
Mof_N 	N 	0.2952	0.3364	0.0201	-0.004
Mof_N 	N 	0.4229	0.1595	0.06	-0.009
Mof_N 	N 	0.7956	0.2927	0.5568	-0.003
Mof_N 	N 	0.4531	0.2268	0.5158	-0.004
Mof_N 	N 	0.6213	0.3496	0.4669	-0.011
Mof_N 	N 	0.6819	0.1576	0.4994	-0.007
Mof_N 	N 	0.6897	0.4252	0.3077	0.004
Mof_N 	N 	0.8706	0.514	0.1799	-0.003
Mof_N 	N 	0.582	0.4589	0.1993	-0.003
Mof_N 	N 	0.8196	0.5746	0.29	0
Mof_N 	N 	0.9512	0.204	0.5016	-0.005
Mof_N 	N 	0.2643	0.3168	0.4721	-0.005
Mof_N 	N 	0.2048	0.1636	0.5201	-0.004
Mof_N 	N 	0.0771	0.3405	0.56	-0.009
Mof_N 	N 	0.7044	0.2073	0.0568	-0.003
Mof_N 	N 	0.0469	0.2732	0.0158	-0.003
Mof_N 	N 	0.8787	0.1504	0.9669	-0.011
Mof_N 	N 	0.8181	0.3424	0.9994	-0.007
Mof_N 	N 	0.1897	0.9252	0.1923	0.004
Mof_N 	N 	0.3706	0.014	0.3201	-0.003
Mof_N 	N 	0.082	0.9589	0.3007	-0.003
Mof_N 	N 	0.3196	0.0746	0.21	0
Mof_N 	N 	0.4512	0.704	0.9984	-0.005
Mof_N 	N 	0.7643	0.8168	0.0279	-0.006
Mof_N 	N 	0.7048	0.6636	0.9799	-0.004
Mof_N 	N 	0.5771	0.8405	0.94	-0.009
Mof_N 	N 	0.2044	0.7073	0.4432	-0.003
Mof_N 	N 	0.5469	0.7732	0.4842	-0.004
Mof_N 	N 	0.3787	0.6504	0.5331	-0.011
Mof_N 	N 	0.3181	0.8424	0.5006	-0.007
Mof_N 	N 	0.3103	0.5748	0.6923	0.004
Mof_N 	N 	0.1294	0.486	0.8201	-0.003
Mof_N 	N 	0.418	0.5411	0.8007	-0.003
Mof_N 	N 	0.1804	0.4254	0.71	0
Mof_N 	N 	0.0488	0.796	0.4984	-0.005
Mof_N 	N 	0.7357	0.6832	0.5279	-0.005
Mof_N 	N 	0.7952	0.8364	0.4799	-0.004
Mof_N 	N 	0.9229	0.6595	0.44	-0.009
Mof_N 	N 	0.2956	0.7927	0.9432	-0.003
Mof_N 	N 	0.9531	0.7268	0.9842	-0.003
Mof_N 	N 	0.1213	0.8496	0.0331	-0.011
Mof_N 	N 	0.1819	0.6576	0.0006	-0.007
Mof_O 	O 	0.432	0.1378	0.7299	-0.398
Mof_O 	O 	0.5389	0.1963	0.7612	-0.521
Mof_O 	O 	0.0694	0.8638	0.7208	-0.406
Mof_O 	O 	0.9468	0.8053	0.742	-0.506
Mof_O 	O 	0.8283	0.1152	0.826	-0.098
Mof_O 	O 	0.8516	0.0373	0.8156	-0.081
Mof_O 	O 	0.5799	0.9942	0.6492	-0.08
Mof_O 	O 	0.6559	0.9423	0.6864	-0.088
Mof_O 	O 	0.8882	0.0826	0.7114	-0.094
Mof_O 	O 	0.9801	0.0407	0.6716	-0.085
Mof_O 	O 	0.6372	0.9599	0.8016	-0.081
Mof_O 	O 	0.6472	0.8793	0.7959	-0.097
Mof_O 	O 	0.3907	0.2192	0.8239	-0.463
Mof_O 	O 	0.5364	0.267	0.8372	-0.417
Mof_O 	O 	0.244	0.2269	0.1955	-0.364
Mof_O 	O 	0.2422	0.3147	0.1835	-0.362
Mof_O 	O 	0.614	0.3255	0.984	-0.078
Mof_O 	O 	0.5406	0.2905	0.0414	-0.069
Mof_O 	O 	0.1691	0.1775	0.9458	-0.076
Mof_O 	O 	0.235	0.161	0.0094	-0.068
Mof_O 	O 	0.3262	0.3382	0.9843	-0.076
Mof_O 	O 	0.2388	0.3676	0.0318	-0.071
Mof_O 	O 	0.4554	0.1526	0.0232	-0.065
Mof_O 	O 	0.433	0.1267	0.0894	-0.067
Mof_O 	O 	0.454	0.2433	0.6808	-0.428
Mof_O 	O 	0.6006	0.2836	0.6986	-0.469
Mof_O 	O 	0.7595	0.1877	0.3368	-0.358
Mof_O 	O 	0.778	0.2773	0.329	-0.363
Mof_O 	O 	0.8197	0.297	0.5177	-0.073
Mof_O 	O 	0.8529	0.2971	0.5881	-0.081
Mof_O 	O 	0.469	0.204	0.4852	-0.073
Mof_O 	O 	0.3726	0.2473	0.5195	-0.075
Mof_O 	O 	0.6499	0.3881	0.4457	-0.068
Mof_O 	O 	0.5676	0.3517	0.4986	-0.069
Mof_O 	O 	0.6748	0.114	0.4822	-0.068
Mof_O 	O 	0.6946	0.1653	0.5391	-0.072
Mof_O 	O 	0.068	0.3622	0.2299	-0.398
Mof_O 	O 	0.9611	0.3037	0.2612	-0.521
Mof_O 	O 	0.4306	0.6362	0.2208	-0.406
Mof_O 	O 	0.5532	0.6947	0.242	-0.506
Mof_O 	O 	0.6717	0.3848	0.326	-0.098
Mof_O 	O 	0.6484	0.4627	0.3156	-0.081
Mof_O 	O 	0.9201	0.5058	0.1492	-0.08
Mof_O 	O 	0.8441	0.5577	0.1864	-0.088
Mof_O 	O 	0.6118	0.4174	0.2114	-0.094
Mof_O 	O 	0.5199	0.4593	0.1716	-0.085
Mof_O 	O 	0.8628	0.5401	0.3016	-0.081
Mof_O 	O 	0.8528	0.6207	0.2959	-0.097
Mof_O 	O 	0.1093	0.2808	0.3239	-0.463
Mof_O 	O 	0.9636	0.233	0.3372	-0.417
Mof_O 	O 	0.256	0.2731	0.6955	-0.364
Mof_O 	O 	0.2578	0.1853	0.6835	-0.362
Mof_O 	O 	0.886	0.1745	0.484	-0.078
Mof_O 	O 	0.9594	0.2095	0.5414	-0.069
Mof_O 	O 	0.3309	0.3225	0.4458	-0.076
Mof_O 	O 	0.265	0.339	0.5094	-0.067
Mof_O 	O 	0.1738	0.1618	0.4843	-0.076
Mof_O 	O 	0.2612	0.1324	0.5318	-0.071
Mof_O 	O 	0.0446	0.3474	0.5232	-0.065
Mof_O 	O 	0.067	0.3733	0.5894	-0.067
Mof_O 	O 	0.046	0.2567	0.1808	-0.428
Mof_O 	O 	0.8994	0.2164	0.1986	-0.469
Mof_O 	O 	0.7405	0.3123	0.8368	-0.358
Mof_O 	O 	0.722	0.2227	0.829	-0.363
Mof_O 	O 	0.6803	0.203	0.0177	-0.073
Mof_O 	O 	0.6471	0.2029	0.0881	-0.081
Mof_O 	O 	0.031	0.296	0.9852	-0.073
Mof_O 	O 	0.1274	0.2527	0.0195	-0.075
Mof_O 	O 	0.8501	0.1119	0.9457	-0.068
Mof_O 	O 	0.9324	0.1483	0.9986	-0.069
Mof_O 	O 	0.8252	0.386	0.9822	-0.068
Mof_O 	O 	0.8054	0.3347	0.0391	-0.072
Mof_O 	O 	0.568	0.8622	0.2701	-0.398
Mof_O 	O 	0.4611	0.8037	0.2388	-0.521
Mof_O 	O 	0.9306	0.1362	0.2792	-0.406
Mof_O 	O 	0.0532	0.1947	0.258	-0.506
Mof_O 	O 	0.1717	0.8848	0.174	-0.098
Mof_O 	O 	0.1484	0.9627	0.1844	-0.081
Mof_O 	O 	0.4201	0.0058	0.3508	-0.08
Mof_O 	O 	0.3441	0.0577	0.3136	-0.088
Mof_O 	O 	0.1118	0.9174	0.2886	-0.094
Mof_O 	O 	0.0199	0.9593	0.3284	-0.085
Mof_O 	O 	0.3628	0.0401	0.1984	-0.081
Mof_O 	O 	0.3528	0.1207	0.2041	-0.097
Mof_O 	O 	0.6093	0.7808	0.1761	-0.463
Mof_O 	O 	0.4636	0.733	0.1628	-0.417
Mof_O 	O 	0.756	0.7731	0.8045	-0.364
Mof_O 	O 	0.7578	0.6853	0.8165	-0.362
Mof_O 	O 	0.386	0.6745	0.016	-0.078
Mof_O 	O 	0.4594	0.7095	0.9586	-0.069
Mof_O 	O 	0.8309	0.8225	0.0542	-0.076
Mof_O 	O 	0.765	0.839	0.9906	-0.068
Mof_O 	O 	0.6738	0.6618	0.0157	-0.076
Mof_O 	O 	0.7612	0.6324	0.9682	-0.071
Mof_O 	O 	0.5446	0.8474	0.9768	-0.065
Mof_O 	O 	0.567	0.8733	0.9106	-0.067
Mof_O 	O 	0.546	0.7567	0.3192	-0.428
Mof_O 	O 	0.3994	0.7164	0.3014	-0.469
Mof_O 	O 	0.2405	0.8123	0.6632	-0.358
Mof_O 	O 	0.222	0.7227	0.671	-0.363
Mof_O 	O 	0.1803	0.703	0.4823	-0.073
Mof_O 	O 	0.1471	0.7029	0.4119	-0.081
Mof_O 	O 	0.531	0.796	0.5148	-0.073
Mof_O 	O 	0.6274	0.7527	0.4805	-0.075
Mof_O 	O 	0.3501	0.6119	0.5543	-0.068
Mof_O 	O 	0.4324	0.6483	0.5014	-0.069
Mof_O 	O 	0.3252	0.886	0.5178	-0.068
Mof_O 	O 	0.3054	0.8347	0.4609	-0.072
Mof_O 	O 	0.932	0.6378	0.7701	-0.398
Mof_O 	O 	0.0389	0.6963	0.7388	-0.521
Mof_O 	O 	0.5694	0.3638	0.7792	-0.406
Mof_O 	O 	0.4468	0.3053	0.758	-0.506
Mof_O 	O 	0.3283	0.6152	0.674	-0.098
Mof_O 	O 	0.3516	0.5373	0.6844	-0.081
Mof_O 	O 	0.0799	0.4942	0.8508	-0.08
Mof_O 	O 	0.1559	0.4423	0.8136	-0.088
Mof_O 	O 	0.3882	0.5826	0.7886	-0.094
Mof_O 	O 	0.4801	0.5407	0.8284	-0.085
Mof_O 	O 	0.1372	0.4599	0.6984	-0.081
Mof_O 	O 	0.1472	0.3793	0.7041	-0.097
Mof_O 	O 	0.8907	0.7192	0.6761	-0.463
Mof_O 	O 	0.0364	0.767	0.6628	-0.417
Mof_O 	O 	0.744	0.7269	0.3045	-0.364
Mof_O 	O 	0.7422	0.8147	0.3165	-0.362
Mof_O 	O 	0.114	0.8255	0.516	-0.078
Mof_O 	O 	0.0406	0.7905	0.4586	-0.069
Mof_O 	O 	0.6691	0.6775	0.5542	-0.076
Mof_O 	O 	0.735	0.661	0.4906	-0.067
Mof_O 	O 	0.8262	0.8382	0.5157	-0.076
Mof_O 	O 	0.7388	0.8676	0.4682	-0.071
Mof_O 	O 	0.9554	0.6526	0.4768	-0.065
Mof_O 	O 	0.933	0.6267	0.4106	-0.067
Mof_O 	O 	0.954	0.7433	0.8192	-0.428
Mof_O 	O 	0.1006	0.7836	0.8014	-0.469
Mof_O 	O 	0.2595	0.6877	0.1632	-0.358
Mof_O 	O 	0.278	0.7773	0.171	-0.363
Mof_O 	O 	0.3197	0.797	0.9823	-0.073
Mof_O 	O 	0.3529	0.7971	0.9119	-0.081
Mof_O 	O 	0.969	0.704	0.0148	-0.073
Mof_O 	O 	0.8726	0.7473	0.9805	-0.075
Mof_O 	O 	0.1499	0.8881	0.0543	-0.068
Mof_O 	O 	0.0676	0.8517	0.0014	-0.069
Mof_O 	O 	0.1748	0.614	0.0178	-0.068
Mof_O 	O 	0.1946	0.6653	0.9609	-0.072
_end
