data_functionalizedCrystal
_audit_creation_method	'EQeq! by Chris Wilmer'
_symmetry_space_group_name_H-M	'P1'
_symmetry_Int_Tables_number	1
_symmetry_cell_setting	triclinic
loop_
_symmetry_equiv_pos_as_xyz
  x,y,z
_cell_length_a	7.6285
_cell_length_b	11.9296
_cell_length_c	14.342
_cell_angle_alpha	114.576
_cell_angle_beta	99.3128
_cell_angle_gamma	90
loop_
_atom_site_label
_atom_site_type_symbol
_atom_site_fract_x
_atom_site_fract_y
_atom_site_fract_z
_atom_site_charge
Mof_Ba	Ba	0.9393	0.72587	0.88532	1.478
Mof_Ba	Ba	0.5607	0.84055	0.11468	1.688
Mof_Ba	Ba	0.0607	0.27413	0.11468	1.669
Mof_Ba	Ba	0.4393	0.15945	0.88532	1.445
Mof_H 	H 	0.23	0.943	0.05	0.278
Mof_H 	H 	0.4214	0.3376	0.625	-0.048
Mof_H 	H 	0.4542	0.2346	0.4528	0.132
Mof_H 	H 	0.1902	0.4912	0.3874	0.095
Mof_H 	H 	0.1568	0.5921	0.5594	-0.03
Mof_H 	H 	0.5697	0.2307	0.3148	0.08
Mof_H 	H 	0.4083	0.1318	0.2782	0.056
Mof_H 	H 	0.27	0.893	0.95	0.212
Mof_H 	H 	0.0786	0.7126	0.375	-0.052
Mof_H 	H 	0.0458	0.7818	0.5472	0.134
Mof_H 	H 	0.3098	0.1038	0.6126	0.106
Mof_H 	H 	0.3432	0.0327	0.4406	-0.04
Mof_H 	H 	0.9303	0.9159	0.6852	0.085
Mof_H 	H 	0.0917	0.8536	0.7218	0.059
Mof_H 	H 	0.77	0.057	0.95	0.188
Mof_H 	H 	0.5786	0.6624	0.375	-0.046
Mof_H 	H 	0.5458	0.7654	0.5472	0.131
Mof_H 	H 	0.8098	0.5088	0.6126	0.099
Mof_H 	H 	0.8432	0.4079	0.4406	-0.028
Mof_H 	H 	0.4303	0.7693	0.6852	0.087
Mof_H 	H 	0.5917	0.8682	0.7218	0.067
Mof_H 	H 	0.73	0.107	0.05	0.273
Mof_H 	H 	0.9214	0.2874	0.625	-0.048
Mof_H 	H 	0.9542	0.2182	0.4528	0.138
Mof_H 	H 	0.6902	0.8962	0.3874	0.101
Mof_H 	H 	0.6568	0.9673	0.5594	-0.031
Mof_H 	H 	0.0697	0.0841	0.3148	0.057
Mof_H 	H 	0.9083	0.1464	0.2782	0.046
Mof_C 	C 	0.285	0.47504	0.61056	-0.238
Mof_C 	C 	0.374	0.36843	0.57724	0.176
Mof_C 	C 	0.3942	0.30645	0.47406	-0.297
Mof_C 	C 	0.324	0.35275	0.40284	0.275
Mof_C 	C 	0.2362	0.45974	0.43488	-0.281
Mof_C 	C 	0.2167	0.52006	0.53812	0.167
Mof_C 	C 	0.2645	0.54153	0.72326	0.404
Mof_C 	C 	0.4549	0.2017	0.26926	-0.173
Mof_C 	C 	0.4796	0.15992	0.15692	0.415
Mof_C 	C 	0.215	0.86448	0.38944	-0.25
Mof_C 	C 	0.126	0.79119	0.42276	0.188
Mof_C 	C 	0.1058	0.83239	0.52594	-0.309
Mof_C 	C 	0.176	0.94991	0.59716	0.29
Mof_C 	C 	0.2638	0.02486	0.56512	-0.307
Mof_C 	C 	0.2833	0.98194	0.46188	0.191
Mof_C 	C 	0.2355	0.81827	0.27674	0.41
Mof_C 	C 	0.0451	0.93244	0.73074	-0.171
Mof_C 	C 	0.0204	0.003	0.84308	0.397
Mof_C 	C 	0.715	0.52496	0.38944	-0.233
Mof_C 	C 	0.626	0.63157	0.42276	0.176
Mof_C 	C 	0.6058	0.69355	0.52594	-0.293
Mof_C 	C 	0.676	0.64725	0.59716	0.274
Mof_C 	C 	0.7638	0.54026	0.56512	-0.277
Mof_C 	C 	0.7833	0.47994	0.46188	0.168
Mof_C 	C 	0.7355	0.45847	0.27674	0.404
Mof_C 	C 	0.5451	0.7983	0.73074	-0.189
Mof_C 	C 	0.5204	0.84008	0.84308	0.429
Mof_C 	C 	0.785	0.13552	0.61056	-0.24
Mof_C 	C 	0.874	0.20881	0.57724	0.185
Mof_C 	C 	0.8942	0.16761	0.47406	-0.303
Mof_C 	C 	0.824	0.05009	0.40284	0.289
Mof_C 	C 	0.7362	0.97514	0.43488	-0.293
Mof_C 	C 	0.7167	0.01806	0.53812	0.177
Mof_C 	C 	0.7645	0.18173	0.72326	0.406
Mof_C 	C 	0.9549	0.06756	0.26926	-0.129
Mof_C 	C 	0.9796	0.997	0.15692	0.405
Mof_O 	O 	0.1622	0.62592	0.74822	-0.47
Mof_O 	O 	0.3587	0.50588	0.78628	-0.416
Mof_O 	O 	0.3368	0.29773	0.29846	-0.313
Mof_O 	O 	0.58347	0.07494	0.13016	-0.469
Mof_O 	O 	0.40203	0.20784	0.10062	-0.518
Mof_O 	O 	0.3378	0.8777	0.25178	-0.476
Mof_O 	O 	0.1413	0.7196	0.21372	-0.396
Mof_O 	O 	0.1632	0.99927	0.70154	-0.303
Mof_O 	O 	0.91653	0.94478	0.86984	-0.474
Mof_O 	O 	0.09797	0.10722	0.89938	-0.577
Mof_O 	O 	0.8378	0.37408	0.25178	-0.466
Mof_O 	O 	0.6413	0.49412	0.21372	-0.389
Mof_O 	O 	0.6632	0.70227	0.70154	-0.3
Mof_O 	O 	0.41653	0.92506	0.86984	-0.488
Mof_O 	O 	0.59797	0.79216	0.89938	-0.581
Mof_O 	O 	0.6622	0.1223	0.74822	-0.466
Mof_O 	O 	0.8587	0.2804	0.78628	-0.413
Mof_O 	O 	0.8368	0.00073	0.29846	-0.32
Mof_O 	O 	0.08347	0.05522	0.13016	-0.474
Mof_O 	O 	0.90203	0.89278	0.10062	-0.518
Mof_O 	O 	0.25	0.8745	-0	-0.718
Mof_O 	O 	0.75	0.1255	-0	-0.679
_end
