data_functionalizedCrystal
_audit_creation_method	'EQeq! by Chris Wilmer'
_symmetry_space_group_name_H-M	'P1'
_symmetry_Int_Tables_number	1
_symmetry_cell_setting	triclinic
loop_
_symmetry_equiv_pos_as_xyz
  x,y,z
_cell_length_a	23.5956
_cell_length_b	23.5956
_cell_length_c	30.7544
_cell_angle_alpha	69.537
_cell_angle_beta	69.5369
_cell_angle_gamma	95.0863
loop_
_atom_site_label
_atom_site_type_symbol
_atom_site_fract_x
_atom_site_fract_y
_atom_site_fract_z
_atom_site_charge
Mof_Zn	Zn	0.63315	0.38315	0.7337	1.18
Mof_Zn	Zn	0.11685	0.86685	0.7663	1.18
Mof_Zn	Zn	0.36685	0.61685	0.2663	1.18
Mof_Zn	Zn	0.88315	0.13315	0.2337	1.18
Mof_Zn	Zn	0.09708	0.34708	0.80584	1.217
Mof_Zn	Zn	0.15292	0.40292	0.69416	1.217
Mof_Zn	Zn	0.90292	0.65292	0.19416	1.217
Mof_Zn	Zn	0.84708	0.59708	0.30584	1.217
Mof_H 	H 	0.7184	0.186	0.749	0.057
Mof_H 	H 	0.798	0.2594	0.7488	0.068
Mof_H 	H 	0.8228	0.4854	0.7484	0.064
Mof_H 	H 	0.7568	0.5594	0.7504	0.06
Mof_H 	H 	0.8834	0.4072	0.6732	0.118
Mof_H 	H 	0.9806	0.4114	0.674	-0.01
Mof_H 	H 	0.9044	0.3352	0.8238	-0.009
Mof_H 	H 	0.8072	0.3338	0.8218	0.116
Mof_H 	H 	0.5744	0.1246	0.8048	0.082
Mof_H 	H 	0.5788	0.0256	0.8028	0.013
Mof_H 	H 	0.5986	0.0178	0.7266	0.062
Mof_H 	H 	0.6436	0.1062	0.6496	0.017
Mof_H 	H 	0.648	0.206	0.6548	0.077
Mof_H 	H 	0.8754	0.5194	0.3924	-0
Mof_H 	H 	0.8348	0.4768	0.4792	0.073
Mof_H 	H 	0.6505	0.5119	0.557	0.075
Mof_H 	H 	0.6098	0.468	0.6428	-0.018
Mof_H 	H 	0.5326	0.565	0.749	0.057
Mof_H 	H 	0.4532	0.4918	0.7488	0.068
Mof_H 	H 	0.4288	0.2662	0.7484	0.064
Mof_H 	H 	0.4928	0.1902	0.7504	0.06
Mof_H 	H 	0.4434	0.4196	0.6732	0.118
Mof_H 	H 	0.3454	0.4146	0.674	-0.01
Mof_H 	H 	0.2718	0.341	0.8238	-0.008
Mof_H 	H 	0.371	0.3444	0.8218	0.116
Mof_H 	H 	0.6208	0.5706	0.8048	0.082
Mof_H 	H 	0.6184	0.6716	0.8028	0.013
Mof_H 	H 	0.6748	0.7556	0.7266	0.062
Mof_H 	H 	0.7068	0.7442	0.6496	0.017
Mof_H 	H 	0.6972	0.6392	0.6548	0.077
Mof_H 	H 	0.7322	0.5882	0.3924	-0
Mof_H 	H 	0.686	0.544	0.4792	0.073
Mof_H 	H 	0.7925	0.4311	0.557	0.075
Mof_H 	H 	0.7474	0.3892	0.6428	-0.018
Mof_H 	H 	0.314	0.7816	0.751	0.057
Mof_H 	H 	0.2406	0.702	0.7512	0.068
Mof_H 	H 	0.0146	0.6772	0.7516	0.065
Mof_H 	H 	0.9406	0.7432	0.7496	0.059
Mof_H 	H 	0.0928	0.6166	0.8268	0.118
Mof_H 	H 	0.0886	0.5194	0.826	-0.01
Mof_H 	H 	0.1648	0.5956	0.6762	-0.009
Mof_H 	H 	0.1662	0.6928	0.6782	0.116
Mof_H 	H 	0.3754	0.9256	0.6952	0.082
Mof_H 	H 	0.4744	0.9212	0.6972	0.013
Mof_H 	H 	0.4822	0.9014	0.7734	0.062
Mof_H 	H 	0.3938	0.8564	0.8504	0.017
Mof_H 	H 	0.294	0.852	0.8452	0.077
Mof_H 	H 	0.9806	0.6246	0.1076	-0
Mof_H 	H 	0.0232	0.6652	0.0208	0.073
Mof_H 	H 	0.9881	0.8495	0.943	0.075
Mof_H 	H 	0.032	0.8902	0.8572	-0.018
Mof_H 	H 	0.935	0.9674	0.751	0.057
Mof_H 	H 	0.0082	0.0468	0.7512	0.068
Mof_H 	H 	0.2338	0.0712	0.7516	0.064
Mof_H 	H 	0.3098	0.0072	0.7496	0.06
Mof_H 	H 	0.0804	0.0566	0.8268	0.118
Mof_H 	H 	0.0854	0.1546	0.826	-0.01
Mof_H 	H 	0.159	0.2282	0.6762	-0.008
Mof_H 	H 	0.1556	0.129	0.6782	0.116
Mof_H 	H 	0.9294	0.8792	0.6952	0.082
Mof_H 	H 	0.8284	0.8816	0.6972	0.013
Mof_H 	H 	0.7444	0.8252	0.7734	0.062
Mof_H 	H 	0.7558	0.7932	0.8504	0.017
Mof_H 	H 	0.8608	0.8028	0.8452	0.077
Mof_H 	H 	0.9118	0.7678	0.1076	-0
Mof_H 	H 	0.956	0.814	0.0208	0.073
Mof_H 	H 	0.0689	0.7075	0.943	0.075
Mof_H 	H 	0.1108	0.7526	0.8572	-0.018
Mof_H 	H 	0.2816	0.814	0.251	0.057
Mof_H 	H 	0.202	0.7406	0.2512	0.068
Mof_H 	H 	0.1772	0.5146	0.2516	0.064
Mof_H 	H 	0.2432	0.4406	0.2496	0.06
Mof_H 	H 	0.1166	0.5928	0.3268	0.118
Mof_H 	H 	0.0194	0.5886	0.326	-0.01
Mof_H 	H 	0.0956	0.6648	0.1762	-0.009
Mof_H 	H 	0.1928	0.6662	0.1782	0.116
Mof_H 	H 	0.4256	0.8754	0.1952	0.082
Mof_H 	H 	0.4212	0.9744	0.1972	0.013
Mof_H 	H 	0.4014	0.9822	0.2734	0.062
Mof_H 	H 	0.3564	0.8938	0.3504	0.017
Mof_H 	H 	0.352	0.794	0.3452	0.077
Mof_H 	H 	0.1246	0.4806	0.6076	-0
Mof_H 	H 	0.1652	0.5232	0.5208	0.073
Mof_H 	H 	0.3495	0.4881	0.443	0.075
Mof_H 	H 	0.3902	0.532	0.3572	-0.018
Mof_H 	H 	0.4674	0.435	0.251	0.057
Mof_H 	H 	0.5468	0.5082	0.2512	0.068
Mof_H 	H 	0.5712	0.7338	0.2516	0.064
Mof_H 	H 	0.5072	0.8098	0.2496	0.06
Mof_H 	H 	0.5566	0.5804	0.3268	0.118
Mof_H 	H 	0.6546	0.5854	0.326	-0.01
Mof_H 	H 	0.7282	0.659	0.1762	-0.008
Mof_H 	H 	0.629	0.6556	0.1782	0.116
Mof_H 	H 	0.3792	0.4294	0.1952	0.082
Mof_H 	H 	0.3816	0.3284	0.1972	0.013
Mof_H 	H 	0.3252	0.2444	0.2734	0.062
Mof_H 	H 	0.2932	0.2558	0.3504	0.017
Mof_H 	H 	0.3028	0.3608	0.3452	0.077
Mof_H 	H 	0.2678	0.4118	0.6076	-0
Mof_H 	H 	0.314	0.456	0.5208	0.073
Mof_H 	H 	0.2075	0.5689	0.443	0.075
Mof_H 	H 	0.2526	0.6108	0.3572	-0.018
Mof_H 	H 	0.686	0.2184	0.249	0.057
Mof_H 	H 	0.7594	0.298	0.2488	0.068
Mof_H 	H 	0.9854	0.3228	0.2484	0.065
Mof_H 	H 	0.0594	0.2568	0.2504	0.059
Mof_H 	H 	0.9072	0.3834	0.1732	0.118
Mof_H 	H 	0.9114	0.4806	0.174	-0.01
Mof_H 	H 	0.8352	0.4044	0.3238	-0.009
Mof_H 	H 	0.8338	0.3072	0.3218	0.116
Mof_H 	H 	0.6246	0.0744	0.3048	0.082
Mof_H 	H 	0.5256	0.0788	0.3028	0.013
Mof_H 	H 	0.5178	0.0986	0.2266	0.062
Mof_H 	H 	0.6062	0.1436	0.1496	0.017
Mof_H 	H 	0.706	0.148	0.1548	0.077
Mof_H 	H 	0.0194	0.3754	0.8924	-0
Mof_H 	H 	0.9768	0.3348	0.9792	0.073
Mof_H 	H 	0.0119	0.1505	0.057	0.075
Mof_H 	H 	0.968	0.1098	0.1428	-0.018
Mof_H 	H 	0.065	0.0326	0.249	0.057
Mof_H 	H 	0.9918	0.9532	0.2488	0.068
Mof_H 	H 	0.7662	0.9288	0.2484	0.064
Mof_H 	H 	0.6902	0.9928	0.2504	0.06
Mof_H 	H 	0.9196	0.9434	0.1732	0.118
Mof_H 	H 	0.9146	0.8454	0.174	-0.01
Mof_H 	H 	0.841	0.7718	0.3238	-0.008
Mof_H 	H 	0.8444	0.871	0.3218	0.116
Mof_H 	H 	0.0706	0.1208	0.3048	0.082
Mof_H 	H 	0.1716	0.1184	0.3028	0.013
Mof_H 	H 	0.2556	0.1748	0.2266	0.062
Mof_H 	H 	0.2442	0.2068	0.1496	0.017
Mof_H 	H 	0.1392	0.1972	0.1548	0.077
Mof_H 	H 	0.0882	0.2322	0.8924	-0
Mof_H 	H 	0.044	0.186	0.9792	0.073
Mof_H 	H 	0.9311	0.2925	0.057	0.075
Mof_H 	H 	0.8892	0.2474	0.1428	-0.018
Mof_C 	C 	0.66656	0.25716	0.74584	0.097
Mof_C 	C 	0.71687	0.22567	0.748	-0.071
Mof_C 	C 	0.76007	0.26619	0.74806	-0.099
Mof_C 	C 	0.73954	0.3208	0.74672	0.114
Mof_C 	C 	0.7716	0.373	0.74708	-0.179
Mof_C 	C 	0.75062	0.42662	0.74708	0.109
Mof_C 	C 	0.78335	0.48015	0.74816	-0.089
Mof_C 	C 	0.74769	0.52111	0.74888	-0.079
Mof_C 	C 	0.69216	0.49372	0.74694	0.099
Mof_C 	C 	0.6118	0.23028	0.74564	-0.141
Mof_C 	C 	0.83529	0.37141	0.74726	0.204
Mof_C 	C 	0.88695	0.39293	0.70416	-0.254
Mof_C 	C 	0.94545	0.39439	0.70458	0.157
Mof_C 	C 	0.95225	0.37115	0.74912	-0.21
Mof_C 	C 	0.90099	0.34981	0.79272	0.154
Mof_C 	C 	0.84238	0.34956	0.79138	-0.248
Mof_C 	C 	0.01636	0.37134	0.74946	0.434
Mof_C 	C 	0.6112	0.1744	0.732	0.112
Mof_C 	C 	0.5899	0.1219	0.7736	-0.148
Mof_C 	C 	0.58924	0.06084	0.77312	0.034
Mof_C 	C 	0.6048	0.057	0.727	-0.105
Mof_C 	C 	0.62967	0.10947	0.68066	0.026
Mof_C 	C 	0.6322	0.1698	0.6844	-0.137
Mof_C 	C 	0.83694	0.52524	0.40982	0.079
Mof_C 	C 	0.81229	0.49869	0.46262	-0.132
Mof_C 	C 	0.67144	0.48714	0.57342	-0.14
Mof_C 	C 	0.64715	0.46041	0.62518	0.08
Mof_C 	C 	0.5876	0.497	0.74584	0.097
Mof_C 	C 	0.53513	0.52633	0.748	-0.071
Mof_C 	C 	0.49187	0.48575	0.74806	-0.099
Mof_C 	C 	0.51374	0.43248	0.74672	0.114
Mof_C 	C 	0.48132	0.37992	0.74708	-0.179
Mof_C 	C 	0.5023	0.3263	0.74708	0.109
Mof_C 	C 	0.46849	0.27169	0.74816	-0.089
Mof_C 	C 	0.50343	0.23001	0.74888	-0.079
Mof_C 	C 	0.5609	0.25934	0.74694	0.099
Mof_C 	C 	0.64256	0.52408	0.74564	-0.141
Mof_C 	C 	0.41745	0.38133	0.74726	0.204
Mof_C 	C 	0.40889	0.40291	0.70416	-0.254
Mof_C 	C 	0.34997	0.40103	0.70458	0.157
Mof_C 	C 	0.29863	0.37973	0.74912	-0.21
Mof_C 	C 	0.30629	0.35747	0.79272	0.154
Mof_C 	C 	0.36624	0.35906	0.79138	-0.248
Mof_C 	C 	0.23418	0.3792	0.74946	0.434
Mof_C 	C 	0.6568	0.5936	0.732	0.112
Mof_C 	C 	0.6365	0.6045	0.7736	-0.148
Mof_C 	C 	0.63764	0.66604	0.77312	0.034
Mof_C 	C 	0.6682	0.716	0.727	-0.105
Mof_C 	C 	0.68967	0.70987	0.68066	0.026
Mof_C 	C 	0.6834	0.6458	0.6844	-0.137
Mof_C 	C 	0.75324	0.56494	0.40982	0.079
Mof_C 	C 	0.72509	0.53869	0.46262	-0.132
Mof_C 	C 	0.75514	0.43944	0.57342	-0.14
Mof_C 	C 	0.72767	0.41441	0.62518	0.08
Mof_C 	C 	0.24284	0.83344	0.75416	0.097
Mof_C 	C 	0.27433	0.78313	0.752	-0.071
Mof_C 	C 	0.23381	0.73993	0.75194	-0.099
Mof_C 	C 	0.1792	0.76046	0.75328	0.114
Mof_C 	C 	0.127	0.7284	0.75292	-0.179
Mof_C 	C 	0.07338	0.74938	0.75292	0.109
Mof_C 	C 	0.01985	0.71665	0.75184	-0.091
Mof_C 	C 	0.97889	0.75231	0.75112	-0.078
Mof_C 	C 	0.00628	0.80784	0.75306	0.098
Mof_C 	C 	0.26972	0.8882	0.75436	-0.141
Mof_C 	C 	0.12859	0.66471	0.75274	0.204
Mof_C 	C 	0.10707	0.61305	0.79584	-0.254
Mof_C 	C 	0.10561	0.55455	0.79542	0.157
Mof_C 	C 	0.12885	0.54775	0.75088	-0.21
Mof_C 	C 	0.15019	0.59901	0.70728	0.154
Mof_C 	C 	0.15044	0.65762	0.70862	-0.248
Mof_C 	C 	0.12866	0.48364	0.75054	0.434
Mof_C 	C 	0.3256	0.8888	0.768	0.112
Mof_C 	C 	0.3781	0.9101	0.7264	-0.148
Mof_C 	C 	0.43916	0.91076	0.72688	0.034
Mof_C 	C 	0.443	0.8952	0.773	-0.105
Mof_C 	C 	0.39053	0.87033	0.81934	0.026
Mof_C 	C 	0.3302	0.8678	0.8156	-0.137
Mof_C 	C 	0.97476	0.66306	0.09018	0.079
Mof_C 	C 	0.00131	0.68771	0.03738	-0.132
Mof_C 	C 	0.01286	0.82856	0.92658	-0.141
Mof_C 	C 	0.03959	0.85285	0.87482	0.081
Mof_C 	C 	0.003	0.9124	0.75416	0.096
Mof_C 	C 	0.97367	0.96487	0.752	-0.071
Mof_C 	C 	0.01425	0.00813	0.75194	-0.099
Mof_C 	C 	0.06752	0.98626	0.75328	0.113
Mof_C 	C 	0.12008	0.01868	0.75292	-0.178
Mof_C 	C 	0.1737	0.9977	0.75292	0.107
Mof_C 	C 	0.22831	0.03151	0.75184	-0.087
Mof_C 	C 	0.26999	0.99657	0.75112	-0.081
Mof_C 	C 	0.24066	0.9391	0.75306	0.099
Mof_C 	C 	0.97592	0.85744	0.75436	-0.139
Mof_C 	C 	0.11867	0.08255	0.75274	0.203
Mof_C 	C 	0.09709	0.09111	0.79584	-0.254
Mof_C 	C 	0.09897	0.15003	0.79542	0.157
Mof_C 	C 	0.12027	0.20137	0.75088	-0.209
Mof_C 	C 	0.14253	0.19371	0.70728	0.154
Mof_C 	C 	0.14094	0.13376	0.70862	-0.247
Mof_C 	C 	0.1208	0.26582	0.75054	0.433
Mof_C 	C 	0.9064	0.8432	0.768	0.111
Mof_C 	C 	0.8955	0.8635	0.7264	-0.148
Mof_C 	C 	0.83396	0.86236	0.72688	0.034
Mof_C 	C 	0.784	0.8318	0.773	-0.105
Mof_C 	C 	0.79013	0.81033	0.81934	0.025
Mof_C 	C 	0.8542	0.8166	0.8156	-0.136
Mof_C 	C 	0.93506	0.74676	0.09018	0.079
Mof_C 	C 	0.96131	0.77491	0.03738	-0.132
Mof_C 	C 	0.06056	0.74486	0.92658	-0.14
Mof_C 	C 	0.08559	0.77233	0.87482	0.08
Mof_C 	C 	0.33344	0.74284	0.25416	0.097
Mof_C 	C 	0.28313	0.77433	0.252	-0.071
Mof_C 	C 	0.23993	0.73381	0.25194	-0.099
Mof_C 	C 	0.26046	0.6792	0.25328	0.114
Mof_C 	C 	0.2284	0.627	0.25292	-0.179
Mof_C 	C 	0.24938	0.57338	0.25292	0.109
Mof_C 	C 	0.21665	0.51985	0.25184	-0.089
Mof_C 	C 	0.25231	0.47889	0.25112	-0.079
Mof_C 	C 	0.30784	0.50628	0.25306	0.099
Mof_C 	C 	0.3882	0.76972	0.25436	-0.141
Mof_C 	C 	0.16471	0.62859	0.25274	0.204
Mof_C 	C 	0.11305	0.60707	0.29584	-0.254
Mof_C 	C 	0.05455	0.60561	0.29542	0.157
Mof_C 	C 	0.04775	0.62885	0.25088	-0.21
Mof_C 	C 	0.09901	0.65019	0.20728	0.154
Mof_C 	C 	0.15762	0.65044	0.20862	-0.248
Mof_C 	C 	0.98364	0.62866	0.25054	0.434
Mof_C 	C 	0.3888	0.8256	0.268	0.112
Mof_C 	C 	0.4101	0.8781	0.2264	-0.148
Mof_C 	C 	0.41076	0.93916	0.22688	0.034
Mof_C 	C 	0.3952	0.943	0.273	-0.105
Mof_C 	C 	0.37033	0.89053	0.31934	0.026
Mof_C 	C 	0.3678	0.8302	0.3156	-0.137
Mof_C 	C 	0.16306	0.47476	0.59018	0.079
Mof_C 	C 	0.18771	0.50131	0.53738	-0.132
Mof_C 	C 	0.32856	0.51286	0.42658	-0.14
Mof_C 	C 	0.35285	0.53959	0.37482	0.08
Mof_C 	C 	0.4124	0.503	0.25416	0.097
Mof_C 	C 	0.46487	0.47367	0.252	-0.071
Mof_C 	C 	0.50813	0.51425	0.25194	-0.099
Mof_C 	C 	0.48626	0.56752	0.25328	0.114
Mof_C 	C 	0.51868	0.62008	0.25292	-0.179
Mof_C 	C 	0.4977	0.6737	0.25292	0.109
Mof_C 	C 	0.53151	0.72831	0.25184	-0.089
Mof_C 	C 	0.49657	0.76999	0.25112	-0.079
Mof_C 	C 	0.4391	0.74066	0.25306	0.099
Mof_C 	C 	0.35744	0.47592	0.25436	-0.141
Mof_C 	C 	0.58255	0.61867	0.25274	0.204
Mof_C 	C 	0.59111	0.59709	0.29584	-0.254
Mof_C 	C 	0.65003	0.59897	0.29542	0.157
Mof_C 	C 	0.70137	0.62027	0.25088	-0.21
Mof_C 	C 	0.69371	0.64253	0.20728	0.154
Mof_C 	C 	0.63376	0.64094	0.20862	-0.248
Mof_C 	C 	0.76582	0.6208	0.25054	0.434
Mof_C 	C 	0.3432	0.4064	0.268	0.112
Mof_C 	C 	0.3635	0.3955	0.2264	-0.148
Mof_C 	C 	0.36236	0.33396	0.22688	0.034
Mof_C 	C 	0.3318	0.284	0.273	-0.105
Mof_C 	C 	0.31033	0.29013	0.31934	0.026
Mof_C 	C 	0.3166	0.3542	0.3156	-0.137
Mof_C 	C 	0.24676	0.43506	0.59018	0.079
Mof_C 	C 	0.27491	0.46131	0.53738	-0.132
Mof_C 	C 	0.24486	0.56056	0.42658	-0.14
Mof_C 	C 	0.27233	0.58559	0.37482	0.08
Mof_C 	C 	0.75716	0.16656	0.24584	0.097
Mof_C 	C 	0.72567	0.21687	0.248	-0.071
Mof_C 	C 	0.76619	0.26007	0.24806	-0.099
Mof_C 	C 	0.8208	0.23954	0.24672	0.114
Mof_C 	C 	0.873	0.2716	0.24708	-0.179
Mof_C 	C 	0.92662	0.25062	0.24708	0.109
Mof_C 	C 	0.98015	0.28335	0.24816	-0.091
Mof_C 	C 	0.02111	0.24769	0.24888	-0.078
Mof_C 	C 	0.99372	0.19216	0.24694	0.098
Mof_C 	C 	0.73028	0.1118	0.24564	-0.141
Mof_C 	C 	0.87141	0.33529	0.24726	0.204
Mof_C 	C 	0.89293	0.38695	0.20416	-0.254
Mof_C 	C 	0.89439	0.44545	0.20458	0.157
Mof_C 	C 	0.87115	0.45225	0.24912	-0.21
Mof_C 	C 	0.84981	0.40099	0.29272	0.154
Mof_C 	C 	0.84956	0.34238	0.29138	-0.248
Mof_C 	C 	0.87134	0.51636	0.24946	0.434
Mof_C 	C 	0.6744	0.1112	0.232	0.112
Mof_C 	C 	0.6219	0.0899	0.2736	-0.148
Mof_C 	C 	0.56084	0.08924	0.27312	0.034
Mof_C 	C 	0.557	0.1048	0.227	-0.105
Mof_C 	C 	0.60947	0.12967	0.18066	0.026
Mof_C 	C 	0.6698	0.1322	0.1844	-0.137
Mof_C 	C 	0.02524	0.33694	0.90982	0.079
Mof_C 	C 	0.99869	0.31229	0.96262	-0.132
Mof_C 	C 	0.98714	0.17144	0.07342	-0.141
Mof_C 	C 	0.96041	0.14715	0.12518	0.081
Mof_C 	C 	0.997	0.0876	0.24584	0.096
Mof_C 	C 	0.02633	0.03513	0.248	-0.071
Mof_C 	C 	0.98575	0.99187	0.24806	-0.099
Mof_C 	C 	0.93248	0.01374	0.24672	0.113
Mof_C 	C 	0.87992	0.98132	0.24708	-0.178
Mof_C 	C 	0.8263	0.0023	0.24708	0.107
Mof_C 	C 	0.77169	0.96849	0.24816	-0.087
Mof_C 	C 	0.73001	0.00343	0.24888	-0.081
Mof_C 	C 	0.75934	0.0609	0.24694	0.099
Mof_C 	C 	0.02408	0.14256	0.24564	-0.139
Mof_C 	C 	0.88133	0.91745	0.24726	0.203
Mof_C 	C 	0.90291	0.90889	0.20416	-0.254
Mof_C 	C 	0.90103	0.84997	0.20458	0.157
Mof_C 	C 	0.87973	0.79863	0.24912	-0.209
Mof_C 	C 	0.85747	0.80629	0.29272	0.154
Mof_C 	C 	0.85906	0.86624	0.29138	-0.247
Mof_C 	C 	0.8792	0.73418	0.24946	0.433
Mof_C 	C 	0.0936	0.1568	0.232	0.111
Mof_C 	C 	0.1045	0.1365	0.2736	-0.148
Mof_C 	C 	0.16604	0.13764	0.27312	0.034
Mof_C 	C 	0.216	0.1682	0.227	-0.105
Mof_C 	C 	0.20987	0.18967	0.18066	0.025
Mof_C 	C 	0.1458	0.1834	0.1844	-0.136
Mof_C 	C 	0.06494	0.25324	0.90982	0.079
Mof_C 	C 	0.03869	0.22509	0.96262	-0.132
Mof_C 	C 	0.93944	0.25514	0.07342	-0.14
Mof_C 	C 	0.91441	0.22767	0.12518	0.08
Mof_C 	C 	0.75478	0.50478	0.49044	0.054
Mof_C 	C 	0.72753	0.47753	0.54494	0.056
Mof_C 	C 	0.99522	0.74522	0.00956	0.054
Mof_C 	C 	0.02247	0.77247	0.95506	0.056
Mof_C 	C 	0.24522	0.49522	0.50956	0.054
Mof_C 	C 	0.27247	0.52247	0.45506	0.056
Mof_C 	C 	0.00478	0.25478	0.99044	0.054
Mof_C 	C 	0.97753	0.22753	0.04494	0.056
Mof_N 	N 	0.68127	0.31419	0.74556	-0.28
Mof_N 	N 	0.69452	0.43754	0.74578	-0.28
Mof_N 	N 	0.57317	0.44025	0.74556	-0.28
Mof_N 	N 	0.5597	0.31668	0.74578	-0.28
Mof_N 	N 	0.18581	0.81873	0.75444	-0.28
Mof_N 	N 	0.06246	0.80548	0.75422	-0.28
Mof_N 	N 	0.05975	0.92683	0.75444	-0.28
Mof_N 	N 	0.18332	0.9403	0.75422	-0.28
Mof_N 	N 	0.31873	0.68581	0.25444	-0.28
Mof_N 	N 	0.30548	0.56246	0.25422	-0.28
Mof_N 	N 	0.42683	0.55975	0.25444	-0.28
Mof_N 	N 	0.4403	0.68332	0.25422	-0.28
Mof_N 	N 	0.81419	0.18127	0.24556	-0.28
Mof_N 	N 	0.93754	0.19452	0.24578	-0.28
Mof_N 	N 	0.94025	0.07317	0.24556	-0.28
Mof_N 	N 	0.81668	0.0597	0.24578	-0.28
Mof_N 	N 	0.80872	0.55872	0.38256	-0.252
Mof_N 	N 	0.67398	0.42398	0.65204	-0.26
Mof_N 	N 	0.94128	0.69128	0.11744	-0.252
Mof_N 	N 	0.07602	0.82602	0.84796	-0.26
Mof_N 	N 	0.19128	0.44128	0.61744	-0.252
Mof_N 	N 	0.32602	0.57602	0.34796	-0.26
Mof_N 	N 	0.05872	0.30872	0.88256	-0.252
Mof_N 	N 	0.92398	0.17398	0.15204	-0.26
Mof_O 	O 	0.0186	0.35068	0.79178	-0.474
Mof_O 	O 	0.06135	0.39265	0.70698	-0.475
Mof_O 	O 	0.18962	0.35754	0.79178	-0.474
Mof_O 	O 	0.23167	0.40037	0.70698	-0.475
Mof_O 	O 	0.14932	0.4814	0.70822	-0.474
Mof_O 	O 	0.10735	0.43865	0.79302	-0.475
Mof_O 	O 	0.14246	0.31038	0.70822	-0.474
Mof_O 	O 	0.09963	0.26833	0.79302	-0.475
Mof_O 	O 	0.9814	0.64932	0.20822	-0.474
Mof_O 	O 	0.93865	0.60735	0.29302	-0.475
Mof_O 	O 	0.81038	0.64246	0.20822	-0.474
Mof_O 	O 	0.76833	0.59963	0.29302	-0.475
Mof_O 	O 	0.85068	0.5186	0.29178	-0.474
Mof_O 	O 	0.89265	0.56135	0.20698	-0.475
Mof_O 	O 	0.85754	0.68962	0.29178	-0.474
Mof_O 	O 	0.90037	0.73167	0.20698	-0.475
_end
