# CIF file generated by openbabel 3.1.0, see https://openbabel.org
data_I
_chemical_name_common 'COYTIU_clean'
_cell_length_a 12.134
_cell_length_b 12.391
_cell_length_c 12.72
_cell_angle_alpha 90
_cell_angle_beta 90
_cell_angle_gamma 114.777
_space_group_name_H-M_alt 'P 1'
_space_group_name_Hall 'P 1'
loop_
    _symmetry_equiv_pos_as_xyz
    x,y,z
loop_
    _atom_site_label
    _atom_site_type_symbol
    _atom_site_fract_x
    _atom_site_fract_y
    _atom_site_fract_z
    _atom_site_occupancy
    Ce1      Ce       0.54490    0.85365    0.54661    1.000
    Ce2      Ce       0.45510    0.64635    0.04661    1.000
    Ce3      Ce       0.45510    0.14635    0.45339    1.000
    Ce4      Ce       0.54490    0.35365    0.95339    1.000
    H1       H        0.62100    0.67300    0.72200    1.000
    H2       H        0.06790    0.75350    0.64540    1.000
    H3       H        0.20160    0.57440    0.83640    1.000
    H4       H        0.90540    0.67310    0.71630    1.000
    H5       H        0.02050    0.45150    0.86900    1.000
    H6       H        0.37900    0.82700    0.22200    1.000
    H7       H        0.93210    0.74650    0.14540    1.000
    H8       H        0.79840    0.92560    0.33640    1.000
    H9       H        0.09460    0.82690    0.21630    1.000
    H10      H        0.97950    0.04850    0.36900    1.000
    H11      H        0.37900    0.32700    0.27800    1.000
    H12      H        0.93210    0.24650    0.35460    1.000
    H13      H        0.79840    0.42560    0.16360    1.000
    H14      H        0.09460    0.32690    0.28370    1.000
    H15      H        0.97950    0.54850    0.13100    1.000
    H16      H        0.62100    0.17300    0.77800    1.000
    H17      H        0.06790    0.25350    0.85460    1.000
    H18      H        0.20160    0.07440    0.66360    1.000
    H19      H        0.90540    0.17310    0.78370    1.000
    H20      H        0.02050    0.95150    0.63100    1.000
    C1       C        0.27850    0.89430    0.55120    1.000
    C2       C        0.43490    0.67720    0.76750    1.000
    C3       C        0.66700    0.55630    0.76600    1.000
    C4       C        0.80180    0.30270    0.95400    1.000
    C5       C        0.24790    0.79480    0.62840    1.000
    C6       C        0.13220    0.73500    0.66920    1.000
    C7       C        0.11070    0.64740    0.74530    1.000
    C8       C        0.21050    0.62910    0.78120    1.000
    C9       C        0.32260    0.69210    0.73470    1.000
    C10      C        0.77490    0.53150    0.79070    1.000
    C11      C        0.89070    0.60430    0.75720    1.000
    C12      C        0.98580    0.57430    0.78480    1.000
    C13      C        0.95830    0.47440    0.84780    1.000
    C14      C        0.83880    0.40820    0.87970    1.000
    C15      C        0.72150    0.60570    0.05120    1.000
    C16      C        0.56510    0.82280    0.26750    1.000
    C17      C        0.33300    0.94370    0.26600    1.000
    C18      C        0.19820    0.19730    0.45400    1.000
    C19      C        0.75210    0.70520    0.12840    1.000
    C20      C        0.86780    0.76500    0.16920    1.000
    C21      C        0.88930    0.85260    0.24530    1.000
    C22      C        0.78950    0.87090    0.28120    1.000
    C23      C        0.67740    0.80790    0.23470    1.000
    C24      C        0.22510    0.96850    0.29070    1.000
    C25      C        0.10930    0.89570    0.25720    1.000
    C26      C        0.01420    0.92570    0.28480    1.000
    C27      C        0.04170    0.02560    0.34780    1.000
    C28      C        0.16120    0.09180    0.37970    1.000
    C29      C        0.72150    0.10570    0.44880    1.000
    C30      C        0.56510    0.32280    0.23250    1.000
    C31      C        0.33300    0.44370    0.23400    1.000
    C32      C        0.19820    0.69730    0.04600    1.000
    C33      C        0.75210    0.20520    0.37160    1.000
    C34      C        0.86780    0.26500    0.33080    1.000
    C35      C        0.88930    0.35260    0.25470    1.000
    C36      C        0.78950    0.37090    0.21880    1.000
    C37      C        0.67740    0.30790    0.26530    1.000
    C38      C        0.22510    0.46850    0.20930    1.000
    C39      C        0.10930    0.39570    0.24280    1.000
    C40      C        0.01420    0.42570    0.21520    1.000
    C41      C        0.04170    0.52560    0.15220    1.000
    C42      C        0.16120    0.59180    0.12030    1.000
    C43      C        0.27850    0.39430    0.94880    1.000
    C44      C        0.43490    0.17720    0.73250    1.000
    C45      C        0.66700    0.05630    0.73400    1.000
    C46      C        0.80180    0.80270    0.54600    1.000
    C47      C        0.24790    0.29480    0.87160    1.000
    C48      C        0.13220    0.23500    0.83080    1.000
    C49      C        0.11070    0.14740    0.75470    1.000
    C50      C        0.21050    0.12910    0.71880    1.000
    C51      C        0.32260    0.19210    0.76530    1.000
    C52      C        0.77490    0.03150    0.70930    1.000
    C53      C        0.89070    0.10430    0.74280    1.000
    C54      C        0.98580    0.07430    0.71520    1.000
    C55      C        0.95830    0.97440    0.65220    1.000
    C56      C        0.83880    0.90820    0.62030    1.000
    N1       N        0.34118    0.77060    0.65733    1.000
    N2       N        0.74833    0.43510    0.84981    1.000
    N3       N        0.65882    0.72940    0.15733    1.000
    N4       N        0.25167    0.06490    0.34981    1.000
    N5       N        0.65882    0.22940    0.34267    1.000
    N6       N        0.25167    0.56490    0.15019    1.000
    N7       N        0.34118    0.27060    0.84267    1.000
    N8       N        0.74833    0.93510    0.65019    1.000
    O1       O        0.38098    0.92562    0.50257    1.000
    O2       O        0.21048    0.94401    0.54093    1.000
    O3       O        0.52007    0.71271    0.69933    1.000
    O4       O        0.43818    0.63356    0.85340    1.000
    O5       O        0.56332    0.48081    0.78408    1.000
    O6       O        0.69464    0.66090    0.72780    1.000
    O7       O        0.69334    0.26386    0.98901    1.000
    O8       O        0.87807    0.26470    0.97429    1.000
    O9       O        0.61902    0.57438    0.00257    1.000
    O10      O        0.78952    0.55599    0.04093    1.000
    O11      O        0.47993    0.78729    0.19933    1.000
    O12      O        0.56182    0.86644    0.35340    1.000
    O13      O        0.43668    0.01919    0.28408    1.000
    O14      O        0.30536    0.83910    0.22780    1.000
    O15      O        0.30666    0.23614    0.48901    1.000
    O16      O        0.12193    0.23530    0.47429    1.000
    O17      O        0.61902    0.07438    0.49743    1.000
    O18      O        0.78952    0.05599    0.45907    1.000
    O19      O        0.47993    0.28729    0.30067    1.000
    O20      O        0.56182    0.36644    0.14660    1.000
    O21      O        0.43668    0.51919    0.21592    1.000
    O22      O        0.30536    0.33910    0.27220    1.000
    O23      O        0.30666    0.73614    0.01099    1.000
    O24      O        0.12193    0.73530    0.02571    1.000
    O25      O        0.38098    0.42562    0.99743    1.000
    O26      O        0.21048    0.44401    0.95907    1.000
    O27      O        0.52007    0.21271    0.80067    1.000
    O28      O        0.43818    0.13356    0.64660    1.000
    O29      O        0.56332    0.98081    0.71592    1.000
    O30      O        0.69464    0.16090    0.77220    1.000
    O31      O        0.69334    0.76386    0.51099    1.000
    O32      O        0.87807    0.76470    0.52571    1.000
