data_functionalizedCrystal
_audit_creation_method	'EQeq! by Chris Wilmer'
_symmetry_space_group_name_H-M	'P1'
_symmetry_Int_Tables_number	1
_symmetry_cell_setting	triclinic
loop_
_symmetry_equiv_pos_as_xyz
  x,y,z
_cell_length_a	22.505
_cell_length_b	22.505
_cell_length_c	7.3716
_cell_angle_alpha	90
_cell_angle_beta	90
_cell_angle_gamma	120
loop_
_atom_site_label
_atom_site_type_symbol
_atom_site_fract_x
_atom_site_fract_y
_atom_site_fract_z
_atom_site_charge
Mof_C 	C 	0.7883	0.1495	0.5212	-0.034
Mof_H 	H 	0.7572	0.1374	0.4224	0.032
Mof_C 	C 	0.7817	0.1579	0.7818	-0.032
Mof_H 	H 	0.7461	0.1513	0.8633	0.036
Mof_C 	C 	0.45497	0.48283	0.85453	-0.043
Mof_H 	H 	0.42387	0.47073	0.75573	0.039
Mof_C 	C 	0.44837	0.49123	0.11513	-0.049
Mof_H 	H 	0.41277	0.48463	0.19663	0.039
Mof_C 	C 	0.12163	0.81617	0.18787	-0.034
Mof_H 	H 	0.09053	0.80407	0.08907	0.028
Mof_C 	C 	0.11503	0.82457	0.44847	-0.032
Mof_H 	H 	0.07943	0.81797	0.52997	0.031
Mof_C 	C 	0.8505	0.6388	0.5212	-0.031
Mof_H 	H 	0.8626	0.6198	0.4224	0.036
Mof_C 	C 	0.8421	0.6238	0.7818	-0.029
Mof_H 	H 	0.8487	0.5948	0.8633	0.038
Mof_C 	C 	0.51717	0.97213	0.85453	0.024
Mof_H 	H 	0.52927	0.95313	0.75573	0.023
Mof_C 	C 	0.50877	0.95713	0.11513	0.021
Mof_H 	H 	0.51537	0.92813	0.19663	0.022
Mof_C 	C 	0.18383	0.30547	0.18787	-0.033
Mof_H 	H 	0.19593	0.28647	0.08907	0.032
Mof_C 	C 	0.17543	0.29047	0.44847	-0.03
Mof_H 	H 	0.18203	0.26147	0.52997	0.035
Mof_C 	C 	0.3612	0.2117	0.5212	-0.033
Mof_H 	H 	0.3802	0.2428	0.4224	0.033
Mof_C 	C 	0.3762	0.2183	0.7818	-0.03
Mof_H 	H 	0.4052	0.2539	0.8633	0.036
Mof_C 	C 	0.02787	0.54503	0.85453	-0.106
Mof_H 	H 	0.04687	0.57613	0.75573	0.052
Mof_C 	C 	0.04287	0.55163	0.11513	-0.109
Mof_H 	H 	0.07187	0.58723	0.19663	0.054
Mof_C 	C 	0.69453	0.87837	0.18787	-0.032
Mof_H 	H 	0.71353	0.90947	0.08907	0.037
Mof_C 	C 	0.70953	0.88497	0.44847	-0.03
Mof_H 	H 	0.73853	0.92057	0.52997	0.041
Mof_C 	C 	0.1495	0.7883	0.4788	-0.035
Mof_H 	H 	0.1374	0.7572	0.5776	0.033
Mof_C 	C 	0.1579	0.7817	0.2182	-0.033
Mof_H 	H 	0.1513	0.7461	0.1367	0.032
Mof_C 	C 	0.81617	0.12163	0.81213	-0.034
Mof_H 	H 	0.80407	0.09053	0.91093	0.032
Mof_C 	C 	0.82457	0.11503	0.55153	-0.032
Mof_H 	H 	0.81797	0.07943	0.47003	0.029
Mof_C 	C 	0.48283	0.45497	0.14547	-0.022
Mof_H 	H 	0.47073	0.42387	0.24427	0.03
Mof_C 	C 	0.49123	0.44837	0.88487	-0.013
Mof_H 	H 	0.48463	0.41277	0.80337	0.03
Mof_C 	C 	0.6388	0.8505	0.4788	-0.031
Mof_H 	H 	0.6198	0.8626	0.5776	0.038
Mof_C 	C 	0.6238	0.8421	0.2182	-0.029
Mof_H 	H 	0.5948	0.8487	0.1367	0.035
Mof_C 	C 	0.30547	0.18383	0.81213	-0.032
Mof_H 	H 	0.28647	0.19593	0.91093	0.036
Mof_C 	C 	0.29047	0.17543	0.55153	-0.03
Mof_H 	H 	0.26147	0.18203	0.47003	0.034
Mof_C 	C 	0.97213	0.51717	0.14547	0.04
Mof_H 	H 	0.95313	0.52927	0.24427	0.016
Mof_C 	C 	0.95713	0.50877	0.88487	0.048
Mof_H 	H 	0.92813	0.51537	0.80337	0.016
Mof_C 	C 	0.2117	0.3612	0.4788	-0.033
Mof_H 	H 	0.2428	0.3802	0.5776	0.035
Mof_C 	C 	0.2183	0.3762	0.2182	-0.031
Mof_H 	H 	0.2539	0.4052	0.1367	0.033
Mof_C 	C 	0.87837	0.69453	0.81213	-0.032
Mof_H 	H 	0.90947	0.71353	0.91093	0.041
Mof_C 	C 	0.88497	0.70953	0.55153	-0.03
Mof_H 	H 	0.92057	0.73853	0.47003	0.04
Mof_C 	C 	0.54503	0.02787	0.14547	-0.091
Mof_H 	H 	0.57613	0.04687	0.24427	0.046
Mof_C 	C 	0.55163	0.04287	0.88487	-0.081
Mof_H 	H 	0.58723	0.07187	0.80337	0.047
Mof_C 	C 	0.2117	0.8505	0.4788	-0.031
Mof_H 	H 	0.2428	0.8626	0.5776	0.038
Mof_C 	C 	0.2183	0.8421	0.2182	-0.028
Mof_H 	H 	0.2539	0.8487	0.1367	0.035
Mof_C 	C 	0.87837	0.18383	0.81213	-0.031
Mof_H 	H 	0.90947	0.19593	0.91093	0.041
Mof_C 	C 	0.88497	0.17543	0.55153	-0.03
Mof_H 	H 	0.92057	0.18203	0.47003	0.04
Mof_C 	C 	0.54503	0.51717	0.14547	-0.022
Mof_H 	H 	0.57613	0.52927	0.24427	0.03
Mof_C 	C 	0.55163	0.50877	0.88487	-0.013
Mof_H 	H 	0.58723	0.51537	0.80337	0.03
Mof_C 	C 	0.1495	0.3612	0.4788	-0.035
Mof_H 	H 	0.1374	0.3802	0.5776	0.033
Mof_C 	C 	0.1579	0.3762	0.2182	-0.033
Mof_H 	H 	0.1513	0.4052	0.1367	0.032
Mof_C 	C 	0.81617	0.69453	0.81213	-0.033
Mof_H 	H 	0.80407	0.71353	0.91093	0.037
Mof_C 	C 	0.82457	0.70953	0.55153	-0.031
Mof_H 	H 	0.81797	0.73853	0.47003	0.035
Mof_C 	C 	0.48283	0.02787	0.14547	-0.092
Mof_H 	H 	0.47073	0.04687	0.24427	0.046
Mof_C 	C 	0.49123	0.04287	0.88487	-0.081
Mof_H 	H 	0.48463	0.07187	0.80337	0.047
Mof_C 	C 	0.6388	0.7883	0.4788	-0.033
Mof_H 	H 	0.6198	0.7572	0.5776	0.035
Mof_C 	C 	0.6238	0.7817	0.2182	-0.031
Mof_H 	H 	0.5948	0.7461	0.1367	0.033
Mof_C 	C 	0.30547	0.12163	0.81213	-0.034
Mof_H 	H 	0.28647	0.09053	0.91093	0.032
Mof_C 	C 	0.29047	0.11503	0.55153	-0.032
Mof_H 	H 	0.26147	0.07943	0.47003	0.028
Mof_C 	C 	0.97213	0.45497	0.14547	0.041
Mof_H 	H 	0.95313	0.42387	0.24427	0.016
Mof_C 	C 	0.95713	0.44837	0.88487	0.048
Mof_H 	H 	0.92813	0.41277	0.80337	0.015
Mof_C 	C 	0.8505	0.2117	0.5212	-0.031
Mof_H 	H 	0.8626	0.2428	0.4224	0.035
Mof_C 	C 	0.8421	0.2183	0.7818	-0.028
Mof_H 	H 	0.8487	0.2539	0.8633	0.038
Mof_C 	C 	0.51717	0.54503	0.85453	-0.044
Mof_H 	H 	0.52927	0.57613	0.75573	0.039
Mof_C 	C 	0.50877	0.55163	0.11513	-0.048
Mof_H 	H 	0.51537	0.58723	0.19663	0.039
Mof_C 	C 	0.18383	0.87837	0.18787	-0.032
Mof_H 	H 	0.19593	0.90947	0.08907	0.037
Mof_C 	C 	0.17543	0.88497	0.44847	-0.03
Mof_H 	H 	0.18203	0.92057	0.52997	0.042
Mof_C 	C 	0.3612	0.1495	0.5212	-0.035
Mof_H 	H 	0.3802	0.1374	0.4224	0.031
Mof_C 	C 	0.3762	0.1579	0.7818	-0.033
Mof_H 	H 	0.4052	0.1513	0.8633	0.035
Mof_C 	C 	0.02787	0.48283	0.85453	-0.106
Mof_H 	H 	0.04687	0.47073	0.75573	0.053
Mof_C 	C 	0.04287	0.49123	0.11513	-0.11
Mof_H 	H 	0.07187	0.48463	0.19663	0.054
Mof_C 	C 	0.69453	0.81617	0.18787	-0.034
Mof_H 	H 	0.71353	0.80407	0.08907	0.033
Mof_C 	C 	0.70953	0.82457	0.44847	-0.031
Mof_H 	H 	0.73853	0.81797	0.52997	0.036
Mof_C 	C 	0.7883	0.6388	0.5212	-0.033
Mof_H 	H 	0.7572	0.6198	0.4224	0.034
Mof_C 	C 	0.7817	0.6238	0.7818	-0.031
Mof_H 	H 	0.7461	0.5948	0.8633	0.037
Mof_C 	C 	0.45497	0.97213	0.85453	0.025
Mof_H 	H 	0.42387	0.95313	0.75573	0.023
Mof_C 	C 	0.44837	0.95713	0.11513	0.022
Mof_H 	H 	0.41277	0.92813	0.19663	0.022
Mof_C 	C 	0.12163	0.30547	0.18787	-0.034
Mof_H 	H 	0.09053	0.28647	0.08907	0.027
Mof_C 	C 	0.11503	0.29047	0.44847	-0.031
Mof_H 	H 	0.07943	0.26147	0.52997	0.03
Mof_Fe	Fe	0.66667	0.33333	0.33333	0.647
Mof_Fe	Fe	0.33333	0.66667	0.66667	0.651
Mof_Fe	Fe	-0	0	-0	0.56
Mof_Fe	Fe	0.66667	0.33333	0.83333	0.742
Mof_Fe	Fe	0.33333	0.66667	0.16667	0.739
Mof_Fe	Fe	-0	0	0.5	0.657
Mof_N 	N 	0.74307	0.25693	0.4574	-0.164
Mof_N 	N 	0.71004	0.28996	0.5049	-0.106
Mof_N 	N 	0.70802	0.29198	0.6846	-0.124
Mof_N 	N 	0.73923	0.26077	0.7573	-0.162
Mof_C 	C 	0.79802	0.20198	0.6384	-0.017
Mof_C 	C 	0.76072	0.23928	0.614	0.123
Mof_N 	N 	0.40974	0.59026	0.79073	-0.163
Mof_N 	N 	0.37671	0.62329	0.83823	-0.102
Mof_N 	N 	0.37469	0.62531	0.01793	-0.128
Mof_N 	N 	0.4059	0.5941	0.09063	-0.165
Mof_C 	C 	0.46469	0.53531	0.97173	0.011
Mof_C 	C 	0.42739	0.57261	0.94733	0.122
Mof_N 	N 	0.0764	0.9236	0.12407	-0.164
Mof_N 	N 	0.04338	0.95662	0.17157	-0.095
Mof_N 	N 	0.04135	0.95865	0.35127	-0.111
Mof_N 	N 	0.07257	0.92743	0.42397	-0.162
Mof_C 	C 	0.13135	0.86865	0.30507	-0.017
Mof_C 	C 	0.09405	0.90595	0.28067	0.122
Mof_N 	N 	0.74307	0.48614	0.4574	-0.164
Mof_N 	N 	0.71004	0.42009	0.5049	-0.106
Mof_N 	N 	0.70802	0.41604	0.6846	-0.124
Mof_N 	N 	0.73923	0.47847	0.7573	-0.162
Mof_C 	C 	0.79802	0.59604	0.6384	-0.017
Mof_C 	C 	0.76072	0.52144	0.614	0.124
Mof_N 	N 	0.40974	0.81947	0.79073	-0.17
Mof_N 	N 	0.37671	0.75342	0.83823	-0.102
Mof_N 	N 	0.37469	0.74937	0.01793	-0.127
Mof_N 	N 	0.4059	0.8118	0.09063	-0.172
Mof_C 	C 	0.46469	0.92937	0.97173	-0.084
Mof_C 	C 	0.42739	0.85477	0.94733	0.154
Mof_N 	N 	0.0764	0.15281	0.12407	-0.165
Mof_N 	N 	0.04338	0.08676	0.17157	-0.109
Mof_N 	N 	0.04135	0.08271	0.35127	-0.125
Mof_N 	N 	0.07257	0.14514	0.42397	-0.163
Mof_C 	C 	0.13135	0.26271	0.30507	-0.018
Mof_C 	C 	0.09405	0.18811	0.28067	0.117
Mof_N 	N 	0.51386	0.25693	0.4574	-0.164
Mof_N 	N 	0.57991	0.28996	0.5049	-0.106
Mof_N 	N 	0.58396	0.29198	0.6846	-0.124
Mof_N 	N 	0.52153	0.26077	0.7573	-0.162
Mof_C 	C 	0.40396	0.20198	0.6384	-0.016
Mof_C 	C 	0.47856	0.23928	0.614	0.121
Mof_N 	N 	0.18053	0.59026	0.79073	-0.157
Mof_N 	N 	0.24658	0.62329	0.83823	-0.102
Mof_N 	N 	0.25063	0.62531	0.01793	-0.128
Mof_N 	N 	0.1882	0.5941	0.09063	-0.158
Mof_C 	C 	0.07063	0.53531	0.97173	0.094
Mof_C 	C 	0.14523	0.57261	0.94733	0.093
Mof_N 	N 	0.84719	0.9236	0.12407	-0.164
Mof_N 	N 	0.91324	0.95662	0.17157	-0.085
Mof_N 	N 	0.91729	0.95865	0.35127	-0.1
Mof_N 	N 	0.85486	0.92743	0.42397	-0.162
Mof_C 	C 	0.73729	0.86865	0.30507	-0.016
Mof_C 	C 	0.81189	0.90595	0.28067	0.126
Mof_N 	N 	0.25693	0.74307	0.5426	-0.164
Mof_N 	N 	0.28996	0.71004	0.4951	-0.106
Mof_N 	N 	0.29198	0.70802	0.3154	-0.124
Mof_N 	N 	0.26077	0.73923	0.2427	-0.162
Mof_C 	C 	0.20198	0.79802	0.3616	-0.017
Mof_C 	C 	0.23928	0.76072	0.386	0.122
Mof_N 	N 	0.9236	0.0764	0.87593	-0.164
Mof_N 	N 	0.95662	0.04338	0.82843	-0.092
Mof_N 	N 	0.95865	0.04135	0.64873	-0.112
Mof_N 	N 	0.92743	0.07257	0.57603	-0.162
Mof_C 	C 	0.86865	0.13135	0.69493	-0.017
Mof_C 	C 	0.90595	0.09405	0.71933	0.124
Mof_N 	N 	0.59026	0.40974	0.20927	-0.165
Mof_N 	N 	0.62329	0.37671	0.16177	-0.11
Mof_N 	N 	0.62531	0.37469	0.98207	-0.12
Mof_N 	N 	0.5941	0.4059	0.90937	-0.159
Mof_C 	C 	0.53531	0.46469	0.02827	-0.045
Mof_C 	C 	0.57261	0.42739	0.05267	0.122
Mof_N 	N 	0.48614	0.74307	0.5426	-0.164
Mof_N 	N 	0.42009	0.71004	0.4951	-0.106
Mof_N 	N 	0.41604	0.70802	0.3154	-0.124
Mof_N 	N 	0.47847	0.73923	0.2427	-0.162
Mof_C 	C 	0.59604	0.79802	0.3616	-0.017
Mof_C 	C 	0.52144	0.76072	0.386	0.123
Mof_N 	N 	0.15281	0.0764	0.87593	-0.165
Mof_N 	N 	0.08676	0.04338	0.82843	-0.104
Mof_N 	N 	0.08271	0.04135	0.64873	-0.125
Mof_N 	N 	0.14514	0.07257	0.57603	-0.163
Mof_C 	C 	0.26271	0.13135	0.69493	-0.017
Mof_C 	C 	0.18811	0.09405	0.71933	0.119
Mof_N 	N 	0.81947	0.40974	0.20927	-0.171
Mof_N 	N 	0.75342	0.37671	0.16177	-0.11
Mof_N 	N 	0.74937	0.37469	0.98207	-0.12
Mof_N 	N 	0.8118	0.4059	0.90937	-0.165
Mof_C 	C 	0.92937	0.46469	0.02827	-0.128
Mof_C 	C 	0.85477	0.42739	0.05267	0.15
Mof_N 	N 	0.25693	0.51386	0.5426	-0.164
Mof_N 	N 	0.28996	0.57991	0.4951	-0.106
Mof_N 	N 	0.29198	0.58396	0.3154	-0.124
Mof_N 	N 	0.26077	0.52153	0.2427	-0.162
Mof_C 	C 	0.20198	0.40396	0.3616	-0.016
Mof_C 	C 	0.23928	0.47856	0.386	0.121
Mof_N 	N 	0.9236	0.84719	0.87593	-0.163
Mof_N 	N 	0.95662	0.91324	0.82843	-0.081
Mof_N 	N 	0.95865	0.91729	0.64873	-0.1
Mof_N 	N 	0.92743	0.85486	0.57603	-0.162
Mof_C 	C 	0.86865	0.73729	0.69493	-0.016
Mof_C 	C 	0.90595	0.81189	0.71933	0.128
Mof_N 	N 	0.59026	0.18053	0.20927	-0.158
Mof_N 	N 	0.62329	0.24658	0.16177	-0.11
Mof_N 	N 	0.62531	0.25063	0.98207	-0.12
Mof_N 	N 	0.5941	0.1882	0.90937	-0.151
Mof_C 	C 	0.53531	0.07063	0.02827	0.048
Mof_C 	C 	0.57261	0.14523	0.05267	0.089
Mof_H 	H 	0.08515	0.1703	0.0123	0.096
Mof_H 	H 	0.07805	0.1561	0.5413	0.104
Mof_H 	H 	0.75182	0.50363	0.34563	0.101
Mof_H 	H 	0.74472	0.48943	0.87463	0.108
Mof_H 	H 	0.41848	0.83697	0.67897	0.106
Mof_H 	H 	0.41138	0.82277	0.20797	0.109
Mof_H 	H 	0.8297	0.91485	0.0123	0.105
Mof_H 	H 	0.8439	0.92195	0.5413	0.114
Mof_H 	H 	0.49637	0.24818	0.34563	0.1
Mof_H 	H 	0.51057	0.25528	0.87463	0.108
Mof_H 	H 	0.16303	0.58152	0.67897	0.098
Mof_H 	H 	0.17723	0.58862	0.20797	0.102
Mof_H 	H 	0.08515	0.91485	0.0123	0.102
Mof_H 	H 	0.07805	0.92195	0.5413	0.11
Mof_H 	H 	0.75182	0.24818	0.34563	0.101
Mof_H 	H 	0.74472	0.25528	0.87463	0.108
Mof_H 	H 	0.41848	0.58152	0.67897	0.102
Mof_H 	H 	0.41138	0.58862	0.20797	0.106
Mof_H 	H 	0.1703	0.08515	0.9877	0.103
Mof_H 	H 	0.1561	0.07805	0.4587	0.102
Mof_H 	H 	0.83697	0.41848	0.32103	0.106
Mof_H 	H 	0.82277	0.41138	0.79203	0.109
Mof_H 	H 	0.50363	0.75182	0.65437	0.104
Mof_H 	H 	0.48943	0.74472	0.12537	0.104
Mof_H 	H 	0.91485	0.8297	0.9877	0.112
Mof_H 	H 	0.92195	0.8439	0.4587	0.112
Mof_H 	H 	0.58152	0.16303	0.32103	0.098
Mof_H 	H 	0.58862	0.17723	0.79203	0.102
Mof_H 	H 	0.24818	0.49637	0.65437	0.103
Mof_H 	H 	0.25528	0.51057	0.12537	0.104
Mof_H 	H 	0.91485	0.08515	0.9877	0.108
Mof_H 	H 	0.92195	0.07805	0.4587	0.107
Mof_H 	H 	0.58152	0.41848	0.32103	0.102
Mof_H 	H 	0.58862	0.41138	0.79203	0.106
Mof_H 	H 	0.24818	0.75182	0.65437	0.103
Mof_H 	H 	0.25528	0.74472	0.12537	0.104
_end
