# CIF file generated by openbabel 3.1.0, see https://openbabel.org
data_I
_chemical_name_common 'image0'
_cell_length_a 22.3051
_cell_length_b 22.3051
_cell_length_c 22.3051
_cell_angle_alpha 90
_cell_angle_beta 90
_cell_angle_gamma 90
_space_group_name_H-M_alt 'P 1'
_space_group_name_Hall 'P 1'
loop_
    _symmetry_equiv_pos_as_xyz
    x,y,z
loop_
    _atom_site_label
    _atom_site_type_symbol
    _atom_site_fract_x
    _atom_site_fract_y
    _atom_site_fract_z
    _atom_site_occupancy
    Mg1      Mg       0.17677    0.24063    0.69084    1.000
    C1       C        0.33257    0.21600    0.45670    1.000
    C2       C        0.29916    0.21589    0.51022    1.000
    H1       H        0.25770    0.21980    0.50840    1.000
    C3       C        0.32650    0.21016    0.56518    1.000
    C4       C        0.38891    0.20720    0.56662    1.000
    H2       H        0.40850    0.20280    0.60320    1.000
    C5       C        0.42166    0.21070    0.51519    1.000
    C6       C        0.39375    0.21230    0.46057    1.000
    H3       H        0.41660    0.21090    0.42570    1.000
    C7       C        0.29250    0.20881    0.62296    1.000
    C8       C        0.30308    0.22155    0.39515    1.000
    O1       O        0.25019    0.23938    0.39344    1.000
    O2       O        0.33595    0.20750    0.35191    1.000
    O3       O        0.32253    0.19417    0.66920    1.000
    O4       O        0.23830    0.22319    0.62159    1.000
    N1       N        0.48647    0.20650    0.52248    1.000
    Mg2      Mg       0.82323    0.75937    0.69084    1.000
    C9       C        0.66743    0.78400    0.45670    1.000
    C10      C        0.70084    0.78411    0.51022    1.000
    H4       H        0.74230    0.78020    0.50840    1.000
    C11      C        0.67350    0.78984    0.56518    1.000
    C12      C        0.61109    0.79280    0.56662    1.000
    H5       H        0.59150    0.79720    0.60320    1.000
    C13      C        0.57834    0.78930    0.51519    1.000
    C14      C        0.60625    0.78770    0.46057    1.000
    H6       H        0.58340    0.78910    0.42570    1.000
    C15      C        0.70750    0.79119    0.62296    1.000
    C16      C        0.69692    0.77845    0.39515    1.000
    O5       O        0.74981    0.76062    0.39344    1.000
    O6       O        0.66405    0.79250    0.35191    1.000
    O7       O        0.67747    0.80583    0.66920    1.000
    O8       O        0.76170    0.77681    0.62159    1.000
    N2       N        0.51353    0.79350    0.52248    1.000
    Mg3      Mg       0.82323    0.24063    0.30916    1.000
    C17      C        0.66743    0.21600    0.54330    1.000
    C18      C        0.70084    0.21589    0.48978    1.000
    H7       H        0.74230    0.21980    0.49160    1.000
    C19      C        0.67350    0.21016    0.43482    1.000
    C20      C        0.61109    0.20720    0.43338    1.000
    H8       H        0.59150    0.20280    0.39680    1.000
    C21      C        0.57834    0.21070    0.48481    1.000
    C22      C        0.60625    0.21230    0.53943    1.000
    H9       H        0.58340    0.21090    0.57430    1.000
    C23      C        0.70750    0.20881    0.37704    1.000
    C24      C        0.69692    0.22155    0.60485    1.000
    O9       O        0.74981    0.23938    0.60656    1.000
    O10      O        0.66405    0.20750    0.64809    1.000
    O11      O        0.67747    0.19417    0.33080    1.000
    O12      O        0.76170    0.22319    0.37841    1.000
    N3       N        0.51353    0.20650    0.47752    1.000
    Mg4      Mg       0.17677    0.75937    0.30916    1.000
    C25      C        0.33257    0.78400    0.54330    1.000
    C26      C        0.29916    0.78411    0.48978    1.000
    H10      H        0.25770    0.78020    0.49160    1.000
    C27      C        0.32650    0.78984    0.43482    1.000
    C28      C        0.38891    0.79280    0.43338    1.000
    H11      H        0.40850    0.79720    0.39680    1.000
    C29      C        0.42166    0.78930    0.48481    1.000
    C30      C        0.39375    0.78770    0.53943    1.000
    H12      H        0.41660    0.78910    0.57430    1.000
    C31      C        0.29250    0.79119    0.37704    1.000
    C32      C        0.30308    0.77845    0.60485    1.000
    O13      O        0.25019    0.76062    0.60656    1.000
    O14      O        0.33595    0.79250    0.64809    1.000
    O15      O        0.32253    0.80583    0.33080    1.000
    O16      O        0.23830    0.77681    0.37841    1.000
    N4       N        0.48647    0.79350    0.47752    1.000
    Mg5      Mg       0.69084    0.17677    0.24063    1.000
    C33      C        0.45670    0.33257    0.21600    1.000
    C34      C        0.51022    0.29916    0.21589    1.000
    H13      H        0.50840    0.25770    0.21980    1.000
    C35      C        0.56518    0.32650    0.21016    1.000
    C36      C        0.56662    0.38891    0.20720    1.000
    H14      H        0.60320    0.40850    0.20280    1.000
    C37      C        0.51519    0.42166    0.21070    1.000
    C38      C        0.46057    0.39375    0.21230    1.000
    H15      H        0.42570    0.41660    0.21090    1.000
    C39      C        0.62296    0.29250    0.20881    1.000
    C40      C        0.39515    0.30308    0.22155    1.000
    O17      O        0.39344    0.25019    0.23938    1.000
    O18      O        0.35191    0.33595    0.20750    1.000
    O19      O        0.66920    0.32253    0.19417    1.000
    O20      O        0.62159    0.23830    0.22319    1.000
    N5       N        0.52248    0.48647    0.20650    1.000
    Mg6      Mg       0.69084    0.82323    0.75937    1.000
    C41      C        0.45670    0.66743    0.78400    1.000
    C42      C        0.51022    0.70084    0.78411    1.000
    H16      H        0.50840    0.74230    0.78020    1.000
    C43      C        0.56518    0.67350    0.78984    1.000
    C44      C        0.56662    0.61109    0.79280    1.000
    H17      H        0.60320    0.59150    0.79720    1.000
    C45      C        0.51519    0.57834    0.78930    1.000
    C46      C        0.46057    0.60625    0.78770    1.000
    H18      H        0.42570    0.58340    0.78910    1.000
    C47      C        0.62296    0.70750    0.79119    1.000
    C48      C        0.39515    0.69692    0.77845    1.000
    O21      O        0.39344    0.74981    0.76062    1.000
    O22      O        0.35191    0.66405    0.79250    1.000
    O23      O        0.66920    0.67747    0.80583    1.000
    O24      O        0.62159    0.76170    0.77681    1.000
    N6       N        0.52248    0.51353    0.79350    1.000
    Mg7      Mg       0.30916    0.82323    0.24063    1.000
    C49      C        0.54330    0.66743    0.21600    1.000
    C50      C        0.48978    0.70084    0.21589    1.000
    H19      H        0.49160    0.74230    0.21980    1.000
    C51      C        0.43482    0.67350    0.21016    1.000
    C52      C        0.43338    0.61109    0.20720    1.000
    H20      H        0.39680    0.59150    0.20280    1.000
    C53      C        0.48481    0.57834    0.21070    1.000
    C54      C        0.53943    0.60625    0.21230    1.000
    H21      H        0.57430    0.58340    0.21090    1.000
    C55      C        0.37704    0.70750    0.20881    1.000
    C56      C        0.60485    0.69692    0.22155    1.000
    O25      O        0.60656    0.74981    0.23938    1.000
    O26      O        0.64809    0.66405    0.20750    1.000
    O27      O        0.33080    0.67747    0.19417    1.000
    O28      O        0.37841    0.76170    0.22319    1.000
    N7       N        0.47752    0.51353    0.20650    1.000
    Mg8      Mg       0.30916    0.17677    0.75937    1.000
    C57      C        0.54330    0.33257    0.78400    1.000
    C58      C        0.48978    0.29916    0.78411    1.000
    H22      H        0.49160    0.25770    0.78020    1.000
    C59      C        0.43482    0.32650    0.78984    1.000
    C60      C        0.43338    0.38891    0.79280    1.000
    H23      H        0.39680    0.40850    0.79720    1.000
    C61      C        0.48481    0.42166    0.78930    1.000
    C62      C        0.53943    0.39375    0.78770    1.000
    H24      H        0.57430    0.41660    0.78910    1.000
    C63      C        0.37704    0.29250    0.79119    1.000
    C64      C        0.60485    0.30308    0.77845    1.000
    O29      O        0.60656    0.25019    0.76062    1.000
    O30      O        0.64809    0.33595    0.79250    1.000
    O31      O        0.33080    0.32253    0.80583    1.000
    O32      O        0.37841    0.23830    0.77681    1.000
    N8       N        0.47752    0.48647    0.79350    1.000
    Mg9      Mg       0.24063    0.69084    0.17677    1.000
    C65      C        0.21600    0.45670    0.33257    1.000
    C66      C        0.21589    0.51022    0.29916    1.000
    H25      H        0.21980    0.50840    0.25770    1.000
    C67      C        0.21016    0.56518    0.32650    1.000
    C68      C        0.20720    0.56662    0.38891    1.000
    H26      H        0.20280    0.60320    0.40850    1.000
    C69      C        0.21070    0.51519    0.42166    1.000
    C70      C        0.21230    0.46057    0.39375    1.000
    H27      H        0.21090    0.42570    0.41660    1.000
    C71      C        0.20881    0.62296    0.29250    1.000
    C72      C        0.22155    0.39515    0.30308    1.000
    O33      O        0.23938    0.39344    0.25019    1.000
    O34      O        0.20750    0.35191    0.33595    1.000
    O35      O        0.19417    0.66920    0.32253    1.000
    O36      O        0.22319    0.62159    0.23830    1.000
    N9       N        0.20650    0.52248    0.48647    1.000
    Mg10     Mg       0.75937    0.69084    0.82323    1.000
    C73      C        0.78400    0.45670    0.66743    1.000
    C74      C        0.78411    0.51022    0.70084    1.000
    H28      H        0.78020    0.50840    0.74230    1.000
    C75      C        0.78984    0.56518    0.67350    1.000
    C76      C        0.79280    0.56662    0.61109    1.000
    H29      H        0.79720    0.60320    0.59150    1.000
    C77      C        0.78930    0.51519    0.57834    1.000
    C78      C        0.78770    0.46057    0.60625    1.000
    H30      H        0.78910    0.42570    0.58340    1.000
    C79      C        0.79119    0.62296    0.70750    1.000
    C80      C        0.77845    0.39515    0.69692    1.000
    O37      O        0.76062    0.39344    0.74981    1.000
    O38      O        0.79250    0.35191    0.66405    1.000
    O39      O        0.80583    0.66920    0.67747    1.000
    O40      O        0.77681    0.62159    0.76170    1.000
    N10      N        0.79350    0.52248    0.51353    1.000
    Mg11     Mg       0.24063    0.30916    0.82323    1.000
    C81      C        0.21600    0.54330    0.66743    1.000
    C82      C        0.21589    0.48978    0.70084    1.000
    H31      H        0.21980    0.49160    0.74230    1.000
    C83      C        0.21016    0.43482    0.67350    1.000
    C84      C        0.20720    0.43338    0.61109    1.000
    H32      H        0.20280    0.39680    0.59150    1.000
    C85      C        0.21070    0.48481    0.57834    1.000
    C86      C        0.21230    0.53943    0.60625    1.000
    H33      H        0.21090    0.57430    0.58340    1.000
    C87      C        0.20881    0.37704    0.70750    1.000
    C88      C        0.22155    0.60485    0.69692    1.000
    O41      O        0.23938    0.60656    0.74981    1.000
    O42      O        0.20750    0.64809    0.66405    1.000
    O43      O        0.19417    0.33080    0.67747    1.000
    O44      O        0.22319    0.37841    0.76170    1.000
    N11      N        0.20650    0.47752    0.51353    1.000
    Mg12     Mg       0.75937    0.30916    0.17677    1.000
    C89      C        0.78400    0.54330    0.33257    1.000
    C90      C        0.78411    0.48978    0.29916    1.000
    H34      H        0.78020    0.49160    0.25770    1.000
    C91      C        0.78984    0.43482    0.32650    1.000
    C92      C        0.79280    0.43338    0.38891    1.000
    H35      H        0.79720    0.39680    0.40850    1.000
    C93      C        0.78930    0.48481    0.42166    1.000
    C94      C        0.78770    0.53943    0.39375    1.000
    H36      H        0.78910    0.57430    0.41660    1.000
    C95      C        0.79119    0.37704    0.29250    1.000
    C96      C        0.77845    0.60485    0.30308    1.000
    O45      O        0.76062    0.60656    0.25019    1.000
    O46      O        0.79250    0.64809    0.33595    1.000
    O47      O        0.80583    0.33080    0.32253    1.000
    O48      O        0.77681    0.37841    0.23830    1.000
    N12      N        0.79350    0.47752    0.48647    1.000
    Mg13     Mg       0.74063    0.67677    0.19084    1.000
    C97      C        0.71600    0.83257    0.95670    1.000
    C98      C        0.71589    0.79916    0.01022    1.000
    H37      H        0.71980    0.75770    0.00840    1.000
    C99      C        0.71016    0.82650    0.06518    1.000
    C100     C        0.70720    0.88891    0.06662    1.000
    H38      H        0.70280    0.90850    0.10320    1.000
    C101     C        0.71070    0.92166    0.01519    1.000
    C102     C        0.71230    0.89375    0.96057    1.000
    H39      H        0.71090    0.91660    0.92570    1.000
    C103     C        0.70881    0.79250    0.12296    1.000
    C104     C        0.72155    0.80308    0.89515    1.000
    O49      O        0.73938    0.75019    0.89344    1.000
    O50      O        0.70750    0.83595    0.85191    1.000
    O51      O        0.69417    0.82253    0.16920    1.000
    O52      O        0.72319    0.73830    0.12159    1.000
    N13      N        0.70650    0.98647    0.02248    1.000
    Mg14     Mg       0.25937    0.32323    0.19084    1.000
    C105     C        0.28400    0.16743    0.95670    1.000
    C106     C        0.28411    0.20084    0.01022    1.000
    H40      H        0.28020    0.24230    0.00840    1.000
    C107     C        0.28984    0.17350    0.06518    1.000
    C108     C        0.29280    0.11109    0.06662    1.000
    H41      H        0.29720    0.09150    0.10320    1.000
    C109     C        0.28930    0.07834    0.01519    1.000
    C110     C        0.28770    0.10625    0.96057    1.000
    H42      H        0.28910    0.08340    0.92570    1.000
    C111     C        0.29119    0.20750    0.12296    1.000
    C112     C        0.27845    0.19692    0.89515    1.000
    O53      O        0.26062    0.24981    0.89344    1.000
    O54      O        0.29250    0.16405    0.85191    1.000
    O55      O        0.30583    0.17747    0.16920    1.000
    O56      O        0.27681    0.26170    0.12159    1.000
    N14      N        0.29350    0.01353    0.02248    1.000
    Mg15     Mg       0.74063    0.32323    0.80916    1.000
    C113     C        0.71600    0.16743    0.04330    1.000
    C114     C        0.71589    0.20084    0.98978    1.000
    H43      H        0.71980    0.24230    0.99160    1.000
    C115     C        0.71016    0.17350    0.93482    1.000
    C116     C        0.70720    0.11109    0.93338    1.000
    H44      H        0.70280    0.09150    0.89680    1.000
    C117     C        0.71070    0.07834    0.98481    1.000
    C118     C        0.71230    0.10625    0.03943    1.000
    H45      H        0.71090    0.08340    0.07430    1.000
    C119     C        0.70881    0.20750    0.87704    1.000
    C120     C        0.72155    0.19692    0.10485    1.000
    O57      O        0.73938    0.24981    0.10656    1.000
    O58      O        0.70750    0.16405    0.14809    1.000
    O59      O        0.69417    0.17747    0.83080    1.000
    O60      O        0.72319    0.26170    0.87841    1.000
    N15      N        0.70650    0.01353    0.97752    1.000
    Mg16     Mg       0.25937    0.67677    0.80916    1.000
    C121     C        0.28400    0.83257    0.04330    1.000
    C122     C        0.28411    0.79916    0.98978    1.000
    H46      H        0.28020    0.75770    0.99160    1.000
    C123     C        0.28984    0.82650    0.93482    1.000
    C124     C        0.29280    0.88891    0.93338    1.000
    H47      H        0.29720    0.90850    0.89680    1.000
    C125     C        0.28930    0.92166    0.98481    1.000
    C126     C        0.28770    0.89375    0.03943    1.000
    H48      H        0.28910    0.91660    0.07430    1.000
    C127     C        0.29119    0.79250    0.87704    1.000
    C128     C        0.27845    0.80308    0.10485    1.000
    O61      O        0.26062    0.75019    0.10656    1.000
    O62      O        0.29250    0.83595    0.14809    1.000
    O63      O        0.30583    0.82253    0.83080    1.000
    O64      O        0.27681    0.73830    0.87841    1.000
    N16      N        0.29350    0.98647    0.97752    1.000
    Mg17     Mg       0.67677    0.19084    0.74063    1.000
    C129     C        0.83257    0.95670    0.71600    1.000
    C130     C        0.79916    0.01022    0.71589    1.000
    H49      H        0.75770    0.00840    0.71980    1.000
    C131     C        0.82650    0.06518    0.71016    1.000
    C132     C        0.88891    0.06662    0.70720    1.000
    H50      H        0.90850    0.10320    0.70280    1.000
    C133     C        0.92166    0.01519    0.71070    1.000
    C134     C        0.89375    0.96057    0.71230    1.000
    H51      H        0.91660    0.92570    0.71090    1.000
    C135     C        0.79250    0.12296    0.70881    1.000
    C136     C        0.80308    0.89515    0.72155    1.000
    O65      O        0.75019    0.89344    0.73938    1.000
    O66      O        0.83595    0.85191    0.70750    1.000
    O67      O        0.82253    0.16920    0.69417    1.000
    O68      O        0.73830    0.12159    0.72319    1.000
    N17      N        0.98647    0.02248    0.70650    1.000
    Mg18     Mg       0.32323    0.19084    0.25937    1.000
    C137     C        0.16743    0.95670    0.28400    1.000
    C138     C        0.20084    0.01022    0.28411    1.000
    H52      H        0.24230    0.00840    0.28020    1.000
    C139     C        0.17350    0.06518    0.28984    1.000
    C140     C        0.11109    0.06662    0.29280    1.000
    H53      H        0.09150    0.10320    0.29720    1.000
    C141     C        0.07834    0.01519    0.28930    1.000
    C142     C        0.10625    0.96057    0.28770    1.000
    H54      H        0.08340    0.92570    0.28910    1.000
    C143     C        0.20750    0.12296    0.29119    1.000
    C144     C        0.19692    0.89515    0.27845    1.000
    O69      O        0.24981    0.89344    0.26062    1.000
    O70      O        0.16405    0.85191    0.29250    1.000
    O71      O        0.17747    0.16920    0.30583    1.000
    O72      O        0.26170    0.12159    0.27681    1.000
    N18      N        0.01353    0.02248    0.29350    1.000
    Mg19     Mg       0.32323    0.80916    0.74063    1.000
    C145     C        0.16743    0.04330    0.71600    1.000
    C146     C        0.20084    0.98978    0.71589    1.000
    H55      H        0.24230    0.99160    0.71980    1.000
    C147     C        0.17350    0.93482    0.71016    1.000
    C148     C        0.11109    0.93338    0.70720    1.000
    H56      H        0.09150    0.89680    0.70280    1.000
    C149     C        0.07834    0.98481    0.71070    1.000
    C150     C        0.10625    0.03943    0.71230    1.000
    H57      H        0.08340    0.07430    0.71090    1.000
    C151     C        0.20750    0.87704    0.70881    1.000
    C152     C        0.19692    0.10485    0.72155    1.000
    O73      O        0.24981    0.10656    0.73938    1.000
    O74      O        0.16405    0.14809    0.70750    1.000
    O75      O        0.17747    0.83080    0.69417    1.000
    O76      O        0.26170    0.87841    0.72319    1.000
    N19      N        0.01353    0.97752    0.70650    1.000
    Mg20     Mg       0.67677    0.80916    0.25937    1.000
    C153     C        0.83257    0.04330    0.28400    1.000
    C154     C        0.79916    0.98978    0.28411    1.000
    H58      H        0.75770    0.99160    0.28020    1.000
    C155     C        0.82650    0.93482    0.28984    1.000
    C156     C        0.88891    0.93338    0.29280    1.000
    H59      H        0.90850    0.89680    0.29720    1.000
    C157     C        0.92166    0.98481    0.28930    1.000
    C158     C        0.89375    0.03943    0.28770    1.000
    H60      H        0.91660    0.07430    0.28910    1.000
    C159     C        0.79250    0.87704    0.29119    1.000
    C160     C        0.80308    0.10485    0.27845    1.000
    O77      O        0.75019    0.10656    0.26062    1.000
    O78      O        0.83595    0.14809    0.29250    1.000
    O79      O        0.82253    0.83080    0.30583    1.000
    O80      O        0.73830    0.87841    0.27681    1.000
    N20      N        0.98647    0.97752    0.29350    1.000
    Mg21     Mg       0.19084    0.74063    0.67677    1.000
    C161     C        0.95670    0.71600    0.83257    1.000
    C162     C        0.01022    0.71589    0.79916    1.000
    H61      H        0.00840    0.71980    0.75770    1.000
    C163     C        0.06518    0.71016    0.82650    1.000
    C164     C        0.06662    0.70720    0.88891    1.000
    H62      H        0.10320    0.70280    0.90850    1.000
    C165     C        0.01519    0.71070    0.92166    1.000
    C166     C        0.96057    0.71230    0.89375    1.000
    H63      H        0.92570    0.71090    0.91660    1.000
    C167     C        0.12296    0.70881    0.79250    1.000
    C168     C        0.89515    0.72155    0.80308    1.000
    O81      O        0.89344    0.73938    0.75019    1.000
    O82      O        0.85191    0.70750    0.83595    1.000
    O83      O        0.16920    0.69417    0.82253    1.000
    O84      O        0.12159    0.72319    0.73830    1.000
    N21      N        0.02248    0.70650    0.98647    1.000
    Mg22     Mg       0.19084    0.25937    0.32323    1.000
    C169     C        0.95670    0.28400    0.16743    1.000
    C170     C        0.01022    0.28411    0.20084    1.000
    H64      H        0.00840    0.28020    0.24230    1.000
    C171     C        0.06518    0.28984    0.17350    1.000
    C172     C        0.06662    0.29280    0.11109    1.000
    H65      H        0.10320    0.29720    0.09150    1.000
    C173     C        0.01519    0.28930    0.07834    1.000
    C174     C        0.96057    0.28770    0.10625    1.000
    H66      H        0.92570    0.28910    0.08340    1.000
    C175     C        0.12296    0.29119    0.20750    1.000
    C176     C        0.89515    0.27845    0.19692    1.000
    O85      O        0.89344    0.26062    0.24981    1.000
    O86      O        0.85191    0.29250    0.16405    1.000
    O87      O        0.16920    0.30583    0.17747    1.000
    O88      O        0.12159    0.27681    0.26170    1.000
    N22      N        0.02248    0.29350    0.01353    1.000
    Mg23     Mg       0.80916    0.74063    0.32323    1.000
    C177     C        0.04330    0.71600    0.16743    1.000
    C178     C        0.98978    0.71589    0.20084    1.000
    H67      H        0.99160    0.71980    0.24230    1.000
    C179     C        0.93482    0.71016    0.17350    1.000
    C180     C        0.93338    0.70720    0.11109    1.000
    H68      H        0.89680    0.70280    0.09150    1.000
    C181     C        0.98481    0.71070    0.07834    1.000
    C182     C        0.03943    0.71230    0.10625    1.000
    H69      H        0.07430    0.71090    0.08340    1.000
    C183     C        0.87704    0.70881    0.20750    1.000
    C184     C        0.10485    0.72155    0.19692    1.000
    O89      O        0.10656    0.73938    0.24981    1.000
    O90      O        0.14809    0.70750    0.16405    1.000
    O91      O        0.83080    0.69417    0.17747    1.000
    O92      O        0.87841    0.72319    0.26170    1.000
    N23      N        0.97752    0.70650    0.01353    1.000
    Mg24     Mg       0.80916    0.25937    0.67677    1.000
    C185     C        0.04330    0.28400    0.83257    1.000
    C186     C        0.98978    0.28411    0.79916    1.000
    H70      H        0.99160    0.28020    0.75770    1.000
    C187     C        0.93482    0.28984    0.82650    1.000
    C188     C        0.93338    0.29280    0.88891    1.000
    H71      H        0.89680    0.29720    0.90850    1.000
    C189     C        0.98481    0.28930    0.92166    1.000
    C190     C        0.03943    0.28770    0.89375    1.000
    H72      H        0.07430    0.28910    0.91660    1.000
    C191     C        0.87704    0.29119    0.79250    1.000
    C192     C        0.10485    0.27845    0.80308    1.000
    O93      O        0.10656    0.26062    0.75019    1.000
    O94      O        0.14809    0.29250    0.83595    1.000
    O95      O        0.83080    0.30583    0.82253    1.000
    O96      O        0.87841    0.27681    0.73830    1.000
    N24      N        0.97752    0.29350    0.98647    1.000
    O97      O        0.23806    0.23806    0.76194    1.000
    O98      O        0.76194    0.76194    0.76194    1.000
    O99      O        0.76194    0.23806    0.23806    1.000
    O100     O        0.23806    0.76194    0.23806    1.000
    O101     O        0.73806    0.73806    0.26194    1.000
    O102     O        0.26194    0.26194    0.26194    1.000
    O103     O        0.73806    0.26194    0.73806    1.000
    O104     O        0.26194    0.73806    0.73806    1.000
