data_functionalizedCrystal
_audit_creation_method	'EQeq! by Chris Wilmer'
_symmetry_space_group_name_H-M	'P1'
_symmetry_Int_Tables_number	1
_symmetry_cell_setting	triclinic
loop_
_symmetry_equiv_pos_as_xyz
  x,y,z
_cell_length_a	16.264
_cell_length_b	15.11
_cell_length_c	14.376
_cell_angle_alpha	90
_cell_angle_beta	115.148
_cell_angle_gamma	90
loop_
_atom_site_label
_atom_site_type_symbol
_atom_site_fract_x
_atom_site_fract_y
_atom_site_fract_z
_atom_site_charge
Mof_C 	C 	0.6861	0.4043	0.5672	0.548
Mof_C 	C 	0.7433	0.3257	0.6237	-0.232
Mof_C 	C 	0.7073	0.2414	0.6046	0.293
Mof_C 	C 	0.7569	0.1691	0.6604	0.299
Mof_C 	C 	0.8445	0.1796	0.7365	-0.219
Mof_C 	C 	0.88	0.2641	0.7557	0.341
Mof_C 	C 	0.8306	0.336	0.6991	0.338
Mof_C 	C 	0.898	0.1003	0.7937	0.569
Mof_O 	O 	0.6116	0.4098	0.5774	-0.698
Mof_O 	O 	0.7126	0.4536	0.5181	-0.285
Mof_O 	O 	0.9337	0.1047	0.8892	-0.308
Mof_O 	O 	0.9014	0.037	0.7383	-0.507
Mof_O 	O 	0.44	0.4442	0.5896	-1.277
Mof_H 	H 	0.39	0.469	0.576	0.455
Mof_F 	F 	0.6237	0.227	0.5314	-0.379
Mof_F 	F 	0.7171	0.0897	0.641	-0.386
Mof_F 	F 	0.9643	0.2778	0.8283	-0.219
Mof_F 	F 	0.868	0.4164	0.723	-0.281
Mof_C 	C 	0.1861	0.9043	0.5672	0.489
Mof_C 	C 	0.2433	0.8257	0.6237	-0.21
Mof_C 	C 	0.2073	0.7414	0.6046	0.27
Mof_C 	C 	0.2569	0.6691	0.6604	0.314
Mof_C 	C 	0.3445	0.6796	0.7365	-0.283
Mof_C 	C 	0.38	0.7641	0.7557	0.339
Mof_C 	C 	0.3306	0.836	0.6991	0.309
Mof_C 	C 	0.398	0.6003	0.7937	0.66
Mof_O 	O 	0.1116	0.9098	0.5774	-0.517
Mof_O 	O 	0.2126	0.9536	0.5181	-0.217
Mof_O 	O 	0.4337	0.6047	0.8892	-0.6
Mof_O 	O 	0.4014	0.537	0.7383	-0.676
Mof_O 	O 	0.94	0.9442	0.5896	-0.761
Mof_H 	H 	0.89	0.969	0.576	0.408
Mof_F 	F 	0.1237	0.727	0.5314	-0.421
Mof_F 	F 	0.2171	0.5897	0.641	-0.4
Mof_F 	F 	0.4643	0.7778	0.8283	-0.323
Mof_F 	F 	0.368	0.9164	0.723	-0.304
Mof_C 	C 	0.3139	0.4043	0.9328	0.522
Mof_C 	C 	0.2567	0.3257	0.8763	-0.209
Mof_C 	C 	0.2927	0.2414	0.8954	0.284
Mof_C 	C 	0.2431	0.1691	0.8396	0.326
Mof_C 	C 	0.1555	0.1796	0.7635	-0.291
Mof_C 	C 	0.12	0.2641	0.7443	0.312
Mof_C 	C 	0.1694	0.336	0.8009	0.29
Mof_C 	C 	0.102	0.1003	0.7063	0.602
Mof_O 	O 	0.3884	0.4098	0.9226	-0.598
Mof_O 	O 	0.2874	0.4536	0.9819	-0.235
Mof_O 	O 	0.0663	0.1047	0.6108	-0.608
Mof_O 	O 	0.0986	0.037	0.7617	-0.664
Mof_O 	O 	0.56	0.4442	0.9104	-1.165
Mof_H 	H 	0.61	0.469	0.924	0.479
Mof_F 	F 	0.3763	0.227	0.9686	-0.33
Mof_F 	F 	0.2829	0.0897	0.859	-0.374
Mof_F 	F 	0.0357	0.2778	0.6717	-0.446
Mof_F 	F 	0.132	0.4164	0.777	-0.381
Mof_C 	C 	0.8139	0.9043	0.9328	0.439
Mof_C 	C 	0.7567	0.8257	0.8763	-0.146
Mof_C 	C 	0.7927	0.7414	0.8954	0.279
Mof_C 	C 	0.7431	0.6691	0.8396	0.357
Mof_C 	C 	0.6555	0.6796	0.7635	-0.297
Mof_C 	C 	0.62	0.7641	0.7443	0.358
Mof_C 	C 	0.6694	0.836	0.8009	0.294
Mof_C 	C 	0.602	0.6003	0.7063	0.696
Mof_O 	O 	0.8884	0.9098	0.9226	-0.253
Mof_O 	O 	0.7874	0.9536	0.9819	-0.1
Mof_O 	O 	0.5663	0.6047	0.6108	-0.709
Mof_O 	O 	0.5986	0.537	0.7617	-0.674
Mof_O 	O 	0.06	0.9442	0.9104	-0.917
Mof_H 	H 	0.11	0.969	0.924	0.468
Mof_F 	F 	0.8763	0.727	0.9686	-0.247
Mof_F 	F 	0.7829	0.5897	0.859	-0.326
Mof_F 	F 	0.5357	0.7778	0.6717	-0.348
Mof_F 	F 	0.632	0.9164	0.777	-0.298
Mof_C 	C 	0.3139	0.5957	0.4328	0.547
Mof_C 	C 	0.2567	0.6743	0.3763	-0.244
Mof_C 	C 	0.2927	0.7586	0.3954	0.286
Mof_C 	C 	0.2431	0.8309	0.3396	0.303
Mof_C 	C 	0.1555	0.8204	0.2635	-0.265
Mof_C 	C 	0.12	0.7359	0.2443	0.289
Mof_C 	C 	0.1694	0.664	0.3009	0.292
Mof_C 	C 	0.102	0.8997	0.2063	0.547
Mof_O 	O 	0.3884	0.5902	0.4226	-0.703
Mof_O 	O 	0.2874	0.5464	0.4819	-0.324
Mof_O 	O 	0.0663	0.8953	0.1108	-0.508
Mof_O 	O 	0.0986	0.963	0.2617	-0.476
Mof_O 	O 	0.56	0.5558	0.4104	-1.266
Mof_H 	H 	0.61	0.531	0.424	0.463
Mof_F 	F 	0.3763	0.773	0.4686	-0.364
Mof_F 	F 	0.2829	0.9103	0.359	-0.343
Mof_F 	F 	0.0357	0.7222	0.1717	-0.463
Mof_F 	F 	0.132	0.5836	0.277	-0.402
Mof_C 	C 	0.8139	0.0957	0.4328	0.467
Mof_C 	C 	0.7567	0.1743	0.3763	-0.19
Mof_C 	C 	0.7927	0.2586	0.3954	0.276
Mof_C 	C 	0.7431	0.3309	0.3396	0.335
Mof_C 	C 	0.6555	0.3204	0.2635	-0.305
Mof_C 	C 	0.62	0.2359	0.2443	0.336
Mof_C 	C 	0.6694	0.164	0.3009	0.285
Mof_C 	C 	0.602	0.3997	0.2063	0.681
Mof_O 	O 	0.8884	0.0902	0.4226	-0.408
Mof_O 	O 	0.7874	0.0464	0.4819	-0.271
Mof_O 	O 	0.5663	0.3953	0.1108	-0.691
Mof_O 	O 	0.5986	0.463	0.2617	-0.677
Mof_O 	O 	0.06	0.0558	0.4104	-0.985
Mof_H 	H 	0.11	0.031	0.424	0.356
Mof_F 	F 	0.8763	0.273	0.4686	-0.29
Mof_F 	F 	0.7829	0.4103	0.359	-0.349
Mof_F 	F 	0.5357	0.2222	0.1717	-0.386
Mof_F 	F 	0.632	0.0836	0.277	-0.37
Mof_C 	C 	0.6861	0.5957	0.0672	0.533
Mof_C 	C 	0.7433	0.6743	0.1237	-0.248
Mof_C 	C 	0.7073	0.7586	0.1046	0.286
Mof_C 	C 	0.7569	0.8309	0.1604	0.287
Mof_C 	C 	0.8445	0.8204	0.2365	-0.212
Mof_C 	C 	0.88	0.7359	0.2557	0.328
Mof_C 	C 	0.8306	0.664	0.1991	0.332
Mof_C 	C 	0.898	0.8997	0.2937	0.558
Mof_O 	O 	0.6116	0.5902	0.0774	-0.664
Mof_O 	O 	0.7126	0.5464	0.0181	-0.34
Mof_O 	O 	0.9337	0.8953	0.3892	-0.351
Mof_O 	O 	0.9014	0.963	0.2383	-0.348
Mof_O 	O 	0.44	0.5558	0.0896	-1.215
Mof_H 	H 	0.39	0.531	0.076	0.406
Mof_F 	F 	0.6237	0.773	0.0314	-0.406
Mof_F 	F 	0.7171	0.9103	0.141	-0.358
Mof_F 	F 	0.9643	0.7222	0.3283	-0.242
Mof_F 	F 	0.868	0.5836	0.223	-0.299
Mof_C 	C 	0.1861	0.0957	0.0672	0.479
Mof_C 	C 	0.2433	0.1743	0.1237	-0.241
Mof_C 	C 	0.2073	0.2586	0.1046	0.259
Mof_C 	C 	0.2569	0.3309	0.1604	0.3
Mof_C 	C 	0.3445	0.3204	0.2365	-0.308
Mof_C 	C 	0.38	0.2359	0.2557	0.326
Mof_C 	C 	0.3306	0.164	0.1991	0.292
Mof_C 	C 	0.398	0.3997	0.2937	0.689
Mof_O 	O 	0.1116	0.0902	0.0774	-0.55
Mof_O 	O 	0.2126	0.0464	0.0181	-0.366
Mof_O 	O 	0.4337	0.3953	0.3892	-0.72
Mof_O 	O 	0.4014	0.463	0.2383	-0.701
Mof_O 	O 	0.94	0.0558	0.0896	-0.664
Mof_H 	H 	0.89	0.031	0.076	0.267
Mof_F 	F 	0.1237	0.273	0.0314	-0.464
Mof_F 	F 	0.2171	0.4103	0.141	-0.427
Mof_F 	F 	0.4643	0.2222	0.3283	-0.364
Mof_F 	F 	0.368	0.0836	0.223	-0.374
Mof_In	In	0.5	0.5	0.5	3.139
Mof_In	In	2.36126e-33	0	0.5	1.82
Mof_In	In	0.5	0.5	-0	2.705
Mof_In	In	-0	0	-0	1.398
Mof_In	In	0.5	0.43551	0.75	2.391
Mof_In	In	3.55492e-17	0.93551	0.75	1.921
Mof_In	In	0.5	0.56449	0.25	2.362
Mof_In	In	1.18063e-33	0.06449	0.25	1.382
_end
