# CIF file generated by openbabel 3.1.0, see https://openbabel.org
data_I
_chemical_name_common 'image0'
_cell_length_a 9.4533
_cell_length_b 18.614
_cell_length_c 19.976
_cell_angle_alpha 68.27
_cell_angle_beta 82.61
_cell_angle_gamma 82.18
_space_group_name_H-M_alt 'P 1'
_space_group_name_Hall 'P 1'
loop_
    _symmetry_equiv_pos_as_xyz
    x,y,z
loop_
    _atom_site_label
    _atom_site_type_symbol
    _atom_site_fract_x
    _atom_site_fract_y
    _atom_site_fract_z
    _atom_site_occupancy
    C1       C        0.02650    0.31970    0.34880    1.000
    C2       C        0.05660    0.26370    0.42370    1.000
    C3       C        0.03090    0.28600    0.48250    1.000
    H1       H        0.99460    0.33810    0.47600    1.000
    C4       C        0.05660    0.23410    0.55150    1.000
    C5       C        0.04100    0.24700    0.61900    1.000
    O1       O        0.04900    0.18500    0.68520    1.000
    O2       O        0.01000    0.31880    0.61400    1.000
    C6       C        0.11060    0.18820    0.43210    1.000
    H2       H        0.13420    0.17310    0.39120    1.000
    C7       C        0.10930    0.15890    0.56000    1.000
    H3       H        0.13180    0.12320    0.60640    1.000
    C8       C        0.12980    0.13480    0.50130    1.000
    C9       C        0.22900    0.03400    0.45490    1.000
    H4       H        0.29920    0.06780    0.42070    1.000
    H5       H        0.14470    0.03710    0.42900    1.000
    C10      C        0.29500    0.95210    0.48390    1.000
    C11      C        0.45900    0.93800    0.49300    1.000
    H6       H        0.52140    0.97770    0.48240    1.000
    C12      C        0.23400    0.89300    0.49300    1.000
    H7       H        0.15200    0.89760    0.46830    1.000
    C13      C        0.49800    0.86000    0.51800    1.000
    H8       H        0.59870    0.84540    0.51640    1.000
    C14      C        0.41650    0.80220    0.54300    1.000
    C15      C        0.28400    0.81980    0.54000    1.000
    H9       H        0.21860    0.78370    0.56880    1.000
    C16      C        0.25860    0.42080    0.17790    1.000
    C17      C        0.37000    0.47300    0.16800    1.000
    C18      C        0.50910    0.44350    0.18480    1.000
    H10      H        0.53270    0.38890    0.20080    1.000
    C19      C        0.61600    0.49130    0.17900    1.000
    C20      C        0.33900    0.55490    0.14260    1.000
    H11      H        0.24520    0.57710    0.12980    1.000
    C21      C        0.76000    0.46110    0.19790    1.000
    O3       O        0.03910    0.29260    0.29960    1.000
    O4       O        0.99350    0.38940    0.34210    1.000
    O5       O        0.18700    0.05870    0.51490    1.000
    C22      C        0.49250    0.71920    0.57680    1.000
    H12      H        0.57830    0.71110    0.54530    1.000
    H13      H        0.52260    0.71090    0.62500    1.000
    O6       O        0.12290    0.44740    0.18630    1.000
    O7       O        0.28830    0.35490    0.17950    1.000
    O8       O        0.80650    0.39190    0.19840    1.000
    O9       O        0.83030    0.50300    0.21540    1.000
    C23      C        0.58070    0.57150    0.15280    1.000
    C24      C        0.44220    0.60230    0.13620    1.000
    O10      O        0.65300    0.64000    0.13800    1.000
    Zn1      Zn       0.01452    0.35778    0.19738    1.000
    Zn2      Zn       0.00925    0.50161    0.25834    1.000
    C25      C        0.41270    0.80810    0.10910    1.000
    C26      C        0.21200    0.90700    0.08400    1.000
    H14      H        0.13390    0.92380    0.11130    1.000
    C27      C        0.46700    0.86900    0.01600    1.000
    H15      H        0.54620    0.85320    0.98880    1.000
    C28      C        0.39800    0.93100    0.99200    1.000
    H16      H        0.43930    0.96700    0.94850    1.000
    C29      C        0.26500    0.95620    0.01880    1.000
    C30      C        0.18300    0.03180    0.98780    1.000
    H17      H        0.23270    0.06230    0.94130    1.000
    H18      H        0.08750    0.02350    0.97780    1.000
    C31      C        0.27000    0.83600    0.10800    1.000
    H19      H        0.20460    0.79710    0.12760    1.000
    C32      C        0.11420    0.15270    0.01090    1.000
    C33      C        0.09680    0.18950    0.06310    1.000
    H20      H        0.11410    0.16030    0.11210    1.000
    C34      C        0.09410    0.19280    0.94190    1.000
    H21      H        0.11290    0.16780    0.90750    1.000
    C35      C        0.05450    0.26830    0.04130    1.000
    C36      C        0.04540    0.27150    0.91980    1.000
    C37      C        0.03370    0.31100    0.96940    1.000
    H22      H        0.01190    0.36570    0.95350    1.000
    C38      C        0.01690    0.31390    0.84340    1.000
    C39      C        0.03790    0.30790    0.09470    1.000
    C40      C        0.49460    0.73290    0.11850    1.000
    H23      H        0.57770    0.73940    0.08190    1.000
    H24      H        0.53070    0.71030    0.16710    1.000
    O11      O        0.16430    0.07400    0.03400    1.000
    O12      O        0.02650    0.27780    0.80100    1.000
    O13      O        0.98010    0.38660    0.82420    1.000
    O14      O        0.02690    0.38140    0.07380    1.000
    O15      O        0.03600    0.26650    0.16240    1.000
    C41      C        0.32410    0.53900    0.62530    1.000
    H25      H        0.22980    0.55970    0.61230    1.000
    C42      C        0.59780    0.47750    0.66490    1.000
    C43      C        0.35640    0.46080    0.65540    1.000
    C44      C        0.49330    0.42880    0.67450    1.000
    H26      H        0.51480    0.37400    0.69390    1.000
    C45      C        0.24280    0.40630    0.67100    1.000
    C46      C        0.74730    0.44930    0.68640    1.000
    C47      C        0.43300    0.58980    0.61330    1.000
    C48      C        0.56680    0.55810    0.63640    1.000
    O16      O        0.82100    0.49790    0.69160    1.000
    O17      O        0.78810    0.37730    0.69970    1.000
    O18      O        0.11060    0.43560    0.67120    1.000
    O19      O        0.27330    0.33630    0.68440    1.000
    Zn3      Zn       0.99978    0.33967    0.70035    1.000
    H27      H        0.63780    0.59110    0.63280    1.000
    C49      C        0.20800    0.88330    0.13830    1.000
    H28      H        0.11250    0.88390    0.16000    1.000
    C50      C        0.47300    0.87570    0.08500    1.000
    H29      H        0.57090    0.87440    0.06650    1.000
    C51      C        0.40900    0.94490    0.08480    1.000
    H30      H        0.46050    0.98960    0.06660    1.000
    C52      C        0.27000    0.95040    0.11060    1.000
    C53      C        0.18600    0.02770    0.10670    1.000
    H31      H        0.09220    0.01800    0.13530    1.000
    H32      H        0.23930    0.05530    0.12770    1.000
    C54      C        0.27570    0.81530    0.13660    1.000
    H33      H        0.22460    0.77050    0.15560    1.000
    O20      O        0.40040    0.68230    0.11010    1.000
    C55      C        0.02000    0.28500    0.60640    1.000
    O21      O        0.03000    0.23650    0.66980    1.000
    O22      O        0.01200    0.35520    0.58470    1.000
    C56      C        0.40900    0.92600    0.45670    1.000
    H34      H        0.44890    0.96210    0.41340    1.000
    C57      C        0.48000    0.85700    0.47900    1.000
    H35      H        0.56700    0.84450    0.45390    1.000
    O23      O        0.38870    0.66690    0.58280    1.000
    O24      O        0.64100    0.65900    0.63000    1.000
    C58      C        0.21900    0.89570    0.55380    1.000
    H36      H        0.12810    0.91370    0.57140    1.000
    C59      C        0.28000    0.81600    0.59400    1.000
    H37      H        0.24590    0.78090    0.64030    1.000
    H38      H        0.65220    0.60530    0.14640    1.000
    C60      C        0.97350    0.68030    0.65120    1.000
    C61      C        0.94340    0.73630    0.57630    1.000
    C62      C        0.96910    0.71400    0.51750    1.000
    H39      H        0.00540    0.66190    0.52400    1.000
    C63      C        0.94340    0.76590    0.44850    1.000
    C64      C        0.95900    0.75300    0.38100    1.000
    O25      O        0.95100    0.81500    0.31480    1.000
    O26      O        0.99000    0.68120    0.38600    1.000
    C65      C        0.88940    0.81180    0.56790    1.000
    H40      H        0.86580    0.82690    0.60880    1.000
    C66      C        0.89070    0.84110    0.44000    1.000
    H41      H        0.86820    0.87680    0.39360    1.000
    C67      C        0.87020    0.86520    0.49870    1.000
    C68      C        0.77100    0.96600    0.54510    1.000
    H42      H        0.70080    0.93220    0.57930    1.000
    H43      H        0.85530    0.96290    0.57100    1.000
    C69      C        0.70500    0.04790    0.51610    1.000
    C70      C        0.54100    0.06200    0.50700    1.000
    H44      H        0.47860    0.02230    0.51760    1.000
    C71      C        0.76600    0.10700    0.50700    1.000
    H45      H        0.84800    0.10240    0.53170    1.000
    C72      C        0.50200    0.14000    0.48200    1.000
    H46      H        0.40130    0.15460    0.48360    1.000
    C73      C        0.58350    0.19780    0.45700    1.000
    C74      C        0.71600    0.18020    0.46000    1.000
    H47      H        0.78140    0.21630    0.43120    1.000
    C75      C        0.74140    0.57920    0.82210    1.000
    C76      C        0.63000    0.52700    0.83200    1.000
    C77      C        0.49090    0.55650    0.81520    1.000
    H48      H        0.46730    0.61110    0.79920    1.000
    C78      C        0.38400    0.50870    0.82100    1.000
    C79      C        0.66100    0.44510    0.85740    1.000
    H49      H        0.75480    0.42290    0.87020    1.000
    C80      C        0.24000    0.53890    0.80210    1.000
    O27      O        0.96090    0.70740    0.70040    1.000
    O28      O        0.00650    0.61060    0.65790    1.000
    O29      O        0.81300    0.94130    0.48510    1.000
    C81      C        0.50750    0.28080    0.42320    1.000
    H50      H        0.42170    0.28890    0.45470    1.000
    H51      H        0.47740    0.28910    0.37500    1.000
    O30      O        0.87710    0.55260    0.81370    1.000
    O31      O        0.71170    0.64510    0.82050    1.000
    O32      O        0.19350    0.60810    0.80160    1.000
    O33      O        0.16970    0.49700    0.78460    1.000
    C82      C        0.41930    0.42850    0.84720    1.000
    C83      C        0.55780    0.39770    0.86380    1.000
    O34      O        0.34700    0.36000    0.86200    1.000
    Zn4      Zn       0.98548    0.64222    0.80262    1.000
    Zn5      Zn       0.99075    0.49839    0.74166    1.000
    C84      C        0.58730    0.19190    0.89090    1.000
    C85      C        0.78800    0.09300    0.91600    1.000
    H52      H        0.86610    0.07620    0.88870    1.000
    C86      C        0.53300    0.13100    0.98400    1.000
    H53      H        0.45380    0.14680    0.01120    1.000
    C87      C        0.60200    0.06900    0.00800    1.000
    H54      H        0.56070    0.03300    0.05150    1.000
    C88      C        0.73500    0.04380    0.98120    1.000
    C89      C        0.81700    0.96820    0.01220    1.000
    H55      H        0.76730    0.93770    0.05870    1.000
    H56      H        0.91250    0.97650    0.02220    1.000
    C90      C        0.73000    0.16400    0.89200    1.000
    H57      H        0.79540    0.20290    0.87240    1.000
    C91      C        0.88580    0.84730    0.98910    1.000
    C92      C        0.90320    0.81050    0.93690    1.000
    H58      H        0.88590    0.83970    0.88790    1.000
    C93      C        0.90590    0.80720    0.05810    1.000
    H59      H        0.88710    0.83220    0.09250    1.000
    C94      C        0.94550    0.73170    0.95870    1.000
    C95      C        0.95460    0.72850    0.08020    1.000
    C96      C        0.96630    0.68900    0.03060    1.000
    H60      H        0.98810    0.63430    0.04650    1.000
    C97      C        0.98310    0.68610    0.15660    1.000
    C98      C        0.96210    0.69210    0.90530    1.000
    C99      C        0.50540    0.26710    0.88150    1.000
    H61      H        0.42230    0.26060    0.91810    1.000
    H62      H        0.46930    0.28970    0.83290    1.000
    O35      O        0.83570    0.92600    0.96600    1.000
    O36      O        0.97350    0.72220    0.19900    1.000
    O37      O        0.01990    0.61340    0.17580    1.000
    O38      O        0.97310    0.61860    0.92620    1.000
    O39      O        0.96400    0.73350    0.83760    1.000
    C100     C        0.67590    0.46100    0.37470    1.000
    H63      H        0.77020    0.44030    0.38770    1.000
    C101     C        0.40220    0.52250    0.33510    1.000
    C102     C        0.64360    0.53920    0.34460    1.000
    C103     C        0.50670    0.57120    0.32550    1.000
    H64      H        0.48520    0.62600    0.30610    1.000
    C104     C        0.75720    0.59370    0.32900    1.000
    C105     C        0.25270    0.55070    0.31360    1.000
    C106     C        0.56700    0.41020    0.38670    1.000
    C107     C        0.43320    0.44190    0.36360    1.000
    O40      O        0.17900    0.50210    0.30840    1.000
    O41      O        0.21190    0.62270    0.30030    1.000
    O42      O        0.88940    0.56440    0.32880    1.000
    O43      O        0.72670    0.66370    0.31560    1.000
    Zn6      Zn       0.00022    0.66033    0.29965    1.000
    H65      H        0.36220    0.40890    0.36720    1.000
    C108     C        0.79200    0.11670    0.86170    1.000
    H66      H        0.88750    0.11610    0.84000    1.000
    C109     C        0.52700    0.12430    0.91500    1.000
    H67      H        0.42910    0.12560    0.93350    1.000
    C110     C        0.59100    0.05510    0.91520    1.000
    H68      H        0.53950    0.01040    0.93340    1.000
    C111     C        0.73000    0.04960    0.88940    1.000
    C112     C        0.81400    0.97230    0.89330    1.000
    H69      H        0.90780    0.98200    0.86470    1.000
    H70      H        0.76070    0.94470    0.87230    1.000
    C113     C        0.72430    0.18470    0.86340    1.000
    H71      H        0.77540    0.22950    0.84440    1.000
    O44      O        0.59960    0.31770    0.88990    1.000
    C114     C        0.98000    0.71500    0.39360    1.000
    O45      O        0.97000    0.76350    0.33020    1.000
    O46      O        0.98800    0.64480    0.41530    1.000
    C115     C        0.59100    0.07400    0.54330    1.000
    H72      H        0.55110    0.03790    0.58660    1.000
    C116     C        0.52000    0.14300    0.52100    1.000
    H73      H        0.43300    0.15550    0.54610    1.000
    O47      O        0.61130    0.33310    0.41720    1.000
    O48      O        0.35900    0.34100    0.37000    1.000
    C117     C        0.78100    0.10430    0.44620    1.000
    H74      H        0.87190    0.08630    0.42860    1.000
    C118     C        0.72000    0.18400    0.40600    1.000
    H75      H        0.75410    0.21910    0.35970    1.000
    H76      H        0.34780    0.39470    0.85360    1.000
