data_functionalizedCrystal
_audit_creation_method	'EQeq! by Chris Wilmer'
_symmetry_space_group_name_H-M	'P1'
_symmetry_Int_Tables_number	1
_symmetry_cell_setting	triclinic
loop_
_symmetry_equiv_pos_as_xyz
  x,y,z
_cell_length_a	5.9778
_cell_length_b	16.6747
_cell_length_c	8.466
_cell_angle_alpha	90
_cell_angle_beta	90.384
_cell_angle_gamma	90
loop_
_atom_site_label
_atom_site_type_symbol
_atom_site_fract_x
_atom_site_fract_y
_atom_site_fract_z
_atom_site_charge
Mof_Mn	Mn	0.5153	0.17646	0.50446	0.941
Mof_P 	P 	0.0071	0.24515	0.3775	0.592
Mof_O 	O 	0.8234	0.244	0.5008	-0.327
Mof_O 	O 	0.7237	0.0649	0.5382	-0.292
Mof_O 	O 	0.7193	0.9309	0.515	-0.311
Mof_O 	O 	0.0048	0.1605	0.2874	-0.644
Mof_O 	O 	0.2373	0.2557	0.4507	-0.331
Mof_O 	O 	0.9585	0.3068	0.2502	-0.313
Mof_C 	C 	0.6288	0.999	0.516	0.24
Mof_H 	H 	0.04	0.127	0.333	0.45
Mof_Mn	Mn	0.9847	0.67646	0.99554	0.929
Mof_P 	P 	0.4929	0.74515	0.1225	0.604
Mof_O 	O 	0.6766	0.744	0.9992	-0.333
Mof_O 	O 	0.7763	0.5649	0.9618	-0.293
Mof_O 	O 	0.7807	0.4309	0.985	-0.308
Mof_O 	O 	0.4952	0.6605	0.2126	-0.642
Mof_O 	O 	0.2627	0.7557	0.0493	-0.33
Mof_O 	O 	0.5415	0.8068	0.2498	-0.323
Mof_C 	C 	0.8712	0.499	0.984	0.239
Mof_H 	H 	0.46	0.627	0.167	0.451
Mof_Mn	Mn	0.4847	0.82354	0.49554	0.942
Mof_P 	P 	0.9929	0.75485	0.6225	0.593
Mof_O 	O 	0.1766	0.756	0.4992	-0.327
Mof_O 	O 	0.2763	0.9351	0.4618	-0.292
Mof_O 	O 	0.2807	0.0691	0.485	-0.311
Mof_O 	O 	0.9952	0.8395	0.7126	-0.644
Mof_O 	O 	0.7627	0.7443	0.5493	-0.331
Mof_O 	O 	0.0415	0.6932	0.7498	-0.313
Mof_C 	C 	0.3712	0.001	0.484	0.24
Mof_H 	H 	0.96	0.873	0.667	0.45
Mof_Mn	Mn	0.0153	0.32354	0.00446	0.929
Mof_P 	P 	0.5071	0.25485	0.8775	0.604
Mof_O 	O 	0.3234	0.256	0.0008	-0.333
Mof_O 	O 	0.2237	0.4351	0.0382	-0.293
Mof_O 	O 	0.2193	0.5691	0.015	-0.308
Mof_O 	O 	0.5048	0.3395	0.7874	-0.642
Mof_O 	O 	0.7373	0.2443	0.9507	-0.33
Mof_O 	O 	0.4585	0.1932	0.7502	-0.323
Mof_C 	C 	0.1288	0.501	0.016	0.239
Mof_H 	H 	0.54	0.373	0.833	0.451
_end
