data_functionalizedCrystal
_audit_creation_method	'EQeq! by Chris Wilmer'
_symmetry_space_group_name_H-M	'P1'
_symmetry_Int_Tables_number	1
_symmetry_cell_setting	triclinic
loop_
_symmetry_equiv_pos_as_xyz
  x,y,z
_cell_length_a	8.5577
_cell_length_b	18.802
_cell_length_c	16.0542
_cell_angle_alpha	99.469
_cell_angle_beta	90
_cell_angle_gamma	90
loop_
_atom_site_label
_atom_site_type_symbol
_atom_site_fract_x
_atom_site_fract_y
_atom_site_fract_z
_atom_site_charge
Mof_Cu	Cu	0.68478	0.79175	0.73422	0.889
Mof_Cu	Cu	0.68478	0.20825	0.76578	0.889
Mof_Cu	Cu	0.31522	0.20825	0.26578	0.888
Mof_Cu	Cu	0.31522	0.79175	0.23422	0.888
Mof_Cu	Cu	0.5548	0.5	0.75	0.911
Mof_Cu	Cu	0.4452	0.5	0.25	0.911
Mof_H 	H 	0.9981	0.6539	0.7205	0.33
Mof_H 	H 	0.1276	0.5956	0.7251	0.327
Mof_H 	H 	0.1695	0.6674	0.6923	0.319
Mof_H 	H 	0.4722	0.6238	0.9829	0.368
Mof_H 	H 	0.4754	0.7008	0.038	0.353
Mof_H 	H 	0.5549	0.6877	0.9488	0.366
Mof_H 	H 	0.9524	0.8066	0.0543	0.331
Mof_H 	H 	0.8691	0.8148	0.9694	0.338
Mof_H 	H 	0.0104	0.8649	0.0019	0.338
Mof_H 	H 	0.7942	0.5986	0.8375	0.002
Mof_H 	H 	0.6723	0.4068	0.8613	-0.002
Mof_H 	H 	0.9825	0.5978	0.9382	0.08
Mof_H 	H 	0.8563	0.4019	0.9631	0.086
Mof_H 	H 	0.4771	0.8071	0.8788	-0.018
Mof_H 	H 	0.7406	0.9463	0.797	-0.012
Mof_H 	H 	0.3975	0.8894	0.9935	0.097
Mof_H 	H 	0.6805	0.0321	0.907	0.086
Mof_H 	H 	0.9981	0.3461	0.7795	0.332
Mof_H 	H 	0.1276	0.4044	0.7749	0.328
Mof_H 	H 	0.1695	0.3326	0.8077	0.321
Mof_H 	H 	0.4722	0.3762	0.5171	0.373
Mof_H 	H 	0.4754	0.2992	0.462	0.36
Mof_H 	H 	0.5549	0.3123	0.5512	0.371
Mof_H 	H 	0.9524	0.1934	0.4457	0.347
Mof_H 	H 	0.8691	0.1852	0.5306	0.35
Mof_H 	H 	0.0104	0.1351	0.4981	0.355
Mof_H 	H 	0.7942	0.4014	0.6625	0.002
Mof_H 	H 	0.6723	0.5932	0.6387	-0.002
Mof_H 	H 	0.9825	0.4022	0.5618	0.08
Mof_H 	H 	0.8563	0.5981	0.5369	0.086
Mof_H 	H 	0.4771	0.1929	0.6212	-0.019
Mof_H 	H 	0.7406	0.0537	0.703	-0.016
Mof_H 	H 	0.3975	0.1106	0.5065	0.097
Mof_H 	H 	0.6805	0.9679	0.593	0.095
Mof_H 	H 	0.0019	0.3461	0.2795	0.33
Mof_H 	H 	0.8724	0.4044	0.2749	0.327
Mof_H 	H 	0.8305	0.3326	0.3077	0.319
Mof_H 	H 	0.5278	0.3762	0.0171	0.368
Mof_H 	H 	0.5246	0.2992	0.962	0.353
Mof_H 	H 	0.4451	0.3123	0.0512	0.366
Mof_H 	H 	0.0476	0.1934	0.9457	0.331
Mof_H 	H 	0.1309	0.1852	0.0306	0.338
Mof_H 	H 	0.9896	0.1351	0.9981	0.338
Mof_H 	H 	0.2058	0.4014	0.1625	0.002
Mof_H 	H 	0.3277	0.5932	0.1387	-0.002
Mof_H 	H 	0.0175	0.4022	0.0618	0.08
Mof_H 	H 	0.1437	0.5981	0.0369	0.086
Mof_H 	H 	0.5229	0.1929	0.1212	-0.018
Mof_H 	H 	0.2594	0.0537	0.203	-0.012
Mof_H 	H 	0.6025	0.1106	0.0065	0.097
Mof_H 	H 	0.3195	0.9679	0.093	0.086
Mof_H 	H 	0.0019	0.6539	0.2205	0.332
Mof_H 	H 	0.8724	0.5956	0.2251	0.328
Mof_H 	H 	0.8305	0.6674	0.1923	0.321
Mof_H 	H 	0.5278	0.6238	0.4829	0.373
Mof_H 	H 	0.5246	0.7008	0.538	0.36
Mof_H 	H 	0.4451	0.6877	0.4488	0.371
Mof_H 	H 	0.0476	0.8066	0.5543	0.347
Mof_H 	H 	0.1309	0.8148	0.4694	0.35
Mof_H 	H 	0.9896	0.8649	0.5019	0.355
Mof_H 	H 	0.2058	0.5986	0.3375	0.002
Mof_H 	H 	0.3277	0.4068	0.3613	-0.002
Mof_H 	H 	0.0175	0.5978	0.4382	0.08
Mof_H 	H 	0.1437	0.4019	0.4631	0.086
Mof_H 	H 	0.5229	0.8071	0.3788	-0.019
Mof_H 	H 	0.2594	0.9463	0.297	-0.016
Mof_H 	H 	0.6025	0.8894	0.4935	0.097
Mof_H 	H 	0.3195	0.0321	0.407	0.095
Mof_C 	C 	0.892	0.7512	0.826	0.402
Mof_C 	C 	0.1067	0.6464	0.7315	-0.977
Mof_C 	C 	0.3882	0.6083	0.8113	0.43
Mof_C 	C 	0.4687	0.6747	0.9815	-1.11
Mof_C 	C 	0.2474	0.7752	0.0779	0.431
Mof_C 	C 	0.9676	0.8173	0.9984	-1.033
Mof_C 	C 	0.0486	0.7325	0.8673	-0.48
Mof_C 	C 	0.1473	0.6831	0.8244	0.527
Mof_C 	C 	0.2816	0.6637	0.8614	-0.518
Mof_C 	C 	0.3166	0.693	0.9417	0.586
Mof_C 	C 	0.213	0.7434	0.9872	-0.512
Mof_C 	C 	0.08	0.7626	0.9502	0.556
Mof_C 	C 	0.8052	0.5579	0.863	0.079
Mof_C 	C 	0.7356	0.4469	0.8775	0.074
Mof_C 	C 	0.9187	0.5575	0.9246	-0.145
Mof_C 	C 	0.8468	0.4438	0.9396	-0.15
Mof_C 	C 	0.9413	0.5002	0.9665	0.058
Mof_C 	C 	0.515	0.8539	0.8842	0.08
Mof_C 	C 	0.6698	0.9349	0.8368	0.091
Mof_C 	C 	0.4659	0.9034	0.9542	-0.155
Mof_C 	C 	0.6328	0.9872	0.9022	-0.151
Mof_C 	C 	0.5213	0.9739	0.9637	0.057
Mof_C 	C 	0.892	0.2488	0.674	0.404
Mof_C 	C 	0.1067	0.3536	0.7685	-0.983
Mof_C 	C 	0.3882	0.3917	0.6887	0.432
Mof_C 	C 	0.4687	0.3253	0.5185	-1.128
Mof_C 	C 	0.2474	0.2248	0.4221	0.436
Mof_C 	C 	0.9676	0.1827	0.5016	-1.079
Mof_C 	C 	0.0486	0.2675	0.6327	-0.489
Mof_C 	C 	0.1473	0.3169	0.6756	0.533
Mof_C 	C 	0.2816	0.3363	0.6386	-0.525
Mof_C 	C 	0.3166	0.307	0.5583	0.596
Mof_C 	C 	0.213	0.2566	0.5128	-0.525
Mof_C 	C 	0.08	0.2374	0.5498	0.572
Mof_C 	C 	0.8052	0.4421	0.637	0.079
Mof_C 	C 	0.7356	0.5531	0.6225	0.074
Mof_C 	C 	0.9187	0.4425	0.5754	-0.145
Mof_C 	C 	0.8468	0.5562	0.5604	-0.151
Mof_C 	C 	0.9413	0.4998	0.5335	0.058
Mof_C 	C 	0.515	0.1461	0.6158	0.08
Mof_C 	C 	0.6698	0.0651	0.6632	0.098
Mof_C 	C 	0.4659	0.0966	0.5458	-0.157
Mof_C 	C 	0.6328	0.0128	0.5978	-0.165
Mof_C 	C 	0.5213	0.0261	0.5363	0.059
Mof_C 	C 	0.108	0.2488	0.174	0.402
Mof_C 	C 	0.8933	0.3536	0.2685	-0.977
Mof_C 	C 	0.6118	0.3917	0.1887	0.43
Mof_C 	C 	0.5313	0.3253	0.0185	-1.11
Mof_C 	C 	0.7526	0.2248	0.9221	0.431
Mof_C 	C 	0.0324	0.1827	0.0016	-1.033
Mof_C 	C 	0.9514	0.2675	0.1327	-0.48
Mof_C 	C 	0.8527	0.3169	0.1756	0.527
Mof_C 	C 	0.7184	0.3363	0.1386	-0.518
Mof_C 	C 	0.6834	0.307	0.0583	0.586
Mof_C 	C 	0.787	0.2566	0.0128	-0.512
Mof_C 	C 	0.92	0.2374	0.0498	0.556
Mof_C 	C 	0.1948	0.4421	0.137	0.079
Mof_C 	C 	0.2644	0.5531	0.1225	0.074
Mof_C 	C 	0.0813	0.4425	0.0754	-0.145
Mof_C 	C 	0.1532	0.5562	0.0604	-0.15
Mof_C 	C 	0.0587	0.4998	0.0335	0.058
Mof_C 	C 	0.485	0.1461	0.1158	0.08
Mof_C 	C 	0.3302	0.0651	0.1632	0.091
Mof_C 	C 	0.5341	0.0966	0.0458	-0.155
Mof_C 	C 	0.3672	0.0128	0.0978	-0.151
Mof_C 	C 	0.4787	0.0261	0.0363	0.057
Mof_C 	C 	0.108	0.7512	0.326	0.404
Mof_C 	C 	0.8933	0.6464	0.2315	-0.983
Mof_C 	C 	0.6118	0.6083	0.3113	0.432
Mof_C 	C 	0.5313	0.6747	0.4815	-1.128
Mof_C 	C 	0.7526	0.7752	0.5779	0.436
Mof_C 	C 	0.0324	0.8173	0.4984	-1.079
Mof_C 	C 	0.9514	0.7325	0.3673	-0.489
Mof_C 	C 	0.8527	0.6831	0.3244	0.533
Mof_C 	C 	0.7184	0.6637	0.3614	-0.525
Mof_C 	C 	0.6834	0.693	0.4417	0.596
Mof_C 	C 	0.787	0.7434	0.4872	-0.525
Mof_C 	C 	0.92	0.7626	0.4502	0.572
Mof_C 	C 	0.1948	0.5579	0.363	0.079
Mof_C 	C 	0.2644	0.4469	0.3775	0.074
Mof_C 	C 	0.0813	0.5575	0.4246	-0.145
Mof_C 	C 	0.1532	0.4438	0.4396	-0.151
Mof_C 	C 	0.0587	0.5002	0.4665	0.058
Mof_C 	C 	0.485	0.8539	0.3842	0.08
Mof_C 	C 	0.3302	0.9349	0.3368	0.098
Mof_C 	C 	0.5341	0.9034	0.4542	-0.157
Mof_C 	C 	0.3672	0.9872	0.4022	-0.165
Mof_C 	C 	0.4787	0.9739	0.4637	0.059
Mof_N 	N 	0.7147	0.5037	0.8402	-0.235
Mof_N 	N 	0.6122	0.8687	0.8253	-0.246
Mof_N 	N 	0.7147	0.4963	0.6598	-0.235
Mof_N 	N 	0.6122	0.1313	0.6747	-0.248
Mof_N 	N 	0.2853	0.4963	0.1598	-0.235
Mof_N 	N 	0.3878	0.1313	0.1747	-0.246
Mof_N 	N 	0.2853	0.5037	0.3402	-0.235
Mof_N 	N 	0.3878	0.8687	0.3253	-0.248
Mof_O 	O 	0.7717	0.7202	0.8355	-0.392
Mof_O 	O 	0.9057	0.8026	0.7803	-0.386
Mof_O 	O 	0.4719	0.6255	0.7531	-0.374
Mof_O 	O 	0.3957	0.5456	0.8321	-0.414
Mof_O 	O 	0.2428	0.7316	0.1311	-0.439
Mof_O 	O 	0.2817	0.8397	0.1006	-0.386
Mof_O 	O 	0.7717	0.2798	0.6645	-0.394
Mof_O 	O 	0.9057	0.1974	0.7197	-0.387
Mof_O 	O 	0.4719	0.3745	0.7469	-0.374
Mof_O 	O 	0.3957	0.4544	0.6679	-0.414
Mof_O 	O 	0.2428	0.2684	0.3689	-0.44
Mof_O 	O 	0.2817	0.1603	0.3994	-0.387
Mof_O 	O 	0.2283	0.2798	0.1645	-0.392
Mof_O 	O 	0.0943	0.1974	0.2197	-0.386
Mof_O 	O 	0.5281	0.3745	0.2469	-0.374
Mof_O 	O 	0.6043	0.4544	0.1679	-0.414
Mof_O 	O 	0.7572	0.2684	0.8689	-0.439
Mof_O 	O 	0.7183	0.1603	0.8994	-0.386
Mof_O 	O 	0.2283	0.7202	0.3355	-0.394
Mof_O 	O 	0.0943	0.8026	0.2803	-0.387
Mof_O 	O 	0.5281	0.6255	0.2531	-0.374
Mof_O 	O 	0.6043	0.5456	0.3321	-0.414
Mof_O 	O 	0.7572	0.7316	0.6311	-0.44
Mof_O 	O 	0.7183	0.8397	0.6006	-0.387
_end
