# CIF file generated by openbabel 3.1.0, see https://openbabel.org
data_I
_chemical_name_common 'image0'
_cell_length_a 7.1291
_cell_length_b 16.0748
_cell_length_c 11.0375
_cell_angle_alpha 90
_cell_angle_beta 90
_cell_angle_gamma 90
_space_group_name_H-M_alt 'P 1'
_space_group_name_Hall 'P 1'
loop_
    _symmetry_equiv_pos_as_xyz
    x,y,z
loop_
    _atom_site_label
    _atom_site_type_symbol
    _atom_site_fract_x
    _atom_site_fract_y
    _atom_site_fract_z
    _atom_site_occupancy
    Cd1      Cd       0.54464    0.22384    0.86621    1.000
    O1       O        0.42870    0.11171    0.98530    1.000
    O2       O        0.25720    0.22457    0.99860    1.000
    C1       C        0.28840    0.14980    0.02470    1.000
    C2       C        0.15590    0.10460    0.10910    1.000
    C3       C        0.20040    0.02480    0.15150    1.000
    H1       H        0.31120    0.99950    0.12680    1.000
    C4       C        0.07980    0.98300    0.23070    1.000
    C5       C        0.13330    0.89870    0.28470    1.000
    O3       O        0.30090    0.87730    0.27090    1.000
    O4       O        0.00710    0.86063    0.33810    1.000
    C6       C        0.91100    0.02010    0.26560    1.000
    H2       H        0.82880    0.99220    0.31680    1.000
    C7       C        0.86700    0.09930    0.22290    1.000
    C8       C        0.69140    0.13720    0.25930    1.000
    N1       N        0.55000    0.16510    0.28920    1.000
    C9       C        0.99000    0.14220    0.14640    1.000
    H3       H        0.96090    0.19580    0.12060    1.000
    Cd2      Cd       0.45536    0.77616    0.36621    1.000
    O5       O        0.57130    0.88829    0.48530    1.000
    O6       O        0.74280    0.77543    0.49860    1.000
    C10      C        0.71160    0.85020    0.52470    1.000
    C11      C        0.84410    0.89540    0.60910    1.000
    C12      C        0.79960    0.97520    0.65150    1.000
    H4       H        0.68880    0.00050    0.62680    1.000
    C13      C        0.92020    0.01700    0.73070    1.000
    C14      C        0.86670    0.10130    0.78470    1.000
    O7       O        0.69910    0.12270    0.77090    1.000
    O8       O        0.99290    0.13937    0.83810    1.000
    C15      C        0.08900    0.97990    0.76560    1.000
    H5       H        0.17120    0.00780    0.81680    1.000
    C16      C        0.13300    0.90070    0.72290    1.000
    C17      C        0.30860    0.86280    0.75930    1.000
    N2       N        0.45000    0.83490    0.78920    1.000
    C18      C        0.01000    0.85780    0.64640    1.000
    H6       H        0.03910    0.80420    0.62060    1.000
    Cd3      Cd       0.04464    0.27616    0.86621    1.000
    O9       O        0.92870    0.38829    0.98530    1.000
    O10      O        0.75720    0.27543    0.99860    1.000
    C19      C        0.78840    0.35020    0.02470    1.000
    C20      C        0.65590    0.39540    0.10910    1.000
    C21      C        0.70040    0.47520    0.15150    1.000
    H7       H        0.81120    0.50050    0.12680    1.000
    C22      C        0.57980    0.51700    0.23070    1.000
    C23      C        0.63330    0.60130    0.28470    1.000
    O11      O        0.80090    0.62270    0.27090    1.000
    O12      O        0.50710    0.63937    0.33810    1.000
    C24      C        0.41100    0.47990    0.26560    1.000
    H8       H        0.32880    0.50780    0.31680    1.000
    C25      C        0.36700    0.40070    0.22290    1.000
    C26      C        0.19140    0.36280    0.25930    1.000
    N3       N        0.05000    0.33490    0.28920    1.000
    C27      C        0.49000    0.35780    0.14640    1.000
    H9       H        0.46090    0.30420    0.12060    1.000
    Cd4      Cd       0.95536    0.72384    0.36621    1.000
    O13      O        0.07130    0.61171    0.48530    1.000
    O14      O        0.24280    0.72457    0.49860    1.000
    C28      C        0.21160    0.64980    0.52470    1.000
    C29      C        0.34410    0.60460    0.60910    1.000
    C30      C        0.29960    0.52480    0.65150    1.000
    H10      H        0.18880    0.49950    0.62680    1.000
    C31      C        0.42020    0.48300    0.73070    1.000
    C32      C        0.36670    0.39870    0.78470    1.000
    O15      O        0.19910    0.37730    0.77090    1.000
    O16      O        0.49290    0.36063    0.83810    1.000
    C33      C        0.58900    0.52010    0.76560    1.000
    H11      H        0.67120    0.49220    0.81680    1.000
    C34      C        0.63300    0.59930    0.72290    1.000
    C35      C        0.80860    0.63720    0.75930    1.000
    N4       N        0.95000    0.66510    0.78920    1.000
    C36      C        0.51000    0.64220    0.64640    1.000
    H12      H        0.53910    0.69580    0.62060    1.000
