# CIF file generated by openbabel 3.1.0, see https://openbabel.org
data_I
_chemical_name_common 'image0'
_cell_length_a 16.21
_cell_length_b 16.21
_cell_length_c 16.21
_cell_angle_alpha 90
_cell_angle_beta 90
_cell_angle_gamma 90
_space_group_name_H-M_alt 'P 1'
_space_group_name_Hall 'P 1'
loop_
    _symmetry_equiv_pos_as_xyz
    x,y,z
loop_
    _atom_site_label
    _atom_site_type_symbol
    _atom_site_fract_x
    _atom_site_fract_y
    _atom_site_fract_z
    _atom_site_occupancy
    S1       S        0.91162    0.10896    0.84046    1.000
    C1       C        0.83660    0.17210    0.89500    1.000
    O1       O        0.90590    0.03020    0.87470    1.000
    O2       O        0.99120    0.15140    0.86590    1.000
    O3       O        0.89810    0.87790    0.74340    1.000
    F1       F        0.83900    0.24710    0.86730    1.000
    F2       F        0.85010    0.17310    0.97100    1.000
    F3       F        0.76310    0.14200    0.88140    1.000
    H1       H        0.00900    0.14130    0.92040    1.000
    S2       S        0.41162    0.60896    0.34046    1.000
    C2       C        0.33660    0.67210    0.39500    1.000
    O4       O        0.40590    0.53020    0.37470    1.000
    O5       O        0.49120    0.65140    0.36590    1.000
    O6       O        0.39810    0.37790    0.24340    1.000
    F4       F        0.33900    0.74710    0.36730    1.000
    F5       F        0.35010    0.67310    0.47100    1.000
    F6       F        0.26310    0.64200    0.38140    1.000
    H2       H        0.50900    0.64130    0.42040    1.000
    S3       S        0.58838    0.89104    0.34046    1.000
    C3       C        0.66340    0.82790    0.39500    1.000
    O7       O        0.59410    0.96980    0.37470    1.000
    O8       O        0.50880    0.84860    0.36590    1.000
    O9       O        0.60190    0.12210    0.24340    1.000
    F7       F        0.66100    0.75290    0.36730    1.000
    F8       F        0.64990    0.82690    0.47100    1.000
    F9       F        0.73690    0.85800    0.38140    1.000
    H3       H        0.49100    0.85870    0.42040    1.000
    S4       S        0.08838    0.39104    0.84046    1.000
    C4       C        0.16340    0.32790    0.89500    1.000
    O10      O        0.09410    0.46980    0.87470    1.000
    O11      O        0.00880    0.34860    0.86590    1.000
    O12      O        0.10190    0.62210    0.74340    1.000
    F10      F        0.16100    0.25290    0.86730    1.000
    F11      F        0.14990    0.32690    0.97100    1.000
    F12      F        0.23690    0.35800    0.88140    1.000
    H4       H        0.99100    0.35870    0.92040    1.000
    S5       S        0.08838    0.60896    0.65954    1.000
    C5       C        0.16340    0.67210    0.60500    1.000
    O13      O        0.09410    0.53020    0.62530    1.000
    O14      O        0.00880    0.65140    0.63410    1.000
    O15      O        0.10190    0.37790    0.75660    1.000
    F13      F        0.16100    0.74710    0.63270    1.000
    F14      F        0.14990    0.67310    0.52900    1.000
    F15      F        0.23690    0.64200    0.61860    1.000
    H5       H        0.99100    0.64130    0.57960    1.000
    S6       S        0.58838    0.10896    0.15954    1.000
    C6       C        0.66340    0.17210    0.10500    1.000
    O16      O        0.59410    0.03020    0.12530    1.000
    O17      O        0.50880    0.15140    0.13410    1.000
    O18      O        0.60190    0.87790    0.25660    1.000
    F16      F        0.66100    0.24710    0.13270    1.000
    F17      F        0.64990    0.17310    0.02900    1.000
    F18      F        0.73690    0.14200    0.11860    1.000
    H6       H        0.49100    0.14130    0.07960    1.000
    S7       S        0.41162    0.39104    0.15954    1.000
    C7       C        0.33660    0.32790    0.10500    1.000
    O19      O        0.40590    0.46980    0.12530    1.000
    O20      O        0.49120    0.34860    0.13410    1.000
    O21      O        0.39810    0.62210    0.25660    1.000
    F19      F        0.33900    0.25290    0.13270    1.000
    F20      F        0.35010    0.32690    0.02900    1.000
    F21      F        0.26310    0.35800    0.11860    1.000
    H7       H        0.50900    0.35870    0.07960    1.000
    S8       S        0.91162    0.89104    0.65954    1.000
    C8       C        0.83660    0.82790    0.60500    1.000
    O22      O        0.90590    0.96980    0.62530    1.000
    O23      O        0.99120    0.84860    0.63410    1.000
    O24      O        0.89810    0.12210    0.75660    1.000
    F22      F        0.83900    0.75290    0.63270    1.000
    F23      F        0.85010    0.82690    0.52900    1.000
    F24      F        0.76310    0.85800    0.61860    1.000
    H8       H        0.00900    0.85870    0.57960    1.000
    S9       S        0.84046    0.91162    0.10896    1.000
    C9       C        0.89500    0.83660    0.17210    1.000
    O25      O        0.87470    0.90590    0.03020    1.000
    O26      O        0.86590    0.99120    0.15140    1.000
    O27      O        0.74340    0.89810    0.87790    1.000
    F25      F        0.86730    0.83900    0.24710    1.000
    F26      F        0.97100    0.85010    0.17310    1.000
    F27      F        0.88140    0.76310    0.14200    1.000
    H9       H        0.92040    0.00900    0.14130    1.000
    S10      S        0.34046    0.41162    0.60896    1.000
    C10      C        0.39500    0.33660    0.67210    1.000
    O28      O        0.37470    0.40590    0.53020    1.000
    O29      O        0.36590    0.49120    0.65140    1.000
    O30      O        0.24340    0.39810    0.37790    1.000
    F28      F        0.36730    0.33900    0.74710    1.000
    F29      F        0.47100    0.35010    0.67310    1.000
    F30      F        0.38140    0.26310    0.64200    1.000
    H10      H        0.42040    0.50900    0.64130    1.000
    S11      S        0.34046    0.58838    0.89104    1.000
    C11      C        0.39500    0.66340    0.82790    1.000
    O31      O        0.37470    0.59410    0.96980    1.000
    O32      O        0.36590    0.50880    0.84860    1.000
    O33      O        0.24340    0.60190    0.12210    1.000
    F31      F        0.36730    0.66100    0.75290    1.000
    F32      F        0.47100    0.64990    0.82690    1.000
    F33      F        0.38140    0.73690    0.85800    1.000
    H11      H        0.42040    0.49100    0.85870    1.000
    S12      S        0.84046    0.08838    0.39104    1.000
    C12      C        0.89500    0.16340    0.32790    1.000
    O34      O        0.87470    0.09410    0.46980    1.000
    O35      O        0.86590    0.00880    0.34860    1.000
    O36      O        0.74340    0.10190    0.62210    1.000
    F34      F        0.86730    0.16100    0.25290    1.000
    F35      F        0.97100    0.14990    0.32690    1.000
    F36      F        0.88140    0.23690    0.35800    1.000
    H12      H        0.92040    0.99100    0.35870    1.000
    S13      S        0.65954    0.08838    0.60896    1.000
    C13      C        0.60500    0.16340    0.67210    1.000
    O37      O        0.62530    0.09410    0.53020    1.000
    O38      O        0.63410    0.00880    0.65140    1.000
    O39      O        0.75660    0.10190    0.37790    1.000
    F37      F        0.63270    0.16100    0.74710    1.000
    F38      F        0.52900    0.14990    0.67310    1.000
    F39      F        0.61860    0.23690    0.64200    1.000
    H13      H        0.57960    0.99100    0.64130    1.000
    S14      S        0.15954    0.58838    0.10896    1.000
    C14      C        0.10500    0.66340    0.17210    1.000
    O40      O        0.12530    0.59410    0.03020    1.000
    O41      O        0.13410    0.50880    0.15140    1.000
    O42      O        0.25660    0.60190    0.87790    1.000
    F40      F        0.13270    0.66100    0.24710    1.000
    F41      F        0.02900    0.64990    0.17310    1.000
    F42      F        0.11860    0.73690    0.14200    1.000
    H14      H        0.07960    0.49100    0.14130    1.000
    S15      S        0.15954    0.41162    0.39104    1.000
    C15      C        0.10500    0.33660    0.32790    1.000
    O43      O        0.12530    0.40590    0.46980    1.000
    O44      O        0.13410    0.49120    0.34860    1.000
    O45      O        0.25660    0.39810    0.62210    1.000
    F43      F        0.13270    0.33900    0.25290    1.000
    F44      F        0.02900    0.35010    0.32690    1.000
    F45      F        0.11860    0.26310    0.35800    1.000
    H15      H        0.07960    0.50900    0.35870    1.000
    S16      S        0.65954    0.91162    0.89104    1.000
    C16      C        0.60500    0.83660    0.82790    1.000
    O46      O        0.62530    0.90590    0.96980    1.000
    O47      O        0.63410    0.99120    0.84860    1.000
    O48      O        0.75660    0.89810    0.12210    1.000
    F46      F        0.63270    0.83900    0.75290    1.000
    F47      F        0.52900    0.85010    0.82690    1.000
    F48      F        0.61860    0.76310    0.85800    1.000
    H16      H        0.57960    0.00900    0.85870    1.000
    S17      S        0.10896    0.84046    0.91162    1.000
    C17      C        0.17210    0.89500    0.83660    1.000
    O49      O        0.03020    0.87470    0.90590    1.000
    O50      O        0.15140    0.86590    0.99120    1.000
    O51      O        0.87790    0.74340    0.89810    1.000
    F49      F        0.24710    0.86730    0.83900    1.000
    F50      F        0.17310    0.97100    0.85010    1.000
    F51      F        0.14200    0.88140    0.76310    1.000
    H17      H        0.14130    0.92040    0.00900    1.000
    S18      S        0.60896    0.34046    0.41162    1.000
    C18      C        0.67210    0.39500    0.33660    1.000
    O52      O        0.53020    0.37470    0.40590    1.000
    O53      O        0.65140    0.36590    0.49120    1.000
    O54      O        0.37790    0.24340    0.39810    1.000
    F52      F        0.74710    0.36730    0.33900    1.000
    F53      F        0.67310    0.47100    0.35010    1.000
    F54      F        0.64200    0.38140    0.26310    1.000
    H18      H        0.64130    0.42040    0.50900    1.000
    S19      S        0.89104    0.34046    0.58838    1.000
    C19      C        0.82790    0.39500    0.66340    1.000
    O55      O        0.96980    0.37470    0.59410    1.000
    O56      O        0.84860    0.36590    0.50880    1.000
    O57      O        0.12210    0.24340    0.60190    1.000
    F55      F        0.75290    0.36730    0.66100    1.000
    F56      F        0.82690    0.47100    0.64990    1.000
    F57      F        0.85800    0.38140    0.73690    1.000
    H19      H        0.85870    0.42040    0.49100    1.000
    S20      S        0.39104    0.84046    0.08838    1.000
    C20      C        0.32790    0.89500    0.16340    1.000
    O58      O        0.46980    0.87470    0.09410    1.000
    O59      O        0.34860    0.86590    0.00880    1.000
    O60      O        0.62210    0.74340    0.10190    1.000
    F58      F        0.25290    0.86730    0.16100    1.000
    F59      F        0.32690    0.97100    0.14990    1.000
    F60      F        0.35800    0.88140    0.23690    1.000
    H20      H        0.35870    0.92040    0.99100    1.000
    S21      S        0.60896    0.65954    0.08838    1.000
    C21      C        0.67210    0.60500    0.16340    1.000
    O61      O        0.53020    0.62530    0.09410    1.000
    O62      O        0.65140    0.63410    0.00880    1.000
    O63      O        0.37790    0.75660    0.10190    1.000
    F61      F        0.74710    0.63270    0.16100    1.000
    F62      F        0.67310    0.52900    0.14990    1.000
    F63      F        0.64200    0.61860    0.23690    1.000
    H21      H        0.64130    0.57960    0.99100    1.000
    S22      S        0.10896    0.15954    0.58838    1.000
    C22      C        0.17210    0.10500    0.66340    1.000
    O64      O        0.03020    0.12530    0.59410    1.000
    O65      O        0.15140    0.13410    0.50880    1.000
    O66      O        0.87790    0.25660    0.60190    1.000
    F64      F        0.24710    0.13270    0.66100    1.000
    F65      F        0.17310    0.02900    0.64990    1.000
    F66      F        0.14200    0.11860    0.73690    1.000
    H22      H        0.14130    0.07960    0.49100    1.000
    S23      S        0.39104    0.15954    0.41162    1.000
    C23      C        0.32790    0.10500    0.33660    1.000
    O67      O        0.46980    0.12530    0.40590    1.000
    O68      O        0.34860    0.13410    0.49120    1.000
    O69      O        0.62210    0.25660    0.39810    1.000
    F67      F        0.25290    0.13270    0.33900    1.000
    F68      F        0.32690    0.02900    0.35010    1.000
    F69      F        0.35800    0.11860    0.26310    1.000
    H23      H        0.35870    0.07960    0.50900    1.000
    S24      S        0.89104    0.65954    0.91162    1.000
    C24      C        0.82790    0.60500    0.83660    1.000
    O70      O        0.96980    0.62530    0.90590    1.000
    O71      O        0.84860    0.63410    0.99120    1.000
    O72      O        0.12210    0.75660    0.89810    1.000
    F70      F        0.75290    0.63270    0.83900    1.000
    F71      F        0.82690    0.52900    0.85010    1.000
    F72      F        0.85800    0.61860    0.76310    1.000
    H24      H        0.85870    0.57960    0.00900    1.000
    Na1      Na       0.88665    0.88665    0.88665    1.000
    Na2      Na       0.38665    0.38665    0.38665    1.000
    Na3      Na       0.61335    0.11335    0.38665    1.000
    Na4      Na       0.11335    0.61335    0.88665    1.000
    Na5      Na       0.11335    0.38665    0.61335    1.000
    Na6      Na       0.61335    0.88665    0.11335    1.000
    Na7      Na       0.38665    0.61335    0.11335    1.000
    Na8      Na       0.88665    0.11335    0.61335    1.000
