# CIF file generated by openbabel 3.1.0, see https://openbabel.org
data_I
_chemical_name_common 'CODROD_clean'
_cell_length_a 9.1432
_cell_length_b 9.1432
_cell_length_c 14.773
_cell_angle_alpha 100.121
_cell_angle_beta 100.122
_cell_angle_gamma 115.602
_space_group_name_H-M_alt 'P 1'
_space_group_name_Hall 'P 1'
loop_
    _symmetry_equiv_pos_as_xyz
    x,y,z
loop_
    _atom_site_label
    _atom_site_type_symbol
    _atom_site_fract_x
    _atom_site_fract_y
    _atom_site_fract_z
    _atom_site_occupancy
    Pr1      Pr       0.50919    0.25919    0.51838    1.000
    Pr2      Pr       0.74081    0.49081    0.98162    1.000
    Pr3      Pr       0.49081    0.74081    0.48162    1.000
    Pr4      Pr       0.25919    0.50919    0.01838    1.000
    H1       H        0.86800    0.31200    0.43000    1.000
    H2       H        0.06200    0.11800    0.43000    1.000
    H3       H        0.68800    0.13200    0.07000    1.000
    H4       H        0.88200    0.93800    0.07000    1.000
    H5       H        0.13200    0.68800    0.57000    1.000
    H6       H        0.93800    0.88200    0.57000    1.000
    H7       H        0.31200    0.86800    0.93000    1.000
    H8       H        0.11800    0.06200    0.93000    1.000
    C1       C        0.74899    0.06039    0.44158    1.000
    C2       C        0.89398    0.21378    0.43516    1.000
    C3       C        0.19259    0.38119    0.44158    1.000
    C4       C        0.04118    0.22138    0.43516    1.000
    C5       C        0.93961    0.25101    0.05842    1.000
    C6       C        0.78622    0.10602    0.06484    1.000
    C7       C        0.61881    0.80741    0.05842    1.000
    C8       C        0.77862    0.95882    0.06484    1.000
    C9       C        0.25101    0.93961    0.55842    1.000
    C10      C        0.10602    0.78622    0.56484    1.000
    C11      C        0.80741    0.61881    0.55842    1.000
    C12      C        0.95882    0.77862    0.56484    1.000
    C13      C        0.06039    0.74899    0.94158    1.000
    C14      C        0.21378    0.89398    0.93516    1.000
    C15      C        0.38119    0.19259    0.94158    1.000
    C16      C        0.22138    0.04118    0.93516    1.000
    C17      C        0.67550    0.32450    0.75000    1.000
    C18      C        0.57450    0.42550    0.75000    1.000
    C19      C        0.32450    0.67550    0.25000    1.000
    C20      C        0.42550    0.57450    0.25000    1.000
    O1       O        0.66071    0.23791    0.67042    1.000
    O2       O        0.63375    0.08169    0.46684    1.000
    O3       O        0.74221    0.91735    0.42416    1.000
    O4       O        0.50971    0.43251    0.67042    1.000
    O5       O        0.33309    0.38515    0.46684    1.000
    O6       O        0.18195    0.50681    0.42416    1.000
    O7       O        0.76209    0.33929    0.82958    1.000
    O8       O        0.91831    0.36625    0.03316    1.000
    O9       O        0.08265    0.25779    0.07584    1.000
    O10      O        0.56749    0.49029    0.82958    1.000
    O11      O        0.61485    0.66691    0.03316    1.000
    O12      O        0.49319    0.81805    0.07584    1.000
    O13      O        0.33929    0.76209    0.32958    1.000
    O14      O        0.36625    0.91831    0.53316    1.000
    O15      O        0.25779    0.08265    0.57584    1.000
    O16      O        0.49029    0.56749    0.32958    1.000
    O17      O        0.66691    0.61485    0.53316    1.000
    O18      O        0.81805    0.49319    0.57584    1.000
    O19      O        0.23791    0.66071    0.17042    1.000
    O20      O        0.08169    0.63375    0.96684    1.000
    O21      O        0.91735    0.74221    0.92416    1.000
    O22      O        0.43251    0.50971    0.17042    1.000
    O23      O        0.38515    0.33309    0.96684    1.000
    O24      O        0.50681    0.18195    0.92416    1.000
