# CIF file generated by openbabel 3.1.0, see https://openbabel.org
data_I
_chemical_name_common 'image0'
_cell_length_a 16.2387
_cell_length_b 18.6701
_cell_length_c 21.6565
_cell_angle_alpha 90
_cell_angle_beta 106.138
_cell_angle_gamma 90
_space_group_name_H-M_alt 'P 1'
_space_group_name_Hall 'P 1'
loop_
    _symmetry_equiv_pos_as_xyz
    x,y,z
loop_
    _atom_site_label
    _atom_site_type_symbol
    _atom_site_fract_x
    _atom_site_fract_y
    _atom_site_fract_z
    _atom_site_occupancy
    C1       C        0.59780    0.06670    0.27381    1.000
    C2       C        0.68100    0.09390    0.31488    1.000
    C3       C        0.75690    0.06180    0.31252    1.000
    H1       H        0.75490    0.02100    0.28760    1.000
    C4       C        0.83480    0.08890    0.34621    1.000
    H2       H        0.88480    0.06590    0.34410    1.000
    C5       C        0.84040    0.15031    0.38344    1.000
    C6       C        0.76480    0.18052    0.38850    1.000
    H3       H        0.76670    0.21990    0.41510    1.000
    C7       C        0.68660    0.15270    0.35436    1.000
    H4       H        0.63650    0.17420    0.35810    1.000
    C8       C        0.99110    0.16910    0.38692    1.000
    C9       C        0.98310    0.18410    0.32403    1.000
    H5       H        0.93190    0.20270    0.29830    1.000
    C10      C        0.05070    0.17200    0.29840    1.000
    H6       H        0.04390    0.18180    0.25520    1.000
    C11      C        0.12750    0.14590    0.33511    1.000
    C12      C        0.13540    0.13520    0.39898    1.000
    H7       H        0.18790    0.12040    0.42580    1.000
    C13      C        0.06840    0.14550    0.42424    1.000
    H8       H        0.07540    0.13630    0.46760    1.000
    C14      C        0.19800    0.12770    0.30697    1.000
    C15      C        0.18380    0.10800    0.24473    1.000
    H9       H        0.12840    0.10920    0.21740    1.000
    C16      C        0.25020    0.08610    0.22134    1.000
    H10      H        0.23730    0.07220    0.17850    1.000
    C17      C        0.34630    0.10940    0.31401    1.000
    H11      H        0.40310    0.11280    0.33850    1.000
    C18      C        0.28260    0.13160    0.34128    1.000
    H12      H        0.29750    0.14920    0.38310    1.000
    C19      C        0.93380    0.22987    0.46573    1.000
    C20      C        0.98350    0.29012    0.46495    1.000
    H13      H        0.00940    0.29640    0.43200    1.000
    C21      C        0.99450    0.34055    0.51287    1.000
    H14      H        0.02860    0.38040    0.51250    1.000
    C22      C        0.95517    0.33267    0.56188    1.000
    C23      C        0.90730    0.27151    0.56234    1.000
    H15      H        0.88170    0.26480    0.59540    1.000
    C24      C        0.89660    0.22082    0.51528    1.000
    H16      H        0.86430    0.18010    0.51660    1.000
    C25      C        0.96160    0.39048    0.61006    1.000
    C26      C        0.84700    0.56244    0.60946    1.000
    C27      C        0.76671    0.59862    0.57190    1.000
    C28      C        0.76700    0.66610    0.54640    1.000
    H17      H        0.81910    0.68890    0.55010    1.000
    C29      C        0.69160    0.70080    0.51535    1.000
    H18      H        0.69320    0.74710    0.49990    1.000
    C30      C        0.61320    0.66626    0.50725    1.000
    C31      C        0.61300    0.59770    0.53154    1.000
    H19      H        0.56120    0.57360    0.52570    1.000
    C32      C        0.68810    0.56480    0.56417    1.000
    H20      H        0.68640    0.51930    0.58130    1.000
    C33      C        0.46220    0.68360    0.50066    1.000
    C34      C        0.46950    0.68900    0.56537    1.000
    H21      H        0.51910    0.70770    0.59320    1.000
    C35      C        0.40290    0.66660    0.58872    1.000
    H22      H        0.40920    0.66920    0.63270    1.000
    C36      C        0.32710    0.64041    0.54865    1.000
    C37      C        0.31940    0.63860    0.48277    1.000
    H23      H        0.26830    0.62300    0.45450    1.000
    C38      C        0.38620    0.65960    0.45889    1.000
    H24      H        0.38020    0.65770    0.41490    1.000
    C39      C        0.25730    0.61448    0.57452    1.000
    C40      C        0.24840    0.63730    0.63306    1.000
    H25      H        0.28810    0.66920    0.65770    1.000
    C41      C        0.18190    0.61348    0.65536    1.000
    H26      H        0.17760    0.63050    0.69470    1.000
    C42      C        0.19770    0.56480    0.54266    1.000
    H27      H        0.20130    0.54600    0.50370    1.000
    C43      C        0.13330    0.54283    0.56789    1.000
    H28      H        0.09440    0.50910    0.54510    1.000
    C44      C        0.52440    0.74850    0.42507    1.000
    C45      C        0.57140    0.74190    0.38121    1.000
    H29      H        0.61050    0.70470    0.38540    1.000
    C46      C        0.56100    0.78981    0.33126    1.000
    H30      H        0.59400    0.78450    0.30260    1.000
    C47      C        0.50290    0.84548    0.32264    1.000
    C48      C        0.45550    0.85110    0.36662    1.000
    H31      H        0.41550    0.88780    0.36200    1.000
    C49      C        0.46600    0.80420    0.41662    1.000
    H32      H        0.43330    0.80970    0.44540    1.000
    C50      C        0.49310    0.89797    0.26964    1.000
    Co1      Co       0.02315    0.53723    0.65882    1.000
    Co2      Co       0.92695    0.45554    0.72033    1.000
    N1       N        0.33030    0.08377    0.25541    1.000
    N2       N        0.12314    0.56698    0.62309    1.000
    N3       N        0.92114    0.18015    0.41445    1.000
    N4       N        0.53435    0.70052    0.47727    1.000
    O1       O        0.92621    0.37984    0.65436    1.000
    O2       O        0.99981    0.44712    0.60294    1.000
    O3       O        0.52965    0.08808    0.28488    1.000
    O4       O        0.60095    0.02472    0.22946    1.000
    O5       O        0.84016    0.51123    0.64525    1.000
    O6       O        0.91773    0.58561    0.60332    1.000
    O7       O        0.44484    0.95086    0.26959    1.000
    O8       O        0.53389    0.88734    0.22878    1.000
    C51      C        0.09780    0.43330    0.77381    1.000
    C52      C        0.18100    0.40610    0.81488    1.000
    C53      C        0.25690    0.43820    0.81252    1.000
    H33      H        0.25490    0.47900    0.78760    1.000
    C54      C        0.33480    0.41110    0.84621    1.000
    H34      H        0.38480    0.43410    0.84410    1.000
    C55      C        0.34040    0.34969    0.88344    1.000
    C56      C        0.26480    0.31948    0.88850    1.000
    H35      H        0.26670    0.28010    0.91510    1.000
    C57      C        0.18660    0.34730    0.85436    1.000
    H36      H        0.13650    0.32580    0.85810    1.000
    C58      C        0.49110    0.33090    0.88692    1.000
    C59      C        0.48310    0.31590    0.82403    1.000
    H37      H        0.43190    0.29730    0.79830    1.000
    C60      C        0.55070    0.32800    0.79840    1.000
    H38      H        0.54390    0.31820    0.75520    1.000
    C61      C        0.62750    0.35410    0.83511    1.000
    C62      C        0.63540    0.36480    0.89898    1.000
    H39      H        0.68790    0.37960    0.92580    1.000
    C63      C        0.56840    0.35450    0.92424    1.000
    H40      H        0.57540    0.36370    0.96760    1.000
    C64      C        0.69800    0.37230    0.80697    1.000
    C65      C        0.68380    0.39200    0.74473    1.000
    H41      H        0.62840    0.39080    0.71740    1.000
    C66      C        0.75020    0.41390    0.72134    1.000
    H42      H        0.73730    0.42780    0.67850    1.000
    C67      C        0.84630    0.39060    0.81401    1.000
    H43      H        0.90310    0.38720    0.83850    1.000
    C68      C        0.78260    0.36840    0.84128    1.000
    H44      H        0.79750    0.35080    0.88310    1.000
    C69      C        0.43380    0.27013    0.96573    1.000
    C70      C        0.48350    0.20988    0.96495    1.000
    H45      H        0.50940    0.20360    0.93200    1.000
    C71      C        0.49450    0.15945    0.01287    1.000
    H46      H        0.52860    0.11960    0.01250    1.000
    C72      C        0.45517    0.16733    0.06188    1.000
    C73      C        0.40730    0.22849    0.06234    1.000
    H47      H        0.38170    0.23520    0.09540    1.000
    C74      C        0.39660    0.27918    0.01528    1.000
    H48      H        0.36430    0.31990    0.01660    1.000
    C75      C        0.46160    0.10952    0.11006    1.000
    C76      C        0.34700    0.93756    0.10946    1.000
    C77      C        0.26671    0.90138    0.07190    1.000
    C78      C        0.26700    0.83390    0.04640    1.000
    H49      H        0.31910    0.81110    0.05010    1.000
    C79      C        0.19160    0.79920    0.01535    1.000
    H50      H        0.19320    0.75290    0.99990    1.000
    C80      C        0.11320    0.83374    0.00725    1.000
    C81      C        0.11300    0.90230    0.03154    1.000
    H51      H        0.06120    0.92640    0.02570    1.000
    C82      C        0.18810    0.93520    0.06417    1.000
    H52      H        0.18640    0.98070    0.08130    1.000
    C83      C        0.96220    0.81640    0.00066    1.000
    C84      C        0.96950    0.81100    0.06537    1.000
    H53      H        0.01910    0.79230    0.09320    1.000
    C85      C        0.90290    0.83340    0.08872    1.000
    H54      H        0.90920    0.83080    0.13270    1.000
    C86      C        0.82710    0.85959    0.04865    1.000
    C87      C        0.81940    0.86140    0.98277    1.000
    H55      H        0.76830    0.87700    0.95450    1.000
    C88      C        0.88620    0.84040    0.95889    1.000
    H56      H        0.88020    0.84230    0.91490    1.000
    C89      C        0.75730    0.88552    0.07452    1.000
    C90      C        0.74840    0.86270    0.13306    1.000
    H57      H        0.78810    0.83080    0.15770    1.000
    C91      C        0.68190    0.88652    0.15536    1.000
    H58      H        0.67760    0.86950    0.19470    1.000
    C92      C        0.69770    0.93520    0.04266    1.000
    H59      H        0.70130    0.95400    0.00370    1.000
    C93      C        0.63330    0.95717    0.06789    1.000
    H60      H        0.59440    0.99090    0.04510    1.000
    C94      C        0.02440    0.75150    0.92507    1.000
    C95      C        0.07140    0.75810    0.88121    1.000
    H61      H        0.11050    0.79530    0.88540    1.000
    C96      C        0.06100    0.71019    0.83126    1.000
    H62      H        0.09400    0.71550    0.80260    1.000
    C97      C        0.00290    0.65452    0.82264    1.000
    C98      C        0.95550    0.64890    0.86662    1.000
    H63      H        0.91550    0.61220    0.86200    1.000
    C99      C        0.96600    0.69580    0.91662    1.000
    H64      H        0.93330    0.69030    0.94540    1.000
    C100     C        0.99310    0.60203    0.76964    1.000
    Co3      Co       0.52315    0.96277    0.15882    1.000
    Co4      Co       0.42695    0.04446    0.22033    1.000
    N5       N        0.83030    0.41623    0.75541    1.000
    N6       N        0.62314    0.93302    0.12309    1.000
    N7       N        0.42114    0.31985    0.91445    1.000
    N8       N        0.03435    0.79948    0.97727    1.000
    O9       O        0.42621    0.12016    0.15436    1.000
    O10      O        0.49981    0.05288    0.10294    1.000
    O11      O        0.02965    0.41192    0.78488    1.000
    O12      O        0.10095    0.47528    0.72946    1.000
    O13      O        0.34016    0.98877    0.14525    1.000
    O14      O        0.41773    0.91439    0.10332    1.000
    O15      O        0.94484    0.54914    0.76959    1.000
    O16      O        0.03389    0.61266    0.72878    1.000
    C101     C        0.90220    0.56670    0.22619    1.000
    C102     C        0.81900    0.59390    0.18512    1.000
    C103     C        0.74310    0.56180    0.18748    1.000
    H65      H        0.74510    0.52100    0.21240    1.000
    C104     C        0.66520    0.58890    0.15379    1.000
    H66      H        0.61520    0.56590    0.15590    1.000
    C105     C        0.65960    0.65031    0.11656    1.000
    C106     C        0.73520    0.68052    0.11150    1.000
    H67      H        0.73330    0.71990    0.08490    1.000
    C107     C        0.81340    0.65270    0.14564    1.000
    H68      H        0.86350    0.67420    0.14190    1.000
    C108     C        0.50890    0.66910    0.11308    1.000
    C109     C        0.51690    0.68410    0.17597    1.000
    H69      H        0.56810    0.70270    0.20170    1.000
    C110     C        0.44930    0.67200    0.20160    1.000
    H70      H        0.45610    0.68180    0.24480    1.000
    C111     C        0.37250    0.64590    0.16489    1.000
    C112     C        0.36460    0.63520    0.10102    1.000
    H71      H        0.31210    0.62040    0.07420    1.000
    C113     C        0.43160    0.64550    0.07576    1.000
    H72      H        0.42460    0.63630    0.03240    1.000
    C114     C        0.30200    0.62770    0.19303    1.000
    C115     C        0.31620    0.60800    0.25527    1.000
    H73      H        0.37160    0.60920    0.28260    1.000
    C116     C        0.24980    0.58610    0.27866    1.000
    H74      H        0.26270    0.57220    0.32150    1.000
    C117     C        0.15370    0.60940    0.18599    1.000
    H75      H        0.09690    0.61280    0.16150    1.000
    C118     C        0.21740    0.63160    0.15872    1.000
    H76      H        0.20250    0.64920    0.11690    1.000
    C119     C        0.56620    0.72987    0.03427    1.000
    C120     C        0.51650    0.79012    0.03505    1.000
    H77      H        0.49060    0.79640    0.06800    1.000
    C121     C        0.50550    0.84055    0.98713    1.000
    H78      H        0.47140    0.88040    0.98750    1.000
    C122     C        0.54483    0.83267    0.93812    1.000
    C123     C        0.59270    0.77151    0.93766    1.000
    H79      H        0.61830    0.76480    0.90460    1.000
    C124     C        0.60340    0.72082    0.98472    1.000
    H80      H        0.63570    0.68010    0.98340    1.000
    C125     C        0.53840    0.89048    0.88994    1.000
    C126     C        0.65300    0.06244    0.89054    1.000
    C127     C        0.73329    0.09862    0.92810    1.000
    C128     C        0.73300    0.16610    0.95360    1.000
    H81      H        0.68090    0.18890    0.94990    1.000
    C129     C        0.80840    0.20080    0.98465    1.000
    H82      H        0.80680    0.24710    0.00010    1.000
    C130     C        0.88680    0.16626    0.99275    1.000
    C131     C        0.88700    0.09770    0.96846    1.000
    H83      H        0.93880    0.07360    0.97430    1.000
    C132     C        0.81190    0.06480    0.93583    1.000
    H84      H        0.81360    0.01930    0.91870    1.000
    C133     C        0.03780    0.18360    0.99934    1.000
    C134     C        0.03050    0.18900    0.93463    1.000
    H85      H        0.98090    0.20770    0.90680    1.000
    C135     C        0.09710    0.16660    0.91128    1.000
    H86      H        0.09080    0.16920    0.86730    1.000
    C136     C        0.17290    0.14041    0.95135    1.000
    C137     C        0.18060    0.13860    0.01723    1.000
    H87      H        0.23170    0.12300    0.04550    1.000
    C138     C        0.11380    0.15960    0.04111    1.000
    H88      H        0.11980    0.15770    0.08510    1.000
    C139     C        0.24270    0.11448    0.92548    1.000
    C140     C        0.25160    0.13730    0.86694    1.000
    H89      H        0.21190    0.16920    0.84230    1.000
    C141     C        0.31810    0.11348    0.84464    1.000
    H90      H        0.32240    0.13050    0.80530    1.000
    C142     C        0.30230    0.06480    0.95734    1.000
    H91      H        0.29870    0.04600    0.99630    1.000
    C143     C        0.36670    0.04283    0.93211    1.000
    H92      H        0.40560    0.00910    0.95490    1.000
    C144     C        0.97560    0.24850    0.07493    1.000
    C145     C        0.92860    0.24190    0.11879    1.000
    H93      H        0.88950    0.20470    0.11460    1.000
    C146     C        0.93900    0.28981    0.16874    1.000
    H94      H        0.90600    0.28450    0.19740    1.000
    C147     C        0.99710    0.34548    0.17736    1.000
    C148     C        0.04450    0.35110    0.13338    1.000
    H95      H        0.08450    0.38780    0.13800    1.000
    C149     C        0.03400    0.30420    0.08338    1.000
    H96      H        0.06670    0.30970    0.05460    1.000
    C150     C        0.00690    0.39797    0.23036    1.000
    Co5      Co       0.47685    0.03723    0.84118    1.000
    Co6      Co       0.57305    0.95554    0.77967    1.000
    N9       N        0.16970    0.58377    0.24459    1.000
    N10      N        0.37686    0.06698    0.87691    1.000
    N11      N        0.57886    0.68015    0.08555    1.000
    N12      N        0.96565    0.20052    0.02273    1.000
    O17      O        0.57379    0.87984    0.84564    1.000
    O18      O        0.50019    0.94712    0.89706    1.000
    O19      O        0.97035    0.58808    0.21512    1.000
    O20      O        0.89905    0.52472    0.27054    1.000
    O21      O        0.65984    0.01123    0.85475    1.000
    O22      O        0.58227    0.08561    0.89668    1.000
    O23      O        0.05516    0.45086    0.23041    1.000
    O24      O        0.96611    0.38734    0.27122    1.000
    C151     C        0.40220    0.93330    0.72619    1.000
    C152     C        0.31900    0.90610    0.68512    1.000
    C153     C        0.24310    0.93820    0.68748    1.000
    H97      H        0.24510    0.97900    0.71240    1.000
    C154     C        0.16520    0.91110    0.65379    1.000
    H98      H        0.11520    0.93410    0.65590    1.000
    C155     C        0.15960    0.84969    0.61656    1.000
    C156     C        0.23520    0.81948    0.61150    1.000
    H99      H        0.23330    0.78010    0.58490    1.000
    C157     C        0.31340    0.84730    0.64564    1.000
    H100     H        0.36350    0.82580    0.64190    1.000
    C158     C        0.00890    0.83090    0.61308    1.000
    C159     C        0.01690    0.81590    0.67597    1.000
    H101     H        0.06810    0.79730    0.70170    1.000
    C160     C        0.94930    0.82800    0.70160    1.000
    H102     H        0.95610    0.81820    0.74480    1.000
    C161     C        0.87250    0.85410    0.66489    1.000
    C162     C        0.86460    0.86480    0.60102    1.000
    H103     H        0.81210    0.87960    0.57420    1.000
    C163     C        0.93160    0.85450    0.57576    1.000
    H104     H        0.92460    0.86370    0.53240    1.000
    C164     C        0.80200    0.87230    0.69303    1.000
    C165     C        0.81620    0.89200    0.75527    1.000
    H105     H        0.87160    0.89080    0.78260    1.000
    C166     C        0.74980    0.91390    0.77866    1.000
    H106     H        0.76270    0.92780    0.82150    1.000
    C167     C        0.65370    0.89060    0.68599    1.000
    H107     H        0.59690    0.88720    0.66150    1.000
    C168     C        0.71740    0.86840    0.65872    1.000
    H108     H        0.70250    0.85080    0.61690    1.000
    C169     C        0.06620    0.77013    0.53427    1.000
    C170     C        0.01650    0.70988    0.53505    1.000
    H109     H        0.99060    0.70360    0.56800    1.000
    C171     C        0.00550    0.65945    0.48713    1.000
    H110     H        0.97140    0.61960    0.48750    1.000
    C172     C        0.04483    0.66733    0.43812    1.000
    C173     C        0.09270    0.72849    0.43766    1.000
    H111     H        0.11830    0.73520    0.40460    1.000
    C174     C        0.10340    0.77918    0.48472    1.000
    H112     H        0.13570    0.81990    0.48340    1.000
    C175     C        0.03840    0.60952    0.38994    1.000
    C176     C        0.15300    0.43756    0.39054    1.000
    C177     C        0.23329    0.40138    0.42810    1.000
    C178     C        0.23300    0.33390    0.45360    1.000
    H113     H        0.18090    0.31110    0.44990    1.000
    C179     C        0.30840    0.29920    0.48465    1.000
    H114     H        0.30680    0.25290    0.50010    1.000
    C180     C        0.38680    0.33374    0.49275    1.000
    C181     C        0.38700    0.40230    0.46846    1.000
    H115     H        0.43880    0.42640    0.47430    1.000
    C182     C        0.31190    0.43520    0.43583    1.000
    H116     H        0.31360    0.48070    0.41870    1.000
    C183     C        0.53780    0.31640    0.49934    1.000
    C184     C        0.53050    0.31100    0.43463    1.000
    H117     H        0.48090    0.29230    0.40680    1.000
    C185     C        0.59710    0.33340    0.41128    1.000
    H118     H        0.59080    0.33080    0.36730    1.000
    C186     C        0.67290    0.35959    0.45135    1.000
    C187     C        0.68060    0.36140    0.51723    1.000
    H119     H        0.73170    0.37700    0.54550    1.000
    C188     C        0.61380    0.34040    0.54111    1.000
    H120     H        0.61980    0.34230    0.58510    1.000
    C189     C        0.74270    0.38552    0.42548    1.000
    C190     C        0.75160    0.36270    0.36694    1.000
    H121     H        0.71190    0.33080    0.34230    1.000
    C191     C        0.81810    0.38652    0.34464    1.000
    H122     H        0.82240    0.36950    0.30530    1.000
    C192     C        0.80230    0.43520    0.45734    1.000
    H123     H        0.79870    0.45400    0.49630    1.000
    C193     C        0.86670    0.45717    0.43211    1.000
    H124     H        0.90560    0.49090    0.45490    1.000
    C194     C        0.47560    0.25150    0.57493    1.000
    C195     C        0.42860    0.25810    0.61879    1.000
    H125     H        0.38950    0.29530    0.61460    1.000
    C196     C        0.43900    0.21019    0.66874    1.000
    H126     H        0.40600    0.21550    0.69740    1.000
    C197     C        0.49710    0.15452    0.67736    1.000
    C198     C        0.54450    0.14890    0.63338    1.000
    H127     H        0.58450    0.11220    0.63800    1.000
    C199     C        0.53400    0.19580    0.58338    1.000
    H128     H        0.56670    0.19030    0.55460    1.000
    C200     C        0.50690    0.10203    0.73036    1.000
    Co7      Co       0.97685    0.46277    0.34118    1.000
    Co8      Co       0.07305    0.54446    0.27967    1.000
    N13      N        0.66970    0.91623    0.74459    1.000
    N14      N        0.87686    0.43302    0.37691    1.000
    N15      N        0.07886    0.81985    0.58555    1.000
    N16      N        0.46565    0.29948    0.52273    1.000
    O25      O        0.07379    0.62016    0.34564    1.000
    O26      O        0.00019    0.55288    0.39706    1.000
    O27      O        0.47035    0.91192    0.71512    1.000
    O28      O        0.39905    0.97528    0.77054    1.000
    O29      O        0.15984    0.48877    0.35475    1.000
    O30      O        0.08227    0.41439    0.39668    1.000
    O31      O        0.55516    0.04914    0.73041    1.000
    O32      O        0.46611    0.11266    0.77122    1.000
