data_functionalizedCrystal
_audit_creation_method	'EQeq! by Chris Wilmer'
_symmetry_space_group_name_H-M	'P1'
_symmetry_Int_Tables_number	1
_symmetry_cell_setting	triclinic
loop_
_symmetry_equiv_pos_as_xyz
  x,y,z
_cell_length_a	11.384
_cell_length_b	12.189
_cell_length_c	23.331
_cell_angle_alpha	83.75
_cell_angle_beta	82.022
_cell_angle_gamma	70.697
loop_
_atom_site_label
_atom_site_type_symbol
_atom_site_fract_x
_atom_site_fract_y
_atom_site_fract_z
_atom_site_charge
Mof_Sm	Sm	0.2635	0.73297	0.26011	2.108
Mof_Sm	Sm	0.7365	0.26703	0.73989	2.108
Mof_Cu	Cu	0.6916	0.1305	0.97222	0.888
Mof_Cu	Cu	0.1086	0.2425	0.25502	0.898
Mof_Cu	Cu	0.3084	0.8695	0.02778	0.888
Mof_Cu	Cu	0.8914	0.7575	0.74498	0.898
Mof_Cu	Cu	0.5	0.5	0.5	0.826
Mof_Si	Si	0.1264	0.2127	0.7627	2.349
Mof_Si	Si	0.8736	0.7873	0.2373	2.349
Mof_H 	H 	0.3237	0.7019	0.431	-0.069
Mof_H 	H 	0.108	0.2479	0.0104	0.08
Mof_H 	H 	0.082	0.331	0.4965	0.064
Mof_H 	H 	0.2783	0.2548	0.3363	0.014
Mof_H 	H 	0.5414	0.8762	0.9296	-0.009
Mof_H 	H 	0.2867	0.2368	0.1488	0.033
Mof_H 	H 	0.2554	0.4712	0.4595	-0.026
Mof_H 	H 	0.535	0.6475	0.0629	0.001
Mof_H 	H 	0.9337	0.2511	0.1736	0.025
Mof_H 	H 	0.7479	0.4489	0.4187	-0.038
Mof_H 	H 	0.743	0.3913	0.1151	0.009
Mof_H 	H 	0.892	0.7521	0.9896	0.08
Mof_H 	H 	0.4155	0.7613	0.5432	0.002
Mof_H 	H 	0.4586	0.1238	0.0704	-0.009
Mof_H 	H 	0.9047	0.1993	0.5375	0.033
Mof_H 	H 	0.0663	0.7489	0.8264	0.025
Mof_H 	H 	0.3976	0.6474	0.9457	0.014
Mof_H 	H 	0.94	0.1301	0.014	0.008
Mof_H 	H 	0.7548	0.6228	0.0233	0.016
Mof_H 	H 	0.257	0.6087	0.8849	0.009
Mof_H 	H 	0.7446	0.5288	0.5405	-0.026
Mof_H 	H 	0.5463	0.8502	0.5854	0.017
Mof_H 	H 	0.6024	0.3526	0.0543	0.014
Mof_H 	H 	0.2452	0.3772	0.9767	0.016
Mof_H 	H 	0.6763	0.2981	0.569	-0.069
Mof_H 	H 	0.0953	0.8007	0.4625	0.033
Mof_H 	H 	0.465	0.3525	0.9371	0.001
Mof_H 	H 	0.918	0.669	0.5035	0.064
Mof_H 	H 	0.9375	0.2552	0.3592	0.02
Mof_H 	H 	0.2521	0.5511	0.5813	-0.038
Mof_H 	H 	0.5845	0.2387	0.4568	0.002
Mof_H 	H 	0.4537	0.1498	0.4146	0.017
Mof_H 	H 	0.7133	0.7632	0.8512	0.033
Mof_H 	H 	0.7217	0.7452	0.6637	0.014
Mof_H 	H 	0.0625	0.7448	0.6408	0.02
Mof_H 	H 	0.06	0.8699	0.986	0.008
Mof_W 	W 	0.92758	0.11811	0.86721	1.405
Mof_W 	W 	0.684	0.68652	0.35438	1.017
Mof_W 	W 	0.74316	0.92467	0.10766	1.305
Mof_W 	W 	0.56289	0.83424	0.21658	1.35
Mof_W 	W 	0.91117	0.49088	0.76447	1.36
Mof_W 	W 	0.08883	0.50912	0.23553	1.36
Mof_W 	W 	0.43711	0.16576	0.78342	1.35
Mof_W 	W 	0.23396	0.07845	0.631	1.059
Mof_W 	W 	0.01059	0.34366	0.63091	1.083
Mof_W 	W 	0.01731	0.98575	0.74517	1.389
Mof_W 	W 	0.78888	0.53468	0.218	1.049
Mof_W 	W 	0.64999	0.06832	0.2309	1.013
Mof_W 	W 	0.25684	0.07533	0.89234	1.305
Mof_W 	W 	0.9711	0.6292	0.11083	1.07
Mof_W 	W 	0.98269	0.01425	0.25483	1.389
Mof_W 	W 	0.35001	0.93168	0.7691	1.013
Mof_W 	W 	0.07242	0.88189	0.13279	1.405
Mof_W 	W 	0.98941	0.65634	0.36909	1.083
Mof_W 	W 	0.0289	0.3708	0.88917	1.07
Mof_W 	W 	0.316	0.31348	0.64562	1.017
Mof_W 	W 	0.76604	0.92155	0.369	1.059
Mof_W 	W 	0.21112	0.46532	0.782	1.049
Mof_C 	C 	0.214	0.2398	0.0743	0.099
Mof_C 	C 	0.7972	0.7119	0.5842	0.052
Mof_C 	C 	0.317	0.324	0.9903	0.023
Mof_C 	C 	0.438	0.308	0.9673	-0.01
Mof_C 	C 	0.152	0.74	0.4824	-0.048
Mof_C 	C 	0.237	0.663	0.9128	-0.006
Mof_C 	C 	0.683	0.676	0.0097	0.023
Mof_C 	C 	0.2028	0.2881	0.4158	0.052
Mof_C 	C 	0.321	0.402	0.4548	0.063
Mof_C 	C 	0.0009	0.2513	0.089	0.091
Mof_C 	C 	0.5	0.275	0.452	-0.003
Mof_C 	C 	0.241	0.6032	0.5487	0.091
Mof_C 	C 	0.434	0.182	0.0414	0.112
Mof_C 	C 	0.571	0.777	0.5704	-0.018
Mof_C 	C 	0.0036	0.2683	0.3736	-0.003
Mof_C 	C 	0.429	0.223	0.4296	-0.018
Mof_C 	C 	0.562	0.692	0.0327	-0.01
Mof_C 	C 	0.9964	0.7317	0.6264	-0.003
Mof_C 	C 	0.005	0.2489	0.1484	0.006
Mof_C 	C 	0.5	0.725	0.548	-0.003
Mof_C 	C 	0.72	0.313	0.5339	0.036
Mof_C 	C 	0.214	0.2396	0.1337	-0.034
Mof_C 	C 	0.566	0.818	0.9586	0.112
Mof_C 	C 	0.0122	0.7004	0.5687	0.06
Mof_C 	C 	0.28	0.687	0.4661	0.036
Mof_C 	C 	0.7957	0.7347	0.6391	-0.021
Mof_C 	C 	0.9991	0.7487	0.911	0.091
Mof_C 	C 	0.763	0.337	0.0872	-0.006
Mof_C 	C 	0.9878	0.2996	0.4313	0.06
Mof_C 	C 	0.759	0.3968	0.4513	0.091
Mof_C 	C 	0.108	0.2465	0.0503	-0.149
Mof_C 	C 	0.687	0.311	0.0548	-0.004
Mof_C 	C 	0.995	0.7511	0.8516	0.006
Mof_C 	C 	0.892	0.7535	0.9497	-0.149
Mof_C 	C 	0.679	0.598	0.5452	0.063
Mof_C 	C 	0.912	0.688	0.5415	-0.116
Mof_C 	C 	0.848	0.26	0.5176	-0.048
Mof_C 	C 	0.874	0.189	0.0311	0.103
Mof_C 	C 	0.786	0.7602	0.9257	0.099
Mof_C 	C 	0.786	0.7604	0.8663	-0.034
Mof_C 	C 	0.2043	0.2653	0.3609	-0.021
Mof_C 	C 	0.088	0.312	0.4585	-0.116
Mof_C 	C 	0.126	0.811	0.9689	0.103
Mof_C 	C 	0.313	0.689	0.9452	-0.004
Mof_N 	N 	0.1285	0.6829	0.5348	-0.132
Mof_N 	N 	0.8715	0.3171	0.4652	-0.132
Mof_N 	N 	0.6779	0.7531	0.9633	-0.151
Mof_N 	N 	0.6864	0.6978	0.5653	-0.134
Mof_N 	N 	0.6731	0.3863	0.4916	-0.259
Mof_N 	N 	0.8904	0.7566	0.8301	-0.188
Mof_N 	N 	0.3221	0.2469	0.0367	-0.151
Mof_N 	N 	0.3269	0.6137	0.5084	-0.259
Mof_N 	N 	0.1158	0.7408	0.9329	-0.142
Mof_N 	N 	0.4886	0.7883	0.0025	-0.227
Mof_N 	N 	0.1067	0.257	0.34	-0.198
Mof_N 	N 	0.2486	0.7856	0.9777	-0.22
Mof_N 	N 	0.1096	0.2434	0.1699	-0.188
Mof_N 	N 	0.8933	0.743	0.66	-0.198
Mof_N 	N 	0.5634	0.6166	0.5338	-0.242
Mof_N 	N 	0.8842	0.2592	0.0671	-0.142
Mof_N 	N 	0.4366	0.3834	0.4662	-0.242
Mof_N 	N 	0.7514	0.2144	0.0223	-0.22
Mof_N 	N 	0.3136	0.3022	0.4347	-0.134
Mof_N 	N 	0.5114	0.2117	0.9975	-0.227
Mof_O 	O 	0.9143	0.6644	0.2115	-0.881
Mof_O 	O 	0.4767	0.0099	0.7661	-0.467
Mof_O 	O 	0.791	0.1877	0.8353	-0.626
Mof_O 	O 	0.9462	0.2589	0.8859	-0.524
Mof_O 	O 	0.1054	0.0559	0.8903	-0.489
Mof_O 	O 	0.0857	0.3356	0.7885	-0.881
Mof_O 	O 	0.661	0.0651	0.1479	-0.457
Mof_O 	O 	0.8946	0.9441	0.1097	-0.489
Mof_O 	O 	0.4066	0.8377	0.2182	-0.629
Mof_O 	O 	0.8638	0.0716	0.7311	-0.621
Mof_O 	O 	0.9073	0.4895	0.8486	-0.467
Mof_O 	O 	0.9877	0.1516	0.2661	-0.537
Mof_O 	O 	0.5934	0.1623	0.7818	-0.629
Mof_O 	O 	0.4112	0.1157	0.864	-0.46
Mof_O 	O 	0.8369	0.7703	0.3082	-0.804
Mof_O 	O 	0.0123	0.8484	0.7339	-0.537
Mof_O 	O 	0.0326	0.0214	0.1735	-0.478
Mof_O 	O 	0.3472	0.166	0.6061	-0.431
Mof_O 	O 	0.1055	0.0217	0.6742	-0.505
Mof_O 	O 	0.339	0.9349	0.8521	-0.457
Mof_O 	O 	0.8073	0.6301	0.7575	-0.538
Mof_O 	O 	0.1707	0.2395	0.9027	-0.479
Mof_O 	O 	0.7413	0.5811	0.2957	-0.501
Mof_O 	O 	0.105	0.203	0.595	-0.452
Mof_O 	O 	0.9674	0.9786	0.8265	-0.478
Mof_O 	O 	0.7517	0.865	0.208	-0.872
Mof_O 	O 	0.6626	0.6785	0.2002	-0.527
Mof_O 	O 	0.9772	0.461	0.6867	-0.51
Mof_O 	O 	0.0228	0.539	0.3133	-0.51
Mof_O 	O 	0.022	0.151	0.7788	-0.914
Mof_O 	O 	0.5888	0.8843	0.136	-0.46
Mof_O 	O 	0.6718	0.9995	0.3093	-0.481
Mof_O 	O 	0.8293	0.7605	0.0973	-0.479
Mof_O 	O 	0.8227	0.6189	0.3895	-0.446
Mof_O 	O 	0.2945	0.0203	0.9625	-0.467
Mof_O 	O 	0.1875	0.9297	0.7714	-0.487
Mof_O 	O 	0.3282	0.0005	0.6907	-0.481
Mof_O 	O 	0.895	0.797	0.405	-0.452
Mof_O 	O 	0.8602	0.0722	0.9335	-0.532
Mof_O 	O 	0.209	0.8123	0.1647	-0.626
Mof_O 	O 	0.1398	0.9278	0.0665	-0.532
Mof_O 	O 	0.8125	0.0703	0.2286	-0.487
Mof_O 	O 	0.9418	0.44	0.2369	-0.495
Mof_O 	O 	0.1831	0.5954	0.2318	-0.685
Mof_O 	O 	0.5233	0.9901	0.2339	-0.467
Mof_O 	O 	0.5884	0.7869	0.2946	-0.532
Mof_O 	O 	0.1023	0.715	0.3322	-0.643
Mof_O 	O 	0.1438	0.4568	0.8624	-0.444
Mof_O 	O 	0.8977	0.285	0.6678	-0.643
Mof_O 	O 	0.1927	0.3699	0.2425	-0.538
Mof_O 	O 	0.1362	0.9284	0.2689	-0.621
Mof_O 	O 	0.4116	0.2131	0.7054	-0.532
Mof_O 	O 	0.2587	0.4189	0.7043	-0.501
Mof_O 	O 	0.8169	0.4046	0.7682	-0.685
Mof_O 	O 	0.8562	0.5432	0.1376	-0.444
Mof_O 	O 	0.0582	0.56	0.7631	-0.495
Mof_O 	O 	0.0927	0.5105	0.1514	-0.467
Mof_O 	O 	0.6528	0.834	0.3939	-0.431
Mof_O 	O 	0.978	0.849	0.2212	-0.914
Mof_O 	O 	0.1773	0.3811	0.6105	-0.446
Mof_O 	O 	0.8945	0.9783	0.3258	-0.505
Mof_O 	O 	0.3374	0.3215	0.7998	-0.527
Mof_O 	O 	0.2483	0.135	0.792	-0.872
Mof_O 	O 	0.1631	0.2297	0.6918	-0.804
Mof_O 	O 	0.7055	0.9797	0.0375	-0.467
Mof_O 	O 	0.0538	0.7411	0.1141	-0.524
_end
