# CIF file generated by openbabel 3.1.0, see https://openbabel.org
data_I
_chemical_name_common 'image0'
_cell_length_a 17.709
_cell_length_b 17.709
_cell_length_c 11.523
_cell_angle_alpha 90
_cell_angle_beta 90
_cell_angle_gamma 90
_space_group_name_H-M_alt 'P 1'
_space_group_name_Hall 'P 1'
loop_
    _symmetry_equiv_pos_as_xyz
    x,y,z
loop_
    _atom_site_label
    _atom_site_type_symbol
    _atom_site_fract_x
    _atom_site_fract_y
    _atom_site_fract_z
    _atom_site_occupancy
    Zn1      Zn       0.25976    0.71064    0.10032    1.000
    N1       N        0.19380    0.66880    0.22730    1.000
    N2       N        0.18890    0.69550    0.33970    1.000
    N3       N        0.11700    0.59390    0.32480    1.000
    C1       C        0.04670    0.71160    0.53100    1.000
    H1       H        0.03340    0.73010    0.45550    1.000
    H2       H        0.05700    0.75340    0.58160    1.000
    H3       H        0.00560    0.68250    0.56190    1.000
    C2       C        0.12300    0.65740    0.52080    1.000
    H4       H        0.16470    0.68020    0.56260    1.000
    H5       H        0.11310    0.60810    0.55420    1.000
    C3       C        0.14260    0.64960    0.39450    1.000
    C4       C        0.15100    0.60820    0.22350    1.000
    H6       H        0.14490    0.57850    0.15760    1.000
    C5       C        0.18640    0.60360    0.58840    1.000
    H7       H        0.22210    0.58460    0.53290    1.000
    H8       H        0.16130    0.56200    0.62540    1.000
    H9       H        0.21240    0.63310    0.64570    1.000
    H10      H        0.07210    0.63960    0.53580    1.000
    H11      H        0.12700    0.70960    0.54570    1.000
    Zn2      Zn       0.75976    0.21064    0.60032    1.000
    N4       N        0.69380    0.16880    0.72730    1.000
    N5       N        0.68890    0.19550    0.83970    1.000
    N6       N        0.61700    0.09390    0.82480    1.000
    C6       C        0.54670    0.21160    0.03100    1.000
    H12      H        0.53340    0.23010    0.95550    1.000
    H13      H        0.55700    0.25340    0.08160    1.000
    H14      H        0.50560    0.18250    0.06190    1.000
    C7       C        0.62300    0.15740    0.02080    1.000
    H15      H        0.66470    0.18020    0.06260    1.000
    H16      H        0.61310    0.10810    0.05420    1.000
    C8       C        0.64260    0.14960    0.89450    1.000
    C9       C        0.65100    0.10820    0.72350    1.000
    H17      H        0.64490    0.07850    0.65760    1.000
    C10      C        0.68640    0.10360    0.08840    1.000
    H18      H        0.72210    0.08460    0.03290    1.000
    H19      H        0.66130    0.06200    0.12540    1.000
    H20      H        0.71240    0.13310    0.14570    1.000
    H21      H        0.57210    0.13960    0.03580    1.000
    H22      H        0.62700    0.20960    0.04570    1.000
    Zn3      Zn       0.24024    0.28936    0.60032    1.000
    N7       N        0.30620    0.33120    0.72730    1.000
    N8       N        0.31110    0.30450    0.83970    1.000
    N9       N        0.38300    0.40610    0.82480    1.000
    C11      C        0.45330    0.28840    0.03100    1.000
    H23      H        0.46660    0.26990    0.95550    1.000
    H24      H        0.44300    0.24660    0.08160    1.000
    H25      H        0.49440    0.31750    0.06190    1.000
    C12      C        0.37700    0.34260    0.02080    1.000
    H26      H        0.33530    0.31980    0.06260    1.000
    H27      H        0.38690    0.39190    0.05420    1.000
    C13      C        0.35740    0.35040    0.89450    1.000
    C14      C        0.34900    0.39180    0.72350    1.000
    H28      H        0.35510    0.42150    0.65760    1.000
    C15      C        0.31360    0.39640    0.08840    1.000
    H29      H        0.27790    0.41540    0.03290    1.000
    H30      H        0.33870    0.43800    0.12540    1.000
    H31      H        0.28760    0.36690    0.14570    1.000
    H32      H        0.42790    0.36040    0.03580    1.000
    H33      H        0.37300    0.29040    0.04570    1.000
    Zn4      Zn       0.74024    0.78936    0.10032    1.000
    N10      N        0.80620    0.83120    0.22730    1.000
    N11      N        0.81110    0.80450    0.33970    1.000
    N12      N        0.88300    0.90610    0.32480    1.000
    C16      C        0.95330    0.78840    0.53100    1.000
    H34      H        0.96660    0.76990    0.45550    1.000
    H35      H        0.94300    0.74660    0.58160    1.000
    H36      H        0.99440    0.81750    0.56190    1.000
    C17      C        0.87700    0.84260    0.52080    1.000
    H37      H        0.83530    0.81980    0.56260    1.000
    H38      H        0.88690    0.89190    0.55420    1.000
    C18      C        0.85740    0.85040    0.39450    1.000
    C19      C        0.84900    0.89180    0.22350    1.000
    H39      H        0.85510    0.92150    0.15760    1.000
    C20      C        0.81360    0.89640    0.58840    1.000
    H40      H        0.77790    0.91540    0.53290    1.000
    H41      H        0.83870    0.93800    0.62540    1.000
    H42      H        0.78760    0.86690    0.64570    1.000
    H43      H        0.92790    0.86040    0.53580    1.000
    H44      H        0.87300    0.79040    0.54570    1.000
    Zn5      Zn       0.03936    0.50976    0.35032    1.000
    N13      N        0.08120    0.44380    0.47730    1.000
    N14      N        0.05450    0.43890    0.58970    1.000
    N15      N        0.15610    0.36700    0.57480    1.000
    C21      C        0.03840    0.29670    0.78100    1.000
    H45      H        0.01990    0.28340    0.70550    1.000
    H46      H        0.99660    0.30700    0.83160    1.000
    H47      H        0.06750    0.25560    0.81190    1.000
    C22      C        0.09260    0.37300    0.77080    1.000
    H48      H        0.06980    0.41470    0.81260    1.000
    H49      H        0.14190    0.36310    0.80420    1.000
    C23      C        0.10040    0.39260    0.64450    1.000
    C24      C        0.14180    0.40100    0.47350    1.000
    H50      H        0.17150    0.39490    0.40760    1.000
    C25      C        0.14640    0.43640    0.83840    1.000
    H51      H        0.16540    0.47210    0.78290    1.000
    H52      H        0.18800    0.41130    0.87540    1.000
    H53      H        0.11690    0.46240    0.89570    1.000
    H54      H        0.11040    0.32210    0.78580    1.000
    H55      H        0.04040    0.37700    0.79570    1.000
    Zn6      Zn       0.53936    0.00976    0.85032    1.000
    N16      N        0.58120    0.94380    0.97730    1.000
    N17      N        0.55450    0.93890    0.08970    1.000
    N18      N        0.65610    0.86700    0.07480    1.000
    C26      C        0.53840    0.79670    0.28100    1.000
    H56      H        0.51990    0.78340    0.20550    1.000
    H57      H        0.49660    0.80700    0.33160    1.000
    H58      H        0.56750    0.75560    0.31190    1.000
    C27      C        0.59260    0.87300    0.27080    1.000
    H59      H        0.56980    0.91470    0.31260    1.000
    H60      H        0.64190    0.86310    0.30420    1.000
    C28      C        0.60040    0.89260    0.14450    1.000
    C29      C        0.64180    0.90100    0.97350    1.000
    H61      H        0.67150    0.89490    0.90760    1.000
    C30      C        0.64640    0.93640    0.33840    1.000
    H62      H        0.66540    0.97210    0.28290    1.000
    H63      H        0.68800    0.91130    0.37540    1.000
    H64      H        0.61690    0.96240    0.39570    1.000
    H65      H        0.61040    0.82210    0.28580    1.000
    H66      H        0.54040    0.87700    0.29570    1.000
    Zn7      Zn       0.46064    0.49024    0.85032    1.000
    N19      N        0.41880    0.55620    0.97730    1.000
    N20      N        0.44550    0.56110    0.08970    1.000
    N21      N        0.34390    0.63300    0.07480    1.000
    C31      C        0.46160    0.70330    0.28100    1.000
    H67      H        0.48010    0.71660    0.20550    1.000
    H68      H        0.50340    0.69300    0.33160    1.000
    H69      H        0.43250    0.74440    0.31190    1.000
    C32      C        0.40740    0.62700    0.27080    1.000
    H70      H        0.43020    0.58530    0.31260    1.000
    H71      H        0.35810    0.63690    0.30420    1.000
    C33      C        0.39960    0.60740    0.14450    1.000
    C34      C        0.35820    0.59900    0.97350    1.000
    H72      H        0.32850    0.60510    0.90760    1.000
    C35      C        0.35360    0.56360    0.33840    1.000
    H73      H        0.33460    0.52790    0.28290    1.000
    H74      H        0.31200    0.58870    0.37540    1.000
    H75      H        0.38310    0.53760    0.39570    1.000
    H76      H        0.38960    0.67790    0.28580    1.000
    H77      H        0.45960    0.62300    0.29570    1.000
    Zn8      Zn       0.96064    0.99024    0.35032    1.000
    N22      N        0.91880    0.05620    0.47730    1.000
    N23      N        0.94550    0.06110    0.58970    1.000
    N24      N        0.84390    0.13300    0.57480    1.000
    C36      C        0.96160    0.20330    0.78100    1.000
    H78      H        0.98010    0.21660    0.70550    1.000
    H79      H        0.00340    0.19300    0.83160    1.000
    H80      H        0.93250    0.24440    0.81190    1.000
    C37      C        0.90740    0.12700    0.77080    1.000
    H81      H        0.93020    0.08530    0.81260    1.000
    H82      H        0.85810    0.13690    0.80420    1.000
    C38      C        0.89960    0.10740    0.64450    1.000
    C39      C        0.85820    0.09900    0.47350    1.000
    H83      H        0.82850    0.10510    0.40760    1.000
    C40      C        0.85360    0.06360    0.83840    1.000
    H84      H        0.83460    0.02790    0.78290    1.000
    H85      H        0.81200    0.08870    0.87540    1.000
    H86      H        0.88310    0.03760    0.89570    1.000
    H87      H        0.88960    0.17790    0.78580    1.000
    H88      H        0.95960    0.12300    0.79570    1.000
    Zn9      Zn       0.74024    0.28936    0.89968    1.000
    N25      N        0.80620    0.33120    0.77270    1.000
    N26      N        0.81110    0.30450    0.66030    1.000
    N27      N        0.88300    0.40610    0.67520    1.000
    C41      C        0.95330    0.28840    0.46900    1.000
    H89      H        0.96660    0.26990    0.54450    1.000
    H90      H        0.94300    0.24660    0.41840    1.000
    H91      H        0.99440    0.31750    0.43810    1.000
    C42      C        0.87700    0.34260    0.47920    1.000
    H92      H        0.83530    0.31980    0.43740    1.000
    H93      H        0.88690    0.39190    0.44580    1.000
    C43      C        0.85740    0.35040    0.60550    1.000
    C44      C        0.84900    0.39180    0.77650    1.000
    H94      H        0.85510    0.42150    0.84240    1.000
    C45      C        0.81360    0.39640    0.41160    1.000
    H95      H        0.77790    0.41540    0.46710    1.000
    H96      H        0.83870    0.43800    0.37460    1.000
    H97      H        0.78760    0.36690    0.35430    1.000
    H98      H        0.92790    0.36040    0.46420    1.000
    H99      H        0.87300    0.29040    0.45430    1.000
    Zn10     Zn       0.24024    0.78936    0.39968    1.000
    N28      N        0.30620    0.83120    0.27270    1.000
    N29      N        0.31110    0.80450    0.16030    1.000
    N30      N        0.38300    0.90610    0.17520    1.000
    C46      C        0.45330    0.78840    0.96900    1.000
    H100     H        0.46660    0.76990    0.04450    1.000
    H101     H        0.44300    0.74660    0.91840    1.000
    H102     H        0.49440    0.81750    0.93810    1.000
    C47      C        0.37700    0.84260    0.97920    1.000
    H103     H        0.33530    0.81980    0.93740    1.000
    H104     H        0.38690    0.89190    0.94580    1.000
    C48      C        0.35740    0.85040    0.10550    1.000
    C49      C        0.34900    0.89180    0.27650    1.000
    H105     H        0.35510    0.92150    0.34240    1.000
    C50      C        0.31360    0.89640    0.91160    1.000
    H106     H        0.27790    0.91540    0.96710    1.000
    H107     H        0.33870    0.93800    0.87460    1.000
    H108     H        0.28760    0.86690    0.85430    1.000
    H109     H        0.42790    0.86040    0.96420    1.000
    H110     H        0.37300    0.79040    0.95430    1.000
    Zn11     Zn       0.75976    0.71064    0.39968    1.000
    N31      N        0.69380    0.66880    0.27270    1.000
    N32      N        0.68890    0.69550    0.16030    1.000
    N33      N        0.61700    0.59390    0.17520    1.000
    C51      C        0.54670    0.71160    0.96900    1.000
    H111     H        0.53340    0.73010    0.04450    1.000
    H112     H        0.55700    0.75340    0.91840    1.000
    H113     H        0.50560    0.68250    0.93810    1.000
    C52      C        0.62300    0.65740    0.97920    1.000
    H114     H        0.66470    0.68020    0.93740    1.000
    H115     H        0.61310    0.60810    0.94580    1.000
    C53      C        0.64260    0.64960    0.10550    1.000
    C54      C        0.65100    0.60820    0.27650    1.000
    H116     H        0.64490    0.57850    0.34240    1.000
    C55      C        0.68640    0.60360    0.91160    1.000
    H117     H        0.72210    0.58460    0.96710    1.000
    H118     H        0.66130    0.56200    0.87460    1.000
    H119     H        0.71240    0.63310    0.85430    1.000
    H120     H        0.57210    0.63960    0.96420    1.000
    H121     H        0.62700    0.70960    0.95430    1.000
    Zn12     Zn       0.25976    0.21064    0.89968    1.000
    N34      N        0.19380    0.16880    0.77270    1.000
    N35      N        0.18890    0.19550    0.66030    1.000
    N36      N        0.11700    0.09390    0.67520    1.000
    C56      C        0.04670    0.21160    0.46900    1.000
    H122     H        0.03340    0.23010    0.54450    1.000
    H123     H        0.05700    0.25340    0.41840    1.000
    H124     H        0.00560    0.18250    0.43810    1.000
    C57      C        0.12300    0.15740    0.47920    1.000
    H125     H        0.16470    0.18020    0.43740    1.000
    H126     H        0.11310    0.10810    0.44580    1.000
    C58      C        0.14260    0.14960    0.60550    1.000
    C59      C        0.15100    0.10820    0.77650    1.000
    H127     H        0.14490    0.07850    0.84240    1.000
    C60      C        0.18640    0.10360    0.41160    1.000
    H128     H        0.22210    0.08460    0.46710    1.000
    H129     H        0.16130    0.06200    0.37460    1.000
    H130     H        0.21240    0.13310    0.35430    1.000
    H131     H        0.07210    0.13960    0.46420    1.000
    H132     H        0.12700    0.20960    0.45430    1.000
    Zn13     Zn       0.96064    0.49024    0.64968    1.000
    N37      N        0.91880    0.55620    0.52270    1.000
    N38      N        0.94550    0.56110    0.41030    1.000
    N39      N        0.84390    0.63300    0.42520    1.000
    C61      C        0.96160    0.70330    0.21900    1.000
    H133     H        0.98010    0.71660    0.29450    1.000
    H134     H        0.00340    0.69300    0.16840    1.000
    H135     H        0.93250    0.74440    0.18810    1.000
    C62      C        0.90740    0.62700    0.22920    1.000
    H136     H        0.93020    0.58530    0.18740    1.000
    H137     H        0.85810    0.63690    0.19580    1.000
    C63      C        0.89960    0.60740    0.35550    1.000
    C64      C        0.85820    0.59900    0.52650    1.000
    H138     H        0.82850    0.60510    0.59240    1.000
    C65      C        0.85360    0.56360    0.16160    1.000
    H139     H        0.83460    0.52790    0.21710    1.000
    H140     H        0.81200    0.58870    0.12460    1.000
    H141     H        0.88310    0.53760    0.10430    1.000
    H142     H        0.88960    0.67790    0.21420    1.000
    H143     H        0.95960    0.62300    0.20430    1.000
    Zn14     Zn       0.46064    0.99024    0.14968    1.000
    N40      N        0.41880    0.05620    0.02270    1.000
    N41      N        0.44550    0.06110    0.91030    1.000
    N42      N        0.34390    0.13300    0.92520    1.000
    C66      C        0.46160    0.20330    0.71900    1.000
    H144     H        0.48010    0.21660    0.79450    1.000
    H145     H        0.50340    0.19300    0.66840    1.000
    H146     H        0.43250    0.24440    0.68810    1.000
    C67      C        0.40740    0.12700    0.72920    1.000
    H147     H        0.43020    0.08530    0.68740    1.000
    H148     H        0.35810    0.13690    0.69580    1.000
    C68      C        0.39960    0.10740    0.85550    1.000
    C69      C        0.35820    0.09900    0.02650    1.000
    H149     H        0.32850    0.10510    0.09240    1.000
    C70      C        0.35360    0.06360    0.66160    1.000
    H150     H        0.33460    0.02790    0.71710    1.000
    H151     H        0.31200    0.08870    0.62460    1.000
    H152     H        0.38310    0.03760    0.60430    1.000
    H153     H        0.38960    0.17790    0.71420    1.000
    H154     H        0.45960    0.12300    0.70430    1.000
    Zn15     Zn       0.53936    0.50976    0.14968    1.000
    N43      N        0.58120    0.44380    0.02270    1.000
    N44      N        0.55450    0.43890    0.91030    1.000
    N45      N        0.65610    0.36700    0.92520    1.000
    C71      C        0.53840    0.29670    0.71900    1.000
    H155     H        0.51990    0.28340    0.79450    1.000
    H156     H        0.49660    0.30700    0.66840    1.000
    H157     H        0.56750    0.25560    0.68810    1.000
    C72      C        0.59260    0.37300    0.72920    1.000
    H158     H        0.56980    0.41470    0.68740    1.000
    H159     H        0.64190    0.36310    0.69580    1.000
    C73      C        0.60040    0.39260    0.85550    1.000
    C74      C        0.64180    0.40100    0.02650    1.000
    H160     H        0.67150    0.39490    0.09240    1.000
    C75      C        0.64640    0.43640    0.66160    1.000
    H161     H        0.66540    0.47210    0.71710    1.000
    H162     H        0.68800    0.41130    0.62460    1.000
    H163     H        0.61690    0.46240    0.60430    1.000
    H164     H        0.61040    0.32210    0.71420    1.000
    H165     H        0.54040    0.37700    0.70430    1.000
    Zn16     Zn       0.03936    0.00976    0.64968    1.000
    N46      N        0.08120    0.94380    0.52270    1.000
    N47      N        0.05450    0.93890    0.41030    1.000
    N48      N        0.15610    0.86700    0.42520    1.000
    C76      C        0.03840    0.79670    0.21900    1.000
    H166     H        0.01990    0.78340    0.29450    1.000
    H167     H        0.99660    0.80700    0.16840    1.000
    H168     H        0.06750    0.75560    0.18810    1.000
    C77      C        0.09260    0.87300    0.22920    1.000
    H169     H        0.06980    0.91470    0.18740    1.000
    H170     H        0.14190    0.86310    0.19580    1.000
    C78      C        0.10040    0.89260    0.35550    1.000
    C79      C        0.14180    0.90100    0.52650    1.000
    H171     H        0.17150    0.89490    0.59240    1.000
    C80      C        0.14640    0.93640    0.16160    1.000
    H172     H        0.16540    0.97210    0.21710    1.000
    H173     H        0.18800    0.91130    0.12460    1.000
    H174     H        0.11690    0.96240    0.10430    1.000
    H175     H        0.11040    0.82210    0.21420    1.000
    H176     H        0.04040    0.87700    0.20430    1.000
