# CIF file generated by openbabel 3.1.0, see https://openbabel.org
data_I
_chemical_name_common 'image0'
_cell_length_a 9.0912
_cell_length_b 9.6445
_cell_length_c 11.5135
_cell_angle_alpha 106.894
_cell_angle_beta 93.993
_cell_angle_gamma 108.215
_space_group_name_H-M_alt 'P 1'
_space_group_name_Hall 'P 1'
loop_
    _symmetry_equiv_pos_as_xyz
    x,y,z
loop_
    _atom_site_label
    _atom_site_type_symbol
    _atom_site_fract_x
    _atom_site_fract_y
    _atom_site_fract_z
    _atom_site_occupancy
    Dy1      Dy       0.27898    0.52825    0.99142    1.000
    O1       O        0.13630    0.68150    0.04510    1.000
    O2       O        0.11790    0.48630    0.78990    1.000
    O3       O        0.41890    0.38870    0.04740    1.000
    O4       O        0.91460    0.72650    0.07860    1.000
    O5       O        0.57230    0.25850    0.07760    1.000
    O6       O        0.30410    0.38510    0.78810    1.000
    C1       C        0.28580    0.99760    0.06960    1.000
    C2       C        0.14500    0.93780    0.09870    1.000
    N1       N        0.09110    0.05320    0.14510    1.000
    C3       C        0.05390    0.76600    0.07240    1.000
    N2       N        0.18810    0.18760    0.14460    1.000
    C4       C        0.44200    0.27600    0.07350    1.000
    C5       C        0.95600    0.25400    0.40760    1.000
    C6       C        0.31380    0.15580    0.09660    1.000
    C7       C        0.01420    0.14350    0.34920    1.000
    C8       C        0.01000    0.33400    0.53400    1.000
    C9       C        0.12570    0.30810    0.59900    1.000
    C10      C        0.18860    0.39970    0.73290    1.000
    C11      C        0.95860    0.05630    0.21200    1.000
    C12      C        0.12660    0.10850    0.41330    1.000
    C13      C        0.18390    0.19190    0.53880    1.000
    H1       H        0.35900    0.96500    0.00100    1.000
    H2       H        0.88000    0.96000    0.18400    1.000
    H3       H        0.16400    0.02500    0.34500    1.000
    H4       H        0.95400    0.39100    0.60700    1.000
    H5       H        0.27800    0.19400    0.60600    1.000
    H6       H        0.93000    0.29200    0.32900    1.000
    H7       H        0.89000    0.10600    0.16300    1.000
    Dy2      Dy       0.72102    0.47175    0.00858    1.000
    O7       O        0.86370    0.31850    0.95490    1.000
    O8       O        0.88210    0.51370    0.21010    1.000
    O9       O        0.58110    0.61130    0.95260    1.000
    O10      O        0.08540    0.27350    0.92140    1.000
    O11      O        0.42770    0.74150    0.92240    1.000
    O12      O        0.69590    0.61490    0.21190    1.000
    C14      C        0.71420    0.00240    0.93040    1.000
    C15      C        0.85500    0.06220    0.90130    1.000
    N3       N        0.90890    0.94680    0.85490    1.000
    C16      C        0.94610    0.23400    0.92760    1.000
    N4       N        0.81190    0.81240    0.85540    1.000
    C17      C        0.55800    0.72400    0.92650    1.000
    C18      C        0.04400    0.74600    0.59240    1.000
    C19      C        0.68620    0.84420    0.90340    1.000
    C20      C        0.98580    0.85650    0.65080    1.000
    C21      C        0.99000    0.66600    0.46600    1.000
    C22      C        0.87430    0.69190    0.40100    1.000
    C23      C        0.81140    0.60030    0.26710    1.000
    C24      C        0.04140    0.94370    0.78800    1.000
    C25      C        0.87340    0.89150    0.58670    1.000
    C26      C        0.81610    0.80810    0.46120    1.000
    H8       H        0.64100    0.03500    0.99900    1.000
    H9       H        0.12000    0.04000    0.81600    1.000
    H10      H        0.83600    0.97500    0.65500    1.000
    H11      H        0.04600    0.60900    0.39300    1.000
    H12      H        0.72200    0.80600    0.39400    1.000
    H13      H        0.07000    0.70800    0.67100    1.000
    H14      H        0.11000    0.89400    0.83700    1.000
