# CIF file generated by openbabel 3.1.0, see https://openbabel.org
data_I
_chemical_name_common 'image0'
_cell_length_a 21.7036
_cell_length_b 21.7036
_cell_length_c 6.844
_cell_angle_alpha 90
_cell_angle_beta 90
_cell_angle_gamma 120
_space_group_name_H-M_alt 'P 1'
_space_group_name_Hall 'P 1'
loop_
    _symmetry_equiv_pos_as_xyz
    x,y,z
loop_
    _atom_site_label
    _atom_site_type_symbol
    _atom_site_fract_x
    _atom_site_fract_y
    _atom_site_fract_z
    _atom_site_occupancy
    Co1      Co       0.28176    0.60829    0.33908    1.000
    O1       O        0.41990    0.62880    0.78650    1.000
    O2       O        0.36240    0.65010    0.54950    1.000
    O3       O        0.35250    0.58910    0.19320    1.000
    C1       C        0.39550    0.61970    0.61540    1.000
    C2       C        0.40570    0.51810    0.17440    1.000
    H1       H        0.39510    0.51230    0.03870    1.000
    C3       C        0.43810    0.48340    0.25520    1.000
    H2       H        0.44800    0.45340    0.17610    1.000
    C4       C        0.40800    0.57230    0.48290    1.000
    C5       C        0.38780    0.56120    0.28150    1.000
    C6       C        0.44120    0.53760    0.56120    1.000
    H3       H        0.45410    0.54530    0.69530    1.000
    C7       C        0.45680    0.49220    0.45570    1.000
    Co2      Co       0.39171    0.67347    0.00575    1.000
    O4       O        0.37120    0.79110    0.45317    1.000
    O5       O        0.34990    0.71230    0.21617    1.000
    O6       O        0.41090    0.76340    0.85987    1.000
    C8       C        0.38030    0.77580    0.28207    1.000
    C9       C        0.48190    0.88760    0.84107    1.000
    H4       H        0.48770    0.88280    0.70537    1.000
    C10      C        0.51660    0.95470    0.92187    1.000
    H5       H        0.54660    0.99460    0.84277    1.000
    C11      C        0.42770    0.83570    0.14957    1.000
    C12      C        0.43880    0.82660    0.94817    1.000
    C13      C        0.46240    0.90360    0.22787    1.000
    H6       H        0.45470    0.90880    0.36197    1.000
    C14      C        0.50780    0.96460    0.12237    1.000
    Co3      Co       0.32653    0.71824    0.67241    1.000
    O7       O        0.20890    0.58010    0.11983    1.000
    O8       O        0.28770    0.63760    0.88283    1.000
    O9       O        0.23660    0.64750    0.52653    1.000
    C15      C        0.22420    0.60450    0.94873    1.000
    C16      C        0.11240    0.59430    0.50773    1.000
    H7       H        0.11720    0.60490    0.37203    1.000
    C17      C        0.04530    0.56190    0.58853    1.000
    H8       H        0.00540    0.55200    0.50943    1.000
    C18      C        0.16430    0.59200    0.81623    1.000
    C19      C        0.17340    0.61220    0.61483    1.000
    C20      C        0.09640    0.55880    0.89453    1.000
    H9       H        0.09120    0.54590    0.02863    1.000
    C21      C        0.03540    0.54320    0.78903    1.000
    Co4      Co       0.60829    0.28176    0.66092    1.000
    O10      O        0.62880    0.41990    0.21350    1.000
    O11      O        0.65010    0.36240    0.45050    1.000
    O12      O        0.58910    0.35250    0.80680    1.000
    C22      C        0.61970    0.39550    0.38460    1.000
    C23      C        0.51810    0.40570    0.82560    1.000
    H10      H        0.51230    0.39510    0.96130    1.000
    C24      C        0.48340    0.43810    0.74480    1.000
    H11      H        0.45340    0.44800    0.82390    1.000
    C25      C        0.57230    0.40800    0.51710    1.000
    C26      C        0.56120    0.38780    0.71850    1.000
    C27      C        0.53760    0.44120    0.43880    1.000
    H12      H        0.54530    0.45410    0.30470    1.000
    C28      C        0.49220    0.45680    0.54430    1.000
    Co5      Co       0.67347    0.39171    0.99425    1.000
    O13      O        0.79110    0.37120    0.54683    1.000
    O14      O        0.71230    0.34990    0.78383    1.000
    O15      O        0.76340    0.41090    0.14013    1.000
    C29      C        0.77580    0.38030    0.71793    1.000
    C30      C        0.88760    0.48190    0.15893    1.000
    H13      H        0.88280    0.48770    0.29463    1.000
    C31      C        0.95470    0.51660    0.07813    1.000
    H14      H        0.99460    0.54660    0.15723    1.000
    C32      C        0.83570    0.42770    0.85043    1.000
    C33      C        0.82660    0.43880    0.05183    1.000
    C34      C        0.90360    0.46240    0.77213    1.000
    H15      H        0.90880    0.45470    0.63803    1.000
    C35      C        0.96460    0.50780    0.87763    1.000
    Co6      Co       0.71824    0.32653    0.32759    1.000
    O16      O        0.58010    0.20890    0.88017    1.000
    O17      O        0.63760    0.28770    0.11717    1.000
    O18      O        0.64750    0.23660    0.47347    1.000
    C36      C        0.60450    0.22420    0.05127    1.000
    C37      C        0.59430    0.11240    0.49227    1.000
    H16      H        0.60490    0.11720    0.62797    1.000
    C38      C        0.56190    0.04530    0.41147    1.000
    H17      H        0.55200    0.00540    0.49057    1.000
    C39      C        0.59200    0.16430    0.18377    1.000
    C40      C        0.61220    0.17340    0.38517    1.000
    C41      C        0.55880    0.09640    0.10547    1.000
    H18      H        0.54590    0.09120    0.97137    1.000
    C42      C        0.54320    0.03540    0.21097    1.000
