# CIF file generated by openbabel 3.1.0, see https://openbabel.org
data_I
_chemical_name_common 'NOQLOV01_charged'
_cell_length_a 8.6688
_cell_length_b 9.0355
_cell_length_c 16.1828
_cell_angle_alpha 82.6179
_cell_angle_beta 74.4641
_cell_angle_gamma 61.3337
_space_group_name_H-M_alt 'P 1'
_space_group_name_Hall 'P 1'
loop_
    _symmetry_equiv_pos_as_xyz
    x,y,z
loop_
    _atom_site_label
    _atom_site_type_symbol
    _atom_site_fract_x
    _atom_site_fract_y
    _atom_site_fract_z
    _atom_site_occupancy
    In1      In       0.44079    0.02717    0.62953    1.000
    In2      In       0.09749    0.97283    0.37047    1.000
    In3      In       0.32032    0.52717    0.87047    1.000
    In4      In       0.71796    0.47283    0.12953    1.000
    C1       C        0.32632    0.87660    0.50876    1.000
    C2       C        0.27642    0.84760    0.76636    1.000
    C3       C        0.23999    0.06620    0.49742    1.000
    C4       C        0.47945    0.72560    0.74850    1.000
    C5       C        0.71168    0.12340    0.49124    1.000
    C6       C        0.89038    0.15240    0.23364    1.000
    C7       C        0.80361    0.93380    0.50258    1.000
    C8       C        0.95355    0.27440    0.25150    1.000
    C9       C        0.08508    0.37660    0.99124    1.000
    C10      C        0.29278    0.34760    0.73364    1.000
    C11      C        0.98741    0.56620    0.00258    1.000
    C12      C        0.47795    0.22560    0.75150    1.000
    C13      C        0.45292    0.62340    0.00876    1.000
    C14      C        0.37402    0.65240    0.26636    1.000
    C15      C        0.55619    0.43380    0.99742    1.000
    C16      C        0.45505    0.77440    0.24850    1.000
    O1       O        0.17321    0.79782    0.81676    1.000
    O2       O        0.14752    0.12894    0.44202    1.000
    O3       O        0.29662    0.79680    0.46256    1.000
    O4       O        0.52708    0.58248    0.78336    1.000
    O5       O        0.22889    0.99032    0.73030    1.000
    O6       O        0.58246    0.77604    0.70084    1.000
    O7       O        0.25863    0.15304    0.54490    1.000
    O8       O        0.42107    0.81860    0.56306    1.000
    O9       O        0.78779    0.20218    0.18324    1.000
    O10      O        0.71848    0.87106    0.55798    1.000
    O11      O        0.55598    0.20320    0.53744    1.000
    O12      O        0.89292    0.41752    0.21664    1.000
    O13      O        0.94951    0.00968    0.26970    1.000
    O14      O        0.05934    0.22396    0.29916    1.000
    O15      O        0.95657    0.84696    0.45510    1.000
    O16      O        0.80273    0.18140    0.43694    1.000
    O17      O        0.23997    0.29782    0.68324    1.000
    O18      O        0.83954    0.62894    0.05798    1.000
    O19      O        0.00918    0.29680    0.03744    1.000
    O20      O        0.56044    0.08248    0.71664    1.000
    O21      O        0.20919    0.49032    0.76970    1.000
    O22      O        0.53330    0.27604    0.79916    1.000
    O23      O        0.05353    0.65304    0.95510    1.000
    O24      O        0.23413    0.31860    0.93694    1.000
    O25      O        0.22103    0.70218    0.31676    1.000
    O26      O        0.52646    0.37106    0.94202    1.000
    O27      O        0.34342    0.70320    0.96256    1.000
    O28      O        0.35956    0.91752    0.28336    1.000
    O29      O        0.46921    0.50968    0.23030    1.000
    O30      O        0.60850    0.72396    0.20084    1.000
    O31      O        0.66167    0.34696    0.04490    1.000
    O32      O        0.48967    0.68140    0.06306    1.000
    H1       H        0.76670    0.51040    0.42740    1.000
    H2       H        0.76530    0.66240    0.46500    1.000
    H3       H        0.70450    0.48960    0.57260    1.000
    H4       H        0.89270    0.33760    0.53500    1.000
    C17      C        0.83050    0.54100    0.45720    1.000
    C18      C        0.82870    0.45900    0.54280    1.000
    N1       N        0.01665    0.49420    0.40230    1.000
    N2       N        0.91315    0.50580    0.59770    1.000
    H5       H        0.44410    0.01040    0.07260    1.000
    H6       H        0.48030    0.16240    0.03500    1.000
    H7       H        0.52710    0.98960    0.92740    1.000
    H8       H        0.67770    0.83760    0.96500    1.000
    C19      C        0.53770    0.04100    0.04280    1.000
    C20      C        0.62150    0.95900    0.95720    1.000
    N3       N        0.66895    0.99420    0.09770    1.000
    N4       N        0.76085    0.00580    0.90230    1.000
