# CIF file generated by openbabel 3.1.0, see https://openbabel.org
data_I
_chemical_name_common 'cg050585esi20051105_115011_clean'
_cell_length_a 10.741
_cell_length_b 10.804
_cell_length_c 14.05
_cell_angle_alpha 88.031
_cell_angle_beta 87.357
_cell_angle_gamma 68.716
_space_group_name_H-M_alt 'P 1'
_space_group_name_Hall 'P 1'
loop_
    _symmetry_equiv_pos_as_xyz
    x,y,z
loop_
    _atom_site_label
    _atom_site_type_symbol
    _atom_site_fract_x
    _atom_site_fract_y
    _atom_site_fract_z
    _atom_site_occupancy
    Cu1      Cu       0.24522    0.24381    0.59470    1.000
    Cu2      Cu       0.25127    0.25143    0.78033    1.000
    H1       H        0.76630    0.43680    0.60640    1.000
    H2       H        0.35720    0.81320    0.75540    1.000
    H3       H        0.40290    0.59230    0.67680    1.000
    H4       H        0.67750    0.19870    0.80880    1.000
    H5       H        0.22110    0.66680    0.80930    1.000
    H6       H        0.13020    0.68180    0.61990    1.000
    H7       H        0.42520    0.09300    0.25950    1.000
    H8       H        0.43530    0.13890    0.94730    1.000
    H9       H        0.13090    0.89920    0.80830    1.000
    H10      H        0.41150    0.08860    0.42340    1.000
    H11      H        0.80980    0.35560    0.76260    1.000
    H12      H        0.06780    0.71450    0.78100    1.000
    H13      H        0.91200    0.09310    0.68540    1.000
    H14      H        0.06300    0.37150    0.11660    1.000
    H15      H        0.07980    0.41270    0.26090    1.000
    H16      H        0.58700    0.36580    0.57560    1.000
    H17      H        0.07520    0.39870    0.42760    1.000
    H18      H        0.82180    0.28900    0.56610    1.000
    H19      H        0.43900    0.13310    0.11600    1.000
    H20      H        0.73390    0.05250    0.76530    1.000
    H21      H        0.08090    0.36520    0.94830    1.000
    H22      H        0.37570    0.06670    0.95030    1.000
    H23      H        0.35750    0.59240    0.56990    1.000
    H24      H        0.68430    0.13760    0.61000    1.000
    H25      H        0.12160    0.44430    0.11470    1.000
    H26      H        0.26520    0.82690    0.56570    1.000
    H27      H        0.58510    0.40100    0.68550    1.000
    H28      H        0.91290    0.12560    0.79560    1.000
    H29      H        0.08270    0.90390    0.70170    1.000
    H30      H        0.13100    0.44190    0.94910    1.000
    H31      H        0.41880    0.77900    0.59340    1.000
    H32      H        0.37720    0.06070    0.11510    1.000
    C1       C        0.77480    0.34390    0.62100    1.000
    C2       C        0.35500    0.18800    0.98200    1.000
    C3       C        0.17500    0.36590    0.08250    1.000
    C4       C        0.28860    0.85930    0.70750    1.000
    C5       C        0.33330    0.63980    0.63100    1.000
    C6       C        0.18010    0.36320    0.98330    1.000
    C7       C        0.14850    0.34430    0.29280    1.000
    C8       C        0.32910    0.78160    0.61560    1.000
    C9       C        0.63550    0.33790    0.63550    1.000
    C10      C        0.99890    0.29100    0.69810    1.000
    C11      C        0.20930    0.49260    0.67820    1.000
    C12      C        0.15740    0.71300    0.75950    1.000
    C13      C        0.24970    0.25150    0.13460    1.000
    C14      C        0.14810    0.33710    0.39290    1.000
    C15      C        0.72380    0.14630    0.75260    1.000
    C16      C        0.32360    0.14430    0.98400    1.000
    C17      C        0.15370    0.85470    0.74610    1.000
    C18      C        0.64020    0.19820    0.66390    1.000
    C19      C        0.25120    0.25030    0.24130    1.000
    C20      C        0.85570    0.29530    0.70900    1.000
    C21      C        0.86240    0.15460    0.73650    1.000
    C22      C        0.15800    0.31400    0.98200    1.000
    C23      C        0.32490    0.14000    0.08280    1.000
    C24      C        0.34380    0.15620    0.39020    1.000
    C25      C        0.49770    0.20380    0.67560    1.000
    C26      C        0.28170    0.00150    0.69870    1.000
    C27      C        0.35130    0.15650    0.29200    1.000
    C28      C        0.19840    0.63640    0.66820    1.000
    C29      C        0.35900    0.18400    0.08500    1.000
    C30      C        0.14500    0.32000    0.08600    1.000
    N1       N        0.25170    0.25360    0.93370    1.000
    N2       N        0.24680    0.24560    0.44190    1.000
    O1       O        0.05490    0.26930    0.61670    1.000
    O2       O        0.26610    0.06430    0.77580    1.000
    O3       O        0.28770    0.05070    0.61710    1.000
    O4       O        0.23190    0.43840    0.75950    1.000
    O5       O        0.43540    0.21540    0.59940    1.000
    O6       O        0.44750    0.19820    0.75770    1.000
    O7       O        0.05380    0.30280    0.77270    1.000
    O8       O        0.20000    0.43840    0.60360    1.000
    Cu3      Cu       0.74873    0.74857    0.21967    1.000
    Cu4      Cu       0.75478    0.75619    0.40530    1.000
    H33      H        0.91730    0.09610    0.29830    1.000
    H34      H        0.91910    0.63480    0.05170    1.000
    H35      H        0.64250    0.40760    0.43010    1.000
    H36      H        0.56100    0.86690    0.88400    1.000
    H37      H        0.58120    0.22100    0.40660    1.000
    H38      H        0.08710    0.87440    0.20440    1.000
    H39      H        0.59710    0.40770    0.32320    1.000
    H40      H        0.57480    0.90700    0.74050    1.000
    H41      H        0.93220    0.28550    0.21900    1.000
    H42      H        0.32250    0.80130    0.19120    1.000
    H43      H        0.86900    0.55810    0.05090    1.000
    H44      H        0.26610    0.94750    0.23470    1.000
    H45      H        0.08800    0.90690    0.31460    1.000
    H46      H        0.92480    0.60130    0.57240    1.000
    H47      H        0.87840    0.55570    0.88530    1.000
    H48      H        0.86980    0.31820    0.38010    1.000
    H49      H        0.31570    0.86240    0.39000    1.000
    H50      H        0.41490    0.59900    0.31450    1.000
    H51      H        0.62430    0.93330    0.04970    1.000
    H52      H        0.17820    0.71100    0.43390    1.000
    H53      H        0.19020    0.64440    0.23740    1.000
    H54      H        0.92020    0.58730    0.73910    1.000
    H55      H        0.23370    0.56320    0.39360    1.000
    H56      H        0.56470    0.86110    0.05270    1.000
    H57      H        0.77890    0.33320    0.19070    1.000
    H58      H        0.58850    0.91140    0.57660    1.000
    H59      H        0.64280    0.18680    0.24460    1.000
    H60      H        0.73480    0.17310    0.43430    1.000
    H61      H        0.93700    0.62850    0.88340    1.000
    H62      H        0.62280    0.93930    0.88490    1.000
    H63      H        0.86910    0.10080    0.19170    1.000
    H64      H        0.41300    0.63420    0.42440    1.000
    C31      C        0.36450    0.66210    0.36450    1.000
    C32      C        0.85150    0.65570    0.70720    1.000
    C33      C        0.64500    0.81200    0.01800    1.000
    C34      C        0.85190    0.66290    0.60710    1.000
    C35      C        0.00110    0.70900    0.30190    1.000
    C36      C        0.64870    0.84350    0.70800    1.000
    C37      C        0.75030    0.74850    0.86540    1.000
    C38      C        0.84260    0.28700    0.24050    1.000
    C39      C        0.80160    0.36360    0.33180    1.000
    C40      C        0.22520    0.65610    0.37900    1.000
    C41      C        0.85500    0.68000    0.91400    1.000
    C42      C        0.81990    0.63680    0.01670    1.000
    C43      C        0.50230    0.79620    0.32440    1.000
    C44      C        0.71830    0.99850    0.30130    1.000
    C45      C        0.66670    0.36020    0.36900    1.000
    C46      C        0.27620    0.85370    0.24740    1.000
    C47      C        0.67640    0.85570    0.01600    1.000
    C48      C        0.67090    0.21840    0.38440    1.000
    C49      C        0.84630    0.14530    0.25390    1.000
    C50      C        0.64100    0.81600    0.91500    1.000
    C51      C        0.79070    0.50740    0.32180    1.000
    C52      C        0.14430    0.70470    0.29100    1.000
    C53      C        0.71140    0.14070    0.29250    1.000
    C54      C        0.84200    0.68600    0.01800    1.000
    C55      C        0.65620    0.84380    0.60980    1.000
    C56      C        0.74880    0.74970    0.75870    1.000
    C57      C        0.35980    0.80180    0.33610    1.000
    C58      C        0.67510    0.86000    0.91720    1.000
    C59      C        0.82500    0.63410    0.91750    1.000
    C60      C        0.13760    0.84540    0.26350    1.000
    N3       N        0.75320    0.75440    0.55810    1.000
    N4       N        0.74830    0.74640    0.06630    1.000
    O9       O        0.80000    0.56160    0.39640    1.000
    O10      O        0.56460    0.78460    0.40060    1.000
    O11      O        0.76810    0.56160    0.24050    1.000
    O12      O        0.94510    0.73070    0.38330    1.000
    O13      O        0.71230    0.94930    0.38290    1.000
    O14      O        0.73390    0.93570    0.22420    1.000
    O15      O        0.55250    0.80180    0.24230    1.000
    O16      O        0.94620    0.69720    0.22730    1.000
