# CIF file generated by openbabel 3.1.0, see https://openbabel.org
data_I
_chemical_name_common 'OPAPOL_clean'
_cell_length_a 9.4642
_cell_length_b 11.474
_cell_length_c 14.575
_cell_angle_alpha 69.77
_cell_angle_beta 85.43
_cell_angle_gamma 86.44
_space_group_name_H-M_alt 'P 1'
_space_group_name_Hall 'P 1'
loop_
    _symmetry_equiv_pos_as_xyz
    x,y,z
loop_
    _atom_site_label
    _atom_site_type_symbol
    _atom_site_fract_x
    _atom_site_fract_y
    _atom_site_fract_z
    _atom_site_occupancy
    Tb1      Tb       0.79701    0.95465    0.00252    1.000
    Tb2      Tb       0.20299    0.04535    0.99748    1.000
    H1       H        0.86600    0.36890    0.84100    1.000
    H2       H        0.97170    0.37180    0.75200    1.000
    H3       H        0.32900    0.38800    0.88800    1.000
    H4       H        0.26300    0.48000    0.80900    1.000
    H5       H        0.87800    0.94260    0.55660    1.000
    H6       H        0.87170    0.06450    0.46460    1.000
    H7       H        0.27590    0.34810    0.39220    1.000
    H8       H        0.26020    0.28500    0.32000    1.000
    H9       H        0.85270    0.09950    0.28170    1.000
    H10      H        0.81410    0.22460    0.19780    1.000
    H11      H        0.11870    0.53410    0.43340    1.000
    H12      H        0.11240    0.41100    0.52450    1.000
    H13      H        0.66970    0.04510    0.60740    1.000
    H14      H        0.62640    0.11850    0.67230    1.000
    H15      H        0.48370    0.83640    0.80800    1.000
    H16      H        0.63460    0.83140    0.75750    1.000
    H17      H        0.02930    0.48230    0.90810    1.000
    H18      H        0.07940    0.38750    0.00770    1.000
    H19      H        0.13400    0.63110    0.15900    1.000
    H20      H        0.02830    0.62820    0.24800    1.000
    H21      H        0.67100    0.61200    0.11200    1.000
    H22      H        0.73700    0.52000    0.19100    1.000
    H23      H        0.12200    0.05740    0.44340    1.000
    H24      H        0.12830    0.93550    0.53540    1.000
    H25      H        0.72410    0.65190    0.60780    1.000
    H26      H        0.73980    0.71500    0.68000    1.000
    H27      H        0.14730    0.90050    0.71830    1.000
    H28      H        0.18590    0.77540    0.80220    1.000
    H29      H        0.88130    0.46590    0.56660    1.000
    H30      H        0.88760    0.58900    0.47550    1.000
    H31      H        0.33030    0.95490    0.39260    1.000
    H32      H        0.37360    0.88150    0.32770    1.000
    H33      H        0.51630    0.16360    0.19200    1.000
    H34      H        0.36540    0.16860    0.24250    1.000
    H35      H        0.97070    0.51770    0.09190    1.000
    H36      H        0.92060    0.61250    0.99230    1.000
    C1       C        0.92490    0.09800    0.14410    1.000
    C2       C        0.88660    0.19630    0.68040    1.000
    C3       C        0.00260    0.21800    0.87220    1.000
    C4       C        0.91120    0.31850    0.80480    1.000
    C5       C        0.92760    0.01750    0.51930    1.000
    C6       C        0.98320    0.30340    0.31530    1.000
    C7       C        0.88720    0.16000    0.22030    1.000
    C8       C        0.94220    0.09340    0.58290    1.000
    C9       C        0.99540    0.40610    0.41510    1.000
    C10      C        0.05620    0.47060    0.47530    1.000
    C11      C        0.57890    0.80000    0.81920    1.000
    C12      C        0.64070    0.84690    0.89180    1.000
    C13      C        0.40190    0.61490    0.91210    1.000
    C14      C        0.18980    0.54600    0.96030    1.000
    C15      C        0.05950    0.47480    0.97200    1.000
    C16      C        0.07510    0.90200    0.85590    1.000
    C17      C        0.11340    0.80370    0.31960    1.000
    C18      C        0.99740    0.78200    0.12780    1.000
    C19      C        0.08880    0.68150    0.19520    1.000
    C20      C        0.07240    0.98250    0.48070    1.000
    C21      C        0.01680    0.69660    0.68470    1.000
    C22      C        0.11280    0.84000    0.77970    1.000
    C23      C        0.05780    0.90660    0.41710    1.000
    C24      C        0.00460    0.59390    0.58490    1.000
    C25      C        0.94380    0.52940    0.52470    1.000
    C26      C        0.42110    0.20000    0.18080    1.000
    C27      C        0.35930    0.15310    0.10820    1.000
    C28      C        0.59810    0.38510    0.08790    1.000
    C29      C        0.81020    0.45400    0.03970    1.000
    C30      C        0.94050    0.52520    0.02800    1.000
    S1       S        0.04805    0.22599    0.23666    1.000
    S2       S        0.56874    0.63445    0.85038    1.000
    S3       S        0.77634    0.26225    0.75251    1.000
    S4       S        0.95195    0.77401    0.76334    1.000
    S5       S        0.43126    0.36555    0.14962    1.000
    S6       S        0.22366    0.73775    0.24749    1.000
    N1       N        0.30960    0.53250    0.90500    1.000
    N2       N        0.20710    0.63220    0.99690    1.000
    N3       N        0.07570    0.34760    0.36210    1.000
    N4       N        0.02250    0.20460    0.66160    1.000
    N5       N        0.34370    0.67470    0.96730    1.000
    N6       N        0.83100    0.12760    0.63350    1.000
    N7       N        0.33770    0.45300    0.85020    1.000
    N8       N        0.22300    0.32390    0.35750    1.000
    N9       N        0.05810    0.13720    0.59770    1.000
    N10      N        0.86330    0.39780    0.40400    1.000
    N11      N        0.85400    0.33110    0.33960    1.000
    N12      N        0.69110    0.09260    0.63840    1.000
    N13      N        0.69040    0.46750    0.09500    1.000
    N14      N        0.79290    0.36780    0.00310    1.000
    N15      N        0.92430    0.65240    0.63790    1.000
    N16      N        0.97750    0.79540    0.33840    1.000
    N17      N        0.65630    0.32530    0.03270    1.000
    N18      N        0.16900    0.87240    0.36650    1.000
    N19      N        0.66230    0.54700    0.14980    1.000
    N20      N        0.77700    0.67610    0.64250    1.000
    N21      N        0.94190    0.86280    0.40230    1.000
    N22      N        0.13670    0.60220    0.59600    1.000
    N23      N        0.14600    0.66890    0.66040    1.000
    N24      N        0.30890    0.90740    0.36160    1.000
    O1       O        0.82740    0.04230    0.12535    1.000
    O2       O        0.95050    0.11580    0.92537    1.000
    O3       O        0.12910    0.23980    0.87560    1.000
    O4       O        0.05000    0.10690    0.10830    1.000
    O5       O        0.68690    0.77790    0.97020    1.000
    O6       O        0.64640    0.96510    0.86630    1.000
    O7       O        0.17260    0.95770    0.87465    1.000
    O8       O        0.04950    0.88420    0.07463    1.000
    O9       O        0.87090    0.76020    0.12440    1.000
    O10      O        0.95000    0.89310    0.89170    1.000
    O11      O        0.31310    0.22210    0.02980    1.000
    O12      O        0.35360    0.03490    0.13370    1.000
