data_functionalizedCrystal
_audit_creation_method	'EQeq! by Chris Wilmer'
_symmetry_space_group_name_H-M	'P1'
_symmetry_Int_Tables_number	1
_symmetry_cell_setting	triclinic
loop_
_symmetry_equiv_pos_as_xyz
  x,y,z
_cell_length_a	20.2587
_cell_length_b	21.501
_cell_length_c	22.3879
_cell_angle_alpha	110.798
_cell_angle_beta	108.642
_cell_angle_gamma	106.054
loop_
_atom_site_label
_atom_site_type_symbol
_atom_site_fract_x
_atom_site_fract_y
_atom_site_fract_z
_atom_site_charge
Mof_Zn	Zn	0.37608	0.61675	0.43208	1.214
Mof_Zn	Zn	0.2631	0.67858	0.36153	1.23
Mof_Zn	Zn	0.556	0.81533	0.43208	1.214
Mof_Zn	Zn	0.59843	0.68295	0.36153	1.23
Mof_Zn	Zn	0.40162	0.65162	0.30324	1.219
Mof_H 	H 	0.5866	0.909	0.6222	0.013
Mof_H 	H 	0.7963	0.0916	0.9924	0.088
Mof_H 	H 	0.0699	0.0441	0.944	0.088
Mof_H 	H 	0.6507	0.9719	0.7482	0.076
Mof_H 	H 	0.0012	0.8465	0.9412	0.089
Mof_H 	H 	0.1604	0.035	0.1282	0.087
Mof_H 	H 	0.7387	0.9012	0.6402	0.019
Mof_H 	H 	0.7879	0.7312	0.5554	0.024
Mof_H 	H 	0.2962	0.28	0.2588	0.087
Mof_H 	H 	0.8336	0.9393	0.7542	0.078
Mof_H 	H 	0.3608	0.4077	0.3268	0.008
Mof_H 	H 	0.0863	0.2765	0.233	0.081
Mof_H 	H 	0.2663	0.8067	0.2504	0.032
Mof_H 	H 	0.8818	0.7687	0.6698	0.081
Mof_H 	H 	0.1918	0.3939	0.3028	0.019
Mof_H 	H 	0.0493	0.4849	0.2514	0.027
Mof_H 	H 	0.278	0.425	0.1494	0.015
Mof_H 	H 	0.2364	0.8621	0.179	0.075
Mof_H 	H 	0.943	0.37	0.1876	0.081
Mof_H 	H 	0.0516	0.7387	0.229	0.032
Mof_H 	H 	0.0194	0.7932	0.1574	0.074
Mof_H 	H 	0.2227	0.2982	0.0796	0.084
Mof_H 	H 	0.5356	0.7132	0.6222	0.012
Mof_H 	H 	0.6961	0.9008	0.9924	0.088
Mof_H 	H 	0.3741	0.8999	0.944	0.089
Mof_H 	H 	0.5975	0.7763	0.7482	0.076
Mof_H 	H 	0.44	0.0947	0.9412	0.089
Mof_H 	H 	0.4678	0.0932	0.1282	0.088
Mof_H 	H 	0.4015	0.739	0.6402	0.019
Mof_H 	H 	0.2675	0.8242	0.5554	0.024
Mof_H 	H 	0.4626	0.9788	0.2588	0.087
Mof_H 	H 	0.4206	0.8149	0.7542	0.078
Mof_H 	H 	0.466	0.9191	0.3268	0.008
Mof_H 	H 	0.6467	0.9565	0.233	0.081
Mof_H 	H 	0.4841	0.4437	0.2504	0.032
Mof_H 	H 	0.288	0.9011	0.6698	0.081
Mof_H 	H 	0.611	0.9089	0.3028	0.019
Mof_H 	H 	0.7021	0.7665	0.2514	0.027
Mof_H 	H 	0.3714	0.7244	0.1494	0.015
Mof_H 	H 	0.4426	0.3169	0.179	0.075
Mof_H 	H 	0.7446	0.8176	0.1876	0.082
Mof_H 	H 	0.6774	0.4903	0.229	0.032
Mof_H 	H 	0.638	0.3642	0.1574	0.075
Mof_H 	H 	0.3569	0.7814	0.0796	0.084
Mof_H 	H 	0.8411	0.0911	0.1822	0.09
Mof_C 	C 	0.3633	0.51194	0.28888	0.404
Mof_C 	C 	0.58917	0.88194	0.64776	0.062
Mof_C 	C 	0.78946	0.06539	0.01808	-0.15
Mof_C 	C 	0.07221	0.01611	0.96866	-0.148
Mof_C 	C 	0.97225	0.90524	0.85612	-0.034
Mof_C 	C 	0.75325	0.8113	0.58624	-0.149
Mof_C 	C 	0.12186	0.05187	0.04254	0.099
Mof_C 	C 	0.82939	0.10304	0.0941	0.101
Mof_C 	C 	0.62695	0.91929	0.7227	-0.135
Mof_C 	C 	0.03154	0.89873	0.96688	-0.151
Mof_C 	C 	0.16801	0.13069	0.08242	-0.03
Mof_C 	C 	0.12639	0.01081	0.07798	-0.152
Mof_C 	C 	0.88762	0.17861	0.13226	-0.035
Mof_C 	C 	0.19987	0.52627	0.32664	0.418
Mof_C 	C 	0.32657	0.42906	0.2453	-0.164
Mof_C 	C 	0.86687	0.85628	0.72376	0.088
Mof_C 	C 	0.76761	0.87391	0.64612	0.072
Mof_C 	C 	0.08169	0.93452	0.04076	0.096
Mof_C 	C 	0.02606	0.93993	0.93062	0.101
Mof_C 	C 	0.09176	0.89403	0.07964	-0.041
Mof_C 	C 	0.93879	0.23949	0.16494	-0.028
Mof_C 	C 	0.00427	0.31197	0.2052	0.087
Mof_C 	C 	0.20533	0.19603	0.11856	-0.039
Mof_C 	C 	0.79646	0.77336	0.59594	0.075
Mof_C 	C 	0.29209	0.30909	0.23552	-0.161
Mof_C 	C 	0.82382	0.89632	0.71382	-0.136
Mof_C 	C 	0.33062	0.38532	0.27596	0.091
Mof_C 	C 	0.07821	0.31911	0.23796	-0.14
Mof_C 	C 	0.13112	0.45074	0.284	-0.146
Mof_C 	C 	0.92538	0.88128	0.7945	-0.032
Mof_C 	C 	0.24786	0.27486	0.16194	0.102
Mof_C 	C 	0.21574	0.80384	0.2313	0.052
Mof_C 	C 	0.16256	0.76836	0.24604	-0.118
Mof_C 	C 	0.85262	0.79589	0.66428	-0.141
Mof_C 	C 	0.12541	0.83201	0.1598	0.076
Mof_C 	C 	0.14118	0.38908	0.2786	0.072
Mof_C 	C 	0.05688	0.44258	0.24894	0.07
Mof_C 	C 	0.28331	0.39541	0.17196	0.088
Mof_C 	C 	0.19787	0.83657	0.18832	-0.126
Mof_C 	C 	0.99374	0.37434	0.21044	-0.136
Mof_C 	C 	0.10633	0.86613	0.11536	-0.026
Mof_C 	C 	0.08919	0.76389	0.21858	0.048
Mof_C 	C 	0.06989	0.79579	0.17578	-0.121
Mof_C 	C 	0.24785	0.32005	0.13078	-0.156
Mof_C 	C 	0.69149	0.78729	0.51344	0.418
Mof_C 	C 	0.18267	0.73227	0.29274	0.367
Mof_C 	C 	0.42558	0.77694	0.28888	0.404
Mof_C 	C 	0.55859	0.76582	0.64776	0.062
Mof_C 	C 	0.72862	0.95269	0.01808	-0.15
Mof_C 	C 	0.39645	0.95255	0.96866	-0.15
Mof_C 	C 	0.38387	0.95088	0.85612	-0.033
Mof_C 	C 	0.33299	0.77494	0.58624	-0.149
Mof_C 	C 	0.42068	0.99067	0.04254	0.101
Mof_C 	C 	0.76471	0.99106	0.0941	0.1
Mof_C 	C 	0.59575	0.80341	0.7227	-0.135
Mof_C 	C 	0.43534	0.06815	0.96688	-0.153
Mof_C 	C 	0.41441	0.95173	0.08242	-0.03
Mof_C 	C 	0.45159	0.06717	0.07798	-0.154
Mof_C 	C 	0.74464	0.95365	0.13226	-0.034
Mof_C 	C 	0.62677	0.80037	0.32664	0.418
Mof_C 	C 	0.41873	0.81624	0.2453	-0.164
Mof_C 	C 	0.35689	0.86748	0.72376	0.089
Mof_C 	C 	0.37851	0.77221	0.64612	0.072
Mof_C 	C 	0.45907	0.10624	0.04076	0.099
Mof_C 	C 	0.40456	0.99069	0.93062	0.102
Mof_C 	C 	0.48788	0.18561	0.07964	-0.041
Mof_C 	C 	0.72615	0.92545	0.16494	-0.03
Mof_C 	C 	0.70093	0.89323	0.2052	0.091
Mof_C 	C 	0.41323	0.92253	0.11856	-0.038
Mof_C 	C 	0.29948	0.82258	0.59594	0.075
Mof_C 	C 	0.44343	0.92643	0.23552	-0.161
Mof_C 	C 	0.39	0.8175	0.71382	-0.136
Mof_C 	C 	0.44534	0.89064	0.27596	0.091
Mof_C 	C 	0.65975	0.91885	0.23796	-0.142
Mof_C 	C 	0.65288	0.83326	0.284	-0.148
Mof_C 	C 	0.36912	0.91322	0.7945	-0.032
Mof_C 	C 	0.41408	0.88708	0.16194	0.101
Mof_C 	C 	0.51556	0.42746	0.2313	0.052
Mof_C 	C 	0.58348	0.47768	0.24604	-0.118
Mof_C 	C 	0.31166	0.86839	0.66428	-0.141
Mof_C 	C 	0.53439	0.32779	0.1598	0.076
Mof_C 	C 	0.63742	0.88952	0.2786	0.074
Mof_C 	C 	0.69206	0.80636	0.24894	0.073
Mof_C 	C 	0.38865	0.77655	0.17196	0.088
Mof_C 	C 	0.49045	0.35175	0.18832	-0.126
Mof_C 	C 	0.7167	0.8361	0.21044	-0.14
Mof_C 	C 	0.50903	0.24923	0.11536	-0.025
Mof_C 	C 	0.62939	0.45469	0.21858	0.048
Mof_C 	C 	0.60589	0.37999	0.17578	-0.121
Mof_C 	C 	0.38293	0.81073	0.13078	-0.155
Mof_C 	C 	0.32195	0.72615	0.51344	0.418
Mof_C 	C 	0.61007	0.56047	0.29274	0.367
Mof_C 	C 	0.66925	0.91925	0.8385	-0.031
Mof_C 	C 	0.74033	0.99033	0.98066	0.102
Mof_C 	C 	0.55504	0.80504	0.61008	-0.133
Mof_C 	C 	0.70139	0.95139	0.90278	-0.034
Mof_C 	C 	0.81544	0.06544	0.13088	-0.156
Mof_C 	C 	0.6303	0.8803	0.7606	0.082
Mof_C 	C 	0.51462	0.76462	0.52924	0.36
Mof_O 	O 	0.49766	0.69638	0.49736	-0.411
Mof_O 	O 	0.36472	0.67794	0.37892	-0.658
Mof_O 	O 	0.6557	0.82507	0.50878	-0.474
Mof_O 	O 	0.26239	0.53297	0.36696	-0.486
Mof_O 	O 	0.3549	0.54602	0.253	-0.511
Mof_O 	O 	0.6808	0.7295	0.46122	-0.466
Mof_O 	O 	0.39879	0.54215	0.35576	-0.463
Mof_O 	O 	0.24793	0.73597	0.31302	-0.476
Mof_O 	O 	0.18623	0.57672	0.3167	-0.492
Mof_O 	O 	0.13295	0.70165	0.3068	-0.308
Mof_O 	O 	0.4997	0.80098	0.49736	-0.411
Mof_O 	O 	0.5142	0.70098	0.37892	-0.658
Mof_O 	O 	0.35308	0.68371	0.50878	-0.474
Mof_O 	O 	0.60457	0.83399	0.36696	-0.486
Mof_O 	O 	0.3981	0.70698	0.253	-0.511
Mof_O 	O 	0.28042	0.73172	0.46122	-0.466
Mof_O 	O 	0.45697	0.81361	0.35576	-0.463
Mof_O 	O 	0.56509	0.57705	0.31302	-0.476
Mof_O 	O 	0.63047	0.73998	0.3167	-0.492
Mof_O 	O 	0.67385	0.60515	0.3068	-0.308
Mof_Zn	Zn	0.62392	0.38325	0.56792	1.213
Mof_Zn	Zn	0.7369	0.32142	0.63847	1.229
Mof_Zn	Zn	0.444	0.18467	0.56792	1.213
Mof_Zn	Zn	0.40157	0.31705	0.63847	1.229
Mof_Zn	Zn	0.59838	0.34838	0.69676	1.218
Mof_H 	H 	0.4134	0.091	0.3778	0.012
Mof_H 	H 	0.2037	0.9084	0.0076	0.088
Mof_H 	H 	0.9301	0.9559	0.056	0.088
Mof_H 	H 	0.3493	0.0281	0.2518	0.076
Mof_H 	H 	0.9988	0.1535	0.0588	0.089
Mof_H 	H 	0.8396	0.965	0.8718	0.087
Mof_H 	H 	0.2613	0.0988	0.3598	0.019
Mof_H 	H 	0.2121	0.2688	0.4446	0.024
Mof_H 	H 	0.7038	0.72	0.7412	0.087
Mof_H 	H 	0.1664	0.0607	0.2458	0.078
Mof_H 	H 	0.6392	0.5923	0.6732	0.008
Mof_H 	H 	0.9137	0.7235	0.767	0.081
Mof_H 	H 	0.7337	0.1933	0.7496	0.032
Mof_H 	H 	0.1182	0.2313	0.3302	0.081
Mof_H 	H 	0.8082	0.6061	0.6972	0.019
Mof_H 	H 	0.9507	0.5151	0.7486	0.027
Mof_H 	H 	0.722	0.575	0.8506	0.015
Mof_H 	H 	0.7636	0.1379	0.821	0.075
Mof_H 	H 	0.057	0.63	0.8124	0.081
Mof_H 	H 	0.9484	0.2613	0.771	0.032
Mof_H 	H 	0.9806	0.2068	0.8426	0.074
Mof_H 	H 	0.7773	0.7018	0.9204	0.084
Mof_H 	H 	0.4644	0.2868	0.3778	0.012
Mof_H 	H 	0.3039	0.0992	0.0076	0.088
Mof_H 	H 	0.6259	0.1001	0.056	0.089
Mof_H 	H 	0.4025	0.2237	0.2518	0.076
Mof_H 	H 	0.56	0.9053	0.0588	0.089
Mof_H 	H 	0.5322	0.9068	0.8718	0.088
Mof_H 	H 	0.5985	0.261	0.3598	0.019
Mof_H 	H 	0.7325	0.1758	0.4446	0.024
Mof_H 	H 	0.5374	0.0212	0.7412	0.087
Mof_H 	H 	0.5794	0.1851	0.2458	0.078
Mof_H 	H 	0.534	0.0809	0.6732	0.008
Mof_H 	H 	0.3533	0.0435	0.767	0.081
Mof_H 	H 	0.5159	0.5563	0.7496	0.032
Mof_H 	H 	0.712	0.0989	0.3302	0.081
Mof_H 	H 	0.389	0.0911	0.6972	0.019
Mof_H 	H 	0.2979	0.2335	0.7486	0.027
Mof_H 	H 	0.6286	0.2756	0.8506	0.015
Mof_H 	H 	0.5574	0.6831	0.821	0.075
Mof_H 	H 	0.2554	0.1824	0.8124	0.082
Mof_H 	H 	0.3226	0.5097	0.771	0.032
Mof_H 	H 	0.362	0.6358	0.8426	0.075
Mof_H 	H 	0.6431	0.2186	0.9204	0.084
Mof_H 	H 	0.1589	0.9089	0.8178	0.09
Mof_C 	C 	0.6367	0.48806	0.71112	0.404
Mof_C 	C 	0.41083	0.11806	0.35224	0.062
Mof_C 	C 	0.21054	0.93461	0.98192	-0.15
Mof_C 	C 	0.92779	0.98389	0.03134	-0.148
Mof_C 	C 	0.02775	0.09476	0.14388	-0.034
Mof_C 	C 	0.24675	0.1887	0.41376	-0.149
Mof_C 	C 	0.87814	0.94813	0.95746	0.099
Mof_C 	C 	0.17061	0.89696	0.9059	0.101
Mof_C 	C 	0.37305	0.08071	0.2773	-0.135
Mof_C 	C 	0.96846	0.10127	0.03312	-0.151
Mof_C 	C 	0.83199	0.86931	0.91758	-0.03
Mof_C 	C 	0.87361	0.98919	0.92202	-0.152
Mof_C 	C 	0.11238	0.82139	0.86774	-0.035
Mof_C 	C 	0.80013	0.47373	0.67336	0.418
Mof_C 	C 	0.67343	0.57094	0.7547	-0.164
Mof_C 	C 	0.13313	0.14372	0.27624	0.088
Mof_C 	C 	0.23239	0.12609	0.35388	0.072
Mof_C 	C 	0.91831	0.06548	0.95924	0.096
Mof_C 	C 	0.97394	0.06007	0.06938	0.101
Mof_C 	C 	0.90824	0.10597	0.92036	-0.041
Mof_C 	C 	0.06121	0.76051	0.83506	-0.028
Mof_C 	C 	0.99573	0.68803	0.7948	0.087
Mof_C 	C 	0.79467	0.80397	0.88144	-0.039
Mof_C 	C 	0.20354	0.22664	0.40406	0.075
Mof_C 	C 	0.70791	0.69091	0.76448	-0.161
Mof_C 	C 	0.17618	0.10368	0.28618	-0.136
Mof_C 	C 	0.66938	0.61468	0.72404	0.091
Mof_C 	C 	0.92179	0.68089	0.76204	-0.14
Mof_C 	C 	0.86888	0.54926	0.716	-0.146
Mof_C 	C 	0.07462	0.11872	0.2055	-0.032
Mof_C 	C 	0.75214	0.72514	0.83806	0.102
Mof_C 	C 	0.78426	0.19616	0.7687	0.052
Mof_C 	C 	0.83744	0.23164	0.75396	-0.118
Mof_C 	C 	0.14738	0.20411	0.33572	-0.141
Mof_C 	C 	0.87459	0.16799	0.8402	0.076
Mof_C 	C 	0.85882	0.61092	0.7214	0.072
Mof_C 	C 	0.94312	0.55742	0.75106	0.07
Mof_C 	C 	0.71669	0.60459	0.82804	0.088
Mof_C 	C 	0.80213	0.16343	0.81168	-0.126
Mof_C 	C 	0.00626	0.62566	0.78956	-0.136
Mof_C 	C 	0.89367	0.13387	0.88464	-0.026
Mof_C 	C 	0.91081	0.23611	0.78142	0.048
Mof_C 	C 	0.93011	0.20421	0.82422	-0.121
Mof_C 	C 	0.75215	0.67995	0.86922	-0.156
Mof_C 	C 	0.30851	0.21271	0.48656	0.418
Mof_C 	C 	0.81733	0.26773	0.70726	0.367
Mof_C 	C 	0.57442	0.22306	0.71112	0.404
Mof_C 	C 	0.44141	0.23418	0.35224	0.062
Mof_C 	C 	0.27138	0.04731	0.98192	-0.15
Mof_C 	C 	0.60355	0.04745	0.03134	-0.15
Mof_C 	C 	0.61613	0.04912	0.14388	-0.033
Mof_C 	C 	0.66701	0.22506	0.41376	-0.149
Mof_C 	C 	0.57932	0.00933	0.95746	0.101
Mof_C 	C 	0.23529	0.00894	0.9059	0.1
Mof_C 	C 	0.40425	0.19659	0.2773	-0.135
Mof_C 	C 	0.56466	0.93185	0.03312	-0.153
Mof_C 	C 	0.58559	0.04827	0.91758	-0.03
Mof_C 	C 	0.54841	0.93283	0.92202	-0.154
Mof_C 	C 	0.25536	0.04635	0.86774	-0.034
Mof_C 	C 	0.37323	0.19963	0.67336	0.418
Mof_C 	C 	0.58127	0.18376	0.7547	-0.164
Mof_C 	C 	0.64311	0.13252	0.27624	0.089
Mof_C 	C 	0.62149	0.22779	0.35388	0.072
Mof_C 	C 	0.54093	0.89376	0.95924	0.099
Mof_C 	C 	0.59544	0.00931	0.06938	0.102
Mof_C 	C 	0.51212	0.81439	0.92036	-0.041
Mof_C 	C 	0.27385	0.07455	0.83506	-0.03
Mof_C 	C 	0.29907	0.10677	0.7948	0.091
Mof_C 	C 	0.58677	0.07747	0.88144	-0.038
Mof_C 	C 	0.70052	0.17742	0.40406	0.075
Mof_C 	C 	0.55657	0.07357	0.76448	-0.161
Mof_C 	C 	0.61	0.1825	0.28618	-0.136
Mof_C 	C 	0.55466	0.10936	0.72404	0.091
Mof_C 	C 	0.34025	0.08115	0.76204	-0.142
Mof_C 	C 	0.34712	0.16674	0.716	-0.148
Mof_C 	C 	0.63088	0.08678	0.2055	-0.032
Mof_C 	C 	0.58592	0.11292	0.83806	0.101
Mof_C 	C 	0.48444	0.57254	0.7687	0.052
Mof_C 	C 	0.41652	0.52232	0.75396	-0.118
Mof_C 	C 	0.68834	0.13161	0.33572	-0.141
Mof_C 	C 	0.46561	0.67221	0.8402	0.076
Mof_C 	C 	0.36258	0.11048	0.7214	0.074
Mof_C 	C 	0.30794	0.19364	0.75106	0.073
Mof_C 	C 	0.61135	0.22345	0.82804	0.088
Mof_C 	C 	0.50955	0.64825	0.81168	-0.126
Mof_C 	C 	0.2833	0.1639	0.78956	-0.14
Mof_C 	C 	0.49097	0.75077	0.88464	-0.025
Mof_C 	C 	0.37061	0.54531	0.78142	0.048
Mof_C 	C 	0.39411	0.62001	0.82422	-0.121
Mof_C 	C 	0.61707	0.18927	0.86922	-0.155
Mof_C 	C 	0.67805	0.27385	0.48656	0.418
Mof_C 	C 	0.38993	0.43953	0.70726	0.367
Mof_C 	C 	0.33075	0.08075	0.1615	-0.031
Mof_C 	C 	0.25967	0.00967	0.01934	0.102
Mof_C 	C 	0.44496	0.19496	0.38992	-0.133
Mof_C 	C 	0.29861	0.04861	0.09722	-0.034
Mof_C 	C 	0.18456	0.93456	0.86912	-0.156
Mof_C 	C 	0.3697	0.1197	0.2394	0.082
Mof_C 	C 	0.48538	0.23538	0.47076	0.36
Mof_O 	O 	0.50234	0.30362	0.50264	-0.411
Mof_O 	O 	0.63528	0.32206	0.62108	-0.658
Mof_O 	O 	0.3443	0.17493	0.49122	-0.474
Mof_O 	O 	0.73761	0.46703	0.63304	-0.486
Mof_O 	O 	0.6451	0.45398	0.747	-0.511
Mof_O 	O 	0.3192	0.2705	0.53878	-0.466
Mof_O 	O 	0.60121	0.45785	0.64424	-0.463
Mof_O 	O 	0.75207	0.26403	0.68698	-0.476
Mof_O 	O 	0.81377	0.42328	0.6833	-0.492
Mof_O 	O 	0.86705	0.29835	0.6932	-0.308
Mof_O 	O 	0.5003	0.19902	0.50264	-0.411
Mof_O 	O 	0.4858	0.29902	0.62108	-0.658
Mof_O 	O 	0.64692	0.31629	0.49122	-0.474
Mof_O 	O 	0.39543	0.16601	0.63304	-0.486
Mof_O 	O 	0.6019	0.29302	0.747	-0.511
Mof_O 	O 	0.71958	0.26828	0.53878	-0.466
Mof_O 	O 	0.54303	0.18639	0.64424	-0.463
Mof_O 	O 	0.43491	0.42295	0.68698	-0.476
Mof_O 	O 	0.36953	0.26002	0.6833	-0.492
Mof_O 	O 	0.32615	0.39485	0.6932	-0.308
_end
