# CIF file generated by openbabel 3.1.0, see https://openbabel.org
data_I
_chemical_name_common 'image0'
_cell_length_a 11.8767
_cell_length_b 5.5769
_cell_length_c 22.486
_cell_angle_alpha 90
_cell_angle_beta 99.893
_cell_angle_gamma 90
_space_group_name_H-M_alt 'P 1'
_space_group_name_Hall 'P 1'
loop_
    _symmetry_equiv_pos_as_xyz
    x,y,z
loop_
    _atom_site_label
    _atom_site_type_symbol
    _atom_site_fract_x
    _atom_site_fract_y
    _atom_site_fract_z
    _atom_site_occupancy
    Ca1      Ca       0.59630    0.74417    0.04161    1.000
    S1       S        0.88397    0.53388    0.10242    1.000
    O1       O        0.40465    0.58140    0.02671    1.000
    O2       O        0.37065    0.97180    0.03024    1.000
    O3       O        0.80386    0.69540    0.06651    1.000
    O4       O        0.86886    0.27930    0.09538    1.000
    O5       O        0.88713    0.97230    0.38011    1.000
    O6       O        0.89872    0.57940    0.40022    1.000
    C1       C        0.34236    0.75770    0.03549    1.000
    C2       C        0.23040    0.70480    0.05528    1.000
    C3       C        0.14507    0.87750    0.04795    1.000
    H1       H        0.15930    0.03020    0.03210    1.000
    C4       C        0.03923    0.82990    0.06353    1.000
    H2       H        0.98090    0.94840    0.05860    1.000
    C5       C        0.02066    0.60560    0.08647    1.000
    C6       C        0.10623    0.43320    0.09629    1.000
    H3       H        0.09280    0.28300    0.11370    1.000
    C7       C        0.21150    0.48320    0.08029    1.000
    H4       H        0.27060    0.36630    0.08640    1.000
    C8       C        0.88968    0.60580    0.17910    1.000
    C9       C        0.84930    0.82600    0.19511    1.000
    H5       H        0.81940    0.94040    0.16520    1.000
    C10      C        0.85395    0.87420    0.25632    1.000
    H6       H        0.82780    0.02440    0.26850    1.000
    C11      C        0.89645    0.70500    0.29980    1.000
    C12      C        0.89453    0.75640    0.36581    1.000
    C13      C        0.93669    0.48550    0.28267    1.000
    H7       H        0.96570    0.37010    0.31250    1.000
    C14      C        0.93438    0.43550    0.22195    1.000
    H8       H        0.96290    0.28740    0.20990    1.000
    Ca2      Ca       0.90370    0.24417    0.45839    1.000
    S2       S        0.61603    0.03388    0.39758    1.000
    O7       O        0.09535    0.08140    0.47329    1.000
    O8       O        0.12935    0.47180    0.46976    1.000
    O9       O        0.69614    0.19540    0.43349    1.000
    O10      O        0.63114    0.77930    0.40462    1.000
    O11      O        0.61287    0.47230    0.11989    1.000
    O12      O        0.60128    0.07940    0.09978    1.000
    C15      C        0.15764    0.25770    0.46451    1.000
    C16      C        0.26960    0.20480    0.44472    1.000
    C17      C        0.35493    0.37750    0.45205    1.000
    H9       H        0.34070    0.53020    0.46790    1.000
    C18      C        0.46077    0.32990    0.43647    1.000
    H10      H        0.51910    0.44840    0.44140    1.000
    C19      C        0.47934    0.10560    0.41353    1.000
    C20      C        0.39377    0.93320    0.40371    1.000
    H11      H        0.40720    0.78300    0.38630    1.000
    C21      C        0.28850    0.98320    0.41971    1.000
    H12      H        0.22940    0.86630    0.41360    1.000
    C22      C        0.61032    0.10580    0.32090    1.000
    C23      C        0.65070    0.32600    0.30489    1.000
    H13      H        0.68060    0.44040    0.33480    1.000
    C24      C        0.64605    0.37420    0.24368    1.000
    H14      H        0.67220    0.52440    0.23150    1.000
    C25      C        0.60355    0.20500    0.20020    1.000
    C26      C        0.60547    0.25640    0.13419    1.000
    C27      C        0.56331    0.98550    0.21733    1.000
    H15      H        0.53430    0.87010    0.18750    1.000
    C28      C        0.56562    0.93550    0.27805    1.000
    H16      H        0.53710    0.78740    0.29010    1.000
    Ca3      Ca       0.40370    0.25583    0.95839    1.000
    S3       S        0.11603    0.46612    0.89758    1.000
    O13      O        0.59535    0.41860    0.97329    1.000
    O14      O        0.62935    0.02820    0.96976    1.000
    O15      O        0.19614    0.30460    0.93349    1.000
    O16      O        0.13114    0.72070    0.90462    1.000
    O17      O        0.11287    0.02770    0.61989    1.000
    O18      O        0.10128    0.42060    0.59978    1.000
    C29      C        0.65764    0.24230    0.96451    1.000
    C30      C        0.76960    0.29520    0.94472    1.000
    C31      C        0.85493    0.12250    0.95205    1.000
    H17      H        0.84070    0.96980    0.96790    1.000
    C32      C        0.96077    0.17010    0.93647    1.000
    H18      H        0.01910    0.05160    0.94140    1.000
    C33      C        0.97934    0.39440    0.91353    1.000
    C34      C        0.89377    0.56680    0.90371    1.000
    H19      H        0.90720    0.71700    0.88630    1.000
    C35      C        0.78850    0.51680    0.91971    1.000
    H20      H        0.72940    0.63370    0.91360    1.000
    C36      C        0.11032    0.39420    0.82090    1.000
    C37      C        0.15070    0.17400    0.80489    1.000
    H21      H        0.18060    0.05960    0.83480    1.000
    C38      C        0.14605    0.12580    0.74368    1.000
    H22      H        0.17220    0.97560    0.73150    1.000
    C39      C        0.10355    0.29500    0.70020    1.000
    C40      C        0.10547    0.24360    0.63419    1.000
    C41      C        0.06331    0.51450    0.71733    1.000
    H23      H        0.03430    0.62990    0.68750    1.000
    C42      C        0.06562    0.56450    0.77805    1.000
    H24      H        0.03710    0.71260    0.79010    1.000
    Ca4      Ca       0.09630    0.75583    0.54161    1.000
    S4       S        0.38397    0.96612    0.60242    1.000
    O19      O        0.90465    0.91860    0.52671    1.000
    O20      O        0.87065    0.52820    0.53024    1.000
    O21      O        0.30386    0.80460    0.56651    1.000
    O22      O        0.36886    0.22070    0.59538    1.000
    O23      O        0.38713    0.52770    0.88011    1.000
    O24      O        0.39872    0.92060    0.90022    1.000
    C43      C        0.84236    0.74230    0.53549    1.000
    C44      C        0.73040    0.79520    0.55528    1.000
    C45      C        0.64507    0.62250    0.54795    1.000
    H25      H        0.65930    0.46980    0.53210    1.000
    C46      C        0.53923    0.67010    0.56353    1.000
    H26      H        0.48090    0.55160    0.55860    1.000
    C47      C        0.52066    0.89440    0.58647    1.000
    C48      C        0.60623    0.06680    0.59629    1.000
    H27      H        0.59280    0.21700    0.61370    1.000
    C49      C        0.71150    0.01680    0.58029    1.000
    H28      H        0.77060    0.13370    0.58640    1.000
    C50      C        0.38968    0.89420    0.67910    1.000
    C51      C        0.34930    0.67400    0.69511    1.000
    H29      H        0.31940    0.55960    0.66520    1.000
    C52      C        0.35395    0.62580    0.75632    1.000
    H30      H        0.32780    0.47560    0.76850    1.000
    C53      C        0.39645    0.79500    0.79980    1.000
    C54      C        0.39453    0.74360    0.86581    1.000
    C55      C        0.43669    0.01450    0.78267    1.000
    H31      H        0.46570    0.12990    0.81250    1.000
    C56      C        0.43438    0.06450    0.72195    1.000
    H32      H        0.46290    0.21260    0.70990    1.000
