data_functionalizedCrystal
_audit_creation_method	'EQeq! by Chris Wilmer'
_symmetry_space_group_name_H-M	'P1'
_symmetry_Int_Tables_number	1
_symmetry_cell_setting	triclinic
loop_
_symmetry_equiv_pos_as_xyz
  x,y,z
_cell_length_a	7.2949
_cell_length_b	10.1245
_cell_length_c	18.2726
_cell_angle_alpha	90
_cell_angle_beta	90
_cell_angle_gamma	94.891
loop_
_atom_site_label
_atom_site_type_symbol
_atom_site_fract_x
_atom_site_fract_y
_atom_site_fract_z
_atom_site_charge
Mof_Cu	Cu	0.86633	0.21714	0.90752	0.916
Mof_Cu	Cu	0.05141	0.93577	0.93149	0.933
Mof_Cu	Cu	0.63367	0.28286	0.40752	0.916
Mof_Cu	Cu	0.44859	0.56423	0.43149	0.938
Mof_Cu	Cu	0.13367	0.78286	0.09248	0.916
Mof_Cu	Cu	0.94859	0.06423	0.06851	0.933
Mof_Cu	Cu	0.36633	0.71714	0.59248	0.916
Mof_Cu	Cu	0.55141	0.43577	0.56851	0.938
Mof_H 	H 	0.7921	0.1709	0.695	0.05
Mof_H 	H 	0.952	0.801	0.7068	0.038
Mof_H 	H 	0.7905	0.9457	0.5133	0.031
Mof_H 	H 	0.7079	0.3291	0.195	0.047
Mof_H 	H 	0.548	0.699	0.2068	0.035
Mof_H 	H 	0.7095	0.5543	0.0133	0.031
Mof_H 	H 	0.2079	0.8291	0.305	0.05
Mof_H 	H 	0.048	0.199	0.2932	0.038
Mof_H 	H 	0.2095	0.0543	0.4867	0.031
Mof_H 	H 	0.2921	0.6709	0.805	0.047
Mof_H 	H 	0.452	0.301	0.7932	0.035
Mof_H 	H 	0.2905	0.4457	0.9867	0.031
Mof_C 	C 	0.874	0.8555	0.60489	-0.137
Mof_C 	C 	0.7831	0.077	0.59757	-0.121
Mof_C 	C 	0.814	0.0916	0.67221	0.054
Mof_C 	C 	0.8776	0.9891	0.71358	-0.112
Mof_C 	C 	0.9083	0.0117	0.79368	0.373
Mof_C 	C 	0.9088	0.87	0.67996	0.054
Mof_C 	C 	0.8122	0.957	0.56311	0.056
Mof_C 	C 	0.7127	0.1888	0.55555	0.377
Mof_C 	C 	0.626	0.6445	0.10489	-0.138
Mof_C 	C 	0.7169	0.423	0.09757	-0.119
Mof_C 	C 	0.686	0.4084	0.17221	0.061
Mof_C 	C 	0.6224	0.5109	0.21358	-0.122
Mof_C 	C 	0.5917	0.4883	0.29368	0.383
Mof_C 	C 	0.5912	0.63	0.17996	0.058
Mof_C 	C 	0.6878	0.543	0.06311	0.053
Mof_C 	C 	0.7873	0.3112	0.05555	0.373
Mof_C 	C 	0.126	0.1445	0.39511	-0.137
Mof_C 	C 	0.2169	0.923	0.40243	-0.121
Mof_C 	C 	0.186	0.9084	0.32779	0.054
Mof_C 	C 	0.1224	0.0109	0.28642	-0.112
Mof_C 	C 	0.0917	0.9883	0.20632	0.373
Mof_C 	C 	0.0912	0.13	0.32004	0.054
Mof_C 	C 	0.1878	0.043	0.43689	0.056
Mof_C 	C 	0.2873	0.8112	0.44445	0.377
Mof_C 	C 	0.374	0.3555	0.89511	-0.138
Mof_C 	C 	0.2831	0.577	0.90243	-0.119
Mof_C 	C 	0.314	0.5916	0.82779	0.061
Mof_C 	C 	0.3776	0.4891	0.78642	-0.122
Mof_C 	C 	0.4083	0.5117	0.70632	0.383
Mof_C 	C 	0.4088	0.37	0.82004	0.058
Mof_C 	C 	0.3122	0.457	0.93689	0.053
Mof_C 	C 	0.2127	0.6888	0.94445	0.373
Mof_S 	S 	0.88602	0.69624	0.56649	0.516
Mof_S 	S 	0.61398	0.80376	0.06649	0.515
Mof_S 	S 	0.11398	0.30376	0.43351	0.516
Mof_S 	S 	0.38602	0.19624	0.93351	0.515
Mof_O 	O 	0.9556	0.91639	0.83231	-0.374
Mof_O 	O 	0.867	0.05287	0.96501	-0.483
Mof_O 	O 	0.6631	0.16722	0.49025	-0.427
Mof_O 	O 	0.8842	0.12719	0.81545	-0.408
Mof_O 	O 	0.8921	0.70861	0.48754	-0.265
Mof_O 	O 	0.705	0.29678	0.59072	-0.381
Mof_O 	O 	0.7173	0.62328	0.59294	-0.381
Mof_O 	O 	0.0481	0.64284	0.59805	-0.309
Mof_O 	O 	0.5444	0.58361	0.33231	-0.38
Mof_O 	O 	0.633	0.44713	0.46501	-0.484
Mof_O 	O 	0.8369	0.33278	0.99025	-0.423
Mof_O 	O 	0.6158	0.37281	0.31545	-0.41
Mof_O 	O 	0.6079	0.79139	0.98754	-0.266
Mof_O 	O 	0.795	0.20322	0.09072	-0.383
Mof_O 	O 	0.7827	0.87672	0.09294	-0.379
Mof_O 	O 	0.4519	0.85716	0.09805	-0.306
Mof_O 	O 	0.0444	0.08361	0.16769	-0.374
Mof_O 	O 	0.133	0.94713	0.03499	-0.483
Mof_O 	O 	0.3369	0.83278	0.50975	-0.427
Mof_O 	O 	0.1158	0.87281	0.18455	-0.408
Mof_O 	O 	0.1079	0.29139	0.51246	-0.265
Mof_O 	O 	0.295	0.70322	0.40928	-0.381
Mof_O 	O 	0.2827	0.37672	0.40706	-0.381
Mof_O 	O 	0.9519	0.35716	0.40195	-0.309
Mof_O 	O 	0.4556	0.41639	0.66769	-0.38
Mof_O 	O 	0.367	0.55287	0.53499	-0.484
Mof_O 	O 	0.1631	0.66722	0.00975	-0.423
Mof_O 	O 	0.3842	0.62719	0.68455	-0.41
Mof_O 	O 	0.3921	0.20861	0.01246	-0.266
Mof_O 	O 	0.205	0.79678	0.90928	-0.383
Mof_O 	O 	0.2173	0.12328	0.90706	-0.379
Mof_O 	O 	0.5481	0.14284	0.90195	-0.306
_end
