# CIF file generated by openbabel 3.1.0, see https://openbabel.org
data_I
_chemical_name_common 'image0'
_cell_length_a 8.096
_cell_length_b 21.507
_cell_length_c 13.935
_cell_angle_alpha 90
_cell_angle_beta 111.81
_cell_angle_gamma 90
_space_group_name_H-M_alt 'P 1'
_space_group_name_Hall 'P 1'
loop_
    _symmetry_equiv_pos_as_xyz
    x,y,z
loop_
    _atom_site_label
    _atom_site_type_symbol
    _atom_site_fract_x
    _atom_site_fract_y
    _atom_site_fract_z
    _atom_site_occupancy
    N1       N        0.76040    0.54506    0.39994    1.000
    N2       N        0.57320    0.61258    0.29665    1.000
    N3       N        0.94600    0.52862    0.63624    1.000
    N4       N        0.93560    0.53108    0.79280    1.000
    N5       N        0.14860    0.91560    0.01008    1.000
    N6       N        0.30620    0.83074    0.07222    1.000
    C1       C        0.74110    0.60195    0.36350    1.000
    H1       H        0.83170    0.63140    0.38140    1.000
    C2       C        0.59400    0.51780    0.35470    1.000
    H2       H        0.56600    0.47730    0.36670    1.000
    C3       C        0.47880    0.55866    0.29060    1.000
    H3       H        0.35960    0.55170    0.25050    1.000
    C4       C        0.50620    0.66929    0.24200    1.000
    C5       C        0.33480    0.68828    0.22650    1.000
    H4       H        0.26450    0.66490    0.25270    1.000
    C6       C        0.61340    0.70385    0.20450    1.000
    H5       H        0.72800    0.69050    0.21480    1.000
    C7       C        0.54810    0.75850    0.15160    1.000
    H6       H        0.61990    0.78290    0.12780    1.000
    C8       C        0.01160    0.50526    0.73051    1.000
    H7       H        0.09930    0.47480    0.75160    1.000
    C9       C        0.82240    0.57231    0.63890    1.000
    H8       H        0.75380    0.59660    0.58310    1.000
    C10      C        0.81560    0.57469    0.73410    1.000
    H9       H        0.74430    0.60060    0.75580    1.000
    C11      C        0.96900    0.51518    0.89857    1.000
    C12      C        0.02530    0.45564    0.93440    1.000
    H10      H        0.04190    0.42610    0.89010    1.000
    C13      C        0.94310    0.55964    0.96370    1.000
    H11      H        0.90490    0.59940    0.93920    1.000
    C14      C        0.18490    0.87145    0.08060    1.000
    H12      H        0.13340    0.86860    0.13000    1.000
    C15      C        0.25330    0.90206    0.95380    1.000
    H13      H        0.25650    0.92540    0.89830    1.000
    C16      C        0.35030    0.85023    0.99040    1.000
    H14      H        0.43020    0.83150    0.96570    1.000
    C17      C        0.37570    0.77666    0.13420    1.000
    C18      C        0.26870    0.74233    0.17150    1.000
    H15      H        0.15330    0.75530    0.15990    1.000
    N7       N        0.23960    0.04506    0.10006    1.000
    N8       N        0.42680    0.11258    0.20335    1.000
    N9       N        0.05400    0.02862    0.86376    1.000
    N10      N        0.06440    0.03108    0.70720    1.000
    N11      N        0.85140    0.41560    0.48992    1.000
    N12      N        0.69380    0.33074    0.42778    1.000
    C19      C        0.25890    0.10195    0.13650    1.000
    H16      H        0.16830    0.13140    0.11860    1.000
    C20      C        0.40600    0.01780    0.14530    1.000
    H17      H        0.43400    0.97730    0.13330    1.000
    C21      C        0.52120    0.05866    0.20940    1.000
    H18      H        0.64040    0.05170    0.24950    1.000
    C22      C        0.49380    0.16929    0.25800    1.000
    C23      C        0.66520    0.18828    0.27350    1.000
    H19      H        0.73550    0.16490    0.24730    1.000
    C24      C        0.38660    0.20385    0.29550    1.000
    H20      H        0.27200    0.19050    0.28520    1.000
    C25      C        0.45190    0.25850    0.34840    1.000
    H21      H        0.38010    0.28290    0.37220    1.000
    C26      C        0.98840    0.00526    0.76949    1.000
    H22      H        0.90070    0.97480    0.74840    1.000
    C27      C        0.17760    0.07231    0.86110    1.000
    H23      H        0.24620    0.09660    0.91690    1.000
    C28      C        0.18440    0.07469    0.76590    1.000
    H24      H        0.25570    0.10060    0.74420    1.000
    C29      C        0.03100    0.01518    0.60143    1.000
    C30      C        0.97470    0.95564    0.56560    1.000
    H25      H        0.95810    0.92610    0.60990    1.000
    C31      C        0.05690    0.05964    0.53630    1.000
    H26      H        0.09510    0.09940    0.56080    1.000
    C32      C        0.81510    0.37145    0.41940    1.000
    H27      H        0.86660    0.36860    0.37000    1.000
    C33      C        0.74670    0.40206    0.54620    1.000
    H28      H        0.74350    0.42540    0.60170    1.000
    C34      C        0.64970    0.35023    0.50960    1.000
    H29      H        0.56980    0.33150    0.53430    1.000
    C35      C        0.62430    0.27666    0.36580    1.000
    C36      C        0.73130    0.24233    0.32850    1.000
    H30      H        0.84670    0.25530    0.34010    1.000
    N13      N        0.23960    0.45494    0.60006    1.000
    N14      N        0.42680    0.38742    0.70335    1.000
    N15      N        0.05400    0.47138    0.36376    1.000
    N16      N        0.06440    0.46892    0.20720    1.000
    N17      N        0.85140    0.08440    0.98992    1.000
    N18      N        0.69380    0.16926    0.92778    1.000
    C37      C        0.25890    0.39805    0.63650    1.000
    H31      H        0.16830    0.36860    0.61860    1.000
    C38      C        0.40600    0.48220    0.64530    1.000
    H32      H        0.43400    0.52270    0.63330    1.000
    C39      C        0.52120    0.44134    0.70940    1.000
    H33      H        0.64040    0.44830    0.74950    1.000
    C40      C        0.49380    0.33071    0.75800    1.000
    C41      C        0.66520    0.31172    0.77350    1.000
    H34      H        0.73550    0.33510    0.74730    1.000
    C42      C        0.38660    0.29615    0.79550    1.000
    H35      H        0.27200    0.30950    0.78520    1.000
    C43      C        0.45190    0.24150    0.84840    1.000
    H36      H        0.38010    0.21710    0.87220    1.000
    C44      C        0.98840    0.49474    0.26949    1.000
    H37      H        0.90070    0.52520    0.24840    1.000
    C45      C        0.17760    0.42769    0.36110    1.000
    H38      H        0.24620    0.40340    0.41690    1.000
    C46      C        0.18440    0.42531    0.26590    1.000
    H39      H        0.25570    0.39940    0.24420    1.000
    C47      C        0.03100    0.48482    0.10143    1.000
    C48      C        0.97470    0.54436    0.06560    1.000
    H40      H        0.95810    0.57390    0.10990    1.000
    C49      C        0.05690    0.44036    0.03630    1.000
    H41      H        0.09510    0.40060    0.06080    1.000
    C50      C        0.81510    0.12855    0.91940    1.000
    H42      H        0.86660    0.13140    0.87000    1.000
    C51      C        0.74670    0.09794    0.04620    1.000
    H43      H        0.74350    0.07460    0.10170    1.000
    C52      C        0.64970    0.14977    0.00960    1.000
    H44      H        0.56980    0.16850    0.03430    1.000
    C53      C        0.62430    0.22334    0.86580    1.000
    C54      C        0.73130    0.25767    0.82850    1.000
    H45      H        0.84670    0.24470    0.84010    1.000
    N19      N        0.76040    0.95494    0.89994    1.000
    N20      N        0.57320    0.88742    0.79665    1.000
    N21      N        0.94600    0.97138    0.13624    1.000
    N22      N        0.93560    0.96892    0.29280    1.000
    N23      N        0.14860    0.58440    0.51008    1.000
    N24      N        0.30620    0.66926    0.57222    1.000
    C55      C        0.74110    0.89805    0.86350    1.000
    H46      H        0.83170    0.86860    0.88140    1.000
    C56      C        0.59400    0.98220    0.85470    1.000
    H47      H        0.56600    0.02270    0.86670    1.000
    C57      C        0.47880    0.94134    0.79060    1.000
    H48      H        0.35960    0.94830    0.75050    1.000
    C58      C        0.50620    0.83071    0.74200    1.000
    C59      C        0.33480    0.81172    0.72650    1.000
    H49      H        0.26450    0.83510    0.75270    1.000
    C60      C        0.61340    0.79615    0.70450    1.000
    H50      H        0.72800    0.80950    0.71480    1.000
    C61      C        0.54810    0.74150    0.65160    1.000
    H51      H        0.61990    0.71710    0.62780    1.000
    C62      C        0.01160    0.99474    0.23051    1.000
    H52      H        0.09930    0.02520    0.25160    1.000
    C63      C        0.82240    0.92769    0.13890    1.000
    H53      H        0.75380    0.90340    0.08310    1.000
    C64      C        0.81560    0.92531    0.23410    1.000
    H54      H        0.74430    0.89940    0.25580    1.000
    C65      C        0.96900    0.98482    0.39857    1.000
    C66      C        0.02530    0.04436    0.43440    1.000
    H55      H        0.04190    0.07390    0.39010    1.000
    C67      C        0.94310    0.94036    0.46370    1.000
    H56      H        0.90490    0.90060    0.43920    1.000
    C68      C        0.18490    0.62855    0.58060    1.000
    H57      H        0.13340    0.63140    0.63000    1.000
    C69      C        0.25330    0.59794    0.45380    1.000
    H58      H        0.25650    0.57460    0.39830    1.000
    C70      C        0.35030    0.64977    0.49040    1.000
    H59      H        0.43020    0.66850    0.46570    1.000
    C71      C        0.37570    0.72334    0.63420    1.000
    C72      C        0.26870    0.75767    0.67150    1.000
    H60      H        0.15330    0.74470    0.65990    1.000
    Co1      Co       0.00000    0.50000    0.50000    1.000
    Co2      Co       0.00000    0.00000    0.00000    1.000
