data_functionalizedCrystal
_audit_creation_method	'EQeq! by Chris Wilmer'
_symmetry_space_group_name_H-M	'P1'
_symmetry_Int_Tables_number	1
_symmetry_cell_setting	triclinic
loop_
_symmetry_equiv_pos_as_xyz
  x,y,z
_cell_length_a	9.631
_cell_length_b	12.212
_cell_length_c	12.212
_cell_angle_alpha	95.4993
_cell_angle_beta	94.5059
_cell_angle_gamma	94.5059
loop_
_atom_site_label
_atom_site_type_symbol
_atom_site_fract_x
_atom_site_fract_y
_atom_site_fract_z
_atom_site_charge
Mof_Tb	Tb	0.46764	0.26374	0.23695	1.989
Mof_Tb	Tb	0.03236	0.76305	0.73626	1.968
Mof_Tb	Tb	0.53236	0.73626	0.76305	1.989
Mof_Tb	Tb	0.96764	0.23695	0.26374	1.968
Mof_H 	H 	0.387	0.0467	0.5391	0.074
Mof_H 	H 	0.6142	0.4332	0.4948	0.096
Mof_H 	H 	0.6079	0.0108	0.9506	0.102
Mof_H 	H 	0.113	0.4609	0.9533	0.072
Mof_H 	H 	0.8858	0.5052	0.5668	0.097
Mof_H 	H 	0.8921	0.0494	0.9892	0.11
Mof_H 	H 	0.613	0.9533	0.4609	0.074
Mof_H 	H 	0.3858	0.5668	0.5052	0.096
Mof_H 	H 	0.3921	0.9892	0.0494	0.102
Mof_H 	H 	0.887	0.5391	0.0467	0.072
Mof_H 	H 	0.1142	0.4948	0.4332	0.097
Mof_H 	H 	0.1079	0.9506	0.0108	0.11
Mof_C 	C 	0.4667	0.1125	0.4025	0.334
Mof_C 	C 	0.4575	0.0383	0.4919	-0.13
Mof_C 	C 	0.7697	0.3565	0.4125	0.457
Mof_C 	C 	0.7109	0.4347	0.4941	-0.166
Mof_C 	C 	0.6839	0.1347	0.0779	0.528
Mof_C 	C 	0.691	0.0452	0.9864	-0.172
Mof_C 	C 	0.0333	0.5975	0.8875	0.322
Mof_C 	C 	0.0425	0.5081	0.9617	-0.129
Mof_C 	C 	0.7303	0.5875	0.6435	0.456
Mof_C 	C 	0.7891	0.5059	0.5653	-0.165
Mof_C 	C 	0.8161	0.9221	0.8653	0.541
Mof_C 	C 	0.809	0.0136	0.9548	-0.193
Mof_C 	C 	0.5333	0.8875	0.5975	0.334
Mof_C 	C 	0.5425	0.9617	0.5081	-0.13
Mof_C 	C 	0.2303	0.6435	0.5875	0.457
Mof_C 	C 	0.2891	0.5653	0.5059	-0.166
Mof_C 	C 	0.3161	0.8653	0.9221	0.528
Mof_C 	C 	0.309	0.9548	0.0136	-0.172
Mof_C 	C 	0.9667	0.4025	0.1125	0.322
Mof_C 	C 	0.9575	0.4919	0.0383	-0.129
Mof_C 	C 	0.2697	0.4125	0.3565	0.456
Mof_C 	C 	0.2109	0.4941	0.4347	-0.165
Mof_C 	C 	0.1839	0.0779	0.1347	0.541
Mof_C 	C 	0.191	0.9864	0.0452	-0.193
Mof_O 	O 	0.3977	0.1957	0.4085	-0.441
Mof_O 	O 	0.5414	0.09242	0.32458	-0.407
Mof_O 	O 	0.6861	0.30279	0.33857	-0.581
Mof_O 	O 	0.8984	0.34557	0.41977	-0.522
Mof_O 	O 	0.5643	0.16332	0.09432	-0.567
Mof_O 	O 	0.7916	0.1763	0.1309	-0.589
Mof_O 	O 	0.1023	0.5915	0.8043	-0.438
Mof_O 	O 	0.9586	0.67542	0.90758	-0.394
Mof_O 	O 	0.8139	0.66143	0.69721	-0.577
Mof_O 	O 	0.6016	0.58023	0.65443	-0.523
Mof_O 	O 	0.9357	0.90568	0.83668	-0.562
Mof_O 	O 	0.7084	0.8691	0.8237	-0.59
Mof_O 	O 	0.6023	0.8043	0.5915	-0.441
Mof_O 	O 	0.4586	0.90758	0.67542	-0.407
Mof_O 	O 	0.3139	0.69721	0.66143	-0.581
Mof_O 	O 	0.1016	0.65443	0.58023	-0.522
Mof_O 	O 	0.4357	0.83668	0.90568	-0.567
Mof_O 	O 	0.2084	0.8237	0.8691	-0.589
Mof_O 	O 	0.8977	0.4085	0.1957	-0.438
Mof_O 	O 	0.0414	0.32458	0.09242	-0.394
Mof_O 	O 	0.1861	0.33857	0.30279	-0.577
Mof_O 	O 	0.3984	0.41977	0.34557	-0.523
Mof_O 	O 	0.0643	0.09432	0.16332	-0.562
Mof_O 	O 	0.2916	0.1309	0.1763	-0.59
_end
