# CIF file generated by openbabel 3.1.0, see https://openbabel.org
data_I
_chemical_name_common 'TIFBOA_clean'
_cell_length_a 7.3518
_cell_length_b 11.624
_cell_length_c 14.131
_cell_angle_alpha 90
_cell_angle_beta 90
_cell_angle_gamma 98.724
_space_group_name_H-M_alt 'P 1'
_space_group_name_Hall 'P 1'
loop_
    _symmetry_equiv_pos_as_xyz
    x,y,z
loop_
    _atom_site_label
    _atom_site_type_symbol
    _atom_site_fract_x
    _atom_site_fract_y
    _atom_site_fract_z
    _atom_site_occupancy
    Mn1      Mn       0.50105    0.52265    0.49998    1.000
    Mn2      Mn       0.97320    0.97456    0.02509    1.000
    Mn3      Mn       0.49895    0.47735    0.99998    1.000
    Mn4      Mn       0.02680    0.02544    0.52509    1.000
    Mo1      Mo       0.94540    0.34047    0.25751    1.000
    Mo2      Mo       0.05460    0.65953    0.75751    1.000
    H1       H        0.67360    0.14670    0.04430    1.000
    H2       H        0.35820    0.14750    0.04160    1.000
    H3       H        0.27720    0.80660    0.00340    1.000
    H4       H        0.59030    0.80610    0.00320    1.000
    H5       H        0.32640    0.85330    0.54430    1.000
    H6       H        0.64180    0.85250    0.54160    1.000
    H7       H        0.72280    0.19340    0.50340    1.000
    H8       H        0.40970    0.19390    0.50320    1.000
    C1       C        0.70050    0.20990    0.27040    1.000
    C2       C        0.94950    0.52480    0.23219    1.000
    C3       C        0.77720    0.39290    0.36910    1.000
    C4       C        0.16330    0.42600    0.34730    1.000
    C5       C        0.16940    0.38910    0.16110    1.000
    C6       C        0.77400    0.36180    0.13850    1.000
    C7       C        0.99530    0.19330    0.17500    1.000
    C8       C        0.02110    0.22170    0.36100    1.000
    C9       C        0.59300    0.07550    0.03580    1.000
    C10      C        0.40370    0.07570    0.03460    1.000
    C11      C        0.35750    0.87800    0.01200    1.000
    C12      C        0.54420    0.87730    0.01250    1.000
    C13      C        0.29950    0.79010    0.77040    1.000
    C14      C        0.05050    0.47520    0.73219    1.000
    C15      C        0.22280    0.60710    0.86910    1.000
    C16      C        0.83670    0.57400    0.84730    1.000
    C17      C        0.83060    0.61090    0.66110    1.000
    C18      C        0.22600    0.63820    0.63850    1.000
    C19      C        0.00470    0.80670    0.67500    1.000
    C20      C        0.97890    0.77830    0.86100    1.000
    C21      C        0.40700    0.92450    0.53580    1.000
    C22      C        0.59630    0.92430    0.53460    1.000
    C23      C        0.64250    0.12200    0.51200    1.000
    C24      C        0.45580    0.12270    0.51250    1.000
    N1       N        0.57540    0.13780    0.27590    1.000
    N2       N        0.95450    0.62210    0.21430    1.000
    N3       N        0.68520    0.41950    0.42850    1.000
    N4       N        0.27530    0.47050    0.39705    1.000
    N5       N        0.28220    0.41600    0.10429    1.000
    N6       N        0.68360    0.37550    0.07439    1.000
    N7       N        0.01280    0.11520    0.12741    1.000
    N8       N        0.05200    0.15860    0.41910    1.000
    N9       N        0.66380    0.97650    0.02544    1.000
    N10      N        0.28430    0.97700    0.02364    1.000
    N11      N        0.42460    0.86220    0.77590    1.000
    N12      N        0.04550    0.37790    0.71430    1.000
    N13      N        0.31480    0.58050    0.92850    1.000
    N14      N        0.72470    0.52950    0.89705    1.000
    N15      N        0.71780    0.58400    0.60429    1.000
    N16      N        0.31640    0.62450    0.57439    1.000
    N17      N        0.98720    0.88480    0.62741    1.000
    N18      N        0.94800    0.84140    0.91910    1.000
    N19      N        0.33620    0.02350    0.52544    1.000
    N20      N        0.71570    0.02300    0.52364    1.000
