# CIF file generated by openbabel 3.1.0, see https://openbabel.org
data_I
_chemical_name_common 'XOTXUB_clean'
_cell_length_a 5.501
_cell_length_b 22.297
_cell_length_c 20.799
_cell_angle_alpha 97.543
_cell_angle_beta 90
_cell_angle_gamma 90
_space_group_name_H-M_alt 'P 1'
_space_group_name_Hall 'P 1'
loop_
    _symmetry_equiv_pos_as_xyz
    x,y,z
loop_
    _atom_site_label
    _atom_site_type_symbol
    _atom_site_fract_x
    _atom_site_fract_y
    _atom_site_fract_z
    _atom_site_occupancy
    Mn1      Mn       0.31180    0.21215    0.29929    1.000
    Mn2      Mn       0.68820    0.78785    0.70071    1.000
    Mn3      Mn       0.81180    0.78785    0.20071    1.000
    Mn4      Mn       0.18820    0.21215    0.79929    1.000
    H1       H        0.45550    0.49220    0.39230    1.000
    H2       H        0.72610    0.91460    0.47250    1.000
    H3       H        0.25270    0.70380    0.10760    1.000
    H4       H        0.26260    0.59490    0.57110    1.000
    H5       H        0.02000    0.11500    0.67520    1.000
    H6       H        0.75270    0.29620    0.39240    1.000
    H7       H        0.20260    0.28140    0.54220    1.000
    H8       H        0.50590    0.97780    0.90630    1.000
    H9       H        0.27240    0.47100    0.85020    1.000
    H10      H        0.77240    0.52900    0.64980    1.000
    H11      H        0.35980    0.35630    0.83070    1.000
    H12      H        0.72760    0.52900    0.14980    1.000
    H13      H        0.79740    0.71860    0.45780    1.000
    H14      H        0.42890    0.17750    0.06520    1.000
    H15      H        0.56580    0.35090    0.09580    1.000
    H16      H        0.52000    0.88500    0.82480    1.000
    H17      H        0.56300    0.68790    0.01060    1.000
    H18      H        0.16400    0.71070    0.85120    1.000
    H19      H        0.22760    0.47100    0.35020    1.000
    H20      H        0.86620    0.14280    0.52280    1.000
    H21      H        0.76260    0.40510    0.92890    1.000
    H22      H        0.20780    0.42670    0.00700    1.000
    H23      H        0.54110    0.54320    0.90610    1.000
    H24      H        0.13380    0.85720    0.47720    1.000
    H25      H        0.73740    0.40510    0.42890    1.000
    H26      H        0.87020    0.03430    0.38260    1.000
    H27      H        0.78340    0.32370    0.05290    1.000
    H28      H        0.29740    0.28140    0.04220    1.000
    H29      H        0.20550    0.81770    0.87550    1.000
    H30      H        0.71660    0.32370    0.55290    1.000
    H31      H        0.36620    0.85720    0.97720    1.000
    H32      H        0.63380    0.14280    0.02280    1.000
    H33      H        0.45400    0.91940    0.55600    1.000
    H34      H        0.57110    0.82250    0.93480    1.000
    H35      H        0.99410    0.97780    0.40630    1.000
    H36      H        0.43420    0.64910    0.90420    1.000
    H37      H        0.19860    0.77120    0.53010    1.000
    H38      H        0.21660    0.67630    0.94710    1.000
    H39      H        0.04110    0.45680    0.59390    1.000
    H40      H        0.95400    0.08060    0.94400    1.000
    H41      H        0.62980    0.03430    0.88260    1.000
    H42      H        0.54600    0.08060    0.44400    1.000
    H43      H        0.44640    0.99810    0.30560    1.000
    H44      H        0.83600    0.28930    0.14880    1.000
    H45      H        0.09120    0.91110    0.72170    1.000
    H46      H        0.55360    0.00190    0.69440    1.000
    H47      H        0.79450    0.18230    0.12450    1.000
    H48      H        0.49410    0.02220    0.09370    1.000
    H49      H        0.93700    0.68790    0.51060    1.000
    H50      H        0.74730    0.29620    0.89240    1.000
    H51      H        0.95550    0.50780    0.10770    1.000
    H52      H        0.59120    0.08890    0.77830    1.000
    H53      H        0.33600    0.71070    0.35120    1.000
    H54      H        0.07110    0.17750    0.56520    1.000
    H55      H        0.06300    0.31210    0.48940    1.000
    H56      H        0.70260    0.71860    0.95780    1.000
    H57      H        0.98000    0.88500    0.32480    1.000
    H58      H        0.37020    0.96570    0.11740    1.000
    H59      H        0.92890    0.82250    0.43480    1.000
    H60      H        0.28340    0.67630    0.44710    1.000
    H61      H        0.90880    0.08890    0.27830    1.000
    H62      H        0.69860    0.22880    0.96990    1.000
    H63      H        0.24730    0.70380    0.60760    1.000
    H64      H        0.07410    0.78770    0.93020    1.000
    H65      H        0.70550    0.18230    0.62450    1.000
    H66      H        0.64020    0.64370    0.16930    1.000
    H67      H        0.95890    0.54320    0.40610    1.000
    H68      H        0.92590    0.21230    0.06980    1.000
    H69      H        0.80140    0.22880    0.46990    1.000
    H70      H        0.94640    0.00190    0.19440    1.000
    H71      H        0.42590    0.78770    0.43020    1.000
    H72      H        0.40880    0.91110    0.22170    1.000
    H73      H        0.00590    0.02220    0.59370    1.000
    H74      H        0.77390    0.91460    0.97250    1.000
    H75      H        0.29450    0.81770    0.37550    1.000
    H76      H        0.45890    0.45680    0.09390    1.000
    H77      H        0.23740    0.59490    0.07110    1.000
    H78      H        0.27390    0.08540    0.52750    1.000
    H79      H        0.04450    0.49220    0.89230    1.000
    H80      H        0.14020    0.35630    0.33070    1.000
    H81      H        0.57410    0.21230    0.56980    1.000
    H82      H        0.79220    0.57330    0.99300    1.000
    H83      H        0.66400    0.28930    0.64880    1.000
    H84      H        0.22610    0.08540    0.02750    1.000
    H85      H        0.12980    0.96570    0.61740    1.000
    H86      H        0.48000    0.11500    0.17520    1.000
    H87      H        0.05360    0.99810    0.80560    1.000
    H88      H        0.43700    0.31210    0.98940    1.000
    H89      H        0.29220    0.42670    0.50700    1.000
    H90      H        0.04600    0.91940    0.05600    1.000
    H91      H        0.70780    0.57330    0.49300    1.000
    H92      H        0.06580    0.64910    0.40420    1.000
    H93      H        0.93420    0.35090    0.59580    1.000
    H94      H        0.85980    0.64370    0.66930    1.000
    H95      H        0.30140    0.77120    0.03010    1.000
    H96      H        0.54450    0.50780    0.60770    1.000
    C1       C        0.27190    0.79090    0.40821    1.000
    C2       C        0.47110    0.95260    0.53360    1.000
    C3       C        0.50720    0.73284    0.82564    1.000
    C4       C        0.63570    0.80190    0.06148    1.000
    C5       C        0.36510    0.05040    0.51680    1.000
    C6       C        0.47000    0.08340    0.74690    1.000
    C7       C        0.45520    0.28550    0.02236    1.000
    C8       C        0.47610    0.47427    0.05590    1.000
    C9       C        0.15940    0.00620    0.60680    1.000
    C10      C        0.18320    0.46510    0.88910    1.000
    C11      C        0.99280    0.73284    0.32564    1.000
    C12      C        0.77190    0.20910    0.09179    1.000
    C13      C        0.58100    0.18240    0.04291    1.000
    C14      C        0.36570    0.68640    0.92600    1.000
    C15      C        0.84680    0.51790    0.55230    1.000
    C16      C        0.38040    0.61770    0.59520    1.000
    C17      C        0.13430    0.68640    0.42600    1.000
    C18      C        0.04160    0.77655    0.50929    1.000
    C19      C        0.55000    0.96490    0.29940    1.000
    C20      C        0.68320    0.53490    0.61090    1.000
    C21      C        0.65940    0.99380    0.89320    1.000
    C22      C        0.70910    0.64550    0.64940    1.000
    C23      C        0.54480    0.71450    0.97764    1.000
    C24      C        0.11960    0.61770    0.09520    1.000
    C25      C        0.84060    0.99380    0.39320    1.000
    C26      C        0.87410    0.32190    0.88460    1.000
    C27      C        0.82470    0.54370    0.49610    1.000
    C28      C        0.79090    0.64550    0.14940    1.000
    C29      C        0.05000    0.03510    0.20060    1.000
    C30      C        0.29090    0.35450    0.35060    1.000
    C31      C        0.52890    0.04740    0.46640    1.000
    C32      C        0.61960    0.38230    0.40480    1.000
    C33      C        0.33370    0.00270    0.55150    1.000
    C34      C        0.45000    0.03510    0.70060    1.000
    C35      C        0.88040    0.38230    0.90480    1.000
    C36      C        0.00720    0.26716    0.67436    1.000
    C37      C        0.97000    0.91660    0.75310    1.000
    C38      C        0.95520    0.71450    0.47764    1.000
    C39      C        0.13490    0.05040    0.01680    1.000
    C40      C        0.20910    0.35450    0.85060    1.000
    C41      C        0.04480    0.28550    0.52236    1.000
    C42      C        0.54160    0.22345    0.99071    1.000
    C43      C        0.52390    0.52573    0.94410    1.000
    C44      C        0.95000    0.96490    0.79940    1.000
    C45      C        0.15320    0.48210    0.44770    1.000
    C46      C        0.81680    0.53490    0.11090    1.000
    C47      C        0.63430    0.31360    0.07400    1.000
    C48      C        0.86570    0.31360    0.57400    1.000
    C49      C        0.80560    0.27170    0.62461    1.000
    C50      C        0.69440    0.27170    0.12461    1.000
    C51      C        0.97610    0.52573    0.44410    1.000
    C52      C        0.19440    0.72830    0.37539    1.000
    C53      C        0.83370    0.99730    0.94850    1.000
    C54      C        0.66630    0.99730    0.44850    1.000
    C55      C        0.37410    0.67810    0.61540    1.000
    C56      C        0.02390    0.47427    0.55590    1.000
    C57      C        0.03000    0.08340    0.24690    1.000
    C58      C        0.45840    0.77655    0.00929    1.000
    C59      C        0.95840    0.22345    0.49071    1.000
    C60      C        0.86510    0.94960    0.98320    1.000
    C61      C        0.49280    0.26716    0.17436    1.000
    C62      C        0.22810    0.79090    0.90821    1.000
    C63      C        0.34060    0.00620    0.10680    1.000
    C64      C        0.08100    0.81760    0.45709    1.000
    C65      C        0.86430    0.80190    0.56148    1.000
    C66      C        0.41900    0.81760    0.95709    1.000
    C67      C        0.97110    0.04740    0.96640    1.000
    C68      C        0.34170    0.09770    0.19070    1.000
    C69      C        0.84170    0.90230    0.30930    1.000
    C70      C        0.91900    0.18240    0.54291    1.000
    C71      C        0.12590    0.67810    0.11540    1.000
    C72      C        0.36430    0.19810    0.93852    1.000
    C73      C        0.62590    0.32190    0.38460    1.000
    C74      C        0.17530    0.45630    0.50390    1.000
    C75      C        0.72810    0.20910    0.59179    1.000
    C76      C        0.02890    0.95260    0.03360    1.000
    C77      C        0.32470    0.45630    0.00390    1.000
    C78      C        0.16630    0.00270    0.05150    1.000
    C79      C        0.13570    0.19810    0.43852    1.000
    C80      C        0.67530    0.54370    0.99610    1.000
    C81      C        0.31680    0.46510    0.38910    1.000
    C82      C        0.65320    0.51790    0.05230    1.000
    C83      C        0.30560    0.72830    0.87539    1.000
    C84      C        0.15830    0.09770    0.69070    1.000
    C85      C        0.53000    0.91660    0.25310    1.000
    C86      C        0.34680    0.48210    0.94770    1.000
    C87      C        0.63490    0.94960    0.48320    1.000
    C88      C        0.65830    0.90230    0.80930    1.000
    N1       N        0.24890    0.04426    0.66456    1.000
    N2       N        0.41720    0.30417    0.35083    1.000
    N3       N        0.21520    0.12315    0.24049    1.000
    N4       N        0.25110    0.04426    0.16456    1.000
    N5       N        0.08280    0.30417    0.85083    1.000
    N6       N        0.40500    0.40269    0.38250    1.000
    N7       N        0.59500    0.59731    0.61750    1.000
    N8       N        0.58280    0.69583    0.64917    1.000
    N9       N        0.09500    0.40269    0.88250    1.000
    N10      N        0.91720    0.69583    0.14917    1.000
    N11      N        0.75110    0.95574    0.33544    1.000
    N12      N        0.74890    0.95574    0.83544    1.000
    N13      N        0.90500    0.59731    0.11750    1.000
    N14      N        0.71520    0.87685    0.25951    1.000
    N15      N        0.78480    0.87685    0.75951    1.000
    N16      N        0.28480    0.12315    0.74049    1.000
    O1       O        0.33970    0.18131    0.45509    1.000
    O2       O        0.66030    0.81869    0.54491    1.000
    O3       O        0.57170    0.80225    0.12041    1.000
    O4       O        0.46420    0.76826    0.78331    1.000
    O5       O        0.07170    0.19775    0.37959    1.000
    O6       O        0.96420    0.23174    0.71669    1.000
    O7       O        0.53580    0.23174    0.21669    1.000
    O8       O        0.03580    0.76826    0.28331    1.000
    O9       O        0.92830    0.80225    0.62041    1.000
    O10      O        0.19760    0.29659    0.67296    1.000
    O11      O        0.80240    0.70341    0.32704    1.000
    O12      O        0.42830    0.19775    0.87959    1.000
    O13      O        0.16030    0.18131    0.95509    1.000
    O14      O        0.69760    0.70341    0.82704    1.000
    O15      O        0.83970    0.81869    0.04491    1.000
    O16      O        0.30240    0.29659    0.17296    1.000
