# CIF file generated by openbabel 3.1.0, see https://openbabel.org
data_I
_chemical_name_common 'image0'
_cell_length_a 13.036
_cell_length_b 12.2948
_cell_length_c 18.7055
_cell_angle_alpha 90
_cell_angle_beta 123.019
_cell_angle_gamma 90
_space_group_name_H-M_alt 'P 1'
_space_group_name_Hall 'P 1'
loop_
    _symmetry_equiv_pos_as_xyz
    x,y,z
loop_
    _atom_site_label
    _atom_site_type_symbol
    _atom_site_fract_x
    _atom_site_fract_y
    _atom_site_fract_z
    _atom_site_occupancy
    Zn1      Zn       0.59993    0.69252    0.12625    1.000
    C1       C        0.61130    0.58760    0.98300    1.000
    H1       H        0.63740    0.52050    0.01020    1.000
    C2       C        0.59270    0.61240    0.90670    1.000
    H2       H        0.60180    0.56610    0.87120    1.000
    C3       C        0.55260    0.75670    0.95800    1.000
    H3       H        0.52940    0.82660    0.96250    1.000
    C4       C        0.52930    0.78410    0.81820    1.000
    C5       C        0.53360    0.89520    0.82300    1.000
    H4       H        0.55840    0.93080    0.87380    1.000
    C6       C        0.82310    0.18570    0.25670    1.000
    C7       C        0.00850    0.29160    0.34670    1.000
    C8       C        0.01890    0.09360    0.35160    1.000
    C9       C        0.81630    0.38210    0.24580    1.000
    H5       H        0.75450    0.36840    0.18620    1.000
    H6       H        0.87050    0.43810    0.24820    1.000
    C10      C        0.75500    0.42290    0.28920    1.000
    H7       H        0.81700    0.44060    0.34800    1.000
    H8       H        0.70410    0.36560    0.28950    1.000
    C11      C        0.67730    0.52200    0.24610    1.000
    C12      C        0.20500    0.19840    0.43280    1.000
    H9       H        0.23440    0.26180    0.41820    1.000
    H10      H        0.23910    0.13460    0.42270    1.000
    C13      C        0.25260    0.20350    0.52760    1.000
    H11      H        0.21920    0.26620    0.53960    1.000
    H12      H        0.23000    0.13830    0.54510    1.000
    C14      C        0.38980    0.21250    0.57380    1.000
    C15      C        0.83490    0.98670    0.25680    1.000
    H13      H        0.89180    0.93610    0.25670    1.000
    H14      H        0.76720    0.99680    0.19830    1.000
    C16      C        0.78660    0.93740    0.30750    1.000
    H15      H        0.85470    0.91510    0.36320    1.000
    H16      H        0.73990    0.99160    0.31580    1.000
    C17      C        0.70620    0.84010    0.26130    1.000
    O1       O        0.62620    0.56720    0.27830    1.000
    O2       O        0.67050    0.55210    0.17930    1.000
    O3       O        0.44820    0.14470    0.56360    1.000
    O4       O        0.44140    0.30180    0.61860    1.000
    O5       O        0.62970    0.81010    0.27920    1.000
    O6       O        0.72090    0.79460    0.20690    1.000
    O7       O        0.71500    0.18080    0.20620    1.000
    O8       O        0.05800    0.37840    0.37190    1.000
    O9       O        0.07730    0.01110    0.38150    1.000
    N1       N        0.58480    0.68000    0.01500    1.000
    N2       N        0.55750    0.72060    0.89160    1.000
    N3       N        0.88660    0.28280    0.28410    1.000
    N4       N        0.07210    0.19430    0.37620    1.000
    N5       N        0.89620    0.09070    0.29080    1.000
    Zn2      Zn       0.40007    0.69252    0.37375    1.000
    C18      C        0.38870    0.58760    0.51700    1.000
    H17      H        0.36260    0.52050    0.48980    1.000
    C19      C        0.40730    0.61240    0.59330    1.000
    H18      H        0.39820    0.56610    0.62880    1.000
    C20      C        0.44740    0.75670    0.54200    1.000
    H19      H        0.47060    0.82660    0.53750    1.000
    C21      C        0.47070    0.78410    0.68180    1.000
    C22      C        0.46640    0.89520    0.67700    1.000
    H20      H        0.44160    0.93080    0.62620    1.000
    C23      C        0.17690    0.18570    0.24330    1.000
    C24      C        0.99150    0.29160    0.15330    1.000
    C25      C        0.98110    0.09360    0.14840    1.000
    C26      C        0.18370    0.38210    0.25420    1.000
    H21      H        0.24550    0.36840    0.31380    1.000
    H22      H        0.12950    0.43810    0.25180    1.000
    C27      C        0.24500    0.42290    0.21080    1.000
    H23      H        0.18300    0.44060    0.15200    1.000
    H24      H        0.29590    0.36560    0.21050    1.000
    C28      C        0.32270    0.52200    0.25390    1.000
    C29      C        0.79500    0.19840    0.06720    1.000
    H25      H        0.76560    0.26180    0.08180    1.000
    H26      H        0.76090    0.13460    0.07730    1.000
    C30      C        0.74740    0.20350    0.97240    1.000
    H27      H        0.78080    0.26620    0.96040    1.000
    H28      H        0.77000    0.13830    0.95490    1.000
    C31      C        0.61020    0.21250    0.92620    1.000
    C32      C        0.16510    0.98670    0.24320    1.000
    H29      H        0.10820    0.93610    0.24330    1.000
    H30      H        0.23280    0.99680    0.30170    1.000
    C33      C        0.21340    0.93740    0.19250    1.000
    H31      H        0.14530    0.91510    0.13680    1.000
    H32      H        0.26010    0.99160    0.18420    1.000
    C34      C        0.29380    0.84010    0.23870    1.000
    O10      O        0.37380    0.56720    0.22170    1.000
    O11      O        0.32950    0.55210    0.32070    1.000
    O12      O        0.55180    0.14470    0.93640    1.000
    O13      O        0.55860    0.30180    0.88140    1.000
    O14      O        0.37030    0.81010    0.22080    1.000
    O15      O        0.27910    0.79460    0.29310    1.000
    O16      O        0.28500    0.18080    0.29380    1.000
    O17      O        0.94200    0.37840    0.12810    1.000
    O18      O        0.92270    0.01110    0.11850    1.000
    N6       N        0.41520    0.68000    0.48500    1.000
    N7       N        0.44250    0.72060    0.60840    1.000
    N8       N        0.11340    0.28280    0.21590    1.000
    N9       N        0.92790    0.19430    0.12380    1.000
    N10      N        0.10380    0.09070    0.20920    1.000
    Zn3      Zn       0.40007    0.30748    0.87375    1.000
    C35      C        0.38870    0.41240    0.01700    1.000
    H33      H        0.36260    0.47950    0.98980    1.000
    C36      C        0.40730    0.38760    0.09330    1.000
    H34      H        0.39820    0.43390    0.12880    1.000
    C37      C        0.44740    0.24330    0.04200    1.000
    H35      H        0.47060    0.17340    0.03750    1.000
    C38      C        0.47070    0.21590    0.18180    1.000
    C39      C        0.46640    0.10480    0.17700    1.000
    H36      H        0.44160    0.06920    0.12620    1.000
    C40      C        0.17690    0.81430    0.74330    1.000
    C41      C        0.99150    0.70840    0.65330    1.000
    C42      C        0.98110    0.90640    0.64840    1.000
    C43      C        0.18370    0.61790    0.75420    1.000
    H37      H        0.24550    0.63160    0.81380    1.000
    H38      H        0.12950    0.56190    0.75180    1.000
    C44      C        0.24500    0.57710    0.71080    1.000
    H39      H        0.18300    0.55940    0.65200    1.000
    H40      H        0.29590    0.63440    0.71050    1.000
    C45      C        0.32270    0.47800    0.75390    1.000
    C46      C        0.79500    0.80160    0.56720    1.000
    H41      H        0.76560    0.73820    0.58180    1.000
    H42      H        0.76090    0.86540    0.57730    1.000
    C47      C        0.74740    0.79650    0.47240    1.000
    H43      H        0.78080    0.73380    0.46040    1.000
    H44      H        0.77000    0.86170    0.45490    1.000
    C48      C        0.61020    0.78750    0.42620    1.000
    C49      C        0.16510    0.01330    0.74320    1.000
    H45      H        0.10820    0.06390    0.74330    1.000
    H46      H        0.23280    0.00320    0.80170    1.000
    C50      C        0.21340    0.06260    0.69250    1.000
    H47      H        0.14530    0.08490    0.63680    1.000
    H48      H        0.26010    0.00840    0.68420    1.000
    C51      C        0.29380    0.15990    0.73870    1.000
    O19      O        0.37380    0.43280    0.72170    1.000
    O20      O        0.32950    0.44790    0.82070    1.000
    O21      O        0.55180    0.85530    0.43640    1.000
    O22      O        0.55860    0.69820    0.38140    1.000
    O23      O        0.37030    0.18990    0.72080    1.000
    O24      O        0.27910    0.20540    0.79310    1.000
    O25      O        0.28500    0.81920    0.79380    1.000
    O26      O        0.94200    0.62160    0.62810    1.000
    O27      O        0.92270    0.98890    0.61850    1.000
    N11      N        0.41520    0.32000    0.98500    1.000
    N12      N        0.44250    0.27940    0.10840    1.000
    N13      N        0.11340    0.71720    0.71590    1.000
    N14      N        0.92790    0.80570    0.62380    1.000
    N15      N        0.10380    0.90930    0.70920    1.000
    Zn4      Zn       0.59993    0.30748    0.62625    1.000
    C52      C        0.61130    0.41240    0.48300    1.000
    H49      H        0.63740    0.47950    0.51020    1.000
    C53      C        0.59270    0.38760    0.40670    1.000
    H50      H        0.60180    0.43390    0.37120    1.000
    C54      C        0.55260    0.24330    0.45800    1.000
    H51      H        0.52940    0.17340    0.46250    1.000
    C55      C        0.52930    0.21590    0.31820    1.000
    C56      C        0.53360    0.10480    0.32300    1.000
    H52      H        0.55840    0.06920    0.37380    1.000
    C57      C        0.82310    0.81430    0.75670    1.000
    C58      C        0.00850    0.70840    0.84670    1.000
    C59      C        0.01890    0.90640    0.85160    1.000
    C60      C        0.81630    0.61790    0.74580    1.000
    H53      H        0.75450    0.63160    0.68620    1.000
    H54      H        0.87050    0.56190    0.74820    1.000
    C61      C        0.75500    0.57710    0.78920    1.000
    H55      H        0.81700    0.55940    0.84800    1.000
    H56      H        0.70410    0.63440    0.78950    1.000
    C62      C        0.67730    0.47800    0.74610    1.000
    C63      C        0.20500    0.80160    0.93280    1.000
    H57      H        0.23440    0.73820    0.91820    1.000
    H58      H        0.23910    0.86540    0.92270    1.000
    C64      C        0.25260    0.79650    0.02760    1.000
    H59      H        0.21920    0.73380    0.03960    1.000
    H60      H        0.23000    0.86170    0.04510    1.000
    C65      C        0.38980    0.78750    0.07380    1.000
    C66      C        0.83490    0.01330    0.75680    1.000
    H61      H        0.89180    0.06390    0.75670    1.000
    H62      H        0.76720    0.00320    0.69830    1.000
    C67      C        0.78660    0.06260    0.80750    1.000
    H63      H        0.85470    0.08490    0.86320    1.000
    H64      H        0.73990    0.00840    0.81580    1.000
    C68      C        0.70620    0.15990    0.76130    1.000
    O28      O        0.62620    0.43280    0.77830    1.000
    O29      O        0.67050    0.44790    0.67930    1.000
    O30      O        0.44820    0.85530    0.06360    1.000
    O31      O        0.44140    0.69820    0.11860    1.000
    O32      O        0.62970    0.18990    0.77920    1.000
    O33      O        0.72090    0.20540    0.70690    1.000
    O34      O        0.71500    0.81920    0.70620    1.000
    O35      O        0.05800    0.62160    0.87190    1.000
    O36      O        0.07730    0.98890    0.88150    1.000
    N16      N        0.58480    0.32000    0.51500    1.000
    N17      N        0.55750    0.27940    0.39160    1.000
    N18      N        0.88660    0.71720    0.78410    1.000
    N19      N        0.07210    0.80570    0.87620    1.000
    N20      N        0.89620    0.90930    0.79080    1.000
    Zn5      Zn       0.50000    0.68697    0.25000    1.000
    Zn6      Zn       0.50000    0.31303    0.75000    1.000
    C69      C        0.50000    0.95280    0.75000    1.000
    H65      H        0.50000    0.02850    0.75000    1.000
    N21      N        0.50000    0.72870    0.75000    1.000
    C70      C        0.50000    0.04720    0.25000    1.000
    H66      H        0.50000    0.97150    0.25000    1.000
    N22      N        0.50000    0.27130    0.25000    1.000
