data_functionalizedCrystal
_audit_creation_method	'EQeq! by Chris Wilmer'
_symmetry_space_group_name_H-M	'P1'
_symmetry_Int_Tables_number	1
_symmetry_cell_setting	triclinic
loop_
_symmetry_equiv_pos_as_xyz
  x,y,z
_cell_length_a	20.1432
_cell_length_b	20.1432
_cell_length_c	21.962
_cell_angle_alpha	90
_cell_angle_beta	90
_cell_angle_gamma	120
loop_
_atom_site_label
_atom_site_type_symbol
_atom_site_fract_x
_atom_site_fract_y
_atom_site_fract_z
_atom_site_charge
Mof_Na	Na	0.33333	0.66666	0.25	3.422
Mof_Na	Na	0.66667	0.33334	0.75	3.422
Mof_Cd	Cd	0.2244	0.4488	0.25	0.389
Mof_Cd	Cd	0.2244	0.7756	0.25	0.389
Mof_Cd	Cd	0.5512	0.7756	0.25	0.389
Mof_Cd	Cd	0.7756	0.5512	0.75	0.389
Mof_Cd	Cd	0.7756	0.2244	0.75	0.389
Mof_Cd	Cd	0.4488	0.2244	0.75	0.389
Mof_H 	H 	0.0951	0.4498	0.4361	0.023
Mof_H 	H 	0.2463	0.7156	0.4673	0.113
Mof_H 	H 	0.2499	0.6567	0.3771	-0.088
Mof_H 	H 	0.0223	0.4022	0.505	0.048
Mof_H 	H 	0.9968	0.4666	0.6501	0.102
Mof_H 	H 	0.9101	0.3959	0.7206	-0.02
Mof_H 	H 	0.8417	0.2051	0.627	0
Mof_H 	H 	0.9302	0.2756	0.5534	0.09
Mof_H 	H 	0.146	0.621	0.5953	0.156
Mof_H 	H 	0.133	0.6716	0.5659	0.152
Mof_H 	H 	0.3547	0.9049	0.4361	0.022
Mof_H 	H 	0.4693	0.7537	0.4673	0.112
Mof_H 	H 	0.4068	0.7501	0.3771	-0.089
Mof_H 	H 	0.3799	0.9777	0.505	0.047
Mof_H 	H 	0.4698	0.0032	0.6501	0.101
Mof_H 	H 	0.4858	0.0899	0.7206	-0.021
Mof_H 	H 	0.3634	0.1583	0.627	0
Mof_H 	H 	0.3454	0.0698	0.5534	0.09
Mof_H 	H 	0.475	0.854	0.5953	0.156
Mof_H 	H 	0.5386	0.867	0.5659	0.152
Mof_H 	H 	0.5502	0.6453	0.4361	0.022
Mof_H 	H 	0.2844	0.5307	0.4673	0.112
Mof_H 	H 	0.3433	0.5932	0.3771	-0.089
Mof_H 	H 	0.5978	0.6201	0.505	0.047
Mof_H 	H 	0.5334	0.5302	0.6501	0.101
Mof_H 	H 	0.6041	0.5142	0.7206	-0.021
Mof_H 	H 	0.7949	0.6366	0.627	0
Mof_H 	H 	0.7244	0.6546	0.5534	0.09
Mof_H 	H 	0.379	0.525	0.5953	0.156
Mof_H 	H 	0.3284	0.4614	0.5659	0.152
Mof_H 	H 	0.3547	0.4498	0.0639	0.023
Mof_H 	H 	0.4693	0.7156	0.0327	0.112
Mof_H 	H 	0.4068	0.6567	0.1229	-0.089
Mof_H 	H 	0.3799	0.4022	0.995	0.047
Mof_H 	H 	0.4698	0.4666	0.8499	0.101
Mof_H 	H 	0.4858	0.3959	0.7794	-0.021
Mof_H 	H 	0.3634	0.2051	0.873	0
Mof_H 	H 	0.3454	0.2756	0.9466	0.09
Mof_H 	H 	0.475	0.621	0.9047	0.156
Mof_H 	H 	0.5386	0.6716	0.9341	0.152
Mof_H 	H 	0.5502	0.9049	0.0639	0.023
Mof_H 	H 	0.2844	0.7537	0.0327	0.112
Mof_H 	H 	0.3433	0.7501	0.1229	-0.088
Mof_H 	H 	0.5978	0.9777	0.995	0.047
Mof_H 	H 	0.5334	0.0032	0.8499	0.101
Mof_H 	H 	0.6041	0.0899	0.7794	-0.021
Mof_H 	H 	0.7949	0.1583	0.873	0
Mof_H 	H 	0.7244	0.0698	0.9466	0.09
Mof_H 	H 	0.379	0.854	0.9047	0.156
Mof_H 	H 	0.3284	0.867	0.9341	0.152
Mof_H 	H 	0.0951	0.6453	0.0639	0.023
Mof_H 	H 	0.2463	0.5307	0.0327	0.112
Mof_H 	H 	0.2499	0.5932	0.1229	-0.088
Mof_H 	H 	0.0223	0.6201	0.995	0.047
Mof_H 	H 	0.9968	0.5302	0.8499	0.101
Mof_H 	H 	0.9101	0.5142	0.7794	-0.021
Mof_H 	H 	0.8417	0.6366	0.873	0
Mof_H 	H 	0.9302	0.6546	0.9466	0.09
Mof_H 	H 	0.146	0.525	0.9047	0.156
Mof_H 	H 	0.133	0.4614	0.9341	0.152
Mof_H 	H 	0.9049	0.5502	0.5639	0.022
Mof_H 	H 	0.7537	0.2844	0.5327	0.112
Mof_H 	H 	0.7501	0.3433	0.6229	-0.089
Mof_H 	H 	0.9777	0.5978	0.495	0.047
Mof_H 	H 	0.0032	0.5334	0.3499	0.101
Mof_H 	H 	0.0899	0.6041	0.2794	-0.021
Mof_H 	H 	0.1583	0.7949	0.373	0
Mof_H 	H 	0.0698	0.7244	0.4466	0.09
Mof_H 	H 	0.854	0.379	0.4047	0.156
Mof_H 	H 	0.867	0.3284	0.4341	0.152
Mof_H 	H 	0.6453	0.0951	0.5639	0.022
Mof_H 	H 	0.5307	0.2463	0.5327	0.112
Mof_H 	H 	0.5932	0.2499	0.6229	-0.089
Mof_H 	H 	0.6201	0.0223	0.495	0.047
Mof_H 	H 	0.5302	0.9968	0.3499	0.101
Mof_H 	H 	0.5142	0.9101	0.2794	-0.021
Mof_H 	H 	0.6366	0.8417	0.373	0
Mof_H 	H 	0.6546	0.9302	0.4466	0.09
Mof_H 	H 	0.525	0.146	0.4047	0.156
Mof_H 	H 	0.4614	0.133	0.4341	0.152
Mof_H 	H 	0.4498	0.3547	0.5639	0.022
Mof_H 	H 	0.7156	0.4693	0.5327	0.112
Mof_H 	H 	0.6567	0.4068	0.6229	-0.089
Mof_H 	H 	0.4022	0.3799	0.495	0.047
Mof_H 	H 	0.4666	0.4698	0.3499	0.101
Mof_H 	H 	0.3959	0.4858	0.2794	-0.021
Mof_H 	H 	0.2051	0.3634	0.373	0
Mof_H 	H 	0.2756	0.3454	0.4466	0.09
Mof_H 	H 	0.621	0.475	0.4047	0.156
Mof_H 	H 	0.6716	0.5386	0.4341	0.152
Mof_H 	H 	0.6453	0.5502	0.9361	0.023
Mof_H 	H 	0.5307	0.2844	0.9673	0.112
Mof_H 	H 	0.5932	0.3433	0.8771	-0.089
Mof_H 	H 	0.6201	0.5978	0.005	0.047
Mof_H 	H 	0.5302	0.5334	0.1501	0.101
Mof_H 	H 	0.5142	0.6041	0.2206	-0.021
Mof_H 	H 	0.6366	0.7949	0.127	0
Mof_H 	H 	0.6546	0.7244	0.0534	0.09
Mof_H 	H 	0.525	0.379	0.0953	0.156
Mof_H 	H 	0.4614	0.3284	0.0659	0.152
Mof_H 	H 	0.4498	0.0951	0.9361	0.023
Mof_H 	H 	0.7156	0.2463	0.9673	0.112
Mof_H 	H 	0.6567	0.2499	0.8771	-0.088
Mof_H 	H 	0.4022	0.0223	0.005	0.047
Mof_H 	H 	0.4666	0.9968	0.1501	0.101
Mof_H 	H 	0.3959	0.9101	0.2206	-0.021
Mof_H 	H 	0.2051	0.8417	0.127	0
Mof_H 	H 	0.2756	0.9302	0.0534	0.09
Mof_H 	H 	0.621	0.146	0.0953	0.156
Mof_H 	H 	0.6716	0.133	0.0659	0.152
Mof_H 	H 	0.9049	0.3547	0.9361	0.023
Mof_H 	H 	0.7537	0.4693	0.9673	0.112
Mof_H 	H 	0.7501	0.4068	0.8771	-0.088
Mof_H 	H 	0.9777	0.3799	0.005	0.047
Mof_H 	H 	0.0032	0.4698	0.1501	0.101
Mof_H 	H 	0.0899	0.4858	0.2206	-0.021
Mof_H 	H 	0.1583	0.3634	0.127	0
Mof_H 	H 	0.0698	0.3454	0.0534	0.09
Mof_H 	H 	0.854	0.475	0.0953	0.156
Mof_H 	H 	0.867	0.5386	0.0659	0.152
Mof_C 	C 	0.1825	0.5118	0.3418	0.498
Mof_C 	C 	0.1735	0.5466	0.3989	-0.228
Mof_C 	C 	0.1247	0.5022	0.4428	0.051
Mof_C 	C 	0.1171	0.5319	0.4976	-0.025
Mof_C 	C 	0.1624	0.6151	0.5085	0.155
Mof_C 	C 	0.2153	0.6631	0.4619	-0.223
Mof_C 	C 	0.2176	0.6266	0.4083	0.166
Mof_C 	C 	0.0242	0.4261	0.5417	-0.039
Mof_C 	C 	0.9709	0.3773	0.591	0.12
Mof_C 	C 	0.9654	0.4141	0.6446	-0.188
Mof_C 	C 	0.9149	0.3719	0.6861	0.121
Mof_C 	C 	0.8732	0.2578	0.6314	0.102
Mof_C 	C 	0.9257	0.3007	0.5874	-0.183
Mof_C 	C 	0.3293	0.8175	0.3418	0.498
Mof_C 	C 	0.3731	0.8265	0.3989	-0.228
Mof_C 	C 	0.3775	0.8753	0.4428	0.051
Mof_C 	C 	0.4148	0.8829	0.4976	-0.025
Mof_C 	C 	0.4527	0.8376	0.5085	0.155
Mof_C 	C 	0.4478	0.7847	0.4619	-0.223
Mof_C 	C 	0.409	0.7824	0.4083	0.166
Mof_C 	C 	0.4019	0.9758	0.5417	-0.039
Mof_C 	C 	0.4064	0.0291	0.591	0.12
Mof_C 	C 	0.4487	0.0346	0.6446	-0.188
Mof_C 	C 	0.457	0.0851	0.6861	0.121
Mof_C 	C 	0.3846	0.1268	0.6314	0.102
Mof_C 	C 	0.375	0.0743	0.5874	-0.183
Mof_C 	C 	0.4882	0.6707	0.3418	0.498
Mof_C 	C 	0.4534	0.6269	0.3989	-0.228
Mof_C 	C 	0.4978	0.6225	0.4428	0.051
Mof_C 	C 	0.4681	0.5852	0.4976	-0.025
Mof_C 	C 	0.3849	0.5473	0.5085	0.155
Mof_C 	C 	0.3369	0.5522	0.4619	-0.223
Mof_C 	C 	0.3734	0.591	0.4083	0.166
Mof_C 	C 	0.5739	0.5981	0.5417	-0.039
Mof_C 	C 	0.6227	0.5936	0.591	0.12
Mof_C 	C 	0.5859	0.5513	0.6446	-0.188
Mof_C 	C 	0.6281	0.543	0.6861	0.121
Mof_C 	C 	0.7422	0.6154	0.6314	0.102
Mof_C 	C 	0.6993	0.625	0.5874	-0.183
Mof_C 	C 	0.3293	0.5118	0.1582	0.498
Mof_C 	C 	0.3731	0.5466	0.1011	-0.228
Mof_C 	C 	0.3775	0.5022	0.0572	0.051
Mof_C 	C 	0.4148	0.5319	0.0024	-0.025
Mof_C 	C 	0.4527	0.6151	0.9915	0.154
Mof_C 	C 	0.4478	0.6631	0.0381	-0.223
Mof_C 	C 	0.409	0.6266	0.0917	0.166
Mof_C 	C 	0.4019	0.4261	0.9583	-0.039
Mof_C 	C 	0.4064	0.3773	0.909	0.12
Mof_C 	C 	0.4487	0.4141	0.8554	-0.188
Mof_C 	C 	0.457	0.3719	0.8139	0.121
Mof_C 	C 	0.3846	0.2578	0.8686	0.102
Mof_C 	C 	0.375	0.3007	0.9126	-0.183
Mof_C 	C 	0.4882	0.8175	0.1582	0.498
Mof_C 	C 	0.4534	0.8265	0.1011	-0.228
Mof_C 	C 	0.4978	0.8753	0.0572	0.051
Mof_C 	C 	0.4681	0.8829	0.0024	-0.025
Mof_C 	C 	0.3849	0.8376	0.9915	0.154
Mof_C 	C 	0.3369	0.7847	0.0381	-0.223
Mof_C 	C 	0.3734	0.7824	0.0917	0.165
Mof_C 	C 	0.5739	0.9758	0.9583	-0.04
Mof_C 	C 	0.6227	0.0291	0.909	0.12
Mof_C 	C 	0.5859	0.0346	0.8554	-0.188
Mof_C 	C 	0.6281	0.0851	0.8139	0.121
Mof_C 	C 	0.7422	0.1268	0.8686	0.102
Mof_C 	C 	0.6993	0.0743	0.9126	-0.183
Mof_C 	C 	0.1825	0.6707	0.1582	0.498
Mof_C 	C 	0.1735	0.6269	0.1011	-0.228
Mof_C 	C 	0.1247	0.6225	0.0572	0.051
Mof_C 	C 	0.1171	0.5852	0.0024	-0.025
Mof_C 	C 	0.1624	0.5473	0.9915	0.154
Mof_C 	C 	0.2153	0.5522	0.0381	-0.223
Mof_C 	C 	0.2176	0.591	0.0917	0.165
Mof_C 	C 	0.0242	0.5981	0.9583	-0.04
Mof_C 	C 	0.9709	0.5936	0.909	0.12
Mof_C 	C 	0.9654	0.5513	0.8554	-0.188
Mof_C 	C 	0.9149	0.543	0.8139	0.121
Mof_C 	C 	0.8732	0.6154	0.8686	0.102
Mof_C 	C 	0.9257	0.625	0.9126	-0.183
Mof_C 	C 	0.8175	0.4882	0.6582	0.498
Mof_C 	C 	0.8265	0.4534	0.6011	-0.228
Mof_C 	C 	0.8753	0.4978	0.5572	0.051
Mof_C 	C 	0.8829	0.4681	0.5024	-0.025
Mof_C 	C 	0.8376	0.3849	0.4915	0.155
Mof_C 	C 	0.7847	0.3369	0.5381	-0.223
Mof_C 	C 	0.7824	0.3734	0.5917	0.166
Mof_C 	C 	0.9758	0.5739	0.4583	-0.039
Mof_C 	C 	0.0291	0.6227	0.409	0.12
Mof_C 	C 	0.0346	0.5859	0.3554	-0.188
Mof_C 	C 	0.0851	0.6281	0.3139	0.121
Mof_C 	C 	0.1268	0.7422	0.3686	0.102
Mof_C 	C 	0.0743	0.6993	0.4126	-0.183
Mof_C 	C 	0.6707	0.1825	0.6582	0.498
Mof_C 	C 	0.6269	0.1735	0.6011	-0.228
Mof_C 	C 	0.6225	0.1247	0.5572	0.051
Mof_C 	C 	0.5852	0.1171	0.5024	-0.025
Mof_C 	C 	0.5473	0.1624	0.4915	0.155
Mof_C 	C 	0.5522	0.2153	0.5381	-0.223
Mof_C 	C 	0.591	0.2176	0.5917	0.166
Mof_C 	C 	0.5981	0.0242	0.4583	-0.039
Mof_C 	C 	0.5936	0.9709	0.409	0.12
Mof_C 	C 	0.5513	0.9654	0.3554	-0.188
Mof_C 	C 	0.543	0.9149	0.3139	0.121
Mof_C 	C 	0.6154	0.8732	0.3686	0.102
Mof_C 	C 	0.625	0.9257	0.4126	-0.183
Mof_C 	C 	0.5118	0.3293	0.6582	0.498
Mof_C 	C 	0.5466	0.3731	0.6011	-0.228
Mof_C 	C 	0.5022	0.3775	0.5572	0.051
Mof_C 	C 	0.5319	0.4148	0.5024	-0.025
Mof_C 	C 	0.6151	0.4527	0.4915	0.155
Mof_C 	C 	0.6631	0.4478	0.5381	-0.223
Mof_C 	C 	0.6266	0.409	0.5917	0.166
Mof_C 	C 	0.4261	0.4019	0.4583	-0.039
Mof_C 	C 	0.3773	0.4064	0.409	0.12
Mof_C 	C 	0.4141	0.4487	0.3554	-0.188
Mof_C 	C 	0.3719	0.457	0.3139	0.121
Mof_C 	C 	0.2578	0.3846	0.3686	0.102
Mof_C 	C 	0.3007	0.375	0.4126	-0.183
Mof_C 	C 	0.6707	0.4882	0.8418	0.498
Mof_C 	C 	0.6269	0.4534	0.8989	-0.228
Mof_C 	C 	0.6225	0.4978	0.9428	0.051
Mof_C 	C 	0.5852	0.4681	0.9976	-0.025
Mof_C 	C 	0.5473	0.3849	0.0085	0.154
Mof_C 	C 	0.5522	0.3369	0.9619	-0.223
Mof_C 	C 	0.591	0.3734	0.9083	0.166
Mof_C 	C 	0.5981	0.5739	0.0417	-0.039
Mof_C 	C 	0.5936	0.6227	0.091	0.12
Mof_C 	C 	0.5513	0.5859	0.1446	-0.188
Mof_C 	C 	0.543	0.6281	0.1861	0.121
Mof_C 	C 	0.6154	0.7422	0.1314	0.102
Mof_C 	C 	0.625	0.6993	0.0874	-0.183
Mof_C 	C 	0.5118	0.1825	0.8418	0.498
Mof_C 	C 	0.5466	0.1735	0.8989	-0.228
Mof_C 	C 	0.5022	0.1247	0.9428	0.051
Mof_C 	C 	0.5319	0.1171	0.9976	-0.025
Mof_C 	C 	0.6151	0.1624	0.0085	0.154
Mof_C 	C 	0.6631	0.2153	0.9619	-0.223
Mof_C 	C 	0.6266	0.2176	0.9083	0.165
Mof_C 	C 	0.4261	0.0242	0.0417	-0.04
Mof_C 	C 	0.3773	0.9709	0.091	0.12
Mof_C 	C 	0.4141	0.9654	0.1446	-0.188
Mof_C 	C 	0.3719	0.9149	0.1861	0.121
Mof_C 	C 	0.2578	0.8732	0.1314	0.102
Mof_C 	C 	0.3007	0.9257	0.0874	-0.183
Mof_C 	C 	0.8175	0.3293	0.8418	0.498
Mof_C 	C 	0.8265	0.3731	0.8989	-0.228
Mof_C 	C 	0.8753	0.3775	0.9428	0.051
Mof_C 	C 	0.8829	0.4148	0.9976	-0.025
Mof_C 	C 	0.8376	0.4527	0.0085	0.154
Mof_C 	C 	0.7847	0.4478	0.9619	-0.223
Mof_C 	C 	0.7824	0.409	0.9083	0.165
Mof_C 	C 	0.9758	0.4019	0.0417	-0.04
Mof_C 	C 	0.0291	0.4064	0.091	0.12
Mof_C 	C 	0.0346	0.4487	0.1446	-0.188
Mof_C 	C 	0.0851	0.457	0.1861	0.121
Mof_C 	C 	0.1268	0.3846	0.1314	0.102
Mof_C 	C 	0.0743	0.375	0.0874	-0.183
Mof_N 	N 	0.0706	0.4956	0.5456	-0.098
Mof_N 	N 	0.8688	0.2941	0.6808	-0.176
Mof_N 	N 	0.154	0.6447	0.562	-0.323
Mof_N 	N 	0.425	0.9294	0.5456	-0.098
Mof_N 	N 	0.4253	0.1312	0.6808	-0.176
Mof_N 	N 	0.4907	0.846	0.562	-0.323
Mof_N 	N 	0.5044	0.575	0.5456	-0.098
Mof_N 	N 	0.7059	0.5747	0.6808	-0.176
Mof_N 	N 	0.3553	0.5093	0.562	-0.323
Mof_N 	N 	0.425	0.4956	0.9544	-0.098
Mof_N 	N 	0.4253	0.2941	0.8192	-0.176
Mof_N 	N 	0.4907	0.6447	0.938	-0.323
Mof_N 	N 	0.5044	0.9294	0.9544	-0.098
Mof_N 	N 	0.7059	0.1312	0.8192	-0.176
Mof_N 	N 	0.3553	0.846	0.938	-0.323
Mof_N 	N 	0.0706	0.575	0.9544	-0.098
Mof_N 	N 	0.8688	0.5747	0.8192	-0.176
Mof_N 	N 	0.154	0.5093	0.938	-0.323
Mof_N 	N 	0.9294	0.5044	0.4544	-0.098
Mof_N 	N 	0.1312	0.7059	0.3192	-0.176
Mof_N 	N 	0.846	0.3553	0.438	-0.323
Mof_N 	N 	0.575	0.0706	0.4544	-0.098
Mof_N 	N 	0.5747	0.8688	0.3192	-0.176
Mof_N 	N 	0.5093	0.154	0.438	-0.323
Mof_N 	N 	0.4956	0.425	0.4544	-0.098
Mof_N 	N 	0.2941	0.4253	0.3192	-0.176
Mof_N 	N 	0.6447	0.4907	0.438	-0.323
Mof_N 	N 	0.575	0.5044	0.0456	-0.098
Mof_N 	N 	0.5747	0.7059	0.1808	-0.176
Mof_N 	N 	0.5093	0.3553	0.062	-0.323
Mof_N 	N 	0.4956	0.0706	0.0456	-0.098
Mof_N 	N 	0.2941	0.8688	0.1808	-0.176
Mof_N 	N 	0.6447	0.154	0.062	-0.323
Mof_N 	N 	0.9294	0.425	0.0456	-0.098
Mof_N 	N 	0.1312	0.4253	0.1808	-0.176
Mof_N 	N 	0.846	0.4907	0.062	-0.323
Mof_O 	O 	0.2345	0.5573	0.3039	-0.715
Mof_O 	O 	0.1401	0.4431	0.3328	-0.35
Mof_O 	O 	0.3228	0.7655	0.3039	-0.715
Mof_O 	O 	0.303	0.8599	0.3328	-0.35
Mof_O 	O 	0.4427	0.6772	0.3039	-0.715
Mof_O 	O 	0.5569	0.697	0.3328	-0.35
Mof_O 	O 	0.3228	0.5573	0.1961	-0.715
Mof_O 	O 	0.303	0.4431	0.1672	-0.35
Mof_O 	O 	0.4427	0.7655	0.1961	-0.715
Mof_O 	O 	0.5569	0.8599	0.1672	-0.35
Mof_O 	O 	0.2345	0.6772	0.1961	-0.715
Mof_O 	O 	0.1401	0.697	0.1672	-0.35
Mof_O 	O 	0.7655	0.4427	0.6961	-0.715
Mof_O 	O 	0.8599	0.5569	0.6672	-0.35
Mof_O 	O 	0.6772	0.2345	0.6961	-0.715
Mof_O 	O 	0.697	0.1401	0.6672	-0.35
Mof_O 	O 	0.5573	0.3228	0.6961	-0.715
Mof_O 	O 	0.4431	0.303	0.6672	-0.35
Mof_O 	O 	0.6772	0.4427	0.8039	-0.715
Mof_O 	O 	0.697	0.5569	0.8328	-0.35
Mof_O 	O 	0.5573	0.2345	0.8039	-0.715
Mof_O 	O 	0.4431	0.1401	0.8328	-0.35
Mof_O 	O 	0.7655	0.3228	0.8039	-0.715
Mof_O 	O 	0.8599	0.303	0.8328	-0.35
_end
