# CIF file generated by openbabel 3.1.0, see https://openbabel.org
data_I
_chemical_name_common 'image0'
_cell_length_a 32.985
_cell_length_b 8.9901
_cell_length_c 34.432
_cell_angle_alpha 90
_cell_angle_beta 115.591
_cell_angle_gamma 90
_space_group_name_H-M_alt 'P 1'
_space_group_name_Hall 'P 1'
loop_
    _symmetry_equiv_pos_as_xyz
    x,y,z
loop_
    _atom_site_label
    _atom_site_type_symbol
    _atom_site_fract_x
    _atom_site_fract_y
    _atom_site_fract_z
    _atom_site_occupancy
    La1      La       0.99640    0.64250    0.11903    1.000
    O1       O        0.04928    0.81900    0.17394    1.000
    O2       O        0.03234    0.62180    0.20213    1.000
    O3       O        0.42873    0.01790    0.36586    1.000
    O4       O        0.46766    0.09740    0.43149    1.000
    O5       O        0.42924    0.90690    0.54928    1.000
    O6       O        0.36753    0.76890    0.52932    1.000
    H1       H        0.37820    0.74440    0.55470    1.000
    O7       O        0.06515    0.70100    0.36154    1.000
    O8       O        0.13330    0.77520    0.40144    1.000
    N1       N        0.17170    0.08280    0.30080    1.000
    H2       H        0.18520    0.12230    0.32590    1.000
    N2       N        0.31570    0.65780    0.37540    1.000
    H3       H        0.29880    0.61260    0.38480    1.000
    C1       C        0.30820    0.62800    0.33175    1.000
    H4       H        0.33640    0.60310    0.33090    1.000
    H5       H        0.29600    0.71580    0.31420    1.000
    C2       C        0.27540    0.49920    0.31402    1.000
    C3       C        0.22930    0.52780    0.29424    1.000
    C4       C        0.19880    0.40920    0.27854    1.000
    C5       C        0.21560    0.26320    0.28328    1.000
    C6       C        0.26220    0.23440    0.30426    1.000
    C7       C        0.29230    0.35400    0.31950    1.000
    C8       C        0.18240    0.13620    0.26675    1.000
    H6       H        0.15520    0.16980    0.24270    1.000
    H7       H        0.19530    0.05610    0.25680    1.000
    C9       C        0.14880    0.43770    0.25790    1.000
    H8       H        0.14280    0.53080    0.26800    1.000
    H9       H        0.13380    0.35900    0.26550    1.000
    H10      H        0.13800    0.44120    0.22720    1.000
    C10      C        0.21160    0.68500    0.29100    1.000
    H11      H        0.23420    0.75420    0.29200    1.000
    H12      H        0.20410    0.70380    0.31450    1.000
    H13      H        0.18520    0.69660    0.26420    1.000
    C11      C        0.34240    0.32220    0.34190    1.000
    H14      H        0.35560    0.34010    0.32230    1.000
    H15      H        0.34710    0.22020    0.35110    1.000
    H16      H        0.35620    0.38610    0.36650    1.000
    C12      C        0.27900    0.07680    0.31060    1.000
    H17      H        0.25480    0.01110    0.29380    1.000
    H18      H        0.29020    0.05080    0.34050    1.000
    H19      H        0.30260    0.06760    0.30160    1.000
    C13      C        0.14090    0.97130    0.29484    1.000
    C14      C        0.11320    0.91410    0.25493    1.000
    H20      H        0.11540    0.95010    0.23060    1.000
    C15      C        0.08213    0.80420    0.25046    1.000
    C16      C        0.07773    0.74900    0.28628    1.000
    H21      H        0.05650    0.67640    0.28330    1.000
    C17      C        0.10600    0.80550    0.32647    1.000
    C18      C        0.13720    0.91300    0.33062    1.000
    H22      H        0.15630    0.94740    0.35790    1.000
    C19      C        0.05273    0.74500    0.20613    1.000
    C20      C        0.43592    0.02110    0.40461    1.000
    C21      C        0.40731    0.93080    0.41928    1.000
    C22      C        0.41610    0.93010    0.46256    1.000
    H23      H        0.43930    0.98710    0.48250    1.000
    C23      C        0.38900    0.84110    0.47565    1.000
    C24      C        0.35550    0.75530    0.44624    1.000
    H24      H        0.33770    0.69800    0.45530    1.000
    C25      C        0.34750    0.75190    0.40293    1.000
    C26      C        0.37380    0.84200    0.38974    1.000
    H25      H        0.36880    0.84240    0.36100    1.000
    C27      C        0.39710    0.84130    0.52199    1.000
    C28      C        0.10000    0.75500    0.36512    1.000
    La2      La       0.49640    0.14250    0.11903    1.000
    O9       O        0.54928    0.31900    0.17394    1.000
    O10      O        0.53234    0.12180    0.20213    1.000
    O11      O        0.92873    0.51790    0.36586    1.000
    O12      O        0.96766    0.59740    0.43149    1.000
    O13      O        0.92924    0.40690    0.54928    1.000
    O14      O        0.86753    0.26890    0.52932    1.000
    H26      H        0.87820    0.24440    0.55470    1.000
    O15      O        0.56515    0.20100    0.36154    1.000
    O16      O        0.63330    0.27520    0.40144    1.000
    N3       N        0.67170    0.58280    0.30080    1.000
    H27      H        0.68520    0.62230    0.32590    1.000
    N4       N        0.81570    0.15780    0.37540    1.000
    H28      H        0.79880    0.11260    0.38480    1.000
    C29      C        0.80820    0.12800    0.33175    1.000
    H29      H        0.83640    0.10310    0.33090    1.000
    H30      H        0.79600    0.21580    0.31420    1.000
    C30      C        0.77540    0.99920    0.31402    1.000
    C31      C        0.72930    0.02780    0.29424    1.000
    C32      C        0.69880    0.90920    0.27854    1.000
    C33      C        0.71560    0.76320    0.28328    1.000
    C34      C        0.76220    0.73440    0.30426    1.000
    C35      C        0.79230    0.85400    0.31950    1.000
    C36      C        0.68240    0.63620    0.26675    1.000
    H31      H        0.65520    0.66980    0.24270    1.000
    H32      H        0.69530    0.55610    0.25680    1.000
    C37      C        0.64880    0.93770    0.25790    1.000
    H33      H        0.64280    0.03080    0.26800    1.000
    H34      H        0.63380    0.85900    0.26550    1.000
    H35      H        0.63800    0.94120    0.22720    1.000
    C38      C        0.71160    0.18500    0.29100    1.000
    H36      H        0.73420    0.25420    0.29200    1.000
    H37      H        0.70410    0.20380    0.31450    1.000
    H38      H        0.68520    0.19660    0.26420    1.000
    C39      C        0.84240    0.82220    0.34190    1.000
    H39      H        0.85560    0.84010    0.32230    1.000
    H40      H        0.84710    0.72020    0.35110    1.000
    H41      H        0.85620    0.88610    0.36650    1.000
    C40      C        0.77900    0.57680    0.31060    1.000
    H42      H        0.75480    0.51110    0.29380    1.000
    H43      H        0.79020    0.55080    0.34050    1.000
    H44      H        0.80260    0.56760    0.30160    1.000
    C41      C        0.64090    0.47130    0.29484    1.000
    C42      C        0.61320    0.41410    0.25493    1.000
    H45      H        0.61540    0.45010    0.23060    1.000
    C43      C        0.58213    0.30420    0.25046    1.000
    C44      C        0.57773    0.24900    0.28628    1.000
    H46      H        0.55650    0.17640    0.28330    1.000
    C45      C        0.60600    0.30550    0.32647    1.000
    C46      C        0.63720    0.41300    0.33062    1.000
    H47      H        0.65630    0.44740    0.35790    1.000
    C47      C        0.55273    0.24500    0.20613    1.000
    C48      C        0.93592    0.52110    0.40461    1.000
    C49      C        0.90731    0.43080    0.41928    1.000
    C50      C        0.91610    0.43010    0.46256    1.000
    H48      H        0.93930    0.48710    0.48250    1.000
    C51      C        0.88900    0.34110    0.47565    1.000
    C52      C        0.85550    0.25530    0.44624    1.000
    H49      H        0.83770    0.19800    0.45530    1.000
    C53      C        0.84750    0.25190    0.40293    1.000
    C54      C        0.87380    0.34200    0.38974    1.000
    H50      H        0.86880    0.34240    0.36100    1.000
    C55      C        0.89710    0.34130    0.52199    1.000
    C56      C        0.60000    0.25500    0.36512    1.000
    La3      La       0.00360    0.64250    0.38097    1.000
    O17      O        0.95072    0.81900    0.32606    1.000
    O18      O        0.96766    0.62180    0.29787    1.000
    O19      O        0.57127    0.01790    0.13414    1.000
    O20      O        0.53234    0.09740    0.06851    1.000
    O21      O        0.57076    0.90690    0.95072    1.000
    O22      O        0.63247    0.76890    0.97068    1.000
    H51      H        0.62180    0.74440    0.94530    1.000
    O23      O        0.93485    0.70100    0.13846    1.000
    O24      O        0.86670    0.77520    0.09856    1.000
    N5       N        0.82830    0.08280    0.19920    1.000
    H52      H        0.81480    0.12230    0.17410    1.000
    N6       N        0.68430    0.65780    0.12460    1.000
    H53      H        0.70120    0.61260    0.11520    1.000
    C57      C        0.69180    0.62800    0.16825    1.000
    H54      H        0.66360    0.60310    0.16910    1.000
    H55      H        0.70400    0.71580    0.18580    1.000
    C58      C        0.72460    0.49920    0.18598    1.000
    C59      C        0.77070    0.52780    0.20576    1.000
    C60      C        0.80120    0.40920    0.22146    1.000
    C61      C        0.78440    0.26320    0.21672    1.000
    C62      C        0.73780    0.23440    0.19574    1.000
    C63      C        0.70770    0.35400    0.18050    1.000
    C64      C        0.81760    0.13620    0.23325    1.000
    H56      H        0.84480    0.16980    0.25730    1.000
    H57      H        0.80470    0.05610    0.24320    1.000
    C65      C        0.85120    0.43770    0.24210    1.000
    H58      H        0.85720    0.53080    0.23200    1.000
    H59      H        0.86620    0.35900    0.23450    1.000
    H60      H        0.86200    0.44120    0.27280    1.000
    C66      C        0.78840    0.68500    0.20900    1.000
    H61      H        0.76580    0.75420    0.20800    1.000
    H62      H        0.79590    0.70380    0.18550    1.000
    H63      H        0.81480    0.69660    0.23580    1.000
    C67      C        0.65760    0.32220    0.15810    1.000
    H64      H        0.64440    0.34010    0.17770    1.000
    H65      H        0.65290    0.22020    0.14890    1.000
    H66      H        0.64380    0.38610    0.13350    1.000
    C68      C        0.72100    0.07680    0.18940    1.000
    H67      H        0.74520    0.01110    0.20620    1.000
    H68      H        0.70980    0.05080    0.15950    1.000
    H69      H        0.69740    0.06760    0.19840    1.000
    C69      C        0.85910    0.97130    0.20516    1.000
    C70      C        0.88680    0.91410    0.24507    1.000
    H70      H        0.88460    0.95010    0.26940    1.000
    C71      C        0.91787    0.80420    0.24954    1.000
    C72      C        0.92227    0.74900    0.21372    1.000
    H71      H        0.94350    0.67640    0.21670    1.000
    C73      C        0.89400    0.80550    0.17353    1.000
    C74      C        0.86280    0.91300    0.16938    1.000
    H72      H        0.84370    0.94740    0.14210    1.000
    C75      C        0.94727    0.74500    0.29387    1.000
    C76      C        0.56408    0.02110    0.09539    1.000
    C77      C        0.59269    0.93080    0.08072    1.000
    C78      C        0.58390    0.93010    0.03744    1.000
    H73      H        0.56070    0.98710    0.01750    1.000
    C79      C        0.61100    0.84110    0.02435    1.000
    C80      C        0.64450    0.75530    0.05376    1.000
    H74      H        0.66230    0.69800    0.04470    1.000
    C81      C        0.65250    0.75190    0.09707    1.000
    C82      C        0.62620    0.84200    0.11026    1.000
    H75      H        0.63120    0.84240    0.13900    1.000
    C83      C        0.60290    0.84130    0.97801    1.000
    C84      C        0.90000    0.75500    0.13488    1.000
    La4      La       0.50360    0.14250    0.38097    1.000
    O25      O        0.45072    0.31900    0.32606    1.000
    O26      O        0.46766    0.12180    0.29787    1.000
    O27      O        0.07127    0.51790    0.13414    1.000
    O28      O        0.03234    0.59740    0.06851    1.000
    O29      O        0.07076    0.40690    0.95072    1.000
    O30      O        0.13247    0.26890    0.97068    1.000
    H76      H        0.12180    0.24440    0.94530    1.000
    O31      O        0.43485    0.20100    0.13846    1.000
    O32      O        0.36670    0.27520    0.09856    1.000
    N7       N        0.32830    0.58280    0.19920    1.000
    H77      H        0.31480    0.62230    0.17410    1.000
    N8       N        0.18430    0.15780    0.12460    1.000
    H78      H        0.20120    0.11260    0.11520    1.000
    C85      C        0.19180    0.12800    0.16825    1.000
    H79      H        0.16360    0.10310    0.16910    1.000
    H80      H        0.20400    0.21580    0.18580    1.000
    C86      C        0.22460    0.99920    0.18598    1.000
    C87      C        0.27070    0.02780    0.20576    1.000
    C88      C        0.30120    0.90920    0.22146    1.000
    C89      C        0.28440    0.76320    0.21672    1.000
    C90      C        0.23780    0.73440    0.19574    1.000
    C91      C        0.20770    0.85400    0.18050    1.000
    C92      C        0.31760    0.63620    0.23325    1.000
    H81      H        0.34480    0.66980    0.25730    1.000
    H82      H        0.30470    0.55610    0.24320    1.000
    C93      C        0.35120    0.93770    0.24210    1.000
    H83      H        0.35720    0.03080    0.23200    1.000
    H84      H        0.36620    0.85900    0.23450    1.000
    H85      H        0.36200    0.94120    0.27280    1.000
    C94      C        0.28840    0.18500    0.20900    1.000
    H86      H        0.26580    0.25420    0.20800    1.000
    H87      H        0.29590    0.20380    0.18550    1.000
    H88      H        0.31480    0.19660    0.23580    1.000
    C95      C        0.15760    0.82220    0.15810    1.000
    H89      H        0.14440    0.84010    0.17770    1.000
    H90      H        0.15290    0.72020    0.14890    1.000
    H91      H        0.14380    0.88610    0.13350    1.000
    C96      C        0.22100    0.57680    0.18940    1.000
    H92      H        0.24520    0.51110    0.20620    1.000
    H93      H        0.20980    0.55080    0.15950    1.000
    H94      H        0.19740    0.56760    0.19840    1.000
    C97      C        0.35910    0.47130    0.20516    1.000
    C98      C        0.38680    0.41410    0.24507    1.000
    H95      H        0.38460    0.45010    0.26940    1.000
    C99      C        0.41787    0.30420    0.24954    1.000
    C100     C        0.42227    0.24900    0.21372    1.000
    H96      H        0.44350    0.17640    0.21670    1.000
    C101     C        0.39400    0.30550    0.17353    1.000
    C102     C        0.36280    0.41300    0.16938    1.000
    H97      H        0.34370    0.44740    0.14210    1.000
    C103     C        0.44727    0.24500    0.29387    1.000
    C104     C        0.06408    0.52110    0.09539    1.000
    C105     C        0.09269    0.43080    0.08072    1.000
    C106     C        0.08390    0.43010    0.03744    1.000
    H98      H        0.06070    0.48710    0.01750    1.000
    C107     C        0.11100    0.34110    0.02435    1.000
    C108     C        0.14450    0.25530    0.05376    1.000
    H99      H        0.16230    0.19800    0.04470    1.000
    C109     C        0.15250    0.25190    0.09707    1.000
    C110     C        0.12620    0.34200    0.11026    1.000
    H100     H        0.13120    0.34240    0.13900    1.000
    C111     C        0.10290    0.34130    0.97801    1.000
    C112     C        0.40000    0.25500    0.13488    1.000
    La5      La       0.00360    0.35750    0.88097    1.000
    O33      O        0.95072    0.18100    0.82606    1.000
    O34      O        0.96766    0.37820    0.79787    1.000
    O35      O        0.57127    0.98210    0.63414    1.000
    O36      O        0.53234    0.90260    0.56851    1.000
    O37      O        0.57076    0.09310    0.45072    1.000
    O38      O        0.63247    0.23110    0.47068    1.000
    H101     H        0.62180    0.25560    0.44530    1.000
    O39      O        0.93485    0.29900    0.63846    1.000
    O40      O        0.86670    0.22480    0.59856    1.000
    N9       N        0.82830    0.91720    0.69920    1.000
    H102     H        0.81480    0.87770    0.67410    1.000
    N10      N        0.68430    0.34220    0.62460    1.000
    H103     H        0.70120    0.38740    0.61520    1.000
    C113     C        0.69180    0.37200    0.66825    1.000
    H104     H        0.66360    0.39690    0.66910    1.000
    H105     H        0.70400    0.28420    0.68580    1.000
    C114     C        0.72460    0.50080    0.68598    1.000
    C115     C        0.77070    0.47220    0.70576    1.000
    C116     C        0.80120    0.59080    0.72146    1.000
    C117     C        0.78440    0.73680    0.71672    1.000
    C118     C        0.73780    0.76560    0.69574    1.000
    C119     C        0.70770    0.64600    0.68050    1.000
    C120     C        0.81760    0.86380    0.73325    1.000
    H106     H        0.84480    0.83020    0.75730    1.000
    H107     H        0.80470    0.94390    0.74320    1.000
    C121     C        0.85120    0.56230    0.74210    1.000
    H108     H        0.85720    0.46920    0.73200    1.000
    H109     H        0.86620    0.64100    0.73450    1.000
    H110     H        0.86200    0.55880    0.77280    1.000
    C122     C        0.78840    0.31500    0.70900    1.000
    H111     H        0.76580    0.24580    0.70800    1.000
    H112     H        0.79590    0.29620    0.68550    1.000
    H113     H        0.81480    0.30340    0.73580    1.000
    C123     C        0.65760    0.67780    0.65810    1.000
    H114     H        0.64440    0.65990    0.67770    1.000
    H115     H        0.65290    0.77980    0.64890    1.000
    H116     H        0.64380    0.61390    0.63350    1.000
    C124     C        0.72100    0.92320    0.68940    1.000
    H117     H        0.74520    0.98890    0.70620    1.000
    H118     H        0.70980    0.94920    0.65950    1.000
    H119     H        0.69740    0.93240    0.69840    1.000
    C125     C        0.85910    0.02870    0.70516    1.000
    C126     C        0.88680    0.08590    0.74507    1.000
    H120     H        0.88460    0.04990    0.76940    1.000
    C127     C        0.91787    0.19580    0.74954    1.000
    C128     C        0.92227    0.25100    0.71372    1.000
    H121     H        0.94350    0.32360    0.71670    1.000
    C129     C        0.89400    0.19450    0.67353    1.000
    C130     C        0.86280    0.08700    0.66938    1.000
    H122     H        0.84370    0.05260    0.64210    1.000
    C131     C        0.94727    0.25500    0.79387    1.000
    C132     C        0.56408    0.97890    0.59539    1.000
    C133     C        0.59269    0.06920    0.58072    1.000
    C134     C        0.58390    0.06990    0.53744    1.000
    H123     H        0.56070    0.01290    0.51750    1.000
    C135     C        0.61100    0.15890    0.52435    1.000
    C136     C        0.64450    0.24470    0.55376    1.000
    H124     H        0.66230    0.30200    0.54470    1.000
    C137     C        0.65250    0.24810    0.59707    1.000
    C138     C        0.62620    0.15800    0.61026    1.000
    H125     H        0.63120    0.15760    0.63900    1.000
    C139     C        0.60290    0.15870    0.47801    1.000
    C140     C        0.90000    0.24500    0.63488    1.000
    La6      La       0.50360    0.85750    0.88097    1.000
    O41      O        0.45072    0.68100    0.82606    1.000
    O42      O        0.46766    0.87820    0.79787    1.000
    O43      O        0.07127    0.48210    0.63414    1.000
    O44      O        0.03234    0.40260    0.56851    1.000
    O45      O        0.07076    0.59310    0.45072    1.000
    O46      O        0.13247    0.73110    0.47068    1.000
    H126     H        0.12180    0.75560    0.44530    1.000
    O47      O        0.43485    0.79900    0.63846    1.000
    O48      O        0.36670    0.72480    0.59856    1.000
    N11      N        0.32830    0.41720    0.69920    1.000
    H127     H        0.31480    0.37770    0.67410    1.000
    N12      N        0.18430    0.84220    0.62460    1.000
    H128     H        0.20120    0.88740    0.61520    1.000
    C141     C        0.19180    0.87200    0.66825    1.000
    H129     H        0.16360    0.89690    0.66910    1.000
    H130     H        0.20400    0.78420    0.68580    1.000
    C142     C        0.22460    0.00080    0.68598    1.000
    C143     C        0.27070    0.97220    0.70576    1.000
    C144     C        0.30120    0.09080    0.72146    1.000
    C145     C        0.28440    0.23680    0.71672    1.000
    C146     C        0.23780    0.26560    0.69574    1.000
    C147     C        0.20770    0.14600    0.68050    1.000
    C148     C        0.31760    0.36380    0.73325    1.000
    H131     H        0.34480    0.33020    0.75730    1.000
    H132     H        0.30470    0.44390    0.74320    1.000
    C149     C        0.35120    0.06230    0.74210    1.000
    H133     H        0.35720    0.96920    0.73200    1.000
    H134     H        0.36620    0.14100    0.73450    1.000
    H135     H        0.36200    0.05880    0.77280    1.000
    C150     C        0.28840    0.81500    0.70900    1.000
    H136     H        0.26580    0.74580    0.70800    1.000
    H137     H        0.29590    0.79620    0.68550    1.000
    H138     H        0.31480    0.80340    0.73580    1.000
    C151     C        0.15760    0.17780    0.65810    1.000
    H139     H        0.14440    0.15990    0.67770    1.000
    H140     H        0.15290    0.27980    0.64890    1.000
    H141     H        0.14380    0.11390    0.63350    1.000
    C152     C        0.22100    0.42320    0.68940    1.000
    H142     H        0.24520    0.48890    0.70620    1.000
    H143     H        0.20980    0.44920    0.65950    1.000
    H144     H        0.19740    0.43240    0.69840    1.000
    C153     C        0.35910    0.52870    0.70516    1.000
    C154     C        0.38680    0.58590    0.74507    1.000
    H145     H        0.38460    0.54990    0.76940    1.000
    C155     C        0.41787    0.69580    0.74954    1.000
    C156     C        0.42227    0.75100    0.71372    1.000
    H146     H        0.44350    0.82360    0.71670    1.000
    C157     C        0.39400    0.69450    0.67353    1.000
    C158     C        0.36280    0.58700    0.66938    1.000
    H147     H        0.34370    0.55260    0.64210    1.000
    C159     C        0.44727    0.75500    0.79387    1.000
    C160     C        0.06408    0.47890    0.59539    1.000
    C161     C        0.09269    0.56920    0.58072    1.000
    C162     C        0.08390    0.56990    0.53744    1.000
    H148     H        0.06070    0.51290    0.51750    1.000
    C163     C        0.11100    0.65890    0.52435    1.000
    C164     C        0.14450    0.74470    0.55376    1.000
    H149     H        0.16230    0.80200    0.54470    1.000
    C165     C        0.15250    0.74810    0.59707    1.000
    C166     C        0.12620    0.65800    0.61026    1.000
    H150     H        0.13120    0.65760    0.63900    1.000
    C167     C        0.10290    0.65870    0.47801    1.000
    C168     C        0.40000    0.74500    0.63488    1.000
    La7      La       0.99640    0.35750    0.61903    1.000
    O49      O        0.04928    0.18100    0.67394    1.000
    O50      O        0.03234    0.37820    0.70213    1.000
    O51      O        0.42873    0.98210    0.86586    1.000
    O52      O        0.46766    0.90260    0.93149    1.000
    O53      O        0.42924    0.09310    0.04928    1.000
    O54      O        0.36753    0.23110    0.02932    1.000
    H151     H        0.37820    0.25560    0.05470    1.000
    O55      O        0.06515    0.29900    0.86154    1.000
    O56      O        0.13330    0.22480    0.90144    1.000
    N13      N        0.17170    0.91720    0.80080    1.000
    H152     H        0.18520    0.87770    0.82590    1.000
    N14      N        0.31570    0.34220    0.87540    1.000
    H153     H        0.29880    0.38740    0.88480    1.000
    C169     C        0.30820    0.37200    0.83175    1.000
    H154     H        0.33640    0.39690    0.83090    1.000
    H155     H        0.29600    0.28420    0.81420    1.000
    C170     C        0.27540    0.50080    0.81402    1.000
    C171     C        0.22930    0.47220    0.79424    1.000
    C172     C        0.19880    0.59080    0.77854    1.000
    C173     C        0.21560    0.73680    0.78328    1.000
    C174     C        0.26220    0.76560    0.80426    1.000
    C175     C        0.29230    0.64600    0.81950    1.000
    C176     C        0.18240    0.86380    0.76675    1.000
    H156     H        0.15520    0.83020    0.74270    1.000
    H157     H        0.19530    0.94390    0.75680    1.000
    C177     C        0.14880    0.56230    0.75790    1.000
    H158     H        0.14280    0.46920    0.76800    1.000
    H159     H        0.13380    0.64100    0.76550    1.000
    H160     H        0.13800    0.55880    0.72720    1.000
    C178     C        0.21160    0.31500    0.79100    1.000
    H161     H        0.23420    0.24580    0.79200    1.000
    H162     H        0.20410    0.29620    0.81450    1.000
    H163     H        0.18520    0.30340    0.76420    1.000
    C179     C        0.34240    0.67780    0.84190    1.000
    H164     H        0.35560    0.65990    0.82230    1.000
    H165     H        0.34710    0.77980    0.85110    1.000
    H166     H        0.35620    0.61390    0.86650    1.000
    C180     C        0.27900    0.92320    0.81060    1.000
    H167     H        0.25480    0.98890    0.79380    1.000
    H168     H        0.29020    0.94920    0.84050    1.000
    H169     H        0.30260    0.93240    0.80160    1.000
    C181     C        0.14090    0.02870    0.79484    1.000
    C182     C        0.11320    0.08590    0.75493    1.000
    H170     H        0.11540    0.04990    0.73060    1.000
    C183     C        0.08213    0.19580    0.75046    1.000
    C184     C        0.07773    0.25100    0.78628    1.000
    H171     H        0.05650    0.32360    0.78330    1.000
    C185     C        0.10600    0.19450    0.82647    1.000
    C186     C        0.13720    0.08700    0.83062    1.000
    H172     H        0.15630    0.05260    0.85790    1.000
    C187     C        0.05273    0.25500    0.70613    1.000
    C188     C        0.43592    0.97890    0.90461    1.000
    C189     C        0.40731    0.06920    0.91928    1.000
    C190     C        0.41610    0.06990    0.96256    1.000
    H173     H        0.43930    0.01290    0.98250    1.000
    C191     C        0.38900    0.15890    0.97565    1.000
    C192     C        0.35550    0.24470    0.94624    1.000
    H174     H        0.33770    0.30200    0.95530    1.000
    C193     C        0.34750    0.24810    0.90293    1.000
    C194     C        0.37380    0.15800    0.88974    1.000
    H175     H        0.36880    0.15760    0.86100    1.000
    C195     C        0.39710    0.15870    0.02199    1.000
    C196     C        0.10000    0.24500    0.86512    1.000
    La8      La       0.49640    0.85750    0.61903    1.000
    O57      O        0.54928    0.68100    0.67394    1.000
    O58      O        0.53234    0.87820    0.70213    1.000
    O59      O        0.92873    0.48210    0.86586    1.000
    O60      O        0.96766    0.40260    0.93149    1.000
    O61      O        0.92924    0.59310    0.04928    1.000
    O62      O        0.86753    0.73110    0.02932    1.000
    H176     H        0.87820    0.75560    0.05470    1.000
    O63      O        0.56515    0.79900    0.86154    1.000
    O64      O        0.63330    0.72480    0.90144    1.000
    N15      N        0.67170    0.41720    0.80080    1.000
    H177     H        0.68520    0.37770    0.82590    1.000
    N16      N        0.81570    0.84220    0.87540    1.000
    H178     H        0.79880    0.88740    0.88480    1.000
    C197     C        0.80820    0.87200    0.83175    1.000
    H179     H        0.83640    0.89690    0.83090    1.000
    H180     H        0.79600    0.78420    0.81420    1.000
    C198     C        0.77540    0.00080    0.81402    1.000
    C199     C        0.72930    0.97220    0.79424    1.000
    C200     C        0.69880    0.09080    0.77854    1.000
    C201     C        0.71560    0.23680    0.78328    1.000
    C202     C        0.76220    0.26560    0.80426    1.000
    C203     C        0.79230    0.14600    0.81950    1.000
    C204     C        0.68240    0.36380    0.76675    1.000
    H181     H        0.65520    0.33020    0.74270    1.000
    H182     H        0.69530    0.44390    0.75680    1.000
    C205     C        0.64880    0.06230    0.75790    1.000
    H183     H        0.64280    0.96920    0.76800    1.000
    H184     H        0.63380    0.14100    0.76550    1.000
    H185     H        0.63800    0.05880    0.72720    1.000
    C206     C        0.71160    0.81500    0.79100    1.000
    H186     H        0.73420    0.74580    0.79200    1.000
    H187     H        0.70410    0.79620    0.81450    1.000
    H188     H        0.68520    0.80340    0.76420    1.000
    C207     C        0.84240    0.17780    0.84190    1.000
    H189     H        0.85560    0.15990    0.82230    1.000
    H190     H        0.84710    0.27980    0.85110    1.000
    H191     H        0.85620    0.11390    0.86650    1.000
    C208     C        0.77900    0.42320    0.81060    1.000
    H192     H        0.75480    0.48890    0.79380    1.000
    H193     H        0.79020    0.44920    0.84050    1.000
    H194     H        0.80260    0.43240    0.80160    1.000
    C209     C        0.64090    0.52870    0.79484    1.000
    C210     C        0.61320    0.58590    0.75493    1.000
    H195     H        0.61540    0.54990    0.73060    1.000
    C211     C        0.58213    0.69580    0.75046    1.000
    C212     C        0.57773    0.75100    0.78628    1.000
    H196     H        0.55650    0.82360    0.78330    1.000
    C213     C        0.60600    0.69450    0.82647    1.000
    C214     C        0.63720    0.58700    0.83062    1.000
    H197     H        0.65630    0.55260    0.85790    1.000
    C215     C        0.55273    0.75500    0.70613    1.000
    C216     C        0.93592    0.47890    0.90461    1.000
    C217     C        0.90731    0.56920    0.91928    1.000
    C218     C        0.91610    0.56990    0.96256    1.000
    H198     H        0.93930    0.51290    0.98250    1.000
    C219     C        0.88900    0.65890    0.97565    1.000
    C220     C        0.85550    0.74470    0.94624    1.000
    H199     H        0.83770    0.80200    0.95530    1.000
    C221     C        0.84750    0.74810    0.90293    1.000
    C222     C        0.87380    0.65800    0.88974    1.000
    H200     H        0.86880    0.65760    0.86100    1.000
    C223     C        0.89710    0.65870    0.02199    1.000
    C224     C        0.60000    0.74500    0.86512    1.000
