# CIF file generated by openbabel 3.1.0, see https://openbabel.org
data_I
_chemical_name_common 'QOCRUW_clean'
_cell_length_a 9.91
_cell_length_b 10.745
_cell_length_c 11.079
_cell_angle_alpha 63.177
_cell_angle_beta 65.556
_cell_angle_gamma 66.664
_space_group_name_H-M_alt 'P 1'
_space_group_name_Hall 'P 1'
loop_
    _symmetry_equiv_pos_as_xyz
    x,y,z
loop_
    _atom_site_label
    _atom_site_type_symbol
    _atom_site_fract_x
    _atom_site_fract_y
    _atom_site_fract_z
    _atom_site_occupancy
    La1      La       0.28281    0.00947    0.51030    1.000
    La2      La       0.71719    0.99053    0.48970    1.000
    H1       H        0.52830    0.60560    0.33040    1.000
    H2       H        0.67930    0.37200    0.34100    1.000
    H3       H        0.00130    0.44740    0.41590    1.000
    H4       H        0.84570    0.67860    0.41150    1.000
    H5       H        0.70510    0.60600    0.88950    1.000
    H6       H        0.28790    0.60110    0.91410    1.000
    H7       H        0.47170    0.39440    0.66960    1.000
    H8       H        0.32070    0.62800    0.65900    1.000
    H9       H        0.99870    0.55260    0.58410    1.000
    H10      H        0.15430    0.32140    0.58850    1.000
    H11      H        0.29490    0.39400    0.11050    1.000
    H12      H        0.71210    0.39890    0.08590    1.000
    C1       C        0.55900    0.80200    0.39110    1.000
    C2       C        0.66910    0.66010    0.37750    1.000
    C3       C        0.62290    0.57170    0.35160    1.000
    C4       C        0.71350    0.43330    0.35630    1.000
    C5       C        0.85390    0.38460    0.38340    1.000
    C6       C        0.90340    0.47810    0.40150    1.000
    C7       C        0.81120    0.61570    0.39880    1.000
    C8       C        0.05540    0.76980    0.59610    1.000
    C9       C        0.48630    0.76450    0.75760    1.000
    C10      C        0.49420    0.62620    0.88220    1.000
    C11      C        0.62140    0.56310    0.93470    1.000
    C12      C        0.37430    0.56010    0.94930    1.000
    C13      C        0.44100    0.19800    0.60890    1.000
    C14      C        0.33090    0.33990    0.62250    1.000
    C15      C        0.37710    0.42830    0.64840    1.000
    C16      C        0.28650    0.56670    0.64370    1.000
    C17      C        0.14610    0.61540    0.61660    1.000
    C18      C        0.09660    0.52190    0.59850    1.000
    C19      C        0.18880    0.38430    0.60120    1.000
    C20      C        0.94460    0.23020    0.40390    1.000
    C21      C        0.51370    0.23550    0.24240    1.000
    C22      C        0.50580    0.37380    0.11780    1.000
    C23      C        0.37860    0.43690    0.06530    1.000
    C24      C        0.62570    0.43990    0.05070    1.000
    O1       O        0.43090    0.83830    0.37240    1.000
    O2       O        0.59700    0.87690    0.42690    1.000
    O3       O        0.92260    0.80510    0.58400    1.000
    O4       O        0.11360    0.85420    0.59330    1.000
    O5       O        0.37480    0.80870    0.70880    1.000
    O6       O        0.59190    0.82480    0.71100    1.000
    O7       O        0.56910    0.16170    0.62760    1.000
    O8       O        0.40300    0.12310    0.57310    1.000
    O9       O        0.07740    0.19490    0.41600    1.000
    O10      O        0.88640    0.14580    0.40670    1.000
    O11      O        0.62520    0.19130    0.29120    1.000
    O12      O        0.40810    0.17520    0.28900    1.000
