# CIF file generated by openbabel 3.1.0, see https://openbabel.org
data_I
_chemical_name_common 'image0'
_cell_length_a 35.748
_cell_length_b 18.52
_cell_length_c 24.411
_cell_angle_alpha 90
_cell_angle_beta 118.62
_cell_angle_gamma 90
_space_group_name_H-M_alt 'P 1'
_space_group_name_Hall 'P 1'
loop_
    _symmetry_equiv_pos_as_xyz
    x,y,z
loop_
    _atom_site_label
    _atom_site_type_symbol
    _atom_site_fract_x
    _atom_site_fract_y
    _atom_site_fract_z
    _atom_site_occupancy
    Cd1      Cd       0.20979    0.62229    0.81003    1.000
    Cd2      Cd       0.31561    0.64121    0.81947    1.000
    Cd3      Cd       0.32241    0.56859    0.95527    1.000
    O1       O        0.87623    0.93110    0.42950    1.000
    O2       O        0.28153    0.60070    0.99654    1.000
    O3       O        0.22772    0.56690    0.90587    1.000
    O4       O        0.21801    0.05073    0.65606    1.000
    O5       O        0.28073    0.00910    0.72442    1.000
    O6       O        0.25802    0.78060    0.12578    1.000
    O7       O        0.19175    0.81880    0.09439    1.000
    O8       O        0.88413    0.83980    0.37760    1.000
    O9       O        0.29499    0.74960    0.77550    1.000
    O10      O        0.23936    0.68070    0.75182    1.000
    O11      O        0.85870    0.60810    0.70090    1.000
    C1       C        0.17763    0.92450    0.66210    1.000
    H1       H        0.16070    0.96420    0.64170    1.000
    C2       C        0.89790    0.88420    0.42380    1.000
    C3       C        0.98781    0.68610    0.86990    1.000
    H2       H        0.00020    0.72170    0.90020    1.000
    C4       C        0.94343    0.68160    0.83600    1.000
    H3       H        0.92720    0.71370    0.84520    1.000
    C5       C        0.99320    0.59160    0.81540    1.000
    H4       H        0.00990    0.56000    0.80670    1.000
    C6       C        0.22215    0.93060    0.69270    1.000
    C7       C        0.24650    0.87060    0.72160    1.000
    H5       H        0.27610    0.87420    0.74190    1.000
    C8       C        0.11249    0.85550    0.62890    1.000
    C9       C        0.07523    0.85890    0.59760    1.000
    C10      C        0.03015    0.86390    0.55550    1.000
    C11      C        0.01020    0.81270    0.51100    1.000
    H6       H        0.02540    0.77340    0.50840    1.000
    C12      C        0.00710    0.91610    0.55770    1.000
    H7       H        0.01990    0.95090    0.58860    1.000
    C13      C        0.21906    0.77710    0.09180    1.000
    C14      C        0.24207    0.00080    0.69170    1.000
    C15      C        0.24234    0.59760    0.95750    1.000
    C16      C        0.21228    0.63530    0.97520    1.000
    C17      C        0.22886    0.68260    0.02570    1.000
    H8       H        0.25820    0.68880    0.04920    1.000
    C18      C        0.20185    0.72070    0.04120    1.000
    C19      C        0.15773    0.71030    0.00620    1.000
    H9       H        0.13940    0.73640    0.01580    1.000
    C20      C        0.16867    0.62450    0.94110    1.000
    H10      H        0.15770    0.59290    0.90740    1.000
    C21      C        0.14131    0.66100    0.95720    1.000
    C22      C        0.09570    0.65170    0.92200    1.000
    C23      C        0.05833    0.64710    0.89460    1.000
    C24      C        0.01235    0.64200    0.86030    1.000
    C25      C        0.94860    0.58590    0.78140    1.000
    H11      H        0.93620    0.54930    0.75200    1.000
    C26      C        0.96330    0.92280    0.51570    1.000
    H12      H        0.94800    0.96070    0.52030    1.000
    C27      C        0.92358    0.63280    0.79100    1.000
    C28      C        0.87605    0.62830    0.75410    1.000
    C29      C        0.94407    0.87690    0.47060    1.000
    C30      C        0.96690    0.81920    0.46930    1.000
    H13      H        0.95330    0.78300    0.43990    1.000
    C31      C        0.25536    0.74030    0.75080    1.000
    C32      C        0.22750    0.80460    0.72080    1.000
    C33      C        0.18354    0.79850    0.69110    1.000
    H14      H        0.17080    0.75450    0.69040    1.000
    C34      C        0.15880    0.85860    0.66230    1.000
    O12      O        0.85390    0.67560    0.75390    1.000
    O13      O        0.86060    0.56950    0.71920    1.000
    O14      O        0.85410    0.65180    0.78240    1.000
    Cd4      Cd       0.70979    0.12229    0.81003    1.000
    Cd5      Cd       0.81561    0.14121    0.81947    1.000
    Cd6      Cd       0.82241    0.06859    0.95527    1.000
    O15      O        0.37623    0.43110    0.42950    1.000
    O16      O        0.78153    0.10070    0.99654    1.000
    O17      O        0.72772    0.06690    0.90587    1.000
    O18      O        0.71801    0.55073    0.65606    1.000
    O19      O        0.78073    0.50910    0.72442    1.000
    O20      O        0.75802    0.28060    0.12578    1.000
    O21      O        0.69175    0.31880    0.09439    1.000
    O22      O        0.38413    0.33980    0.37760    1.000
    O23      O        0.79499    0.24960    0.77550    1.000
    O24      O        0.73936    0.18070    0.75182    1.000
    O25      O        0.35870    0.10810    0.70090    1.000
    C35      C        0.67763    0.42450    0.66210    1.000
    H15      H        0.66070    0.46420    0.64170    1.000
    C36      C        0.39790    0.38420    0.42380    1.000
    C37      C        0.48781    0.18610    0.86990    1.000
    H16      H        0.50020    0.22170    0.90020    1.000
    C38      C        0.44343    0.18160    0.83600    1.000
    H17      H        0.42720    0.21370    0.84520    1.000
    C39      C        0.49320    0.09160    0.81540    1.000
    H18      H        0.50990    0.06000    0.80670    1.000
    C40      C        0.72215    0.43060    0.69270    1.000
    C41      C        0.74650    0.37060    0.72160    1.000
    H19      H        0.77610    0.37420    0.74190    1.000
    C42      C        0.61249    0.35550    0.62890    1.000
    C43      C        0.57523    0.35890    0.59760    1.000
    C44      C        0.53015    0.36390    0.55550    1.000
    C45      C        0.51020    0.31270    0.51100    1.000
    H20      H        0.52540    0.27340    0.50840    1.000
    C46      C        0.50710    0.41610    0.55770    1.000
    H21      H        0.51990    0.45090    0.58860    1.000
    C47      C        0.71906    0.27710    0.09180    1.000
    C48      C        0.74207    0.50080    0.69170    1.000
    C49      C        0.74234    0.09760    0.95750    1.000
    C50      C        0.71228    0.13530    0.97520    1.000
    C51      C        0.72886    0.18260    0.02570    1.000
    H22      H        0.75820    0.18880    0.04920    1.000
    C52      C        0.70185    0.22070    0.04120    1.000
    C53      C        0.65773    0.21030    0.00620    1.000
    H23      H        0.63940    0.23640    0.01580    1.000
    C54      C        0.66867    0.12450    0.94110    1.000
    H24      H        0.65770    0.09290    0.90740    1.000
    C55      C        0.64131    0.16100    0.95720    1.000
    C56      C        0.59570    0.15170    0.92200    1.000
    C57      C        0.55833    0.14710    0.89460    1.000
    C58      C        0.51235    0.14200    0.86030    1.000
    C59      C        0.44860    0.08590    0.78140    1.000
    H25      H        0.43620    0.04930    0.75200    1.000
    C60      C        0.46330    0.42280    0.51570    1.000
    H26      H        0.44800    0.46070    0.52030    1.000
    C61      C        0.42358    0.13280    0.79100    1.000
    C62      C        0.37605    0.12830    0.75410    1.000
    C63      C        0.44407    0.37690    0.47060    1.000
    C64      C        0.46690    0.31920    0.46930    1.000
    H27      H        0.45330    0.28300    0.43990    1.000
    C65      C        0.75536    0.24030    0.75080    1.000
    C66      C        0.72750    0.30460    0.72080    1.000
    C67      C        0.68354    0.29850    0.69110    1.000
    H28      H        0.67080    0.25450    0.69040    1.000
    C68      C        0.65880    0.35860    0.66230    1.000
    O26      O        0.35390    0.17560    0.75390    1.000
    O27      O        0.36060    0.06950    0.71920    1.000
    O28      O        0.35410    0.15180    0.78240    1.000
    Cd7      Cd       0.79021    0.62229    0.68997    1.000
    Cd8      Cd       0.68439    0.64121    0.68053    1.000
    Cd9      Cd       0.67759    0.56859    0.54473    1.000
    O29      O        0.12377    0.93110    0.07050    1.000
    O30      O        0.71847    0.60070    0.50346    1.000
    O31      O        0.77228    0.56690    0.59413    1.000
    O32      O        0.78199    0.05073    0.84394    1.000
    O33      O        0.71927    0.00910    0.77558    1.000
    O34      O        0.74198    0.78060    0.37422    1.000
    O35      O        0.80825    0.81880    0.40561    1.000
    O36      O        0.11587    0.83980    0.12240    1.000
    O37      O        0.70501    0.74960    0.72450    1.000
    O38      O        0.76064    0.68070    0.74818    1.000
    O39      O        0.14130    0.60810    0.79910    1.000
    C69      C        0.82237    0.92450    0.83790    1.000
    H29      H        0.83930    0.96420    0.85830    1.000
    C70      C        0.10210    0.88420    0.07620    1.000
    C71      C        0.01219    0.68610    0.63010    1.000
    H30      H        0.99980    0.72170    0.59980    1.000
    C72      C        0.05657    0.68160    0.66400    1.000
    H31      H        0.07280    0.71370    0.65480    1.000
    C73      C        0.00680    0.59160    0.68460    1.000
    H32      H        0.99010    0.56000    0.69330    1.000
    C74      C        0.77785    0.93060    0.80730    1.000
    C75      C        0.75350    0.87060    0.77840    1.000
    H33      H        0.72390    0.87420    0.75810    1.000
    C76      C        0.88751    0.85550    0.87110    1.000
    C77      C        0.92477    0.85890    0.90240    1.000
    C78      C        0.96985    0.86390    0.94450    1.000
    C79      C        0.98980    0.81270    0.98900    1.000
    H34      H        0.97460    0.77340    0.99160    1.000
    C80      C        0.99290    0.91610    0.94230    1.000
    H35      H        0.98010    0.95090    0.91140    1.000
    C81      C        0.78094    0.77710    0.40820    1.000
    C82      C        0.75793    0.00080    0.80830    1.000
    C83      C        0.75766    0.59760    0.54250    1.000
    C84      C        0.78772    0.63530    0.52480    1.000
    C85      C        0.77114    0.68260    0.47430    1.000
    H36      H        0.74180    0.68880    0.45080    1.000
    C86      C        0.79815    0.72070    0.45880    1.000
    C87      C        0.84227    0.71030    0.49380    1.000
    H37      H        0.86060    0.73640    0.48420    1.000
    C88      C        0.83133    0.62450    0.55890    1.000
    H38      H        0.84230    0.59290    0.59260    1.000
    C89      C        0.85869    0.66100    0.54280    1.000
    C90      C        0.90430    0.65170    0.57800    1.000
    C91      C        0.94167    0.64710    0.60540    1.000
    C92      C        0.98765    0.64200    0.63970    1.000
    C93      C        0.05140    0.58590    0.71860    1.000
    H39      H        0.06380    0.54930    0.74800    1.000
    C94      C        0.03670    0.92280    0.98430    1.000
    H40      H        0.05200    0.96070    0.97970    1.000
    C95      C        0.07642    0.63280    0.70900    1.000
    C96      C        0.12395    0.62830    0.74590    1.000
    C97      C        0.05593    0.87690    0.02940    1.000
    C98      C        0.03310    0.81920    0.03070    1.000
    H41      H        0.04670    0.78300    0.06010    1.000
    C99      C        0.74464    0.74030    0.74920    1.000
    C100     C        0.77250    0.80460    0.77920    1.000
    C101     C        0.81646    0.79850    0.80890    1.000
    H42      H        0.82920    0.75450    0.80960    1.000
    C102     C        0.84120    0.85860    0.83770    1.000
    O40      O        0.14610    0.67560    0.74610    1.000
    O41      O        0.13940    0.56950    0.78080    1.000
    O42      O        0.14590    0.65180    0.71760    1.000
    Cd10     Cd       0.29021    0.12229    0.68997    1.000
    Cd11     Cd       0.18439    0.14121    0.68053    1.000
    Cd12     Cd       0.17759    0.06859    0.54473    1.000
    O43      O        0.62377    0.43110    0.07050    1.000
    O44      O        0.21847    0.10070    0.50346    1.000
    O45      O        0.27228    0.06690    0.59413    1.000
    O46      O        0.28199    0.55073    0.84394    1.000
    O47      O        0.21927    0.50910    0.77558    1.000
    O48      O        0.24198    0.28060    0.37422    1.000
    O49      O        0.30825    0.31880    0.40561    1.000
    O50      O        0.61587    0.33980    0.12240    1.000
    O51      O        0.20501    0.24960    0.72450    1.000
    O52      O        0.26064    0.18070    0.74818    1.000
    O53      O        0.64130    0.10810    0.79910    1.000
    C103     C        0.32237    0.42450    0.83790    1.000
    H43      H        0.33930    0.46420    0.85830    1.000
    C104     C        0.60210    0.38420    0.07620    1.000
    C105     C        0.51219    0.18610    0.63010    1.000
    H44      H        0.49980    0.22170    0.59980    1.000
    C106     C        0.55657    0.18160    0.66400    1.000
    H45      H        0.57280    0.21370    0.65480    1.000
    C107     C        0.50680    0.09160    0.68460    1.000
    H46      H        0.49010    0.06000    0.69330    1.000
    C108     C        0.27785    0.43060    0.80730    1.000
    C109     C        0.25350    0.37060    0.77840    1.000
    H47      H        0.22390    0.37420    0.75810    1.000
    C110     C        0.38751    0.35550    0.87110    1.000
    C111     C        0.42477    0.35890    0.90240    1.000
    C112     C        0.46985    0.36390    0.94450    1.000
    C113     C        0.48980    0.31270    0.98900    1.000
    H48      H        0.47460    0.27340    0.99160    1.000
    C114     C        0.49290    0.41610    0.94230    1.000
    H49      H        0.48010    0.45090    0.91140    1.000
    C115     C        0.28094    0.27710    0.40820    1.000
    C116     C        0.25793    0.50080    0.80830    1.000
    C117     C        0.25766    0.09760    0.54250    1.000
    C118     C        0.28772    0.13530    0.52480    1.000
    C119     C        0.27114    0.18260    0.47430    1.000
    H50      H        0.24180    0.18880    0.45080    1.000
    C120     C        0.29815    0.22070    0.45880    1.000
    C121     C        0.34227    0.21030    0.49380    1.000
    H51      H        0.36060    0.23640    0.48420    1.000
    C122     C        0.33133    0.12450    0.55890    1.000
    H52      H        0.34230    0.09290    0.59260    1.000
    C123     C        0.35869    0.16100    0.54280    1.000
    C124     C        0.40430    0.15170    0.57800    1.000
    C125     C        0.44167    0.14710    0.60540    1.000
    C126     C        0.48765    0.14200    0.63970    1.000
    C127     C        0.55140    0.08590    0.71860    1.000
    H53      H        0.56380    0.04930    0.74800    1.000
    C128     C        0.53670    0.42280    0.98430    1.000
    H54      H        0.55200    0.46070    0.97970    1.000
    C129     C        0.57642    0.13280    0.70900    1.000
    C130     C        0.62395    0.12830    0.74590    1.000
    C131     C        0.55593    0.37690    0.02940    1.000
    C132     C        0.53310    0.31920    0.03070    1.000
    H55      H        0.54670    0.28300    0.06010    1.000
    C133     C        0.24464    0.24030    0.74920    1.000
    C134     C        0.27250    0.30460    0.77920    1.000
    C135     C        0.31646    0.29850    0.80890    1.000
    H56      H        0.32920    0.25450    0.80960    1.000
    C136     C        0.34120    0.35860    0.83770    1.000
    O54      O        0.64610    0.17560    0.74610    1.000
    O55      O        0.63940    0.06950    0.78080    1.000
    O56      O        0.64590    0.15180    0.71760    1.000
    Cd13     Cd       0.79021    0.37771    0.18997    1.000
    Cd14     Cd       0.68439    0.35879    0.18053    1.000
    Cd15     Cd       0.67759    0.43141    0.04473    1.000
    O57      O        0.12377    0.06890    0.57050    1.000
    O58      O        0.71847    0.39930    0.00346    1.000
    O59      O        0.77228    0.43310    0.09413    1.000
    O60      O        0.78199    0.94927    0.34394    1.000
    O61      O        0.71927    0.99090    0.27558    1.000
    O62      O        0.74198    0.21940    0.87422    1.000
    O63      O        0.80825    0.18120    0.90561    1.000
    O64      O        0.11587    0.16020    0.62240    1.000
    O65      O        0.70501    0.25040    0.22450    1.000
    O66      O        0.76064    0.31930    0.24818    1.000
    O67      O        0.14130    0.39190    0.29910    1.000
    C137     C        0.82237    0.07550    0.33790    1.000
    H57      H        0.83930    0.03580    0.35830    1.000
    C138     C        0.10210    0.11580    0.57620    1.000
    C139     C        0.01219    0.31390    0.13010    1.000
    H58      H        0.99980    0.27830    0.09980    1.000
    C140     C        0.05657    0.31840    0.16400    1.000
    H59      H        0.07280    0.28630    0.15480    1.000
    C141     C        0.00680    0.40840    0.18460    1.000
    H60      H        0.99010    0.44000    0.19330    1.000
    C142     C        0.77785    0.06940    0.30730    1.000
    C143     C        0.75350    0.12940    0.27840    1.000
    H61      H        0.72390    0.12580    0.25810    1.000
    C144     C        0.88751    0.14450    0.37110    1.000
    C145     C        0.92477    0.14110    0.40240    1.000
    C146     C        0.96985    0.13610    0.44450    1.000
    C147     C        0.98980    0.18730    0.48900    1.000
    H62      H        0.97460    0.22660    0.49160    1.000
    C148     C        0.99290    0.08390    0.44230    1.000
    H63      H        0.98010    0.04910    0.41140    1.000
    C149     C        0.78094    0.22290    0.90820    1.000
    C150     C        0.75793    0.99920    0.30830    1.000
    C151     C        0.75766    0.40240    0.04250    1.000
    C152     C        0.78772    0.36470    0.02480    1.000
    C153     C        0.77114    0.31740    0.97430    1.000
    H64      H        0.74180    0.31120    0.95080    1.000
    C154     C        0.79815    0.27930    0.95880    1.000
    C155     C        0.84227    0.28970    0.99380    1.000
    H65      H        0.86060    0.26360    0.98420    1.000
    C156     C        0.83133    0.37550    0.05890    1.000
    H66      H        0.84230    0.40710    0.09260    1.000
    C157     C        0.85869    0.33900    0.04280    1.000
    C158     C        0.90430    0.34830    0.07800    1.000
    C159     C        0.94167    0.35290    0.10540    1.000
    C160     C        0.98765    0.35800    0.13970    1.000
    C161     C        0.05140    0.41410    0.21860    1.000
    H67      H        0.06380    0.45070    0.24800    1.000
    C162     C        0.03670    0.07720    0.48430    1.000
    H68      H        0.05200    0.03930    0.47970    1.000
    C163     C        0.07642    0.36720    0.20900    1.000
    C164     C        0.12395    0.37170    0.24590    1.000
    C165     C        0.05593    0.12310    0.52940    1.000
    C166     C        0.03310    0.18080    0.53070    1.000
    H69      H        0.04670    0.21700    0.56010    1.000
    C167     C        0.74464    0.25970    0.24920    1.000
    C168     C        0.77250    0.19540    0.27920    1.000
    C169     C        0.81646    0.20150    0.30890    1.000
    H70      H        0.82920    0.24550    0.30960    1.000
    C170     C        0.84120    0.14140    0.33770    1.000
    O68      O        0.14610    0.32440    0.24610    1.000
    O69      O        0.13940    0.43050    0.28080    1.000
    O70      O        0.14590    0.34820    0.21760    1.000
    Cd16     Cd       0.29021    0.87771    0.18997    1.000
    Cd17     Cd       0.18439    0.85879    0.18053    1.000
    Cd18     Cd       0.17759    0.93141    0.04473    1.000
    O71      O        0.62377    0.56890    0.57050    1.000
    O72      O        0.21847    0.89930    0.00346    1.000
    O73      O        0.27228    0.93310    0.09413    1.000
    O74      O        0.28199    0.44927    0.34394    1.000
    O75      O        0.21927    0.49090    0.27558    1.000
    O76      O        0.24198    0.71940    0.87422    1.000
    O77      O        0.30825    0.68120    0.90561    1.000
    O78      O        0.61587    0.66020    0.62240    1.000
    O79      O        0.20501    0.75040    0.22450    1.000
    O80      O        0.26064    0.81930    0.24818    1.000
    O81      O        0.64130    0.89190    0.29910    1.000
    C171     C        0.32237    0.57550    0.33790    1.000
    H71      H        0.33930    0.53580    0.35830    1.000
    C172     C        0.60210    0.61580    0.57620    1.000
    C173     C        0.51219    0.81390    0.13010    1.000
    H72      H        0.49980    0.77830    0.09980    1.000
    C174     C        0.55657    0.81840    0.16400    1.000
    H73      H        0.57280    0.78630    0.15480    1.000
    C175     C        0.50680    0.90840    0.18460    1.000
    H74      H        0.49010    0.94000    0.19330    1.000
    C176     C        0.27785    0.56940    0.30730    1.000
    C177     C        0.25350    0.62940    0.27840    1.000
    H75      H        0.22390    0.62580    0.25810    1.000
    C178     C        0.38751    0.64450    0.37110    1.000
    C179     C        0.42477    0.64110    0.40240    1.000
    C180     C        0.46985    0.63610    0.44450    1.000
    C181     C        0.48980    0.68730    0.48900    1.000
    H76      H        0.47460    0.72660    0.49160    1.000
    C182     C        0.49290    0.58390    0.44230    1.000
    H77      H        0.48010    0.54910    0.41140    1.000
    C183     C        0.28094    0.72290    0.90820    1.000
    C184     C        0.25793    0.49920    0.30830    1.000
    C185     C        0.25766    0.90240    0.04250    1.000
    C186     C        0.28772    0.86470    0.02480    1.000
    C187     C        0.27114    0.81740    0.97430    1.000
    H78      H        0.24180    0.81120    0.95080    1.000
    C188     C        0.29815    0.77930    0.95880    1.000
    C189     C        0.34227    0.78970    0.99380    1.000
    H79      H        0.36060    0.76360    0.98420    1.000
    C190     C        0.33133    0.87550    0.05890    1.000
    H80      H        0.34230    0.90710    0.09260    1.000
    C191     C        0.35869    0.83900    0.04280    1.000
    C192     C        0.40430    0.84830    0.07800    1.000
    C193     C        0.44167    0.85290    0.10540    1.000
    C194     C        0.48765    0.85800    0.13970    1.000
    C195     C        0.55140    0.91410    0.21860    1.000
    H81      H        0.56380    0.95070    0.24800    1.000
    C196     C        0.53670    0.57720    0.48430    1.000
    H82      H        0.55200    0.53930    0.47970    1.000
    C197     C        0.57642    0.86720    0.20900    1.000
    C198     C        0.62395    0.87170    0.24590    1.000
    C199     C        0.55593    0.62310    0.52940    1.000
    C200     C        0.53310    0.68080    0.53070    1.000
    H83      H        0.54670    0.71700    0.56010    1.000
    C201     C        0.24464    0.75970    0.24920    1.000
    C202     C        0.27250    0.69540    0.27920    1.000
    C203     C        0.31646    0.70150    0.30890    1.000
    H84      H        0.32920    0.74550    0.30960    1.000
    C204     C        0.34120    0.64140    0.33770    1.000
    O82      O        0.64610    0.82440    0.24610    1.000
    O83      O        0.63940    0.93050    0.28080    1.000
    O84      O        0.64590    0.84820    0.21760    1.000
    Cd19     Cd       0.20979    0.37771    0.31003    1.000
    Cd20     Cd       0.31561    0.35879    0.31947    1.000
    Cd21     Cd       0.32241    0.43141    0.45527    1.000
    O85      O        0.87623    0.06890    0.92950    1.000
    O86      O        0.28153    0.39930    0.49654    1.000
    O87      O        0.22772    0.43310    0.40587    1.000
    O88      O        0.21801    0.94927    0.15606    1.000
    O89      O        0.28073    0.99090    0.22442    1.000
    O90      O        0.25802    0.21940    0.62578    1.000
    O91      O        0.19175    0.18120    0.59439    1.000
    O92      O        0.88413    0.16020    0.87760    1.000
    O93      O        0.29499    0.25040    0.27550    1.000
    O94      O        0.23936    0.31930    0.25182    1.000
    O95      O        0.85870    0.39190    0.20090    1.000
    C205     C        0.17763    0.07550    0.16210    1.000
    H85      H        0.16070    0.03580    0.14170    1.000
    C206     C        0.89790    0.11580    0.92380    1.000
    C207     C        0.98781    0.31390    0.36990    1.000
    H86      H        0.00020    0.27830    0.40020    1.000
    C208     C        0.94343    0.31840    0.33600    1.000
    H87      H        0.92720    0.28630    0.34520    1.000
    C209     C        0.99320    0.40840    0.31540    1.000
    H88      H        0.00990    0.44000    0.30670    1.000
    C210     C        0.22215    0.06940    0.19270    1.000
    C211     C        0.24650    0.12940    0.22160    1.000
    H89      H        0.27610    0.12580    0.24190    1.000
    C212     C        0.11249    0.14450    0.12890    1.000
    C213     C        0.07523    0.14110    0.09760    1.000
    C214     C        0.03015    0.13610    0.05550    1.000
    C215     C        0.01020    0.18730    0.01100    1.000
    H90      H        0.02540    0.22660    0.00840    1.000
    C216     C        0.00710    0.08390    0.05770    1.000
    H91      H        0.01990    0.04910    0.08860    1.000
    C217     C        0.21906    0.22290    0.59180    1.000
    C218     C        0.24207    0.99920    0.19170    1.000
    C219     C        0.24234    0.40240    0.45750    1.000
    C220     C        0.21228    0.36470    0.47520    1.000
    C221     C        0.22886    0.31740    0.52570    1.000
    H92      H        0.25820    0.31120    0.54920    1.000
    C222     C        0.20185    0.27930    0.54120    1.000
    C223     C        0.15773    0.28970    0.50620    1.000
    H93      H        0.13940    0.26360    0.51580    1.000
    C224     C        0.16867    0.37550    0.44110    1.000
    H94      H        0.15770    0.40710    0.40740    1.000
    C225     C        0.14131    0.33900    0.45720    1.000
    C226     C        0.09570    0.34830    0.42200    1.000
    C227     C        0.05833    0.35290    0.39460    1.000
    C228     C        0.01235    0.35800    0.36030    1.000
    C229     C        0.94860    0.41410    0.28140    1.000
    H95      H        0.93620    0.45070    0.25200    1.000
    C230     C        0.96330    0.07720    0.01570    1.000
    H96      H        0.94800    0.03930    0.02030    1.000
    C231     C        0.92358    0.36720    0.29100    1.000
    C232     C        0.87605    0.37170    0.25410    1.000
    C233     C        0.94407    0.12310    0.97060    1.000
    C234     C        0.96690    0.18080    0.96930    1.000
    H97      H        0.95330    0.21700    0.93990    1.000
    C235     C        0.25536    0.25970    0.25080    1.000
    C236     C        0.22750    0.19540    0.22080    1.000
    C237     C        0.18354    0.20150    0.19110    1.000
    H98      H        0.17080    0.24550    0.19040    1.000
    C238     C        0.15880    0.14140    0.16230    1.000
    O96      O        0.85390    0.32440    0.25390    1.000
    O97      O        0.86060    0.43050    0.21920    1.000
    O98      O        0.85410    0.34820    0.28240    1.000
    Cd22     Cd       0.70979    0.87771    0.31003    1.000
    Cd23     Cd       0.81561    0.85879    0.31947    1.000
    Cd24     Cd       0.82241    0.93141    0.45527    1.000
    O99      O        0.37623    0.56890    0.92950    1.000
    O100     O        0.78153    0.89930    0.49654    1.000
    O101     O        0.72772    0.93310    0.40587    1.000
    O102     O        0.71801    0.44927    0.15606    1.000
    O103     O        0.78073    0.49090    0.22442    1.000
    O104     O        0.75802    0.71940    0.62578    1.000
    O105     O        0.69175    0.68120    0.59439    1.000
    O106     O        0.38413    0.66020    0.87760    1.000
    O107     O        0.79499    0.75040    0.27550    1.000
    O108     O        0.73936    0.81930    0.25182    1.000
    O109     O        0.35870    0.89190    0.20090    1.000
    C239     C        0.67763    0.57550    0.16210    1.000
    H99      H        0.66070    0.53580    0.14170    1.000
    C240     C        0.39790    0.61580    0.92380    1.000
    C241     C        0.48781    0.81390    0.36990    1.000
    H100     H        0.50020    0.77830    0.40020    1.000
    C242     C        0.44343    0.81840    0.33600    1.000
    H101     H        0.42720    0.78630    0.34520    1.000
    C243     C        0.49320    0.90840    0.31540    1.000
    H102     H        0.50990    0.94000    0.30670    1.000
    C244     C        0.72215    0.56940    0.19270    1.000
    C245     C        0.74650    0.62940    0.22160    1.000
    H103     H        0.77610    0.62580    0.24190    1.000
    C246     C        0.61249    0.64450    0.12890    1.000
    C247     C        0.57523    0.64110    0.09760    1.000
    C248     C        0.53015    0.63610    0.05550    1.000
    C249     C        0.51020    0.68730    0.01100    1.000
    H104     H        0.52540    0.72660    0.00840    1.000
    C250     C        0.50710    0.58390    0.05770    1.000
    H105     H        0.51990    0.54910    0.08860    1.000
    C251     C        0.71906    0.72290    0.59180    1.000
    C252     C        0.74207    0.49920    0.19170    1.000
    C253     C        0.74234    0.90240    0.45750    1.000
    C254     C        0.71228    0.86470    0.47520    1.000
    C255     C        0.72886    0.81740    0.52570    1.000
    H106     H        0.75820    0.81120    0.54920    1.000
    C256     C        0.70185    0.77930    0.54120    1.000
    C257     C        0.65773    0.78970    0.50620    1.000
    H107     H        0.63940    0.76360    0.51580    1.000
    C258     C        0.66867    0.87550    0.44110    1.000
    H108     H        0.65770    0.90710    0.40740    1.000
    C259     C        0.64131    0.83900    0.45720    1.000
    C260     C        0.59570    0.84830    0.42200    1.000
    C261     C        0.55833    0.85290    0.39460    1.000
    C262     C        0.51235    0.85800    0.36030    1.000
    C263     C        0.44860    0.91410    0.28140    1.000
    H109     H        0.43620    0.95070    0.25200    1.000
    C264     C        0.46330    0.57720    0.01570    1.000
    H110     H        0.44800    0.53930    0.02030    1.000
    C265     C        0.42358    0.86720    0.29100    1.000
    C266     C        0.37605    0.87170    0.25410    1.000
    C267     C        0.44407    0.62310    0.97060    1.000
    C268     C        0.46690    0.68080    0.96930    1.000
    H111     H        0.45330    0.71700    0.93990    1.000
    C269     C        0.75536    0.75970    0.25080    1.000
    C270     C        0.72750    0.69540    0.22080    1.000
    C271     C        0.68354    0.70150    0.19110    1.000
    H112     H        0.67080    0.74550    0.19040    1.000
    C272     C        0.65880    0.64140    0.16230    1.000
    O110     O        0.35390    0.82440    0.25390    1.000
    O111     O        0.36060    0.93050    0.21920    1.000
    O112     O        0.35410    0.84820    0.28240    1.000
