# CIF file generated by openbabel 3.1.0, see https://openbabel.org
data_I
_chemical_name_common 'image0'
_cell_length_a 23.716
_cell_length_b 23.716
_cell_length_c 13.447
_cell_angle_alpha 90
_cell_angle_beta 90
_cell_angle_gamma 120
_space_group_name_H-M_alt 'P 1'
_space_group_name_Hall 'P 1'
loop_
    _symmetry_equiv_pos_as_xyz
    x,y,z
loop_
    _atom_site_label
    _atom_site_type_symbol
    _atom_site_fract_x
    _atom_site_fract_y
    _atom_site_fract_z
    _atom_site_occupancy
    Ga1      Ga       0.36008    0.09296    0.12055    1.000
    Cr1      Cr       0.35001    0.24270    0.91476    1.000
    P1       P        0.41877    0.23605    0.11916    1.000
    P2       P        0.32672    0.98706    0.27788    1.000
    O1       O        0.36699    0.21028    0.03710    1.000
    O2       O        0.42178    0.17516    0.15640    1.000
    O3       O        0.39110    0.25907    0.20610    1.000
    O4       O        0.48401    0.28900    0.09020    1.000
    O5       O        0.37497    0.04450    0.21220    1.000
    O6       O        0.36726    0.95901    0.32610    1.000
    O7       O        0.27166    0.93510    0.21840    1.000
    O8       O        0.30031    0.01093    0.36090    1.000
    N1       N        0.44440    0.27530    0.86920    1.000
    N2       N        0.33250    0.15710    0.85090    1.000
    N3       N        0.25130    0.18880    0.94050    1.000
    C1       C        0.44710    0.21800    0.82990    1.000
    C2       C        0.38470    0.17190    0.78060    1.000
    C3       C        0.26500    0.12240    0.81660    1.000
    C4       C        0.22410    0.12130    0.90260    1.000
    H1       H        0.47700    0.29570    0.92520    1.000
    H2       H        0.45710    0.30320    0.82110    1.000
    H3       H        0.33030    0.12360    0.89680    1.000
    H4       H        0.22870    0.20080    0.91180    1.000
    H5       H        0.24700    0.19360    0.01770    1.000
    H6       H        0.44900    0.19150    0.88920    1.000
    H7       H        0.48720    0.23640    0.79950    1.000
    H8       H        0.38190    0.13070    0.75190    1.000
    H9       H        0.38360    0.19690    0.72520    1.000
    H10      H        0.25360    0.07830    0.80660    1.000
    H11      H        0.26140    0.14760    0.75960    1.000
    H12      H        0.18020    0.10550    0.87800    1.000
    H13      H        0.22980    0.10120    0.95400    1.000
    Ga2      Ga       0.24270    0.89269    0.08524    1.000
    Ga3      Ga       0.02675    0.42629    0.45388    1.000
    Cr2      Cr       0.01668    0.57603    0.24809    1.000
    P3       P        0.08544    0.56938    0.45249    1.000
    P4       P        0.99339    0.32039    0.61121    1.000
    O9       O        0.03366    0.54361    0.37043    1.000
    O10      O        0.08845    0.50849    0.48973    1.000
    O11      O        0.05777    0.59240    0.53943    1.000
    O12      O        0.15068    0.62233    0.42353    1.000
    O13      O        0.04164    0.37783    0.54553    1.000
    O14      O        0.03393    0.29234    0.65943    1.000
    O15      O        0.93833    0.26843    0.55173    1.000
    O16      O        0.96698    0.34426    0.69423    1.000
    N4       N        0.11107    0.60863    0.20253    1.000
    N5       N        0.99917    0.49043    0.18423    1.000
    N6       N        0.91797    0.52213    0.27383    1.000
    C5       C        0.11377    0.55133    0.16323    1.000
    C6       C        0.05137    0.50523    0.11393    1.000
    C7       C        0.93167    0.45573    0.14993    1.000
    C8       C        0.89077    0.45463    0.23593    1.000
    H14      H        0.14367    0.62903    0.25853    1.000
    H15      H        0.12377    0.63653    0.15443    1.000
    H16      H        0.99697    0.45693    0.23013    1.000
    H17      H        0.89537    0.53413    0.24513    1.000
    H18      H        0.91367    0.52693    0.35103    1.000
    H19      H        0.11567    0.52483    0.22253    1.000
    H20      H        0.15387    0.56973    0.13283    1.000
    H21      H        0.04857    0.46403    0.08523    1.000
    H22      H        0.05027    0.53023    0.05853    1.000
    H23      H        0.92027    0.41163    0.13993    1.000
    H24      H        0.92807    0.48093    0.09293    1.000
    H25      H        0.84687    0.43883    0.21133    1.000
    H26      H        0.89647    0.43453    0.28733    1.000
    Ga4      Ga       0.90937    0.22602    0.41857    1.000
    Ga5      Ga       0.69341    0.75963    0.78722    1.000
    Cr3      Cr       0.68334    0.90937    0.58143    1.000
    P5       P        0.75210    0.90272    0.78583    1.000
    P6       P        0.66005    0.65373    0.94455    1.000
    O17      O        0.70032    0.87695    0.70377    1.000
    O18      O        0.75511    0.84183    0.82307    1.000
    O19      O        0.72443    0.92574    0.87277    1.000
    O20      O        0.81734    0.95567    0.75687    1.000
    O21      O        0.70830    0.71117    0.87887    1.000
    O22      O        0.70059    0.62568    0.99277    1.000
    O23      O        0.60499    0.60177    0.88507    1.000
    O24      O        0.63364    0.67760    0.02757    1.000
    N7       N        0.77773    0.94197    0.53587    1.000
    N8       N        0.66583    0.82377    0.51757    1.000
    N9       N        0.58463    0.85547    0.60717    1.000
    C9       C        0.78043    0.88467    0.49657    1.000
    C10      C        0.71803    0.83857    0.44727    1.000
    C11      C        0.59833    0.78907    0.48327    1.000
    C12      C        0.55743    0.78797    0.56927    1.000
    H27      H        0.81033    0.96237    0.59187    1.000
    H28      H        0.79043    0.96987    0.48777    1.000
    H29      H        0.66363    0.79027    0.56347    1.000
    H30      H        0.56203    0.86747    0.57847    1.000
    H31      H        0.58033    0.86027    0.68437    1.000
    H32      H        0.78233    0.85817    0.55587    1.000
    H33      H        0.82053    0.90307    0.46617    1.000
    H34      H        0.71523    0.79737    0.41857    1.000
    H35      H        0.71693    0.86357    0.39187    1.000
    H36      H        0.58693    0.74497    0.47327    1.000
    H37      H        0.59473    0.81427    0.42627    1.000
    H38      H        0.51353    0.77217    0.54467    1.000
    H39      H        0.56313    0.76787    0.62067    1.000
    Ga6      Ga       0.57603    0.55936    0.75191    1.000
    Ga7      Ga       0.90704    0.26712    0.12055    1.000
    Cr4      Cr       0.75730    0.10731    0.91476    1.000
    P7       P        0.76395    0.18272    0.11916    1.000
    P8       P        0.01294    0.33966    0.27788    1.000
    O25      O        0.78972    0.15671    0.03710    1.000
    O26      O        0.82484    0.24662    0.15640    1.000
    O27      O        0.74093    0.13203    0.20610    1.000
    O28      O        0.71100    0.19501    0.09020    1.000
    O29      O        0.95550    0.33047    0.21220    1.000
    O30      O        0.04099    0.40825    0.32610    1.000
    O31      O        0.06490    0.33656    0.21840    1.000
    O32      O        0.98907    0.28938    0.36090    1.000
    N10      N        0.72470    0.16910    0.86920    1.000
    N11      N        0.84290    0.17540    0.85090    1.000
    N12      N        0.81120    0.06250    0.94050    1.000
    C13      C        0.78200    0.22910    0.82990    1.000
    C14      C        0.82810    0.21280    0.78060    1.000
    C15      C        0.87760    0.14260    0.81660    1.000
    C16      C        0.87870    0.10280    0.90260    1.000
    H40      H        0.70430    0.18130    0.92520    1.000
    H41      H        0.69680    0.15390    0.82110    1.000
    H42      H        0.87640    0.20670    0.89680    1.000
    H43      H        0.79920    0.02790    0.91180    1.000
    H44      H        0.80640    0.05340    0.01770    1.000
    H45      H        0.80850    0.25750    0.88920    1.000
    H46      H        0.76360    0.25080    0.79950    1.000
    H47      H        0.86930    0.25120    0.75190    1.000
    H48      H        0.80310    0.18670    0.72520    1.000
    H49      H        0.92170    0.17530    0.80660    1.000
    H50      H        0.85240    0.11380    0.75960    1.000
    H51      H        0.89450    0.07470    0.87800    1.000
    H52      H        0.89880    0.12860    0.95400    1.000
    Ga8      Ga       0.10731    0.35001    0.08524    1.000
    Ga9      Ga       0.57371    0.60045    0.45388    1.000
    Cr5      Cr       0.42397    0.44064    0.24809    1.000
    P9       P        0.43062    0.51605    0.45249    1.000
    P10      P        0.67961    0.67299    0.61121    1.000
    O33      O        0.45639    0.49004    0.37043    1.000
    O34      O        0.49151    0.57995    0.48973    1.000
    O35      O        0.40760    0.46536    0.53943    1.000
    O36      O        0.37767    0.52834    0.42353    1.000
    O37      O        0.62217    0.66380    0.54553    1.000
    O38      O        0.70766    0.74158    0.65943    1.000
    O39      O        0.73157    0.66989    0.55173    1.000
    O40      O        0.65574    0.62271    0.69423    1.000
    N13      N        0.39137    0.50243    0.20253    1.000
    N14      N        0.50957    0.50873    0.18423    1.000
    N15      N        0.47787    0.39583    0.27383    1.000
    C17      C        0.44867    0.56243    0.16323    1.000
    C18      C        0.49477    0.54613    0.11393    1.000
    C19      C        0.54427    0.47593    0.14993    1.000
    C20      C        0.54537    0.43613    0.23593    1.000
    H53      H        0.37097    0.51463    0.25853    1.000
    H54      H        0.36347    0.48723    0.15443    1.000
    H55      H        0.54307    0.54003    0.23013    1.000
    H56      H        0.46587    0.36123    0.24513    1.000
    H57      H        0.47307    0.38673    0.35103    1.000
    H58      H        0.47517    0.59083    0.22253    1.000
    H59      H        0.43027    0.58413    0.13283    1.000
    H60      H        0.53597    0.58453    0.08523    1.000
    H61      H        0.46977    0.52003    0.05853    1.000
    H62      H        0.58837    0.50863    0.13993    1.000
    H63      H        0.51907    0.44713    0.09293    1.000
    H64      H        0.56117    0.40803    0.21133    1.000
    H65      H        0.56547    0.46193    0.28733    1.000
    Ga10     Ga       0.77398    0.68334    0.41857    1.000
    Ga11     Ga       0.24037    0.93379    0.78722    1.000
    Cr6      Cr       0.09063    0.77398    0.58143    1.000
    P11      P        0.09728    0.84939    0.78583    1.000
    P12      P        0.34627    0.00633    0.94455    1.000
    O41      O        0.12305    0.82338    0.70377    1.000
    O42      O        0.15817    0.91329    0.82307    1.000
    O43      O        0.07426    0.79870    0.87277    1.000
    O44      O        0.04433    0.86168    0.75687    1.000
    O45      O        0.28883    0.99714    0.87887    1.000
    O46      O        0.37432    0.07492    0.99277    1.000
    O47      O        0.39823    0.00323    0.88507    1.000
    O48      O        0.32240    0.95605    0.02757    1.000
    N16      N        0.05803    0.83577    0.53587    1.000
    N17      N        0.17623    0.84207    0.51757    1.000
    N18      N        0.14453    0.72917    0.60717    1.000
    C21      C        0.11533    0.89577    0.49657    1.000
    C22      C        0.16143    0.87947    0.44727    1.000
    C23      C        0.21093    0.80927    0.48327    1.000
    C24      C        0.21203    0.76947    0.56927    1.000
    H66      H        0.03763    0.84797    0.59187    1.000
    H67      H        0.03013    0.82057    0.48777    1.000
    H68      H        0.20973    0.87337    0.56347    1.000
    H69      H        0.13253    0.69457    0.57847    1.000
    H70      H        0.13973    0.72007    0.68437    1.000
    H71      H        0.14183    0.92417    0.55587    1.000
    H72      H        0.09693    0.91747    0.46617    1.000
    H73      H        0.20263    0.91787    0.41857    1.000
    H74      H        0.13643    0.85337    0.39187    1.000
    H75      H        0.25503    0.84197    0.47327    1.000
    H76      H        0.18573    0.78047    0.42627    1.000
    H77      H        0.22783    0.74137    0.54467    1.000
    H78      H        0.23213    0.79527    0.62067    1.000
    Ga12     Ga       0.44064    0.01668    0.75191    1.000
    Ga13     Ga       0.73288    0.63992    0.12055    1.000
    Cr7      Cr       0.89269    0.64999    0.91476    1.000
    P13      P        0.81728    0.58123    0.11916    1.000
    P14      P        0.66034    0.67328    0.27788    1.000
    O49      O        0.84329    0.63301    0.03710    1.000
    O50      O        0.75338    0.57822    0.15640    1.000
    O51      O        0.86797    0.60890    0.20610    1.000
    O52      O        0.80499    0.51599    0.09020    1.000
    O53      O        0.66953    0.62503    0.21220    1.000
    O54      O        0.59175    0.63274    0.32610    1.000
    O55      O        0.66344    0.72834    0.21840    1.000
    O56      O        0.71062    0.69969    0.36090    1.000
    N19      N        0.83090    0.55560    0.86920    1.000
    N20      N        0.82460    0.66750    0.85090    1.000
    N21      N        0.93750    0.74870    0.94050    1.000
    C25      C        0.77090    0.55290    0.82990    1.000
    C26      C        0.78720    0.61530    0.78060    1.000
    C27      C        0.85740    0.73500    0.81660    1.000
    C28      C        0.89720    0.77590    0.90260    1.000
    H79      H        0.81870    0.52300    0.92520    1.000
    H80      H        0.84610    0.54290    0.82110    1.000
    H81      H        0.79330    0.66970    0.89680    1.000
    H82      H        0.97210    0.77130    0.91180    1.000
    H83      H        0.94660    0.75300    0.01770    1.000
    H84      H        0.74250    0.55100    0.88920    1.000
    H85      H        0.74920    0.51280    0.79950    1.000
    H86      H        0.74880    0.61810    0.75190    1.000
    H87      H        0.81330    0.61640    0.72520    1.000
    H88      H        0.82470    0.74640    0.80660    1.000
    H89      H        0.88620    0.73860    0.75960    1.000
    H90      H        0.92530    0.81980    0.87800    1.000
    H91      H        0.87140    0.77020    0.95400    1.000
    Ga14     Ga       0.64999    0.75730    0.08524    1.000
    Ga15     Ga       0.39955    0.97325    0.45388    1.000
    Cr8      Cr       0.55936    0.98332    0.24809    1.000
    P15      P        0.48395    0.91456    0.45249    1.000
    P16      P        0.32701    0.00661    0.61121    1.000
    O57      O        0.50996    0.96634    0.37043    1.000
    O58      O        0.42005    0.91155    0.48973    1.000
    O59      O        0.53464    0.94223    0.53943    1.000
    O60      O        0.47166    0.84932    0.42353    1.000
    O61      O        0.33620    0.95836    0.54553    1.000
    O62      O        0.25842    0.96607    0.65943    1.000
    O63      O        0.33011    0.06167    0.55173    1.000
    O64      O        0.37729    0.03302    0.69423    1.000
    N22      N        0.49757    0.88893    0.20253    1.000
    N23      N        0.49127    0.00083    0.18423    1.000
    N24      N        0.60417    0.08203    0.27383    1.000
    C29      C        0.43757    0.88623    0.16323    1.000
    C30      C        0.45387    0.94863    0.11393    1.000
    C31      C        0.52407    0.06833    0.14993    1.000
    C32      C        0.56387    0.10923    0.23593    1.000
    H92      H        0.48537    0.85633    0.25853    1.000
    H93      H        0.51277    0.87623    0.15443    1.000
    H94      H        0.45997    0.00303    0.23013    1.000
    H95      H        0.63877    0.10463    0.24513    1.000
    H96      H        0.61327    0.08633    0.35103    1.000
    H97      H        0.40917    0.88433    0.22253    1.000
    H98      H        0.41587    0.84613    0.13283    1.000
    H99      H        0.41547    0.95143    0.08523    1.000
    H100     H        0.47997    0.94973    0.05853    1.000
    H101     H        0.49137    0.07973    0.13993    1.000
    H102     H        0.55287    0.07193    0.09293    1.000
    H103     H        0.59197    0.15313    0.21133    1.000
    H104     H        0.53807    0.10353    0.28733    1.000
    Ga16     Ga       0.31666    0.09063    0.41857    1.000
    Ga17     Ga       0.06621    0.30659    0.78722    1.000
    Cr9      Cr       0.22602    0.31666    0.58143    1.000
    P17      P        0.15061    0.24790    0.78583    1.000
    P18      P        0.99367    0.33995    0.94455    1.000
    O65      O        0.17662    0.29968    0.70377    1.000
    O66      O        0.08671    0.24489    0.82307    1.000
    O67      O        0.20130    0.27557    0.87277    1.000
    O68      O        0.13832    0.18266    0.75687    1.000
    O69      O        0.00286    0.29170    0.87887    1.000
    O70      O        0.92508    0.29941    0.99277    1.000
    O71      O        0.99677    0.39501    0.88507    1.000
    O72      O        0.04395    0.36636    0.02757    1.000
    N25      N        0.16423    0.22227    0.53587    1.000
    N26      N        0.15793    0.33417    0.51757    1.000
    N27      N        0.27083    0.41537    0.60717    1.000
    C33      C        0.10423    0.21957    0.49657    1.000
    C34      C        0.12053    0.28197    0.44727    1.000
    C35      C        0.19073    0.40167    0.48327    1.000
    C36      C        0.23053    0.44257    0.56927    1.000
    H105     H        0.15203    0.18967    0.59187    1.000
    H106     H        0.17943    0.20957    0.48777    1.000
    H107     H        0.12663    0.33637    0.56347    1.000
    H108     H        0.30543    0.43797    0.57847    1.000
    H109     H        0.27993    0.41967    0.68437    1.000
    H110     H        0.07583    0.21767    0.55587    1.000
    H111     H        0.08253    0.17947    0.46617    1.000
    H112     H        0.08213    0.28477    0.41857    1.000
    H113     H        0.14663    0.28307    0.39187    1.000
    H114     H        0.15803    0.41307    0.47327    1.000
    H115     H        0.21953    0.40527    0.42627    1.000
    H116     H        0.25863    0.48647    0.54467    1.000
    H117     H        0.20473    0.43687    0.62067    1.000
    Ga18     Ga       0.98332    0.42397    0.75191    1.000
    Ga19     Ga       0.63992    0.90704    0.87945    1.000
    P19      P        0.58123    0.76395    0.88084    1.000
    P20      P        0.67328    0.01294    0.72212    1.000
    O73      O        0.63301    0.78972    0.96290    1.000
    O74      O        0.57822    0.82484    0.84360    1.000
    O75      O        0.60890    0.74093    0.79390    1.000
    O76      O        0.51599    0.71100    0.90980    1.000
    O77      O        0.62503    0.95550    0.78780    1.000
    O78      O        0.63274    0.04099    0.67390    1.000
    O79      O        0.72834    0.06490    0.78160    1.000
    O80      O        0.69969    0.98907    0.63910    1.000
    N28      N        0.55560    0.72470    0.13080    1.000
    N29      N        0.66750    0.84290    0.14910    1.000
    N30      N        0.74870    0.81120    0.05950    1.000
    C37      C        0.55290    0.78200    0.17010    1.000
    C38      C        0.61530    0.82810    0.21940    1.000
    C39      C        0.73500    0.87760    0.18340    1.000
    C40      C        0.77590    0.87870    0.09740    1.000
    H118     H        0.52300    0.70430    0.07480    1.000
    H119     H        0.54290    0.69680    0.17890    1.000
    H120     H        0.66970    0.87640    0.10320    1.000
    H121     H        0.77130    0.79920    0.08820    1.000
    H122     H        0.75300    0.80640    0.98230    1.000
    H123     H        0.55100    0.80850    0.11080    1.000
    H124     H        0.51280    0.76360    0.20050    1.000
    H125     H        0.61810    0.86930    0.24810    1.000
    H126     H        0.61640    0.80310    0.27480    1.000
    H127     H        0.74640    0.92170    0.19340    1.000
    H128     H        0.73860    0.85240    0.24040    1.000
    H129     H        0.81980    0.89450    0.12200    1.000
    H130     H        0.77020    0.89880    0.04600    1.000
    Ga20     Ga       0.30659    0.24037    0.21278    1.000
    P21      P        0.24790    0.09728    0.21417    1.000
    P22      P        0.33995    0.34627    0.05545    1.000
    O81      O        0.29968    0.12305    0.29623    1.000
    O82      O        0.24489    0.15817    0.17693    1.000
    O83      O        0.27557    0.07426    0.12723    1.000
    O84      O        0.18266    0.04433    0.24313    1.000
    O85      O        0.29170    0.28883    0.12113    1.000
    O86      O        0.29941    0.37432    0.00723    1.000
    O87      O        0.39501    0.39823    0.11493    1.000
    O88      O        0.36636    0.32240    0.97243    1.000
    N31      N        0.22227    0.05803    0.46413    1.000
    N32      N        0.33417    0.17623    0.48243    1.000
    N33      N        0.41537    0.14453    0.39283    1.000
    C41      C        0.21957    0.11533    0.50343    1.000
    C42      C        0.28197    0.16143    0.55273    1.000
    C43      C        0.40167    0.21093    0.51673    1.000
    C44      C        0.44257    0.21203    0.43073    1.000
    H131     H        0.18967    0.03763    0.40813    1.000
    H132     H        0.20957    0.03013    0.51223    1.000
    H133     H        0.33637    0.20973    0.43653    1.000
    H134     H        0.43797    0.13253    0.42153    1.000
    H135     H        0.41967    0.13973    0.31563    1.000
    H136     H        0.21767    0.14183    0.44413    1.000
    H137     H        0.17947    0.09693    0.53383    1.000
    H138     H        0.28477    0.20263    0.58143    1.000
    H139     H        0.28307    0.13643    0.60813    1.000
    H140     H        0.41307    0.25503    0.52673    1.000
    H141     H        0.40527    0.18573    0.57373    1.000
    H142     H        0.48647    0.22783    0.45533    1.000
    H143     H        0.43687    0.23213    0.37933    1.000
    Ga21     Ga       0.97325    0.57371    0.54612    1.000
    P23      P        0.91456    0.43062    0.54751    1.000
    P24      P        0.00661    0.67961    0.38879    1.000
    O89      O        0.96634    0.45639    0.62957    1.000
    O90      O        0.91155    0.49151    0.51027    1.000
    O91      O        0.94223    0.40760    0.46057    1.000
    O92      O        0.84932    0.37767    0.57647    1.000
    O93      O        0.95836    0.62217    0.45447    1.000
    O94      O        0.96607    0.70766    0.34057    1.000
    O95      O        0.06167    0.73157    0.44827    1.000
    O96      O        0.03302    0.65574    0.30577    1.000
    N34      N        0.88893    0.39137    0.79747    1.000
    N35      N        0.00083    0.50957    0.81577    1.000
    N36      N        0.08203    0.47787    0.72617    1.000
    C45      C        0.88623    0.44867    0.83677    1.000
    C46      C        0.94863    0.49477    0.88607    1.000
    C47      C        0.06833    0.54427    0.85007    1.000
    C48      C        0.10923    0.54537    0.76407    1.000
    H144     H        0.85633    0.37097    0.74147    1.000
    H145     H        0.87623    0.36347    0.84557    1.000
    H146     H        0.00303    0.54307    0.76987    1.000
    H147     H        0.10463    0.46587    0.75487    1.000
    H148     H        0.08633    0.47307    0.64897    1.000
    H149     H        0.88433    0.47517    0.77747    1.000
    H150     H        0.84613    0.43027    0.86717    1.000
    H151     H        0.95143    0.53597    0.91477    1.000
    H152     H        0.94973    0.46977    0.94147    1.000
    H153     H        0.07973    0.58837    0.86007    1.000
    H154     H        0.07193    0.51907    0.90707    1.000
    H155     H        0.15313    0.56117    0.78867    1.000
    H156     H        0.10353    0.56547    0.71267    1.000
    Ga22     Ga       0.09296    0.73288    0.87945    1.000
    P25      P        0.23605    0.81728    0.88084    1.000
    P26      P        0.98706    0.66034    0.72212    1.000
    O97      O        0.21028    0.84329    0.96290    1.000
    O98      O        0.17516    0.75338    0.84360    1.000
    O99      O        0.25907    0.86797    0.79390    1.000
    O100     O        0.28900    0.80499    0.90980    1.000
    O101     O        0.04450    0.66953    0.78780    1.000
    O102     O        0.95901    0.59175    0.67390    1.000
    O103     O        0.93510    0.66344    0.78160    1.000
    O104     O        0.01093    0.71062    0.63910    1.000
    N37      N        0.27530    0.83090    0.13080    1.000
    N38      N        0.15710    0.82460    0.14910    1.000
    N39      N        0.18880    0.93750    0.05950    1.000
    C49      C        0.21800    0.77090    0.17010    1.000
    C50      C        0.17190    0.78720    0.21940    1.000
    C51      C        0.12240    0.85740    0.18340    1.000
    C52      C        0.12130    0.89720    0.09740    1.000
    H157     H        0.29570    0.81870    0.07480    1.000
    H158     H        0.30320    0.84610    0.17890    1.000
    H159     H        0.12360    0.79330    0.10320    1.000
    H160     H        0.20080    0.97210    0.08820    1.000
    H161     H        0.19360    0.94660    0.98230    1.000
    H162     H        0.19150    0.74250    0.11080    1.000
    H163     H        0.23640    0.74920    0.20050    1.000
    H164     H        0.13070    0.74880    0.24810    1.000
    H165     H        0.19690    0.81330    0.27480    1.000
    H166     H        0.07830    0.82470    0.19340    1.000
    H167     H        0.14760    0.88620    0.24040    1.000
    H168     H        0.10550    0.92530    0.12200    1.000
    H169     H        0.10120    0.87140    0.04600    1.000
    Ga23     Ga       0.75963    0.06621    0.21278    1.000
    P27      P        0.90272    0.15061    0.21417    1.000
    P28      P        0.65373    0.99367    0.05545    1.000
    O105     O        0.87695    0.17662    0.29623    1.000
    O106     O        0.84183    0.08671    0.17693    1.000
    O107     O        0.92574    0.20130    0.12723    1.000
    O108     O        0.95567    0.13832    0.24313    1.000
    O109     O        0.71117    0.00286    0.12113    1.000
    O110     O        0.62568    0.92508    0.00723    1.000
    O111     O        0.60177    0.99677    0.11493    1.000
    O112     O        0.67760    0.04395    0.97243    1.000
    N40      N        0.94197    0.16423    0.46413    1.000
    N41      N        0.82377    0.15793    0.48243    1.000
    N42      N        0.85547    0.27083    0.39283    1.000
    C53      C        0.88467    0.10423    0.50343    1.000
    C54      C        0.83857    0.12053    0.55273    1.000
    C55      C        0.78907    0.19073    0.51673    1.000
    C56      C        0.78797    0.23053    0.43073    1.000
    H170     H        0.96237    0.15203    0.40813    1.000
    H171     H        0.96987    0.17943    0.51223    1.000
    H172     H        0.79027    0.12663    0.43653    1.000
    H173     H        0.86747    0.30543    0.42153    1.000
    H174     H        0.86027    0.27993    0.31563    1.000
    H175     H        0.85817    0.07583    0.44413    1.000
    H176     H        0.90307    0.08253    0.53383    1.000
    H177     H        0.79737    0.08213    0.58143    1.000
    H178     H        0.86357    0.14663    0.60813    1.000
    H179     H        0.74497    0.15803    0.52673    1.000
    H180     H        0.81427    0.21953    0.57373    1.000
    H181     H        0.77217    0.25863    0.45533    1.000
    H182     H        0.76787    0.20473    0.37933    1.000
    Ga24     Ga       0.42629    0.39955    0.54612    1.000
    P29      P        0.56938    0.48395    0.54751    1.000
    P30      P        0.32039    0.32701    0.38879    1.000
    O113     O        0.54361    0.50996    0.62957    1.000
    O114     O        0.50849    0.42005    0.51027    1.000
    O115     O        0.59240    0.53464    0.46057    1.000
    O116     O        0.62233    0.47166    0.57647    1.000
    O117     O        0.37783    0.33620    0.45447    1.000
    O118     O        0.29234    0.25842    0.34057    1.000
    O119     O        0.26843    0.33011    0.44827    1.000
    O120     O        0.34426    0.37729    0.30577    1.000
    N43      N        0.60863    0.49757    0.79747    1.000
    N44      N        0.49043    0.49127    0.81577    1.000
    N45      N        0.52213    0.60417    0.72617    1.000
    C57      C        0.55133    0.43757    0.83677    1.000
    C58      C        0.50523    0.45387    0.88607    1.000
    C59      C        0.45573    0.52407    0.85007    1.000
    C60      C        0.45463    0.56387    0.76407    1.000
    H183     H        0.62903    0.48537    0.74147    1.000
    H184     H        0.63653    0.51277    0.84557    1.000
    H185     H        0.45693    0.45997    0.76987    1.000
    H186     H        0.53413    0.63877    0.75487    1.000
    H187     H        0.52693    0.61327    0.64897    1.000
    H188     H        0.52483    0.40917    0.77747    1.000
    H189     H        0.56973    0.41587    0.86717    1.000
    H190     H        0.46403    0.41547    0.91477    1.000
    H191     H        0.53023    0.47997    0.94147    1.000
    H192     H        0.41163    0.49137    0.86007    1.000
    H193     H        0.48093    0.55287    0.90707    1.000
    H194     H        0.43883    0.59197    0.78867    1.000
    H195     H        0.43453    0.53807    0.71267    1.000
    Ga25     Ga       0.26712    0.36008    0.87945    1.000
    P31      P        0.18272    0.41877    0.88084    1.000
    P32      P        0.33966    0.32672    0.72212    1.000
    O121     O        0.15671    0.36699    0.96290    1.000
    O122     O        0.24662    0.42178    0.84360    1.000
    O123     O        0.13203    0.39110    0.79390    1.000
    O124     O        0.19501    0.48401    0.90980    1.000
    O125     O        0.33047    0.37497    0.78780    1.000
    O126     O        0.40825    0.36726    0.67390    1.000
    O127     O        0.33656    0.27166    0.78160    1.000
    O128     O        0.28938    0.30031    0.63910    1.000
    N46      N        0.16910    0.44440    0.13080    1.000
    N47      N        0.17540    0.33250    0.14910    1.000
    N48      N        0.06250    0.25130    0.05950    1.000
    C61      C        0.22910    0.44710    0.17010    1.000
    C62      C        0.21280    0.38470    0.21940    1.000
    C63      C        0.14260    0.26500    0.18340    1.000
    C64      C        0.10280    0.22410    0.09740    1.000
    H196     H        0.18130    0.47700    0.07480    1.000
    H197     H        0.15390    0.45710    0.17890    1.000
    H198     H        0.20670    0.33030    0.10320    1.000
    H199     H        0.02790    0.22870    0.08820    1.000
    H200     H        0.05340    0.24700    0.98230    1.000
    H201     H        0.25750    0.44900    0.11080    1.000
    H202     H        0.25080    0.48720    0.20050    1.000
    H203     H        0.25120    0.38190    0.24810    1.000
    H204     H        0.18670    0.38360    0.27480    1.000
    H205     H        0.17530    0.25360    0.19340    1.000
    H206     H        0.11380    0.26140    0.24040    1.000
    H207     H        0.07470    0.18020    0.12200    1.000
    H208     H        0.12860    0.22980    0.04600    1.000
    Ga26     Ga       0.93379    0.69341    0.21278    1.000
    P33      P        0.84939    0.75210    0.21417    1.000
    P34      P        0.00633    0.66005    0.05545    1.000
    O129     O        0.82338    0.70032    0.29623    1.000
    O130     O        0.91329    0.75511    0.17693    1.000
    O131     O        0.79870    0.72443    0.12723    1.000
    O132     O        0.86168    0.81734    0.24313    1.000
    O133     O        0.99714    0.70830    0.12113    1.000
    O134     O        0.07492    0.70059    0.00723    1.000
    O135     O        0.00323    0.60499    0.11493    1.000
    O136     O        0.95605    0.63364    0.97243    1.000
    N49      N        0.83577    0.77773    0.46413    1.000
    N50      N        0.84207    0.66583    0.48243    1.000
    N51      N        0.72917    0.58463    0.39283    1.000
    C65      C        0.89577    0.78043    0.50343    1.000
    C66      C        0.87947    0.71803    0.55273    1.000
    C67      C        0.80927    0.59833    0.51673    1.000
    C68      C        0.76947    0.55743    0.43073    1.000
    H209     H        0.84797    0.81033    0.40813    1.000
    H210     H        0.82057    0.79043    0.51223    1.000
    H211     H        0.87337    0.66363    0.43653    1.000
    H212     H        0.69457    0.56203    0.42153    1.000
    H213     H        0.72007    0.58033    0.31563    1.000
    H214     H        0.92417    0.78233    0.44413    1.000
    H215     H        0.91747    0.82053    0.53383    1.000
    H216     H        0.91787    0.71523    0.58143    1.000
    H217     H        0.85337    0.71693    0.60813    1.000
    H218     H        0.84197    0.58693    0.52673    1.000
    H219     H        0.78047    0.59473    0.57373    1.000
    H220     H        0.74137    0.51353    0.45533    1.000
    H221     H        0.79527    0.56313    0.37933    1.000
    Ga27     Ga       0.60045    0.02675    0.54612    1.000
    P35      P        0.51605    0.08544    0.54751    1.000
    P36      P        0.67299    0.99339    0.38879    1.000
    O137     O        0.49004    0.03366    0.62957    1.000
    O138     O        0.57995    0.08845    0.51027    1.000
    O139     O        0.46536    0.05777    0.46057    1.000
    O140     O        0.52834    0.15068    0.57647    1.000
    O141     O        0.66380    0.04164    0.45447    1.000
    O142     O        0.74158    0.03393    0.34057    1.000
    O143     O        0.66989    0.93833    0.44827    1.000
    O144     O        0.62271    0.96698    0.30577    1.000
    N52      N        0.50243    0.11107    0.79747    1.000
    N53      N        0.50873    0.99917    0.81577    1.000
    N54      N        0.39583    0.91797    0.72617    1.000
    C69      C        0.56243    0.11377    0.83677    1.000
    C70      C        0.54613    0.05137    0.88607    1.000
    C71      C        0.47593    0.93167    0.85007    1.000
    C72      C        0.43613    0.89077    0.76407    1.000
    H222     H        0.51463    0.14367    0.74147    1.000
    H223     H        0.48723    0.12377    0.84557    1.000
    H224     H        0.54003    0.99697    0.76987    1.000
    H225     H        0.36123    0.89537    0.75487    1.000
    H226     H        0.38673    0.91367    0.64897    1.000
    H227     H        0.59083    0.11567    0.77747    1.000
    H228     H        0.58413    0.15387    0.86717    1.000
    H229     H        0.58453    0.04857    0.91477    1.000
    H230     H        0.52003    0.05027    0.94147    1.000
    H231     H        0.50863    0.92027    0.86007    1.000
    H232     H        0.44713    0.92807    0.90707    1.000
    H233     H        0.40803    0.84687    0.78867    1.000
    H234     H        0.46193    0.89647    0.71267    1.000
