data_functionalizedCrystal
_audit_creation_method	'EQeq! by Chris Wilmer'
_symmetry_space_group_name_H-M	'P1'
_symmetry_Int_Tables_number	1
_symmetry_cell_setting	triclinic
loop_
_symmetry_equiv_pos_as_xyz
  x,y,z
_cell_length_a	9.074
_cell_length_b	9.23
_cell_length_c	9.309
_cell_angle_alpha	76.446
_cell_angle_beta	87.343
_cell_angle_gamma	89.388
loop_
_atom_site_label
_atom_site_type_symbol
_atom_site_fract_x
_atom_site_fract_y
_atom_site_fract_z
_atom_site_charge
Mof_P 	P 	0.18744	0.38185	0.90258	1.872
Mof_P 	P 	0.61755	0.3717	0.67634	1.807
Mof_P 	P 	0.64606	0.16819	0.14566	1.47
Mof_Al	Al	0.83934	0.37467	0.92586	6.862
Mof_Al	Al	0.43433	0.1322	0.91193	6.548
Mof_Al	Al	0.61903	0.39099	0.34189	7.235
Mof_F 	F 	0.39419	0.98639	0.08364	-2.141
Mof_O 	O 	0.50263	0.25482	0.7372	-1.812
Mof_O 	O 	0.65206	0.99914	0.18779	-1.492
Mof_O 	O 	0.26206	0.2328	0.92873	-1.716
Mof_O 	O 	0.53321	0.23326	0.03311	-1.756
Mof_O 	O 	0.6179	0.2237	0.28875	-2.062
Mof_O 	O 	0.75284	0.3573	0.76943	-2.055
Mof_O 	O 	0.02464	0.3618	0.8773	-2.038
Mof_O 	O 	0.6754	0.3551	0.5228	-2.059
Mof_O 	O 	0.198	0.4525	0.03565	-2.181
Mof_O 	O 	0.79995	0.2304	0.08065	-1.982
Mof_O 	O 	0.55445	0.5285	0.6619	-2.253
Mof_O 	O 	0.2503	0.4901	0.76322	-2.247
Mof_P 	P 	0.81256	0.61815	0.09742	1.872
Mof_P 	P 	0.38245	0.6283	0.32366	1.807
Mof_P 	P 	0.35394	0.83181	0.85434	1.47
Mof_Al	Al	0.16066	0.62533	0.07414	6.862
Mof_Al	Al	0.56567	0.8678	0.08807	6.548
Mof_Al	Al	0.38097	0.60901	0.65811	7.235
Mof_F 	F 	0.60581	0.01361	0.91636	-2.141
Mof_O 	O 	0.49737	0.74518	0.2628	-1.812
Mof_O 	O 	0.34794	0.00086	0.81221	-1.492
Mof_O 	O 	0.73794	0.7672	0.07127	-1.716
Mof_O 	O 	0.46679	0.76674	0.96689	-1.756
Mof_O 	O 	0.3821	0.7763	0.71125	-2.062
Mof_O 	O 	0.24716	0.6427	0.23057	-2.055
Mof_O 	O 	0.97536	0.6382	0.1227	-2.038
Mof_O 	O 	0.3246	0.6449	0.4772	-2.059
Mof_O 	O 	0.802	0.5475	0.96435	-2.181
Mof_O 	O 	0.20005	0.7696	0.91935	-1.982
Mof_O 	O 	0.44555	0.4715	0.3381	-2.253
Mof_O 	O 	0.7497	0.5099	0.23678	-2.247
_end
