# CIF file generated by openbabel 3.1.0, see https://openbabel.org
data_I
_chemical_name_common 'image0'
_cell_length_a 17.2053
_cell_length_b 11.6462
_cell_length_c 18.2629
_cell_angle_alpha 90
_cell_angle_beta 110.462
_cell_angle_gamma 90
_space_group_name_H-M_alt 'P 1'
_space_group_name_Hall 'P 1'
loop_
    _symmetry_equiv_pos_as_xyz
    x,y,z
loop_
    _atom_site_label
    _atom_site_type_symbol
    _atom_site_fract_x
    _atom_site_fract_y
    _atom_site_fract_z
    _atom_site_occupancy
    Yb1      Yb       0.49724    0.07133    0.10204    1.000
    Yb2      Yb       0.99839    0.41658    0.59569    1.000
    S1       S        0.75521    0.21080    0.39112    1.000
    S2       S        0.26288    0.22461    0.55761    1.000
    S3       S        0.25117    0.29118    0.90790    1.000
    O1       O        0.07640    0.41120    0.72370    1.000
    C1       C        0.62290    0.09260    0.28480    1.000
    O2       O        0.59440    0.08460    0.33830    1.000
    O3       O        0.40630    0.07880    0.55690    1.000
    O4       O        0.91870    0.32570    0.48280    1.000
    C2       C        0.38280    0.14170    0.94320    1.000
    C3       C        0.29650    0.32530    0.44860    1.000
    H1       H        0.32160    0.34530    0.41280    1.000
    C4       C        0.11480    0.38850    0.79320    1.000
    O5       O        0.39740    0.17500    0.01150    1.000
    C5       C        0.82520    0.27730    0.35750    1.000
    C6       C        0.39030    0.15170    0.50460    1.000
    C7       C        0.12690    0.37200    0.52720    1.000
    O6       O        0.42540    0.06790    0.92350    1.000
    C8       C        0.20920    0.24130    0.76180    1.000
    H2       H        0.18160    0.23960    0.70800    1.000
    C9       C        0.89550    0.34650    0.41050    1.000
    O7       O        0.10090    0.43060    0.85200    1.000
    O8       O        0.08050    0.44890    0.48730    1.000
    O9       O        0.42220    0.16550    0.45320    1.000
    O10      O        0.11350    0.32620    0.58360    1.000
    O11      O        0.59200    0.04440    0.21850    1.000
    C10      C        0.70010    0.15950    0.29940    1.000
    C11      C        0.18670    0.30760    0.81210    1.000
    C12      C        0.22800    0.38350    0.45380    1.000
    H3       H        0.20330    0.44630    0.42300    1.000
    C13      C        0.32390    0.23680    0.50010    1.000
    C14      C        0.73570    0.19040    0.24530    1.000
    H4       H        0.71570    0.16810    0.19310    1.000
    C15      C        0.31070    0.19430    0.88080    1.000
    C16      C        0.80590    0.25960    0.27900    1.000
    H5       H        0.83650    0.29050    0.25060    1.000
    C17      C        0.28040    0.17520    0.80210    1.000
    H6       H        0.30430    0.12360    0.77720    1.000
    C18      C        0.20130    0.33760    0.50940    1.000
    O12      O        0.92650    0.41810    0.37770    1.000
    Yb3      Yb       0.50276    0.07133    0.39796    1.000
    Yb4      Yb       0.00161    0.41658    0.90431    1.000
    S4       S        0.24479    0.21080    0.10888    1.000
    S5       S        0.73712    0.22461    0.94239    1.000
    S6       S        0.74883    0.29118    0.59210    1.000
    O13      O        0.92360    0.41120    0.77630    1.000
    C19      C        0.37710    0.09260    0.21520    1.000
    O14      O        0.40560    0.08460    0.16170    1.000
    O15      O        0.59370    0.07880    0.94310    1.000
    O16      O        0.08130    0.32570    0.01720    1.000
    C20      C        0.61720    0.14170    0.55680    1.000
    C21      C        0.70350    0.32530    0.05140    1.000
    H7       H        0.67840    0.34530    0.08720    1.000
    C22      C        0.88520    0.38850    0.70680    1.000
    O17      O        0.60260    0.17500    0.48850    1.000
    C23      C        0.17480    0.27730    0.14250    1.000
    C24      C        0.60970    0.15170    0.99540    1.000
    C25      C        0.87310    0.37200    0.97280    1.000
    O18      O        0.57460    0.06790    0.57650    1.000
    C26      C        0.79080    0.24130    0.73820    1.000
    H8       H        0.81840    0.23960    0.79200    1.000
    C27      C        0.10450    0.34650    0.08950    1.000
    O19      O        0.89910    0.43060    0.64800    1.000
    O20      O        0.91950    0.44890    0.01270    1.000
    O21      O        0.57780    0.16550    0.04680    1.000
    O22      O        0.88650    0.32620    0.91640    1.000
    O23      O        0.40800    0.04440    0.28150    1.000
    C28      C        0.29990    0.15950    0.20060    1.000
    C29      C        0.81330    0.30760    0.68790    1.000
    C30      C        0.77200    0.38350    0.04620    1.000
    H9       H        0.79670    0.44630    0.07700    1.000
    C31      C        0.67610    0.23680    0.99990    1.000
    C32      C        0.26430    0.19040    0.25470    1.000
    H10      H        0.28430    0.16810    0.30690    1.000
    C33      C        0.68930    0.19430    0.61920    1.000
    C34      C        0.19410    0.25960    0.22100    1.000
    H11      H        0.16350    0.29050    0.24940    1.000
    C35      C        0.71960    0.17520    0.69790    1.000
    H12      H        0.69570    0.12360    0.72280    1.000
    C36      C        0.79870    0.33760    0.99060    1.000
    O24      O        0.07350    0.41810    0.12230    1.000
    Yb5      Yb       0.50276    0.92867    0.89796    1.000
    Yb6      Yb       0.00161    0.58342    0.40431    1.000
    S7       S        0.24479    0.78920    0.60888    1.000
    S8       S        0.73712    0.77539    0.44239    1.000
    S9       S        0.74883    0.70882    0.09210    1.000
    O25      O        0.92360    0.58880    0.27630    1.000
    C37      C        0.37710    0.90740    0.71520    1.000
    O26      O        0.40560    0.91540    0.66170    1.000
    O27      O        0.59370    0.92120    0.44310    1.000
    O28      O        0.08130    0.67430    0.51720    1.000
    C38      C        0.61720    0.85830    0.05680    1.000
    C39      C        0.70350    0.67470    0.55140    1.000
    H13      H        0.67840    0.65470    0.58720    1.000
    C40      C        0.88520    0.61150    0.20680    1.000
    O29      O        0.60260    0.82500    0.98850    1.000
    C41      C        0.17480    0.72270    0.64250    1.000
    C42      C        0.60970    0.84830    0.49540    1.000
    C43      C        0.87310    0.62800    0.47280    1.000
    O30      O        0.57460    0.93210    0.07650    1.000
    C44      C        0.79080    0.75870    0.23820    1.000
    H14      H        0.81840    0.76040    0.29200    1.000
    C45      C        0.10450    0.65350    0.58950    1.000
    O31      O        0.89910    0.56940    0.14800    1.000
    O32      O        0.91950    0.55110    0.51270    1.000
    O33      O        0.57780    0.83450    0.54680    1.000
    O34      O        0.88650    0.67380    0.41640    1.000
    O35      O        0.40800    0.95560    0.78150    1.000
    C46      C        0.29990    0.84050    0.70060    1.000
    C47      C        0.81330    0.69240    0.18790    1.000
    C48      C        0.77200    0.61650    0.54620    1.000
    H15      H        0.79670    0.55370    0.57700    1.000
    C49      C        0.67610    0.76320    0.49990    1.000
    C50      C        0.26430    0.80960    0.75470    1.000
    H16      H        0.28430    0.83190    0.80690    1.000
    C51      C        0.68930    0.80570    0.11920    1.000
    C52      C        0.19410    0.74040    0.72100    1.000
    H17      H        0.16350    0.70950    0.74940    1.000
    C53      C        0.71960    0.82480    0.19790    1.000
    H18      H        0.69570    0.87640    0.22280    1.000
    C54      C        0.79870    0.66240    0.49060    1.000
    O36      O        0.07350    0.58190    0.62230    1.000
    Yb7      Yb       0.49724    0.92867    0.60204    1.000
    Yb8      Yb       0.99839    0.58342    0.09569    1.000
    S10      S        0.75521    0.78920    0.89112    1.000
    S11      S        0.26288    0.77539    0.05761    1.000
    S12      S        0.25117    0.70882    0.40790    1.000
    O37      O        0.07640    0.58880    0.22370    1.000
    C55      C        0.62290    0.90740    0.78480    1.000
    O38      O        0.59440    0.91540    0.83830    1.000
    O39      O        0.40630    0.92120    0.05690    1.000
    O40      O        0.91870    0.67430    0.98280    1.000
    C56      C        0.38280    0.85830    0.44320    1.000
    C57      C        0.29650    0.67470    0.94860    1.000
    H19      H        0.32160    0.65470    0.91280    1.000
    C58      C        0.11480    0.61150    0.29320    1.000
    O41      O        0.39740    0.82500    0.51150    1.000
    C59      C        0.82520    0.72270    0.85750    1.000
    C60      C        0.39030    0.84830    0.00460    1.000
    C61      C        0.12690    0.62800    0.02720    1.000
    O42      O        0.42540    0.93210    0.42350    1.000
    C62      C        0.20920    0.75870    0.26180    1.000
    H20      H        0.18160    0.76040    0.20800    1.000
    C63      C        0.89550    0.65350    0.91050    1.000
    O43      O        0.10090    0.56940    0.35200    1.000
    O44      O        0.08050    0.55110    0.98730    1.000
    O45      O        0.42220    0.83450    0.95320    1.000
    O46      O        0.11350    0.67380    0.08360    1.000
    O47      O        0.59200    0.95560    0.71850    1.000
    C64      C        0.70010    0.84050    0.79940    1.000
    C65      C        0.18670    0.69240    0.31210    1.000
    C66      C        0.22800    0.61650    0.95380    1.000
    H21      H        0.20330    0.55370    0.92300    1.000
    C67      C        0.32390    0.76320    0.00010    1.000
    C68      C        0.73570    0.80960    0.74530    1.000
    H22      H        0.71570    0.83190    0.69310    1.000
    C69      C        0.31070    0.80570    0.38080    1.000
    C70      C        0.80590    0.74040    0.77900    1.000
    H23      H        0.83650    0.70950    0.75060    1.000
    C71      C        0.28040    0.82480    0.30210    1.000
    H24      H        0.30430    0.87640    0.27720    1.000
    C72      C        0.20130    0.66240    0.00940    1.000
    O48      O        0.92650    0.58190    0.87770    1.000
