data_functionalizedCrystal
_audit_creation_method	'EQeq! by Chris Wilmer'
_symmetry_space_group_name_H-M	'P1'
_symmetry_Int_Tables_number	1
_symmetry_cell_setting	triclinic
loop_
_symmetry_equiv_pos_as_xyz
  x,y,z
_cell_length_a	10.2293
_cell_length_b	34.4803
_cell_length_c	10.7355
_cell_angle_alpha	90
_cell_angle_beta	109.985
_cell_angle_gamma	90
loop_
_atom_site_label
_atom_site_type_symbol
_atom_site_fract_x
_atom_site_fract_y
_atom_site_fract_z
_atom_site_charge
Mof_O 	O 	0.2471	0.04104	0.8369	-0.445
Mof_C 	C 	0.3587	0.0312	0.8173	0.13
Mof_H 	H 	0.4111	0.0489	0.7856	-0.036
Mof_C 	C 	0.3277	0.9626	0.8998	1.338
Mof_H 	H 	0.2467	0.9748	0.9127	-0.475
Mof_H 	H 	0.3907	0.9529	0.9849	-0.24
Mof_H 	H 	0.2968	0.941	0.8374	-1.699
Mof_C 	C 	0.5296	0.9784	0.8277	-0.497
Mof_H 	H 	0.5723	0.0004	0.7984	0.178
Mof_H 	H 	0.5083	0.9579	0.7604	0.127
Mof_H 	H 	0.5942	0.9684	0.9116	0.208
Mof_N 	N 	0.4004	0.9912	0.8466	0.32
Mof_C 	C 	0.5705	0.11748	0.5246	0.191
Mof_C 	C 	0.0446	0.1325	0.4472	0.184
Mof_C 	C 	0.0215	0.17776	0.8453	0.378
Mof_C 	C 	0.0421	0.21492	0.9222	-0.082
Mof_C 	C 	0.1095	0.21496	0.0602	-0.01
Mof_C 	C 	0.1325	0.17782	0.1383	0.295
Mof_C 	C 	0.9033	0.06999	0.8426	0.346
Mof_C 	C 	0.9606	0.03481	0.9279	-0.046
Mof_C 	C 	0.89	8e-05	0.8823	0.039
Mof_H 	H 	0.8145	0.0001	0.8007	0.019
Mof_C 	C 	0.9264	0.96543	0.9523	-0.079
Mof_C 	C 	0.8416	0.93005	0.8925	0.393
Mof_N 	N 	0.6986	0.11731	0.5184	-0.272
Mof_N 	N 	0.6794	0.11653	0.3866	-0.076
Mof_N 	N 	0.5479	0.11611	0.3191	-0.077
Mof_N 	N 	0.4745	0.11689	0.4041	-0.258
Mof_N 	N 	0.546	0.12172	0.6402	-0.288
Mof_H 	H 	0.6211	0.1129	0.7079	0.13
Mof_H 	H 	0.4699	0.1074	0.6359	0.112
Mof_N 	N 	0.0303	0.12419	0.5648	-0.254
Mof_N 	N 	0.1562	0.11135	0.6432	-0.174
Mof_N 	N 	0.2426	0.11134	0.579	-0.082
Mof_N 	N 	0.1763	0.12455	0.4543	-0.249
Mof_N 	N 	0.9437	0.14633	0.3407	-0.293
Mof_H 	H 	0.8662	0.1315	0.3252	0.139
Mof_H 	H 	0.9724	0.1452	0.2694	0.146
Mof_O 	O 	0.1235	0.15594	0.867	-0.457
Mof_O 	O 	0.9016	0.17244	0.7576	-0.465
Mof_O 	O 	0.0317	0.1552	0.1202	-0.292
Mof_O 	O 	0.2541	0.17227	0.2234	-0.439
Mof_O 	O 	0.9764	0.08396	0.7772	-0.571
Mof_O 	O 	0.7856	0.08145	0.8311	-0.299
Mof_O 	O 	0.8119	0.92641	0.7688	-0.488
Mof_O 	O 	0.8007	0.90712	0.9607	-0.48
Mof_Zn	Zn	0.88207	0.12613	0.64898	1.205
Mof_Zn	Zn	0.19428	0.09794	0.84884	1.208
Mof_Zn	Zn	0.26865	0.12279	0.31482	1.21
Mof_O 	O 	0.949	0.9983	0.506	0.231
Mof_C 	C 	0.1556	0.0208	0.7502	0.29
Mof_H 	H 	0.078	0.0325	0.6849	-0.059
Mof_C 	C 	0.2971	0.9602	0.8519	1.774
Mof_H 	H 	0.3689	0.9796	0.8929	-1.251
Mof_H 	H 	0.3341	0.9407	0.8062	0.602
Mof_H 	H 	0.2691	0.9475	0.9206	-0.327
Mof_C 	C 	0.075	0.9539	0.6599	0.058
Mof_H 	H 	0.0564	0.9311	0.7057	0.002
Mof_H 	H 	0.113	0.9456	0.5919	0.163
Mof_H 	H 	0.9882	0.9682	0.618	0.862
Mof_N 	N 	0.1762	0.9792	0.7563	-0.324
Mof_O 	O 	0.015	0.9718	0.576	-1.236
Mof_O 	O 	0.7529	0.54104	0.1631	-0.447
Mof_C 	C 	0.6413	0.5312	0.1827	0.13
Mof_H 	H 	0.5889	0.5489	0.2144	-0.037
Mof_C 	C 	0.6723	0.4626	0.1002	1.336
Mof_H 	H 	0.7533	0.4748	0.0873	-0.475
Mof_H 	H 	0.6093	0.4529	0.0151	-0.24
Mof_H 	H 	0.7032	0.441	0.1626	-1.698
Mof_C 	C 	0.4704	0.4784	0.1723	-0.497
Mof_H 	H 	0.4277	0.5004	0.2016	0.179
Mof_H 	H 	0.4917	0.4579	0.2396	0.127
Mof_H 	H 	0.4058	0.4684	0.0884	0.208
Mof_N 	N 	0.5996	0.4912	0.1534	0.319
Mof_C 	C 	0.4295	0.61748	0.4754	0.191
Mof_C 	C 	0.9554	0.6325	0.5528	0.185
Mof_C 	C 	0.9785	0.67776	0.1547	0.378
Mof_C 	C 	0.9579	0.71492	0.0778	-0.082
Mof_C 	C 	0.8905	0.71496	0.9398	-0.01
Mof_C 	C 	0.8675	0.67782	0.8617	0.295
Mof_C 	C 	0.0967	0.56999	0.1574	0.346
Mof_C 	C 	0.0394	0.53481	0.0721	-0.046
Mof_C 	C 	0.11	0.50008	0.1177	0.038
Mof_H 	H 	0.1855	0.5001	0.1993	0.019
Mof_C 	C 	0.0736	0.46543	0.0477	-0.079
Mof_C 	C 	0.1584	0.43005	0.1075	0.393
Mof_N 	N 	0.3014	0.61731	0.4816	-0.272
Mof_N 	N 	0.3206	0.61653	0.6134	-0.077
Mof_N 	N 	0.4521	0.61611	0.6809	-0.078
Mof_N 	N 	0.5255	0.61689	0.5959	-0.258
Mof_N 	N 	0.454	0.62172	0.3598	-0.288
Mof_H 	H 	0.3789	0.6129	0.2921	0.13
Mof_H 	H 	0.5301	0.6074	0.3641	0.112
Mof_N 	N 	0.9697	0.62419	0.4352	-0.254
Mof_N 	N 	0.8438	0.61135	0.3568	-0.174
Mof_N 	N 	0.7574	0.61134	0.421	-0.082
Mof_N 	N 	0.8237	0.62455	0.5457	-0.249
Mof_N 	N 	0.0563	0.64633	0.6593	-0.293
Mof_H 	H 	0.1338	0.6315	0.6748	0.139
Mof_H 	H 	0.0276	0.6452	0.7306	0.146
Mof_O 	O 	0.8765	0.65594	0.133	-0.457
Mof_O 	O 	0.0984	0.67244	0.2424	-0.465
Mof_O 	O 	0.9683	0.6552	0.8798	-0.292
Mof_O 	O 	0.7459	0.67227	0.7766	-0.439
Mof_O 	O 	0.0236	0.58396	0.2228	-0.571
Mof_O 	O 	0.2144	0.58145	0.1689	-0.299
Mof_O 	O 	0.1881	0.42641	0.2312	-0.488
Mof_O 	O 	0.1993	0.40712	0.0393	-0.48
Mof_Zn	Zn	0.11793	0.62613	0.35102	1.205
Mof_Zn	Zn	0.80572	0.59794	0.15116	1.208
Mof_Zn	Zn	0.73135	0.62279	0.68518	1.21
Mof_O 	O 	0.051	0.4983	0.494	0.234
Mof_C 	C 	0.8444	0.5208	0.2498	0.291
Mof_H 	H 	0.922	0.5325	0.3151	-0.059
Mof_C 	C 	0.7029	0.4602	0.1481	1.773
Mof_H 	H 	0.6311	0.4796	0.1071	-1.25
Mof_H 	H 	0.6659	0.4407	0.1938	0.601
Mof_H 	H 	0.7309	0.4475	0.0794	-0.327
Mof_C 	C 	0.925	0.4539	0.3401	0.057
Mof_H 	H 	0.9436	0.4311	0.2943	0.001
Mof_H 	H 	0.887	0.4456	0.4081	0.164
Mof_H 	H 	0.0118	0.4682	0.382	0.87
Mof_N 	N 	0.8238	0.4792	0.2437	-0.324
Mof_O 	O 	0.985	0.4718	0.424	-1.246
Mof_O 	O 	0.7529	0.95896	0.1631	-0.446
Mof_C 	C 	0.6413	0.9688	0.1827	0.129
Mof_H 	H 	0.5889	0.9511	0.2144	-0.037
Mof_C 	C 	0.6723	0.0374	0.1002	1.337
Mof_H 	H 	0.7533	0.0252	0.0873	-0.475
Mof_H 	H 	0.6093	0.0471	0.0151	-0.24
Mof_H 	H 	0.7032	0.059	0.1626	-1.699
Mof_C 	C 	0.4704	0.0216	0.1723	-0.497
Mof_H 	H 	0.4277	0.9996	0.2016	0.178
Mof_H 	H 	0.4917	0.0421	0.2396	0.127
Mof_H 	H 	0.4058	0.0316	0.0884	0.208
Mof_N 	N 	0.5996	0.0088	0.1534	0.32
Mof_C 	C 	0.4295	0.88252	0.4754	0.191
Mof_C 	C 	0.9554	0.8675	0.5528	0.184
Mof_C 	C 	0.9785	0.82224	0.1547	0.378
Mof_C 	C 	0.9579	0.78508	0.0778	-0.082
Mof_C 	C 	0.8905	0.78504	0.9398	-0.01
Mof_C 	C 	0.8675	0.82218	0.8617	0.295
Mof_C 	C 	0.0967	0.93001	0.1574	0.346
Mof_C 	C 	0.0394	0.96519	0.0721	-0.046
Mof_C 	C 	0.11	0.99992	0.1177	0.039
Mof_H 	H 	0.1855	0.9999	0.1993	0.019
Mof_C 	C 	0.0736	0.03457	0.0477	-0.079
Mof_C 	C 	0.1584	0.06995	0.1075	0.393
Mof_N 	N 	0.3014	0.88269	0.4816	-0.272
Mof_N 	N 	0.3206	0.88347	0.6134	-0.076
Mof_N 	N 	0.4521	0.88389	0.6809	-0.077
Mof_N 	N 	0.5255	0.88311	0.5959	-0.258
Mof_N 	N 	0.454	0.87828	0.3598	-0.288
Mof_H 	H 	0.3789	0.8871	0.2921	0.13
Mof_H 	H 	0.5301	0.8926	0.3641	0.112
Mof_N 	N 	0.9697	0.87581	0.4352	-0.254
Mof_N 	N 	0.8438	0.88865	0.3568	-0.174
Mof_N 	N 	0.7574	0.88866	0.421	-0.082
Mof_N 	N 	0.8237	0.87545	0.5457	-0.249
Mof_N 	N 	0.0563	0.85367	0.6593	-0.293
Mof_H 	H 	0.1338	0.8685	0.6748	0.139
Mof_H 	H 	0.0276	0.8548	0.7306	0.146
Mof_O 	O 	0.8765	0.84406	0.133	-0.457
Mof_O 	O 	0.0984	0.82756	0.2424	-0.465
Mof_O 	O 	0.9683	0.8448	0.8798	-0.292
Mof_O 	O 	0.7459	0.82773	0.7766	-0.439
Mof_O 	O 	0.0236	0.91604	0.2228	-0.571
Mof_O 	O 	0.2144	0.91855	0.1689	-0.299
Mof_O 	O 	0.1881	0.07359	0.2312	-0.488
Mof_O 	O 	0.1993	0.09288	0.0393	-0.48
Mof_Zn	Zn	0.11793	0.87387	0.35102	1.205
Mof_Zn	Zn	0.80572	0.90206	0.15116	1.208
Mof_Zn	Zn	0.73135	0.87721	0.68518	1.21
Mof_O 	O 	0.051	0.0017	0.494	0.231
Mof_C 	C 	0.8444	0.9792	0.2498	0.29
Mof_H 	H 	0.922	0.9675	0.3151	-0.059
Mof_C 	C 	0.7029	0.0398	0.1481	1.774
Mof_H 	H 	0.6311	0.0204	0.1071	-1.251
Mof_H 	H 	0.6659	0.0593	0.1938	0.602
Mof_H 	H 	0.7309	0.0525	0.0794	-0.327
Mof_C 	C 	0.925	0.0461	0.3401	0.058
Mof_H 	H 	0.9436	0.0689	0.2943	0.002
Mof_H 	H 	0.887	0.0544	0.4081	0.163
Mof_H 	H 	0.0118	0.0318	0.382	0.862
Mof_N 	N 	0.8238	0.0208	0.2437	-0.324
Mof_O 	O 	0.985	0.0282	0.424	-1.236
Mof_O 	O 	0.2471	0.45896	0.8369	-0.447
Mof_C 	C 	0.3587	0.4688	0.8173	0.13
Mof_H 	H 	0.4111	0.4511	0.7856	-0.037
Mof_C 	C 	0.3277	0.5374	0.8998	1.336
Mof_H 	H 	0.2467	0.5252	0.9127	-0.475
Mof_H 	H 	0.3907	0.5471	0.9849	-0.24
Mof_H 	H 	0.2968	0.559	0.8374	-1.698
Mof_C 	C 	0.5296	0.5216	0.8277	-0.497
Mof_H 	H 	0.5723	0.4996	0.7984	0.179
Mof_H 	H 	0.5083	0.5421	0.7604	0.127
Mof_H 	H 	0.5942	0.5316	0.9116	0.208
Mof_N 	N 	0.4004	0.5088	0.8466	0.319
Mof_C 	C 	0.5705	0.38252	0.5246	0.191
Mof_C 	C 	0.0446	0.3675	0.4472	0.185
Mof_C 	C 	0.0215	0.32224	0.8453	0.378
Mof_C 	C 	0.0421	0.28508	0.9222	-0.082
Mof_C 	C 	0.1095	0.28504	0.0602	-0.01
Mof_C 	C 	0.1325	0.32218	0.1383	0.295
Mof_C 	C 	0.9033	0.43001	0.8426	0.346
Mof_C 	C 	0.9606	0.46519	0.9279	-0.046
Mof_C 	C 	0.89	0.49992	0.8823	0.038
Mof_H 	H 	0.8145	0.4999	0.8007	0.019
Mof_C 	C 	0.9264	0.53457	0.9523	-0.079
Mof_C 	C 	0.8416	0.56995	0.8925	0.393
Mof_N 	N 	0.6986	0.38269	0.5184	-0.272
Mof_N 	N 	0.6794	0.38347	0.3866	-0.077
Mof_N 	N 	0.5479	0.38389	0.3191	-0.078
Mof_N 	N 	0.4745	0.38311	0.4041	-0.258
Mof_N 	N 	0.546	0.37828	0.6402	-0.288
Mof_H 	H 	0.6211	0.3871	0.7079	0.13
Mof_H 	H 	0.4699	0.3926	0.6359	0.112
Mof_N 	N 	0.0303	0.37581	0.5648	-0.254
Mof_N 	N 	0.1562	0.38865	0.6432	-0.174
Mof_N 	N 	0.2426	0.38866	0.579	-0.082
Mof_N 	N 	0.1763	0.37545	0.4543	-0.249
Mof_N 	N 	0.9437	0.35367	0.3407	-0.293
Mof_H 	H 	0.8662	0.3685	0.3252	0.139
Mof_H 	H 	0.9724	0.3548	0.2694	0.146
Mof_O 	O 	0.1235	0.34406	0.867	-0.457
Mof_O 	O 	0.9016	0.32756	0.7576	-0.465
Mof_O 	O 	0.0317	0.3448	0.1202	-0.292
Mof_O 	O 	0.2541	0.32773	0.2234	-0.439
Mof_O 	O 	0.9764	0.41604	0.7772	-0.571
Mof_O 	O 	0.7856	0.41855	0.8311	-0.299
Mof_O 	O 	0.8119	0.57359	0.7688	-0.488
Mof_O 	O 	0.8007	0.59288	0.9607	-0.48
Mof_Zn	Zn	0.88207	0.37387	0.64898	1.205
Mof_Zn	Zn	0.19428	0.40206	0.84884	1.208
Mof_Zn	Zn	0.26865	0.37721	0.31482	1.21
Mof_O 	O 	0.949	0.5017	0.506	0.234
Mof_C 	C 	0.1556	0.4792	0.7502	0.291
Mof_H 	H 	0.078	0.4675	0.6849	-0.059
Mof_C 	C 	0.2971	0.5398	0.8519	1.773
Mof_H 	H 	0.3689	0.5204	0.8929	-1.25
Mof_H 	H 	0.3341	0.5593	0.8062	0.601
Mof_H 	H 	0.2691	0.5525	0.9206	-0.327
Mof_C 	C 	0.075	0.5461	0.6599	0.057
Mof_H 	H 	0.0564	0.5689	0.7057	0.001
Mof_H 	H 	0.113	0.5544	0.5919	0.164
Mof_H 	H 	0.9882	0.5318	0.618	0.87
Mof_N 	N 	0.1762	0.5208	0.7563	-0.324
Mof_O 	O 	0.015	0.5282	0.576	-1.246
Mof_C 	C 	0.0071	0.25	0.8549	0.02
Mof_H 	H 	0.9588	0.25	0.762	0.043
Mof_C 	C 	0.1433	0.25	0.1282	-0.028
Mof_H 	H 	0.1898	0.25	0.2215	0.057
Mof_C 	C 	0.9929	0.75	0.1451	0.02
Mof_H 	H 	0.0412	0.75	0.238	0.043
Mof_C 	C 	0.8567	0.75	0.8718	-0.028
Mof_H 	H 	0.8102	0.75	0.7785	0.057
_end
