data_functionalizedCrystal
_audit_creation_method	'EQeq! by Chris Wilmer'
_symmetry_space_group_name_H-M	'P1'
_symmetry_Int_Tables_number	1
_symmetry_cell_setting	triclinic
loop_
_symmetry_equiv_pos_as_xyz
  x,y,z
_cell_length_a	31.95
_cell_length_b	8.3596
_cell_length_c	15.9195
_cell_angle_alpha	90
_cell_angle_beta	96.645
_cell_angle_gamma	90
loop_
_atom_site_label
_atom_site_type_symbol
_atom_site_fract_x
_atom_site_fract_y
_atom_site_fract_z
_atom_site_charge
Mof_Co	Co	0.12823	0.71906	0.05946	1.184
Mof_Co	Co	0.37163	0.20807	0.91045	1.18
Mof_Co	Co	0.2495	0.50505	0.10884	1.187
Mof_Co	Co	0.24647	0.48626	0.36672	1.182
Mof_Co	Co	0.50774	0.26192	0.98854	1.171
Mof_Co	Co	0.99364	0.75879	0.0136	1.178
Mof_P 	P 	0.16933	0.468	0.20545	0.521
Mof_P 	P 	0.21904	0.7929	0.99027	0.502
Mof_P 	P 	0.0638	0.9827	0.10975	0.554
Mof_P 	P 	0.2817	0.3449	0.94157	0.547
Mof_P 	P 	0.43521	0.0371	0.05996	0.567
Mof_P 	P 	0.05636	0.5548	0.91935	0.519
Mof_P 	P 	0.44275	0.481	0.87112	0.528
Mof_P 	P 	0.3255	0.5299	0.27685	0.52
Mof_O 	O 	0.1714	0.7691	0.9881	-0.412
Mof_O 	O 	0.1489	0.6243	0.1686	-0.403
Mof_O 	O 	0.08539	0.5772	0.0025	-0.438
Mof_O 	O 	0.1092	0.929	0.104	-0.382
Mof_O 	O 	0.4052	0.0473	0.9793	-0.431
Mof_O 	O 	0.32448	0.2701	0.9721	-0.426
Mof_O 	O 	0.39996	0.4114	0.8853	-0.407
Mof_O 	O 	0.3533	0.3824	0.2981	-0.4
Mof_O 	O 	0.2952	0.4914	0.1989	-0.437
Mof_O 	O 	0.2548	0.3627	0.0133	-0.393
Mof_O 	O 	0.19903	0.3985	0.144	-0.406
Mof_O 	O 	0.2436	0.7257	0.0708	-0.412
Mof_O 	O 	0.258	0.2485	0.8683	-0.404
Mof_O 	O 	0.302	0.5786	0.3513	-0.415
Mof_O 	O 	0.1945	0.5107	0.2894	-0.407
Mof_O 	O 	0.229	0.9725	0.9819	-0.358
Mof_O 	O 	0.4781	0.3549	0.8859	-0.435
Mof_O 	O 	0.4704	0.164	0.0638	-0.447
Mof_O 	O 	0.4538	0.8686	0.0723	-0.399
Mof_O 	O 	0.4517	0.6247	0.931	-0.413
Mof_O 	O 	0.019	0.6732	0.9171	-0.412
Mof_O 	O 	0.0511	0.1074	0.042	-0.423
Mof_O 	O 	0.0344	0.8373	0.1052	-0.445
Mof_O 	O 	0.0387	0.3816	0.917	-0.38
Mof_O 	O 	0.1357	0.3424	0.2145	-0.187
Mof_O 	O 	0.2325	0.7135	0.9096	-0.251
Mof_O 	O 	0.0615	0.0692	0.1967	-0.421
Mof_H 	H 	0.0681	0.0062	0.2355	0.316
Mof_O 	O 	0.2893	0.5151	0.9037	-0.423
Mof_H 	H 	0.3039	0.5062	0.8648	0.271
Mof_O 	O 	0.4095	0.07	0.1366	-0.434
Mof_H 	H 	0.4254	0.0649	0.1809	0.313
Mof_O 	O 	0.0795	0.5774	0.8421	-0.232
Mof_O 	O 	0.442	0.5409	0.7795	-0.219
Mof_O 	O 	0.354	0.6748	0.2602	-0.19
Mof_Co	Co	0.87177	0.21906	0.44054	1.186
Mof_Co	Co	0.62837	0.70807	0.58955	1.181
Mof_Co	Co	0.7505	0.00505	0.39116	1.19
Mof_Co	Co	0.75353	0.98626	0.13328	1.18
Mof_Co	Co	0.49226	0.76192	0.51146	1.172
Mof_Co	Co	0.00636	0.25879	0.4864	1.179
Mof_P 	P 	0.83067	0.968	0.29455	0.515
Mof_P 	P 	0.78096	0.2929	0.50973	0.5
Mof_P 	P 	0.9362	0.4827	0.39025	0.558
Mof_P 	P 	0.7183	0.8449	0.55843	0.547
Mof_P 	P 	0.56479	0.5371	0.44004	0.562
Mof_P 	P 	0.94364	0.0548	0.58065	0.519
Mof_P 	P 	0.55725	0.981	0.62888	0.529
Mof_P 	P 	0.6745	0.0299	0.22315	0.526
Mof_O 	O 	0.8286	0.2691	0.5119	-0.413
Mof_O 	O 	0.8511	0.1243	0.3314	-0.4
Mof_O 	O 	0.91461	0.0772	0.4975	-0.438
Mof_O 	O 	0.8908	0.429	0.396	-0.382
Mof_O 	O 	0.5948	0.5473	0.5207	-0.427
Mof_O 	O 	0.67552	0.7701	0.5279	-0.425
Mof_O 	O 	0.60004	0.9114	0.6147	-0.407
Mof_O 	O 	0.6467	0.8824	0.2019	-0.403
Mof_O 	O 	0.7048	0.9914	0.3011	-0.441
Mof_O 	O 	0.7452	0.8627	0.4867	-0.396
Mof_O 	O 	0.80097	0.8985	0.356	-0.406
Mof_O 	O 	0.7564	0.2257	0.4292	-0.41
Mof_O 	O 	0.742	0.7485	0.6317	-0.402
Mof_O 	O 	0.698	0.0786	0.1487	-0.413
Mof_O 	O 	0.8055	0.0107	0.2106	-0.402
Mof_O 	O 	0.771	0.4725	0.5181	-0.362
Mof_O 	O 	0.5219	0.8549	0.6141	-0.435
Mof_O 	O 	0.5296	0.664	0.4362	-0.448
Mof_O 	O 	0.5462	0.3686	0.4277	-0.396
Mof_O 	O 	0.5483	0.1247	0.569	-0.414
Mof_O 	O 	0.981	0.1732	0.5829	-0.413
Mof_O 	O 	0.9489	0.6074	0.458	-0.426
Mof_O 	O 	0.9656	0.3373	0.3948	-0.445
Mof_O 	O 	0.9613	0.8816	0.583	-0.379
Mof_O 	O 	0.8643	0.8424	0.2855	-0.188
Mof_O 	O 	0.7675	0.2135	0.5904	-0.251
Mof_O 	O 	0.9385	0.5692	0.3033	-0.423
Mof_H 	H 	0.9319	0.5062	0.2645	0.316
Mof_O 	O 	0.7107	0.0151	0.5963	-0.422
Mof_H 	H 	0.6961	0.0062	0.6352	0.271
Mof_O 	O 	0.5905	0.57	0.3634	-0.434
Mof_H 	H 	0.5746	0.5649	0.3191	0.312
Mof_O 	O 	0.9205	0.0774	0.6579	-0.232
Mof_O 	O 	0.558	0.0409	0.7205	-0.22
Mof_O 	O 	0.646	0.1748	0.2398	-0.19
Mof_Co	Co	0.87177	0.28094	0.94054	1.185
Mof_Co	Co	0.62837	0.79193	0.08955	1.181
Mof_Co	Co	0.7505	0.49495	0.89116	1.188
Mof_Co	Co	0.75353	0.51374	0.63328	1.183
Mof_Co	Co	0.49226	0.73808	0.01146	1.171
Mof_Co	Co	0.00636	0.24121	0.9864	1.178
Mof_P 	P 	0.83067	0.532	0.79455	0.521
Mof_P 	P 	0.78096	0.2071	0.00973	0.502
Mof_P 	P 	0.9362	0.0173	0.89025	0.554
Mof_P 	P 	0.7183	0.6551	0.05843	0.547
Mof_P 	P 	0.56479	0.9629	0.94004	0.567
Mof_P 	P 	0.94364	0.4452	0.08065	0.519
Mof_P 	P 	0.55725	0.519	0.12888	0.528
Mof_P 	P 	0.6745	0.4701	0.72315	0.52
Mof_O 	O 	0.8286	0.2309	0.0119	-0.412
Mof_O 	O 	0.8511	0.3757	0.8314	-0.403
Mof_O 	O 	0.91461	0.4228	0.9975	-0.438
Mof_O 	O 	0.8908	0.071	0.896	-0.382
Mof_O 	O 	0.5948	0.9527	0.0207	-0.431
Mof_O 	O 	0.67552	0.7299	0.0279	-0.426
Mof_O 	O 	0.60004	0.5886	0.1147	-0.407
Mof_O 	O 	0.6467	0.6176	0.7019	-0.4
Mof_O 	O 	0.7048	0.5086	0.8011	-0.437
Mof_O 	O 	0.7452	0.6373	0.9867	-0.393
Mof_O 	O 	0.80097	0.6015	0.856	-0.406
Mof_O 	O 	0.7564	0.2743	0.9292	-0.412
Mof_O 	O 	0.742	0.7515	0.1317	-0.404
Mof_O 	O 	0.698	0.4214	0.6487	-0.415
Mof_O 	O 	0.8055	0.4893	0.7106	-0.407
Mof_O 	O 	0.771	0.0275	0.0181	-0.358
Mof_O 	O 	0.5219	0.6451	0.1141	-0.435
Mof_O 	O 	0.5296	0.836	0.9362	-0.447
Mof_O 	O 	0.5462	0.1314	0.9277	-0.399
Mof_O 	O 	0.5483	0.3753	0.069	-0.413
Mof_O 	O 	0.981	0.3268	0.0829	-0.412
Mof_O 	O 	0.9489	0.8926	0.958	-0.423
Mof_O 	O 	0.9656	0.1627	0.8948	-0.445
Mof_O 	O 	0.9613	0.6184	0.083	-0.38
Mof_O 	O 	0.8643	0.6576	0.7855	-0.187
Mof_O 	O 	0.7675	0.2865	0.0904	-0.251
Mof_O 	O 	0.9385	0.9308	0.8033	-0.421
Mof_H 	H 	0.9319	0.9938	0.7645	0.316
Mof_O 	O 	0.7107	0.4849	0.0963	-0.423
Mof_H 	H 	0.6961	0.4938	0.1352	0.271
Mof_O 	O 	0.5905	0.93	0.8634	-0.434
Mof_H 	H 	0.5746	0.9351	0.8191	0.313
Mof_O 	O 	0.9205	0.4226	0.1579	-0.232
Mof_O 	O 	0.558	0.4591	0.2205	-0.219
Mof_O 	O 	0.646	0.3252	0.7398	-0.19
Mof_Co	Co	0.12823	0.78094	0.55946	1.186
Mof_Co	Co	0.37163	0.29193	0.41045	1.181
Mof_Co	Co	0.2495	0.99495	0.60884	1.19
Mof_Co	Co	0.24647	0.01374	0.86672	1.18
Mof_Co	Co	0.50774	0.23808	0.48854	1.172
Mof_Co	Co	0.99364	0.74121	0.5136	1.179
Mof_P 	P 	0.16933	0.032	0.70545	0.515
Mof_P 	P 	0.21904	0.7071	0.49027	0.5
Mof_P 	P 	0.0638	0.5173	0.60975	0.558
Mof_P 	P 	0.2817	0.1551	0.44157	0.547
Mof_P 	P 	0.43521	0.4629	0.55996	0.562
Mof_P 	P 	0.05636	0.9452	0.41935	0.519
Mof_P 	P 	0.44275	0.019	0.37112	0.529
Mof_P 	P 	0.3255	0.9701	0.77685	0.526
Mof_O 	O 	0.1714	0.7309	0.4881	-0.413
Mof_O 	O 	0.1489	0.8757	0.6686	-0.4
Mof_O 	O 	0.08539	0.9228	0.5025	-0.438
Mof_O 	O 	0.1092	0.571	0.604	-0.382
Mof_O 	O 	0.4052	0.4527	0.4793	-0.427
Mof_O 	O 	0.32448	0.2299	0.4721	-0.425
Mof_O 	O 	0.39996	0.0886	0.3853	-0.407
Mof_O 	O 	0.3533	0.1176	0.7981	-0.403
Mof_O 	O 	0.2952	0.0086	0.6989	-0.441
Mof_O 	O 	0.2548	0.1373	0.5133	-0.396
Mof_O 	O 	0.19903	0.1015	0.644	-0.406
Mof_O 	O 	0.2436	0.7743	0.5708	-0.41
Mof_O 	O 	0.258	0.2515	0.3683	-0.402
Mof_O 	O 	0.302	0.9214	0.8513	-0.413
Mof_O 	O 	0.1945	0.9893	0.7894	-0.402
Mof_O 	O 	0.229	0.5275	0.4819	-0.362
Mof_O 	O 	0.4781	0.1451	0.3859	-0.435
Mof_O 	O 	0.4704	0.336	0.5638	-0.448
Mof_O 	O 	0.4538	0.6314	0.5723	-0.396
Mof_O 	O 	0.4517	0.8753	0.431	-0.414
Mof_O 	O 	0.019	0.8268	0.4171	-0.413
Mof_O 	O 	0.0511	0.3926	0.542	-0.426
Mof_O 	O 	0.0344	0.6627	0.6052	-0.445
Mof_O 	O 	0.0387	0.1184	0.417	-0.379
Mof_O 	O 	0.1357	0.1576	0.7145	-0.188
Mof_O 	O 	0.2325	0.7865	0.4096	-0.251
Mof_O 	O 	0.0615	0.4308	0.6967	-0.423
Mof_H 	H 	0.0681	0.4938	0.7355	0.316
Mof_O 	O 	0.2893	0.9849	0.4037	-0.422
Mof_H 	H 	0.3039	0.9938	0.3648	0.271
Mof_O 	O 	0.4095	0.43	0.6366	-0.434
Mof_H 	H 	0.4254	0.4351	0.6809	0.312
Mof_O 	O 	0.0795	0.9226	0.3421	-0.232
Mof_O 	O 	0.442	0.9591	0.2795	-0.22
Mof_O 	O 	0.354	0.8252	0.7602	-0.19
_end
