# CIF file generated by openbabel 3.1.0, see https://openbabel.org
data_I
_chemical_name_common 'image0'
_cell_length_a 16.1475
_cell_length_b 12.516
_cell_length_c 19.8687
_cell_angle_alpha 90
_cell_angle_beta 93.321
_cell_angle_gamma 90
_space_group_name_H-M_alt 'P 1'
_space_group_name_Hall 'P 1'
loop_
    _symmetry_equiv_pos_as_xyz
    x,y,z
loop_
    _atom_site_label
    _atom_site_type_symbol
    _atom_site_fract_x
    _atom_site_fract_y
    _atom_site_fract_z
    _atom_site_occupancy
    Zn1      Zn       0.14325    0.56476    0.21031    1.000
    O1       O        0.70104    0.01174    0.41160    1.000
    O2       O        0.81071    0.96350    0.35695    1.000
    O3       O        0.05290    0.61380    0.28492    1.000
    O4       O        0.04441    0.45980    0.23531    1.000
    O5       O        0.73383    0.25219    0.36859    1.000
    O6       O        0.81130    0.21370    0.28743    1.000
    O7       O        0.64983    0.46530    0.76605    1.000
    O8       O        0.77026    0.48300    0.71794    1.000
    O9       O        0.44199    0.83500    0.61782    1.000
    O10      O        0.43417    0.74010    0.70941    1.000
    C1       C        0.75520    0.94540    0.39676    1.000
    C2       C        0.75440    0.83650    0.42671    1.000
    C3       C        0.79510    0.75470    0.39656    1.000
    H1       H        0.82630    0.77010    0.35990    1.000
    C4       C        0.79120    0.65090    0.41876    1.000
    C5       C        0.74759    0.63020    0.47567    1.000
    H2       H        0.74530    0.56060    0.49190    1.000
    C6       C        0.70746    0.71080    0.50876    1.000
    C7       C        0.70980    0.81390    0.48323    1.000
    H3       H        0.68150    0.86840    0.50390    1.000
    C8       C        0.01690    0.52690    0.27540    1.000
    C9       C        0.79020    0.27370    0.33280    1.000
    C10      C        0.94030    0.50200    0.31111    1.000
    C11      C        0.90320    0.40340    0.30564    1.000
    H4       H        0.92590    0.35070    0.27930    1.000
    C12      C        0.83130    0.38200    0.33958    1.000
    C13      C        0.79640    0.46210    0.37702    1.000
    H5       H        0.74860    0.44800    0.39940    1.000
    C14      C        0.83180    0.56260    0.38143    1.000
    C15      C        0.90470    0.58190    0.34899    1.000
    H6       H        0.92980    0.64870    0.35260    1.000
    C16      C        0.69540    0.50420    0.72314    1.000
    C17      C        0.46980    0.76470    0.65830    1.000
    C18      C        0.65660    0.58270    0.67387    1.000
    C19      C        0.58280    0.63260    0.68676    1.000
    H7       H        0.55500    0.61380    0.72470    1.000
    C20      C        0.55020    0.71030    0.64324    1.000
    C21      C        0.59040    0.73550    0.58593    1.000
    H8       H        0.56780    0.78700    0.55650    1.000
    C22      C        0.66370    0.68560    0.57134    1.000
    C23      C        0.69630    0.60990    0.61646    1.000
    H9       H        0.74610    0.57660    0.60790    1.000
    Zn2      Zn       0.66581    0.12584    0.34604    1.000
    Zn3      Zn       0.85675    0.06476    0.28969    1.000
    O11      O        0.29896    0.51174    0.08840    1.000
    O12      O        0.18929    0.46350    0.14305    1.000
    O13      O        0.94710    0.11380    0.21508    1.000
    O14      O        0.95559    0.95980    0.26469    1.000
    O15      O        0.26617    0.75219    0.13141    1.000
    O16      O        0.18870    0.71370    0.21257    1.000
    O17      O        0.35017    0.96530    0.73395    1.000
    O18      O        0.22974    0.98300    0.78206    1.000
    O19      O        0.55801    0.33500    0.88218    1.000
    O20      O        0.56583    0.24010    0.79059    1.000
    C24      C        0.24480    0.44540    0.10324    1.000
    C25      C        0.24560    0.33650    0.07329    1.000
    C26      C        0.20490    0.25470    0.10344    1.000
    H10      H        0.17370    0.27010    0.14010    1.000
    C27      C        0.20880    0.15090    0.08124    1.000
    C28      C        0.25241    0.13020    0.02433    1.000
    H11      H        0.25470    0.06060    0.00810    1.000
    C29      C        0.29254    0.21080    0.99124    1.000
    C30      C        0.29020    0.31390    0.01677    1.000
    H12      H        0.31850    0.36840    0.99610    1.000
    C31      C        0.98310    0.02690    0.22460    1.000
    C32      C        0.20980    0.77370    0.16720    1.000
    C33      C        0.05970    0.00200    0.18889    1.000
    C34      C        0.09680    0.90340    0.19436    1.000
    H13      H        0.07410    0.85070    0.22070    1.000
    C35      C        0.16870    0.88200    0.16042    1.000
    C36      C        0.20360    0.96210    0.12298    1.000
    H14      H        0.25140    0.94800    0.10060    1.000
    C37      C        0.16820    0.06260    0.11857    1.000
    C38      C        0.09530    0.08190    0.15101    1.000
    H15      H        0.07020    0.14870    0.14740    1.000
    C39      C        0.30460    0.00420    0.77686    1.000
    C40      C        0.53020    0.26470    0.84170    1.000
    C41      C        0.34340    0.08270    0.82613    1.000
    C42      C        0.41720    0.13260    0.81324    1.000
    H16      H        0.44500    0.11380    0.77530    1.000
    C43      C        0.44980    0.21030    0.85676    1.000
    C44      C        0.40960    0.23550    0.91407    1.000
    H17      H        0.43220    0.28700    0.94350    1.000
    C45      C        0.33630    0.18560    0.92866    1.000
    C46      C        0.30370    0.10990    0.88354    1.000
    H18      H        0.25390    0.07660    0.89210    1.000
    Zn4      Zn       0.33419    0.62584    0.15396    1.000
    Zn5      Zn       0.85675    0.43524    0.78969    1.000
    O21      O        0.29896    0.98826    0.58840    1.000
    O22      O        0.18929    0.03650    0.64305    1.000
    O23      O        0.94710    0.38620    0.71508    1.000
    O24      O        0.95559    0.54020    0.76469    1.000
    O25      O        0.26617    0.74781    0.63141    1.000
    O26      O        0.18870    0.78630    0.71257    1.000
    O27      O        0.35017    0.53470    0.23395    1.000
    O28      O        0.22974    0.51700    0.28206    1.000
    O29      O        0.55801    0.16500    0.38218    1.000
    O30      O        0.56583    0.25990    0.29059    1.000
    C47      C        0.24480    0.05460    0.60324    1.000
    C48      C        0.24560    0.16350    0.57329    1.000
    C49      C        0.20490    0.24530    0.60344    1.000
    H19      H        0.17370    0.22990    0.64010    1.000
    C50      C        0.20880    0.34910    0.58124    1.000
    C51      C        0.25241    0.36980    0.52433    1.000
    H20      H        0.25470    0.43940    0.50810    1.000
    C52      C        0.29254    0.28920    0.49124    1.000
    C53      C        0.29020    0.18610    0.51677    1.000
    H21      H        0.31850    0.13160    0.49610    1.000
    C54      C        0.98310    0.47310    0.72460    1.000
    C55      C        0.20980    0.72630    0.66720    1.000
    C56      C        0.05970    0.49800    0.68889    1.000
    C57      C        0.09680    0.59660    0.69436    1.000
    H22      H        0.07410    0.64930    0.72070    1.000
    C58      C        0.16870    0.61800    0.66042    1.000
    C59      C        0.20360    0.53790    0.62298    1.000
    H23      H        0.25140    0.55200    0.60060    1.000
    C60      C        0.16820    0.43740    0.61857    1.000
    C61      C        0.09530    0.41810    0.65101    1.000
    H24      H        0.07020    0.35130    0.64740    1.000
    C62      C        0.30460    0.49580    0.27686    1.000
    C63      C        0.53020    0.23530    0.34170    1.000
    C64      C        0.34340    0.41730    0.32613    1.000
    C65      C        0.41720    0.36740    0.31324    1.000
    H25      H        0.44500    0.38620    0.27530    1.000
    C66      C        0.44980    0.28970    0.35676    1.000
    C67      C        0.40960    0.26450    0.41407    1.000
    H26      H        0.43220    0.21300    0.44350    1.000
    C68      C        0.33630    0.31440    0.42866    1.000
    C69      C        0.30370    0.39010    0.38354    1.000
    H27      H        0.25390    0.42340    0.39210    1.000
    Zn6      Zn       0.33419    0.87416    0.65396    1.000
    Zn7      Zn       0.14325    0.93524    0.71031    1.000
    O31      O        0.70104    0.48826    0.91160    1.000
    O32      O        0.81071    0.53650    0.85695    1.000
    O33      O        0.05290    0.88620    0.78492    1.000
    O34      O        0.04441    0.04020    0.73531    1.000
    O35      O        0.73383    0.24781    0.86859    1.000
    O36      O        0.81130    0.28630    0.78743    1.000
    O37      O        0.64983    0.03470    0.26605    1.000
    O38      O        0.77026    0.01700    0.21794    1.000
    O39      O        0.44199    0.66500    0.11782    1.000
    O40      O        0.43417    0.75990    0.20941    1.000
    C70      C        0.75520    0.55460    0.89676    1.000
    C71      C        0.75440    0.66350    0.92671    1.000
    C72      C        0.79510    0.74530    0.89656    1.000
    H28      H        0.82630    0.72990    0.85990    1.000
    C73      C        0.79120    0.84910    0.91876    1.000
    C74      C        0.74759    0.86980    0.97567    1.000
    H29      H        0.74530    0.93940    0.99190    1.000
    C75      C        0.70746    0.78920    0.00876    1.000
    C76      C        0.70980    0.68610    0.98323    1.000
    H30      H        0.68150    0.63160    0.00390    1.000
    C77      C        0.01690    0.97310    0.77540    1.000
    C78      C        0.79020    0.22630    0.83280    1.000
    C79      C        0.94030    0.99800    0.81111    1.000
    C80      C        0.90320    0.09660    0.80564    1.000
    H31      H        0.92590    0.14930    0.77930    1.000
    C81      C        0.83130    0.11800    0.83958    1.000
    C82      C        0.79640    0.03790    0.87702    1.000
    H32      H        0.74860    0.05200    0.89940    1.000
    C83      C        0.83180    0.93740    0.88143    1.000
    C84      C        0.90470    0.91810    0.84899    1.000
    H33      H        0.92980    0.85130    0.85260    1.000
    C85      C        0.69540    0.99580    0.22314    1.000
    C86      C        0.46980    0.73530    0.15830    1.000
    C87      C        0.65660    0.91730    0.17387    1.000
    C88      C        0.58280    0.86740    0.18676    1.000
    H34      H        0.55500    0.88620    0.22470    1.000
    C89      C        0.55020    0.78970    0.14324    1.000
    C90      C        0.59040    0.76450    0.08593    1.000
    H35      H        0.56780    0.71300    0.05650    1.000
    C91      C        0.66370    0.81440    0.07134    1.000
    C92      C        0.69630    0.89010    0.11646    1.000
    H36      H        0.74610    0.92340    0.10790    1.000
    Zn8      Zn       0.66581    0.37416    0.84604    1.000
