# CIF file generated by openbabel 3.1.0, see https://openbabel.org
data_I
_chemical_name_common 'image0'
_cell_length_a 17.124
_cell_length_b 17.124
_cell_length_c 14.724
_cell_angle_alpha 90
_cell_angle_beta 90
_cell_angle_gamma 90
_space_group_name_H-M_alt 'P 1'
_space_group_name_Hall 'P 1'
loop_
    _symmetry_equiv_pos_as_xyz
    x,y,z
loop_
    _atom_site_label
    _atom_site_type_symbol
    _atom_site_fract_x
    _atom_site_fract_y
    _atom_site_fract_z
    _atom_site_occupancy
    V1       V        0.06438    0.07189    0.77040    1.000
    V2       V        0.96989    0.81246    0.91410    1.000
    V3       V        0.18314    0.05149    0.91155    1.000
    V4       V        0.12228    0.89045    0.87366    1.000
    O1       O        0.11910    0.13520    0.87840    1.000
    O2       O        0.18211    0.83371    0.81860    1.000
    O3       O        0.12810    0.99370    0.82050    1.000
    O4       O        0.07550    0.82345    0.96360    1.000
    O5       O        0.02030    0.87300    0.82040    1.000
    O6       O        0.18630    0.94460    0.96190    1.000
    N1       N        0.22220    0.66090    0.84080    1.000
    N2       N        0.21270    0.35090    0.15770    1.000
    C1       C        0.19470    0.67260    0.92500    1.000
    H1       H        0.17890    0.72260    0.94160    1.000
    C2       C        0.24020    0.58770    0.81700    1.000
    H2       H        0.25720    0.57850    0.75790    1.000
    C3       C        0.19500    0.33850    0.07100    1.000
    H3       H        0.18320    0.28780    0.05300    1.000
    C4       C        0.22610    0.42470    0.18260    1.000
    H4       H        0.23750    0.43470    0.24330    1.000
    C5       C        0.22410    0.48690    0.12330    1.000
    H5       H        0.23300    0.53750    0.14390    1.000
    C6       C        0.23470    0.52500    0.87540    1.000
    H6       H        0.24730    0.47500    0.85580    1.000
    C7       C        0.19310    0.39670    0.00650    1.000
    H7       H        0.18170    0.38490    0.94620    1.000
    C8       C        0.20830    0.47280    0.03230    1.000
    C9       C        0.20990    0.53790    0.96460    1.000
    C10      C        0.18900    0.61360    0.98770    1.000
    H8       H        0.17110    0.62440    0.04600    1.000
    V5       V        0.93562    0.92811    0.77040    1.000
    V6       V        0.03011    0.18754    0.91410    1.000
    V7       V        0.81686    0.94851    0.91155    1.000
    V8       V        0.87772    0.10955    0.87366    1.000
    O7       O        0.88090    0.86480    0.87840    1.000
    O8       O        0.81789    0.16629    0.81860    1.000
    O9       O        0.87190    0.00630    0.82050    1.000
    O10      O        0.92450    0.17655    0.96360    1.000
    O11      O        0.97970    0.12700    0.82040    1.000
    O12      O        0.81370    0.05540    0.96190    1.000
    N3       N        0.77780    0.33910    0.84080    1.000
    N4       N        0.78730    0.64910    0.15770    1.000
    C11      C        0.80530    0.32740    0.92500    1.000
    H9       H        0.82110    0.27740    0.94160    1.000
    C12      C        0.75980    0.41230    0.81700    1.000
    H10      H        0.74280    0.42150    0.75790    1.000
    C13      C        0.80500    0.66150    0.07100    1.000
    H11      H        0.81680    0.71220    0.05300    1.000
    C14      C        0.77390    0.57530    0.18260    1.000
    H12      H        0.76250    0.56530    0.24330    1.000
    C15      C        0.77590    0.51310    0.12330    1.000
    H13      H        0.76700    0.46250    0.14390    1.000
    C16      C        0.76530    0.47500    0.87540    1.000
    H14      H        0.75270    0.52500    0.85580    1.000
    C17      C        0.80690    0.60330    0.00650    1.000
    H15      H        0.81830    0.61510    0.94620    1.000
    C18      C        0.79170    0.52720    0.03230    1.000
    C19      C        0.79010    0.46210    0.96460    1.000
    C20      C        0.81100    0.38640    0.98770    1.000
    H16      H        0.82890    0.37560    0.04600    1.000
    V9       V        0.07189    0.93562    0.22960    1.000
    V10      V        0.81246    0.03011    0.08590    1.000
    V11      V        0.05149    0.81686    0.08845    1.000
    V12      V        0.89045    0.87772    0.12634    1.000
    O13      O        0.13520    0.88090    0.12160    1.000
    O14      O        0.83371    0.81789    0.18140    1.000
    O15      O        0.99370    0.87190    0.17950    1.000
    O16      O        0.82345    0.92450    0.03640    1.000
    O17      O        0.87300    0.97970    0.17960    1.000
    O18      O        0.94460    0.81370    0.03810    1.000
    N5       N        0.66090    0.77780    0.15920    1.000
    N6       N        0.35090    0.78730    0.84230    1.000
    C21      C        0.67260    0.80530    0.07500    1.000
    H17      H        0.72260    0.82110    0.05840    1.000
    C22      C        0.58770    0.75980    0.18300    1.000
    H18      H        0.57850    0.74280    0.24210    1.000
    C23      C        0.33850    0.80500    0.92900    1.000
    H19      H        0.28780    0.81680    0.94700    1.000
    C24      C        0.42470    0.77390    0.81740    1.000
    H20      H        0.43470    0.76250    0.75670    1.000
    C25      C        0.48690    0.77590    0.87670    1.000
    H21      H        0.53750    0.76700    0.85610    1.000
    C26      C        0.52500    0.76530    0.12460    1.000
    H22      H        0.47500    0.75270    0.14420    1.000
    C27      C        0.39670    0.80690    0.99350    1.000
    H23      H        0.38490    0.81830    0.05380    1.000
    C28      C        0.47280    0.79170    0.96770    1.000
    C29      C        0.53790    0.79010    0.03540    1.000
    C30      C        0.61360    0.81100    0.01230    1.000
    H24      H        0.62440    0.82890    0.95400    1.000
    V13      V        0.92811    0.06438    0.22960    1.000
    V14      V        0.18754    0.96989    0.08590    1.000
    V15      V        0.94851    0.18314    0.08845    1.000
    V16      V        0.10955    0.12228    0.12634    1.000
    O19      O        0.86480    0.11910    0.12160    1.000
    O20      O        0.16629    0.18211    0.18140    1.000
    O21      O        0.00630    0.12810    0.17950    1.000
    O22      O        0.17655    0.07550    0.03640    1.000
    O23      O        0.12700    0.02030    0.17960    1.000
    O24      O        0.05540    0.18630    0.03810    1.000
    N7       N        0.33910    0.22220    0.15920    1.000
    N8       N        0.64910    0.21270    0.84230    1.000
    C31      C        0.32740    0.19470    0.07500    1.000
    H25      H        0.27740    0.17890    0.05840    1.000
    C32      C        0.41230    0.24020    0.18300    1.000
    H26      H        0.42150    0.25720    0.24210    1.000
    C33      C        0.66150    0.19500    0.92900    1.000
    H27      H        0.71220    0.18320    0.94700    1.000
    C34      C        0.57530    0.22610    0.81740    1.000
    H28      H        0.56530    0.23750    0.75670    1.000
    C35      C        0.51310    0.22410    0.87670    1.000
    H29      H        0.46250    0.23300    0.85610    1.000
    C36      C        0.47500    0.23470    0.12460    1.000
    H30      H        0.52500    0.24730    0.14420    1.000
    C37      C        0.60330    0.19310    0.99350    1.000
    H31      H        0.61510    0.18170    0.05380    1.000
    C38      C        0.52720    0.20830    0.96770    1.000
    C39      C        0.46210    0.20990    0.03540    1.000
    C40      C        0.38640    0.18900    0.01230    1.000
    H32      H        0.37560    0.17110    0.95400    1.000
    V17      V        0.56438    0.42811    0.27040    1.000
    V18      V        0.46989    0.68754    0.41410    1.000
    V19      V        0.68314    0.44851    0.41155    1.000
    V20      V        0.62228    0.60955    0.37366    1.000
    O25      O        0.61910    0.36480    0.37840    1.000
    O26      O        0.68211    0.66629    0.31860    1.000
    O27      O        0.62810    0.50630    0.32050    1.000
    O28      O        0.57550    0.67655    0.46360    1.000
    O29      O        0.52030    0.62700    0.32040    1.000
    O30      O        0.68630    0.55540    0.46190    1.000
    N9       N        0.72220    0.83910    0.34080    1.000
    N10      N        0.71270    0.14910    0.65770    1.000
    C41      C        0.69470    0.82740    0.42500    1.000
    H33      H        0.67890    0.77740    0.44160    1.000
    C42      C        0.74020    0.91230    0.31700    1.000
    H34      H        0.75720    0.92150    0.25790    1.000
    C43      C        0.69500    0.16150    0.57100    1.000
    H35      H        0.68320    0.21220    0.55300    1.000
    C44      C        0.72610    0.07530    0.68260    1.000
    H36      H        0.73750    0.06530    0.74330    1.000
    C45      C        0.72410    0.01310    0.62330    1.000
    H37      H        0.73300    0.96250    0.64390    1.000
    C46      C        0.73470    0.97500    0.37540    1.000
    H38      H        0.74730    0.02500    0.35580    1.000
    C47      C        0.69310    0.10330    0.50650    1.000
    H39      H        0.68170    0.11510    0.44620    1.000
    C48      C        0.70830    0.02720    0.53230    1.000
    C49      C        0.70990    0.96210    0.46460    1.000
    C50      C        0.68900    0.88640    0.48770    1.000
    H40      H        0.67110    0.87560    0.54600    1.000
    V21      V        0.43562    0.57189    0.27040    1.000
    V22      V        0.53011    0.31246    0.41410    1.000
    V23      V        0.31686    0.55149    0.41155    1.000
    V24      V        0.37772    0.39045    0.37366    1.000
    O31      O        0.38090    0.63520    0.37840    1.000
    O32      O        0.31789    0.33371    0.31860    1.000
    O33      O        0.37190    0.49370    0.32050    1.000
    O34      O        0.42450    0.32345    0.46360    1.000
    O35      O        0.47970    0.37300    0.32040    1.000
    O36      O        0.31370    0.44460    0.46190    1.000
    N11      N        0.27780    0.16090    0.34080    1.000
    N12      N        0.28730    0.85090    0.65770    1.000
    C51      C        0.30530    0.17260    0.42500    1.000
    H41      H        0.32110    0.22260    0.44160    1.000
    C52      C        0.25980    0.08770    0.31700    1.000
    H42      H        0.24280    0.07850    0.25790    1.000
    C53      C        0.30500    0.83850    0.57100    1.000
    H43      H        0.31680    0.78780    0.55300    1.000
    C54      C        0.27390    0.92470    0.68260    1.000
    H44      H        0.26250    0.93470    0.74330    1.000
    C55      C        0.27590    0.98690    0.62330    1.000
    H45      H        0.26700    0.03750    0.64390    1.000
    C56      C        0.26530    0.02500    0.37540    1.000
    H46      H        0.25270    0.97500    0.35580    1.000
    C57      C        0.30690    0.89670    0.50650    1.000
    H47      H        0.31830    0.88490    0.44620    1.000
    C58      C        0.29170    0.97280    0.53230    1.000
    C59      C        0.29010    0.03790    0.46460    1.000
    C60      C        0.31100    0.11360    0.48770    1.000
    H48      H        0.32890    0.12440    0.54600    1.000
    V25      V        0.57189    0.56438    0.72960    1.000
    V26      V        0.31246    0.46989    0.58590    1.000
    V27      V        0.55149    0.68314    0.58845    1.000
    V28      V        0.39045    0.62228    0.62634    1.000
    O37      O        0.63520    0.61910    0.62160    1.000
    O38      O        0.33371    0.68211    0.68140    1.000
    O39      O        0.49370    0.62810    0.67950    1.000
    O40      O        0.32345    0.57550    0.53640    1.000
    O41      O        0.37300    0.52030    0.67960    1.000
    O42      O        0.44460    0.68630    0.53810    1.000
    N13      N        0.16090    0.72220    0.65920    1.000
    N14      N        0.85090    0.71270    0.34230    1.000
    C61      C        0.17260    0.69470    0.57500    1.000
    H49      H        0.22260    0.67890    0.55840    1.000
    C62      C        0.08770    0.74020    0.68300    1.000
    H50      H        0.07850    0.75720    0.74210    1.000
    C63      C        0.83850    0.69500    0.42900    1.000
    H51      H        0.78780    0.68320    0.44700    1.000
    C64      C        0.92470    0.72610    0.31740    1.000
    H52      H        0.93470    0.73750    0.25670    1.000
    C65      C        0.98690    0.72410    0.37670    1.000
    H53      H        0.03750    0.73300    0.35610    1.000
    C66      C        0.02500    0.73470    0.62460    1.000
    H54      H        0.97500    0.74730    0.64420    1.000
    C67      C        0.89670    0.69310    0.49350    1.000
    H55      H        0.88490    0.68170    0.55380    1.000
    C68      C        0.97280    0.70830    0.46770    1.000
    C69      C        0.03790    0.70990    0.53540    1.000
    C70      C        0.11360    0.68900    0.51230    1.000
    H56      H        0.12440    0.67110    0.45400    1.000
    V29      V        0.42811    0.43562    0.72960    1.000
    V30      V        0.68754    0.53011    0.58590    1.000
    V31      V        0.44851    0.31686    0.58845    1.000
    V32      V        0.60955    0.37772    0.62634    1.000
    O43      O        0.36480    0.38090    0.62160    1.000
    O44      O        0.66629    0.31789    0.68140    1.000
    O45      O        0.50630    0.37190    0.67950    1.000
    O46      O        0.67655    0.42450    0.53640    1.000
    O47      O        0.62700    0.47970    0.67960    1.000
    O48      O        0.55540    0.31370    0.53810    1.000
    N15      N        0.83910    0.27780    0.65920    1.000
    N16      N        0.14910    0.28730    0.34230    1.000
    C71      C        0.82740    0.30530    0.57500    1.000
    H57      H        0.77740    0.32110    0.55840    1.000
    C72      C        0.91230    0.25980    0.68300    1.000
    H58      H        0.92150    0.24280    0.74210    1.000
    C73      C        0.16150    0.30500    0.42900    1.000
    H59      H        0.21220    0.31680    0.44700    1.000
    C74      C        0.07530    0.27390    0.31740    1.000
    H60      H        0.06530    0.26250    0.25670    1.000
    C75      C        0.01310    0.27590    0.37670    1.000
    H61      H        0.96250    0.26700    0.35610    1.000
    C76      C        0.97500    0.26530    0.62460    1.000
    H62      H        0.02500    0.25270    0.64420    1.000
    C77      C        0.10330    0.30690    0.49350    1.000
    H63      H        0.11510    0.31830    0.55380    1.000
    C78      C        0.02720    0.29170    0.46770    1.000
    C79      C        0.96210    0.29010    0.53540    1.000
    C80      C        0.88640    0.31100    0.51230    1.000
    H64      H        0.87560    0.32890    0.45400    1.000
    O49      O        0.00000    0.00000    0.71580    1.000
    O50      O        0.00000    0.00000    0.79780    1.000
    O51      O        0.00000    0.00000    0.28420    1.000
    O52      O        0.00000    0.00000    0.20220    1.000
    O53      O        0.50000    0.50000    0.21580    1.000
    O54      O        0.50000    0.50000    0.29780    1.000
    O55      O        0.50000    0.50000    0.78420    1.000
    O56      O        0.50000    0.50000    0.70220    1.000
    Zn1      Zn       0.25571    0.75571    0.75000    1.000
    Zn2      Zn       0.74429    0.24429    0.75000    1.000
    Zn3      Zn       0.75571    0.74429    0.25000    1.000
    Zn4      Zn       0.24429    0.25571    0.25000    1.000
