# CIF file generated by openbabel 3.1.0, see https://openbabel.org
data_I
_chemical_name_common 'image0'
_cell_length_a 15.6469
_cell_length_b 18.471
_cell_length_c 27.45
_cell_angle_alpha 99.525
_cell_angle_beta 90.063
_cell_angle_gamma 103.876
_space_group_name_H-M_alt 'P 1'
_space_group_name_Hall 'P 1'
loop_
    _symmetry_equiv_pos_as_xyz
    x,y,z
loop_
    _atom_site_label
    _atom_site_type_symbol
    _atom_site_fract_x
    _atom_site_fract_y
    _atom_site_fract_z
    _atom_site_occupancy
    C1       C        0.52710    0.67970    0.99090    1.000
    C2       C        0.52400    0.68420    0.93740    1.000
    C3       C        0.55210    0.63420    0.90450    1.000
    H1       H        0.57810    0.59900    0.91520    1.000
    C4       C        0.54280    0.63460    0.85370    1.000
    H2       H        0.56320    0.59970    0.83140    1.000
    C5       C        0.50400    0.68550    0.83590    1.000
    C6       C        0.47740    0.74020    0.87150    1.000
    H3       H        0.45370    0.77710    0.86130    1.000
    C7       C        0.48670    0.73820    0.92070    1.000
    H4       H        0.46800    0.77350    0.94370    1.000
    C8       C        0.48420    0.67840    0.78260    1.000
    C9       C        0.49990    0.73700    0.75480    1.000
    C10      C        0.47640    0.72620    0.70480    1.000
    C11      C        0.43490    0.64980    0.68070    1.000
    C12      C        0.41680    0.59070    0.70750    1.000
    C13      C        0.44260    0.60550    0.75700    1.000
    H5       H        0.43190    0.56530    0.77440    1.000
    C14      C        0.36540    0.51410    0.68550    1.000
    C15      C        0.38000    0.47700    0.63860    1.000
    H6       H        0.42410    0.50110    0.62010    1.000
    C16      C        0.33120    0.40640    0.61960    1.000
    H7       H        0.34320    0.38300    0.58850    1.000
    C17      C        0.26230    0.36790    0.64650    1.000
    C18      C        0.24820    0.40440    0.69350    1.000
    H8       H        0.20330    0.38060    0.71190    1.000
    C19      C        0.29960    0.47520    0.71330    1.000
    H9       H        0.29070    0.49750    0.74520    1.000
    C20      C        0.20760    0.29230    0.62360    1.000
    C21      C        0.49250    0.79030    0.67770    1.000
    C22      C        0.57750    0.82530    0.66560    1.000
    C23      C        0.59180    0.88870    0.64220    1.000
    C24      C        0.52050    0.91360    0.62810    1.000
    H10      H        0.53030    0.95420    0.61110    1.000
    C25      C        0.43250    0.87900    0.63880    1.000
    C26      C        0.42250    0.81780    0.66440    1.000
    C27      C        0.48200    0.64590    0.59830    1.000
    H11      H        0.50460    0.60150    0.59540    1.000
    H12      H        0.52800    0.68980    0.61090    1.000
    H13      H        0.46090    0.65050    0.56640    1.000
    C28      C        0.62790    0.82520    0.79550    1.000
    H14      H        0.65510    0.87830    0.79900    1.000
    H15      H        0.65910    0.79750    0.77220    1.000
    H16      H        0.62990    0.80920    0.82690    1.000
    C29      C        0.69370    0.76850    0.64010    1.000
    H17      H        0.75250    0.77190    0.65200    1.000
    H18      H        0.69600    0.79740    0.61390    1.000
    H19      H        0.66520    0.71650    0.62790    1.000
    C30      C        0.31070    0.82150    0.71980    1.000
    H20      H        0.31800    0.87360    0.71660    1.000
    H21      H        0.34620    0.81840    0.74760    1.000
    H22      H        0.24990    0.79970    0.72480    1.000
    C31      C        0.35960    0.91020    0.62480    1.000
    C32      C        0.28560    0.86520    0.59710    1.000
    H23      H        0.27990    0.81320    0.58900    1.000
    C33      C        0.21910    0.89710    0.58120    1.000
    H24      H        0.16980    0.86670    0.56270    1.000
    C34      C        0.22890    0.97530    0.59390    1.000
    C35      C        0.30060    0.01850    0.62290    1.000
    H25      H        0.30540    0.07010    0.63250    1.000
    C36      C        0.36590    0.98720    0.63810    1.000
    H26      H        0.41420    0.01790    0.65730    1.000
    C37      C        0.15870    0.00890    0.57570    1.000
    C38      C        0.74440    0.96170    0.67310    1.000
    H27      H        0.73190    0.94790    0.70390    1.000
    C39      C        0.68140    0.93320    0.63460    1.000
    C40      C        0.70570    0.94960    0.58810    1.000
    H28      H        0.66580    0.92970    0.56130    1.000
    C41      C        0.78670    0.99420    0.58050    1.000
    H29      H        0.80160    0.00280    0.54880    1.000
    C42      C        0.84640    0.02650    0.62000    1.000
    C43      C        0.82260    0.00860    0.66760    1.000
    H30      H        0.86140    0.02930    0.69480    1.000
    C44      C        0.93530    0.07550    0.61170    1.000
    C45      C        0.05640    0.17490    0.48940    1.000
    C46      C        0.03330    0.18050    0.43970    1.000
    C47      C        0.99450    0.23840    0.42930    1.000
    H31      H        0.98790    0.27640    0.45480    1.000
    C48      C        0.96650    0.23920    0.38210    1.000
    H32      H        0.94020    0.27720    0.37620    1.000
    C49      C        0.97670    0.18440    0.34320    1.000
    C50      C        0.01580    0.12710    0.35280    1.000
    H33      H        0.02300    0.08950    0.32720    1.000
    C51      C        0.04300    0.12680    0.39990    1.000
    H34      H        0.06940    0.08880    0.40560    1.000
    C52      C        0.94170    0.18130    0.29290    1.000
    C53      C        0.96090    0.24380    0.26800    1.000
    C54      C        0.92890    0.23970    0.22050    1.000
    C55      C        0.87160    0.17060    0.19630    1.000
    C56      C        0.85680    0.10640    0.21790    1.000
    C57      C        0.89070    0.11320    0.26590    1.000
    H35      H        0.87910    0.07030    0.28080    1.000
    C58      C        0.80370    0.03140    0.19300    1.000
    C59      C        0.73570    0.99140    0.21850    1.000
    H36      H        0.72440    0.01250    0.25020    1.000
    C60      C        0.68450    0.92030    0.19680    1.000
    H37      H        0.64000    0.89430    0.21440    1.000
    C61      C        0.69960    0.88870    0.15020    1.000
    C62      C        0.76780    0.92880    0.12510    1.000
    C63      C        0.81940    0.00060    0.14650    1.000
    C64      C        0.64680    0.81060    0.12560    1.000
    C65      C        0.94650    0.30910    0.19580    1.000
    C66      C        0.02790    0.33750    0.17840    1.000
    C67      C        0.04580    0.40670    0.16030    1.000
    C68      C        0.97890    0.44370    0.15690    1.000
    H38      H        0.99890    0.49430    0.17600    1.000
    C69      C        0.89170    0.41180    0.17250    1.000
    C70      C        0.87980    0.34630    0.19200    1.000
    C71      C        0.78570    0.35440    0.26010    1.000
    H39      H        0.83010    0.39460    0.27590    1.000
    H40      H        0.73360    0.33870    0.27590    1.000
    C72      C        0.10020    0.31840    0.30220    1.000
    H41      H        0.12680    0.36530    0.32340    1.000
    H42      H        0.13020    0.31530    0.27170    1.000
    H43      H        0.10450    0.27690    0.31820    1.000
    C73      C        0.08950    0.23100    0.15190    1.000
    H44      H        0.14510    0.22900    0.13770    1.000
    H45      H        0.04540    0.22330    0.12600    1.000
    H46      H        0.07300    0.19210    0.17180    1.000
    C74      C        0.74930    0.15380    0.14070    1.000
    H47      H        0.73310    0.13520    0.10640    1.000
    H48      H        0.73090    0.19980    0.15090    1.000
    H49      H        0.72110    0.11670    0.16010    1.000
    C75      C        0.81990    0.44560    0.16140    1.000
    C76      C        0.74300    0.40250    0.13680    1.000
    H50      H        0.73230    0.35010    0.13310    1.000
    C77      C        0.68130    0.43300    0.11750    1.000
    H51      H        0.63200    0.40240    0.09920    1.000
    C78      C        0.69510    0.51110    0.12630    1.000
    C79      C        0.76720    0.55470    0.15380    1.000
    H52      H        0.77440    0.60680    0.16120    1.000
    C80      C        0.82840    0.52290    0.17040    1.000
    H53      H        0.87780    0.55400    0.18850    1.000
    C81      C        0.62980    0.54610    0.10180    1.000
    C82      C        0.13170    0.44290    0.14470    1.000
    C83      C        0.17190    0.40440    0.10620    1.000
    H54      H        0.14660    0.35420    0.09270    1.000
    C84      C        0.25150    0.44390    0.08820    1.000
    H55      H        0.27720    0.41920    0.06210    1.000
    C85      C        0.29370    0.52060    0.10900    1.000
    C86      C        0.25320    0.55530    0.14690    1.000
    H56      H        0.27960    0.60470    0.16180    1.000
    C87      C        0.17270    0.51810    0.16370    1.000
    H57      H        0.14560    0.54440    0.18840    1.000
    C88      C        0.37560    0.55780    0.08880    1.000
    O1       O        0.56090    0.62990    0.00339    1.000
    O2       O        0.49810    0.72560    0.02120    1.000
    O3       O        0.98020    0.12110    0.64720    1.000
    O4       O        0.96070    0.07440    0.56840    1.000
    O5       O        0.16060    0.07540    0.59880    1.000
    O6       O        0.10840    0.97360    0.54000    1.000
    O7       O        0.23010    0.25390    0.58730    1.000
    O8       O        0.13500    0.27020    0.64460    1.000
    O9       O        0.41120    0.63970    0.63140    1.000
    O10      O        0.53730    0.81100    0.77800    1.000
    O11      O        0.33670    0.78210    0.67690    1.000
    O12      O        0.64520    0.79780    0.67980    1.000
    O13      O        0.08890    0.11960    0.49749    1.000
    O14      O        0.04550    0.22400    0.52560    1.000
    O15      O        0.39590    0.52710    0.04800    1.000
    O16      O        0.41660    0.61990    0.11240    1.000
    O17      O        0.57780    0.78270    0.14610    1.000
    O18      O        0.67330    0.77980    0.08680    1.000
    O19      O        0.58490    0.50580    0.06610    1.000
    O20      O        0.63180    0.61360    0.11980    1.000
    O21      O        0.79770    0.31670    0.21140    1.000
    O22      O        0.09730    0.30500    0.18280    1.000
    O23      O        0.84360    0.16850    0.14800    1.000
    O24      O        0.00940    0.31500    0.29210    1.000
    Cd1      Cd       0.54771    0.67492    0.08798    1.000
    Cd2      Cd       0.09270    0.16377    0.58609    1.000
    H58      H        0.74210    0.93450    0.09420    1.000
    H59      H        0.81340    0.03580    0.12490    1.000
    H60      H        0.80800    0.89650    0.11660    1.000
    H61      H        0.88050    0.99770    0.14630    1.000
    H62      H        0.97310    0.44940    0.12270    1.000
    C89      C        0.47290    0.32030    0.00910    1.000
    C90      C        0.47600    0.31580    0.06260    1.000
    C91      C        0.44790    0.36580    0.09550    1.000
    H63      H        0.42190    0.40100    0.08480    1.000
    C92      C        0.45720    0.36540    0.14630    1.000
    H64      H        0.43680    0.40030    0.16860    1.000
    C93      C        0.49600    0.31450    0.16410    1.000
    C94      C        0.52260    0.25980    0.12850    1.000
    H65      H        0.54630    0.22290    0.13870    1.000
    C95      C        0.51330    0.26180    0.07930    1.000
    H66      H        0.53200    0.22650    0.05630    1.000
    C96      C        0.51580    0.32160    0.21740    1.000
    C97      C        0.50010    0.26300    0.24520    1.000
    C98      C        0.52360    0.27380    0.29520    1.000
    C99      C        0.56510    0.35020    0.31930    1.000
    C100     C        0.58320    0.40930    0.29250    1.000
    C101     C        0.55740    0.39450    0.24300    1.000
    H67      H        0.56810    0.43470    0.22560    1.000
    C102     C        0.63460    0.48590    0.31450    1.000
    C103     C        0.62000    0.52300    0.36140    1.000
    H68      H        0.57590    0.49890    0.37990    1.000
    C104     C        0.66880    0.59360    0.38040    1.000
    H69      H        0.65680    0.61700    0.41150    1.000
    C105     C        0.73770    0.63210    0.35350    1.000
    C106     C        0.75180    0.59560    0.30650    1.000
    H70      H        0.79670    0.61940    0.28810    1.000
    C107     C        0.70040    0.52480    0.28670    1.000
    H71      H        0.70930    0.50250    0.25480    1.000
    C108     C        0.79240    0.70770    0.37640    1.000
    C109     C        0.50750    0.20970    0.32230    1.000
    C110     C        0.42250    0.17470    0.33440    1.000
    C111     C        0.40820    0.11130    0.35780    1.000
    C112     C        0.47950    0.08640    0.37190    1.000
    H72      H        0.46970    0.04580    0.38890    1.000
    C113     C        0.56750    0.12100    0.36120    1.000
    C114     C        0.57750    0.18220    0.33560    1.000
    C115     C        0.51800    0.35410    0.40170    1.000
    H73      H        0.49540    0.39850    0.40460    1.000
    H74      H        0.47200    0.31020    0.38910    1.000
    H75      H        0.53910    0.34950    0.43360    1.000
    C116     C        0.37210    0.17480    0.20450    1.000
    H76      H        0.34490    0.12170    0.20100    1.000
    H77      H        0.34090    0.20250    0.22780    1.000
    H78      H        0.37010    0.19080    0.17310    1.000
    C117     C        0.30630    0.23150    0.35990    1.000
    H79      H        0.24750    0.22810    0.34800    1.000
    H80      H        0.30400    0.20260    0.38610    1.000
    H81      H        0.33480    0.28350    0.37210    1.000
    C118     C        0.68930    0.17850    0.28020    1.000
    H82      H        0.68200    0.12640    0.28340    1.000
    H83      H        0.65380    0.18160    0.25240    1.000
    H84      H        0.75010    0.20030    0.27520    1.000
    C119     C        0.64040    0.08980    0.37520    1.000
    C120     C        0.71440    0.13480    0.40290    1.000
    H85      H        0.72010    0.18680    0.41100    1.000
    C121     C        0.78090    0.10290    0.41880    1.000
    H86      H        0.83020    0.13330    0.43730    1.000
    C122     C        0.77110    0.02470    0.40610    1.000
    C123     C        0.69940    0.98150    0.37710    1.000
    H87      H        0.69460    0.92990    0.36750    1.000
    C124     C        0.63410    0.01280    0.36190    1.000
    H88      H        0.58580    0.98210    0.34270    1.000
    C125     C        0.84130    0.99110    0.42430    1.000
    C126     C        0.25560    0.03830    0.32690    1.000
    H89      H        0.26810    0.05210    0.29610    1.000
    C127     C        0.31860    0.06680    0.36540    1.000
    C128     C        0.29430    0.05040    0.41190    1.000
    H90      H        0.33420    0.07030    0.43870    1.000
    C129     C        0.21330    0.00580    0.41950    1.000
    H91      H        0.19840    0.99720    0.45120    1.000
    C130     C        0.15360    0.97350    0.38000    1.000
    C131     C        0.17740    0.99140    0.33240    1.000
    H92      H        0.13860    0.97070    0.30520    1.000
    C132     C        0.06470    0.92450    0.38830    1.000
    C133     C        0.94360    0.82510    0.51060    1.000
    C134     C        0.96670    0.81950    0.56030    1.000
    C135     C        0.00550    0.76160    0.57070    1.000
    H93      H        0.01210    0.72360    0.54520    1.000
    C136     C        0.03350    0.76080    0.61790    1.000
    H94      H        0.05980    0.72280    0.62380    1.000
    C137     C        0.02330    0.81560    0.65680    1.000
    C138     C        0.98420    0.87290    0.64720    1.000
    H95      H        0.97700    0.91050    0.67280    1.000
    C139     C        0.95700    0.87320    0.60010    1.000
    H96      H        0.93060    0.91120    0.59440    1.000
    C140     C        0.05830    0.81870    0.70710    1.000
    C141     C        0.03910    0.75620    0.73200    1.000
    C142     C        0.07110    0.76030    0.77950    1.000
    C143     C        0.12840    0.82940    0.80370    1.000
    C144     C        0.14320    0.89360    0.78210    1.000
    C145     C        0.10930    0.88680    0.73410    1.000
    H97      H        0.12090    0.92970    0.71920    1.000
    C146     C        0.19630    0.96860    0.80700    1.000
    C147     C        0.26430    0.00860    0.78150    1.000
    H98      H        0.27560    0.98750    0.74980    1.000
    C148     C        0.31550    0.07970    0.80320    1.000
    H99      H        0.36000    0.10570    0.78560    1.000
    C149     C        0.30040    0.11130    0.84980    1.000
    C150     C        0.23220    0.07120    0.87490    1.000
    C151     C        0.18060    0.99940    0.85350    1.000
    C152     C        0.35320    0.18940    0.87440    1.000
    C153     C        0.05350    0.69090    0.80420    1.000
    C154     C        0.97210    0.66250    0.82160    1.000
    C155     C        0.95420    0.59330    0.83970    1.000
    C156     C        0.02110    0.55630    0.84310    1.000
    H100     H        0.00110    0.50570    0.82400    1.000
    C157     C        0.10830    0.58820    0.82750    1.000
    C158     C        0.12020    0.65370    0.80800    1.000
    C159     C        0.21430    0.64560    0.73990    1.000
    H101     H        0.16990    0.60540    0.72410    1.000
    H102     H        0.26640    0.66130    0.72410    1.000
    C160     C        0.89980    0.68160    0.69780    1.000
    H103     H        0.87320    0.63470    0.67660    1.000
    H104     H        0.86980    0.68470    0.72830    1.000
    H105     H        0.89550    0.72310    0.68180    1.000
    C161     C        0.91050    0.76900    0.84810    1.000
    H106     H        0.85490    0.77100    0.86230    1.000
    H107     H        0.95460    0.77670    0.87400    1.000
    H108     H        0.92700    0.80790    0.82820    1.000
    C162     C        0.25070    0.84620    0.85930    1.000
    H109     H        0.26690    0.86480    0.89360    1.000
    H110     H        0.26910    0.80020    0.84910    1.000
    H111     H        0.27890    0.88330    0.83990    1.000
    C163     C        0.18010    0.55440    0.83860    1.000
    C164     C        0.25700    0.59750    0.86320    1.000
    H112     H        0.26770    0.64990    0.86690    1.000
    C165     C        0.31870    0.56700    0.88250    1.000
    H113     H        0.36800    0.59760    0.90080    1.000
    C166     C        0.30490    0.48890    0.87370    1.000
    C167     C        0.23280    0.44530    0.84620    1.000
    H114     H        0.22560    0.39320    0.83880    1.000
    C168     C        0.17160    0.47710    0.82960    1.000
    H115     H        0.12220    0.44600    0.81150    1.000
    C169     C        0.37020    0.45390    0.89820    1.000
    C170     C        0.86830    0.55710    0.85530    1.000
    C171     C        0.82810    0.59560    0.89380    1.000
    H116     H        0.85340    0.64580    0.90730    1.000
    C172     C        0.74850    0.55610    0.91180    1.000
    H117     H        0.72280    0.58080    0.93790    1.000
    C173     C        0.70630    0.47940    0.89100    1.000
    C174     C        0.74680    0.44470    0.85310    1.000
    H118     H        0.72040    0.39530    0.83820    1.000
    C175     C        0.82730    0.48190    0.83630    1.000
    H119     H        0.85440    0.45560    0.81160    1.000
    C176     C        0.62440    0.44220    0.91120    1.000
    O25      O        0.43910    0.37010    0.99661    1.000
    O26      O        0.50190    0.27440    0.97880    1.000
    O27      O        0.01980    0.87890    0.35280    1.000
    O28      O        0.03930    0.92560    0.43160    1.000
    O29      O        0.83940    0.92460    0.40120    1.000
    O30      O        0.89160    0.02640    0.46000    1.000
    O31      O        0.76990    0.74610    0.41270    1.000
    O32      O        0.86500    0.72980    0.35540    1.000
    O33      O        0.58880    0.36030    0.36860    1.000
    O34      O        0.46270    0.18900    0.22200    1.000
    O35      O        0.66330    0.21790    0.32310    1.000
    O36      O        0.35480    0.20220    0.32020    1.000
    O37      O        0.91110    0.88040    0.50251    1.000
    O38      O        0.95450    0.77600    0.47440    1.000
    O39      O        0.60410    0.47290    0.95200    1.000
    O40      O        0.58340    0.38010    0.88760    1.000
    O41      O        0.42220    0.21730    0.85390    1.000
    O42      O        0.32670    0.22020    0.91320    1.000
    O43      O        0.41510    0.49420    0.93390    1.000
    O44      O        0.36820    0.38640    0.88020    1.000
    O45      O        0.20230    0.68330    0.78860    1.000
    O46      O        0.90270    0.69500    0.81720    1.000
    O47      O        0.15640    0.83150    0.85200    1.000
    O48      O        0.99060    0.68500    0.70790    1.000
    Cd3      Cd       0.45229    0.32508    0.91202    1.000
    Cd4      Cd       0.90730    0.83623    0.41391    1.000
    H120     H        0.25790    0.06550    0.90580    1.000
    H121     H        0.18660    0.96420    0.87510    1.000
    H122     H        0.19200    0.10350    0.88340    1.000
    H123     H        0.11950    0.00230    0.85370    1.000
    H124     H        0.02690    0.55060    0.87730    1.000
    Cd5      Cd       0.50000    0.50000    0.00000    1.000
    Cd6      Cd       0.00000    0.00000    0.50000    1.000
