data_functionalizedCrystal
_audit_creation_method	'EQeq! by Chris Wilmer'
_symmetry_space_group_name_H-M	'P1'
_symmetry_Int_Tables_number	1
_symmetry_cell_setting	triclinic
loop_
_symmetry_equiv_pos_as_xyz
  x,y,z
_cell_length_a	12.3825
_cell_length_b	13.0128
_cell_length_c	15.3729
_cell_angle_alpha	91.351
_cell_angle_beta	94.864
_cell_angle_gamma	98.73
loop_
_atom_site_label
_atom_site_type_symbol
_atom_site_fract_x
_atom_site_fract_y
_atom_site_fract_z
_atom_site_charge
Mof_Cd	Cd	0.50831	0.61494	0.42338	0.458
Mof_Cd	Cd	0.82384	0.19277	0.14949	0.444
Mof_Cd	Cd	0.49169	0.38506	0.57662	0.458
Mof_Cd	Cd	0.17616	0.80723	0.85051	0.444
Mof_H 	H 	0.413	0.7592	0.7881	0.004
Mof_H 	H 	0.6471	0.211	0.619	0.012
Mof_H 	H 	0.5679	0.4636	0.9245	0.34
Mof_H 	H 	0.1716	0.2328	0.4276	0.333
Mof_H 	H 	0.7821	0.406	0.6296	0.005
Mof_H 	H 	0.1162	0.8333	0.4538	0.005
Mof_H 	H 	0.5616	0.8693	0.0213	0.066
Mof_H 	H 	0.5983	0.7965	0.7293	-0.008
Mof_H 	H 	0.438	0.1465	0.8034	0.013
Mof_H 	H 	0.6454	0.3681	0.4065	0.024
Mof_H 	H 	0.9115	0.8237	0.0528	0.03
Mof_H 	H 	0.4293	0.3474	0.865	0.147
Mof_H 	H 	0.83	0.539	0.551	0.14
Mof_H 	H 	0.6496	0.8158	0.1401	-0.002
Mof_H 	H 	0.0885	0.1763	0.9472	0.03
Mof_H 	H 	0.5707	0.6526	0.135	0.147
Mof_H 	H 	0.0887	0.5569	0.2603	0.053
Mof_H 	H 	0.7211	0.9943	0.2809	0.021
Mof_H 	H 	0.3353	0.5364	0.135	0.343
Mof_H 	H 	0.5162	0.7221	0.9167	0.113
Mof_H 	H 	0.2528	0.3711	0.2531	0.408
Mof_H 	H 	0.9269	0.2564	0.6955	0.25
Mof_H 	H 	0.8482	0.5253	0.7821	0.041
Mof_H 	H 	0.81	0.0762	0.4906	0.009
Mof_H 	H 	0.9872	0.1723	0.6541	0.254
Mof_H 	H 	0.943	0.9085	0.824	-0.012
Mof_H 	H 	0.9923	0.415	0.4335	0.091
Mof_H 	H 	0.8838	0.1667	0.5462	0.005
Mof_H 	H 	0.7823	0.2515	0.3905	0.058
Mof_H 	H 	0.2179	0.594	0.3704	0.005
Mof_H 	H 	0.6853	0.9769	0.9013	0.271
Mof_H 	H 	0.17	0.461	0.449	0.14
Mof_H 	H 	0.1108	0.8223	0.1376	0.007
Mof_H 	H 	0.6919	0.3235	0.7905	0.367
Mof_H 	H 	0.0128	0.8277	0.3459	0.254
Mof_H 	H 	0.7207	0.7133	0.6804	0.413
Mof_H 	H 	0.5649	0.8195	0.6318	0.009
Mof_H 	H 	0.0279	0.5263	0.399	0.097
Mof_H 	H 	0.935	0.7917	0.6367	0.336
Mof_H 	H 	0.8193	0.7394	0.752	0.335
Mof_H 	H 	0.1518	0.4747	0.2179	0.041
Mof_H 	H 	0.8295	0.0825	0.91	0.027
Mof_H 	H 	0.0731	0.7436	0.3045	0.25
Mof_H 	H 	0.5413	0.6436	0.9887	0.093
Mof_H 	H 	0.3318	0.0119	0.5171	0.262
Mof_H 	H 	0.1807	0.2606	0.248	0.335
Mof_H 	H 	0.7452	0.8835	0.8777	0.258
Mof_H 	H 	0.4321	0.5364	0.0755	0.339
Mof_H 	H 	0.7472	0.6289	0.7469	0.408
Mof_H 	H 	0.6812	0.4376	0.9638	0.352
Mof_H 	H 	0.7078	0.4642	0.6857	0.002
Mof_H 	H 	0.0831	0.5405	0.6387	0.116
Mof_H 	H 	0.562	0.8535	0.1966	0.013
Mof_H 	H 	0.4368	0.0579	0.4723	0.259
Mof_H 	H 	0.6494	0.2087	0.8142	0.38
Mof_H 	H 	0.7425	0.2769	0.875	0.37
Mof_H 	H 	0.3506	0.7913	0.1858	0.38
Mof_H 	H 	0.5632	0.9421	0.5277	0.259
Mof_H 	H 	0.0077	0.585	0.5665	0.091
Mof_H 	H 	0.4281	0.6259	0.9321	0.119
Mof_H 	H 	0.5719	0.3741	0.0679	0.119
Mof_H 	H 	0.784	0.9558	0.0603	0.013
Mof_H 	H 	0.6682	0.9881	0.4829	0.262
Mof_H 	H 	0.4628	0.0191	0.6546	0.033
Mof_H 	H 	0.4682	0.8984	0.0769	0.071
Mof_H 	H 	0.6567	0.875	0.5176	0.254
Mof_H 	H 	0.2793	0.2867	0.3196	0.413
Mof_H 	H 	0.3147	0.0231	0.0987	0.271
Mof_H 	H 	0.6217	0.8817	0.8443	0.267
Mof_H 	H 	0.587	0.2408	0.2119	0.003
Mof_H 	H 	0.3546	0.6319	0.5935	0.024
Mof_H 	H 	0.9721	0.4737	0.601	0.097
Mof_H 	H 	0.057	0.0915	0.176	-0.012
Mof_H 	H 	0.4587	0.3564	0.0113	0.093
Mof_H 	H 	0.0108	0.815	0.2441	0.265
Mof_H 	H 	0.3081	0.6765	0.2095	0.367
Mof_H 	H 	0.3433	0.125	0.4824	0.254
Mof_H 	H 	0.4017	0.2035	0.2707	-0.008
Mof_H 	H 	0.5372	0.9809	0.3454	0.033
Mof_H 	H 	0.2575	0.7231	0.125	0.37
Mof_H 	H 	0.2789	0.0057	0.7191	0.021
Mof_H 	H 	0.1705	0.9175	0.09	0.027
Mof_H 	H 	0.9169	0.4595	0.3613	0.116
Mof_H 	H 	0.3188	0.5624	0.0362	0.352
Mof_H 	H 	0.3504	0.1842	0.8599	-0.002
Mof_H 	H 	0.9892	0.185	0.7559	0.265
Mof_H 	H 	0.4351	0.1805	0.3682	0.009
Mof_H 	H 	0.0667	0.2803	0.4467	0.331
Mof_H 	H 	0.4384	0.1307	0.9787	0.066
Mof_H 	H 	0.065	0.2083	0.3633	0.336
Mof_H 	H 	0.9113	0.4431	0.7397	0.053
Mof_H 	H 	0.19	0.9238	0.5094	0.009
Mof_H 	H 	0.2922	0.5358	0.3143	0.002
Mof_H 	H 	0.8284	0.7672	0.5724	0.332
Mof_H 	H 	0.3783	0.1183	0.1557	0.267
Mof_H 	H 	0.6647	0.4636	0.865	0.343
Mof_H 	H 	0.2177	0.7485	0.6095	0.058
Mof_H 	H 	0.8892	0.1777	0.8624	0.007
Mof_H 	H 	0.3529	0.789	0.381	0.011
Mof_H 	H 	0.216	0.0442	0.9397	0.013
Mof_H 	H 	0.5318	0.1016	0.9231	0.071
Mof_H 	H 	0.4838	0.2779	0.0833	0.113
Mof_H 	H 	0.2548	0.1165	0.1223	0.258
Mof_H 	H 	0.9333	0.7197	0.5533	0.331
Mof_C 	C 	0.1093	0.2604	0.4017	-1.032
Mof_C 	C 	0.215	0.9302	0.3781	-0.243
Mof_C 	C 	0.3027	0.0127	0.3825	0.288
Mof_C 	C 	0.6298	0.4308	0.9128	-1.096
Mof_C 	C 	0.1435	0.0339	0.9157	0.027
Mof_C 	C 	0.3219	0.4221	0.4676	0.408
Mof_C 	C 	0.4852	0.6773	0.9599	-0.317
Mof_C 	C 	0.785	0.0698	0.6219	-0.243
Mof_C 	C 	0.2737	0.0213	0.2257	0.301
Mof_C 	C 	0.7735	0.683	0.7127	-1.181
Mof_C 	C 	0.1259	0.8976	0.1376	0.02
Mof_C 	C 	0.3321	0.0602	0.305	-0.245
Mof_C 	C 	0.5914	0.3157	0.8893	0.621
Mof_C 	C 	0.9458	0.188	0.7015	-0.782
Mof_C 	C 	0.2621	0.7454	0.564	-0.035
Mof_C 	C 	0.5148	0.3227	0.0401	-0.317
Mof_C 	C 	0.1896	0.8725	0.4626	0.032
Mof_C 	C 	0.6722	0.0419	0.2749	0.01
Mof_C 	C 	0.5107	0.8442	0.0634	-0.143
Mof_C 	C 	0.6679	0.9398	0.695	-0.245
Mof_C 	C 	0.8404	0.1078	0.6997	0.303
Mof_C 	C 	0.359	0.056	0.472	-0.779
Mof_C 	C 	0.8565	0.9661	0.0843	0.027
Mof_C 	C 	0.0199	0.6734	0.747	0.359
Mof_C 	C 	0.4232	0.1506	0.3091	0.045
Mof_C 	C 	0.8132	0.0599	0.7759	-0.248
Mof_C 	C 	0.7764	0.4717	0.6587	0.036
Mof_C 	C 	0.8907	0.7396	0.5983	-1.032
Mof_C 	C 	0.641	0.944	0.528	-0.779
Mof_C 	C 	0.1268	0.4982	0.272	-0.136
Mof_C 	C 	0.0514	0.4096	0.3114	-0.167
Mof_C 	C 	0.5643	0.256	0.9708	-0.158
Mof_C 	C 	0.5717	0.8095	0.147	0.082
Mof_C 	C 	0.5768	0.8494	0.6909	0.045
Mof_C 	C 	0.4027	0.8218	0.7633	0.079
Mof_C 	C 	0.8507	0.6427	0.6513	0.581
Mof_C 	C 	0.0748	0.1102	0.9207	-0.031
Mof_C 	C 	0.1596	0.8922	0.3003	0.303
Mof_C 	C 	0.5973	0.1782	0.2367	0.079
Mof_C 	C 	0.6973	0.9873	0.6175	0.288
Mof_C 	C 	0.9252	0.8898	0.0793	-0.031
Mof_C 	C 	0.5685	0.0334	0.3113	-0.014
Mof_C 	C 	0.3086	0.0748	0.1429	-0.805
Mof_C 	C 	0.2203	0.4418	0.4077	-0.381
Mof_C 	C 	0.0086	0.5429	0.6169	-0.28
Mof_C 	C 	0.9914	0.4571	0.3831	-0.28
Mof_C 	C 	0.1868	0.9401	0.2241	-0.248
Mof_C 	C 	0.8104	0.1275	0.5374	0.032
Mof_C 	C 	0.5263	0.6982	0.1625	-0.415
Mof_C 	C 	0.8732	0.5018	0.728	-0.136
Mof_C 	C 	0.9801	0.3266	0.253	0.359
Mof_C 	C 	0.4315	0.9666	0.6887	-0.014
Mof_C 	C 	0.7263	0.9787	0.7743	0.301
Mof_C 	C 	0.3412	0.6828	0.5542	0.036
Mof_C 	C 	0.9965	0.9594	0.8518	0.087
Mof_C 	C 	0.9486	0.5904	0.6886	-0.167
Mof_C 	C 	0.3702	0.5692	0.0872	-1.096
Mof_C 	C 	0.4357	0.744	0.0292	-0.158
Mof_C 	C 	0.4768	0.3264	0.7426	0.421
Mof_C 	C 	0.4086	0.6843	0.1107	0.621
Mof_C 	C 	0.7379	0.2546	0.436	-0.035
Mof_C 	C 	0.6588	0.3172	0.4458	0.036
Mof_C 	C 	0.5232	0.6736	0.2574	0.421
Mof_C 	C 	0.6658	0.2376	0.0286	0.322
Mof_C 	C 	0.6589	0.2312	0.5625	0.056
Mof_C 	C 	0.3235	0.7222	0.1625	-1.153
Mof_C 	C 	0.6781	0.5779	0.5324	0.408
Mof_C 	C 	0.4893	0.1558	0.9366	-0.143
Mof_C 	C 	0.3342	0.7624	0.9714	0.322
Mof_C 	C 	0.7797	0.5582	0.5923	-0.381
Mof_C 	C 	0.8741	0.1024	0.8624	0.02
Mof_C 	C 	0.4283	0.1905	0.853	0.082
Mof_C 	C 	0.0035	0.0406	0.1482	0.087
Mof_C 	C 	0.2265	0.317	0.2873	-1.181
Mof_C 	C 	0.6914	0.9252	0.8571	-0.805
Mof_C 	C 	0.6765	0.2778	0.8375	-1.153
Mof_C 	C 	0.3278	0.9581	0.7251	0.01
Mof_C 	C 	0.0542	0.812	0.2985	-0.782
Mof_C 	C 	0.4737	0.3018	0.8375	-0.415
Mof_C 	C 	0.1493	0.3573	0.3487	0.581
Mof_C 	C 	0.2236	0.5283	0.3413	0.036
Mof_C 	C 	0.3411	0.7688	0.4375	0.056
Mof_N 	N 	0.9031	0.0525	0.1253	-0.153
Mof_N 	N 	0.019	0.9418	0.1253	-0.122
Mof_N 	N 	0.3956	0.7004	0.4859	-0.152
Mof_N 	N 	0.6044	0.2996	0.5141	-0.152
Mof_N 	N 	0.3128	0.8682	0.7702	-0.14
Mof_N 	N 	0.6872	0.1318	0.2298	-0.14
Mof_N 	N 	0.4751	0.8783	0.716	-0.13
Mof_N 	N 	0.0969	0.9475	0.8747	-0.153
Mof_N 	N 	0.5249	0.1217	0.284	-0.13
Mof_N 	N 	0.981	0.0582	0.8747	-0.122
Mof_N 	N 	0.2652	0.8016	0.4903	-0.121
Mof_N 	N 	0.7348	0.1984	0.5097	-0.121
Mof_O 	O 	0.9856	0.3052	0.1721	-0.303
Mof_O 	O 	0.4706	0.2544	0.6882	-0.326
Mof_O 	O 	0.0144	0.6948	0.8279	-0.303
Mof_O 	O 	0.2994	0.8476	0.9801	-0.305
Mof_O 	O 	0.5857	0.5507	0.5557	-0.338
Mof_O 	O 	0.3108	0.3724	0.5339	-0.342
Mof_O 	O 	0.4973	0.4166	0.7176	-0.34
Mof_O 	O 	0.4143	0.4493	0.4443	-0.338
Mof_O 	O 	0.5294	0.7456	0.3118	-0.326
Mof_O 	O 	0.5027	0.5834	0.2824	-0.34
Mof_O 	O 	0.9075	0.2732	0.2768	-0.334
Mof_O 	O 	0.6892	0.6276	0.4661	-0.342
Mof_O 	O 	0.7006	0.1524	0.0199	-0.305
Mof_O 	O 	0.0925	0.7268	0.7232	-0.334
Mof_O 	O 	0.7158	0.3038	0.0816	-0.312
Mof_O 	O 	0.2842	0.6962	0.9184	-0.312
_end
