# CIF file generated by openbabel 3.1.0, see https://openbabel.org
data_I
_chemical_name_common 'image0'
_cell_length_a 8.5175
_cell_length_b 28.1745
_cell_length_c 21.4217
_cell_angle_alpha 90
_cell_angle_beta 97.1026
_cell_angle_gamma 90
_space_group_name_H-M_alt 'P 1'
_space_group_name_Hall 'P 1'
loop_
    _symmetry_equiv_pos_as_xyz
    x,y,z
loop_
    _atom_site_label
    _atom_site_type_symbol
    _atom_site_fract_x
    _atom_site_fract_y
    _atom_site_fract_z
    _atom_site_occupancy
    Er1      Er       0.29497    0.05831    0.00644    1.000
    C1       C        0.69640    0.94465    0.52510    1.000
    C2       C        0.60970    0.91610    0.56610    1.000
    H1       H        0.58820    0.88300    0.56260    1.000
    C3       C        0.56630    0.94586    0.61020    1.000
    H2       H        0.50710    0.93760    0.64340    1.000
    C4       C        0.62520    0.99228    0.59800    1.000
    C5       C        0.61460    0.03280    0.63660    1.000
    C6       C        0.65620    0.07873    0.62010    1.000
    C7       C        0.65920    0.12053    0.65890    1.000
    H3       H        0.64530    0.12130    0.70220    1.000
    C8       C        0.68500    0.15810    0.62350    1.000
    H4       H        0.69070    0.19030    0.63670    1.000
    C9       C        0.70280    0.14016    0.56070    1.000
    C10      C        0.71910    0.16860    0.50780    1.000
    C11      C        0.75210    0.15069    0.44930    1.000
    C12      C        0.76990    0.17965    0.39470    1.000
    H5       H        0.75230    0.21290    0.39070    1.000
    C13      C        0.81640    0.15038    0.35060    1.000
    H6       H        0.83570    0.15930    0.30950    1.000
    C14      C        0.83150    0.10328    0.37680    1.000
    C15      C        0.88590    0.06300    0.34770    1.000
    C16      C        0.88940    0.01669    0.37300    1.000
    C17      C        0.95980    0.97540    0.34770    1.000
    H7       H        0.01720    0.97500    0.31240    1.000
    C18      C        0.92980    0.93760    0.38300    1.000
    H8       H        0.96250    0.90580    0.37730    1.000
    C19      C        0.83890    0.95458    0.43070    1.000
    C20      C        0.77230    0.92671    0.47520    1.000
    N1       N        0.69710    0.99062    0.54432    1.000
    H9       H        0.73650    0.01490    0.52560    1.000
    N2       N        0.68900    0.09221    0.56132    1.000
    H10      H        0.69920    0.07300    0.52960    1.000
    N3       N        0.78780    0.10481    0.43632    1.000
    H11      H        0.78350    0.08040    0.46170    1.000
    N4       N        0.82120    0.00297    0.42461    1.000
    H12      H        0.77440    0.02170    0.44950    1.000
    C21      C        0.56660    0.02560    0.70050    1.000
    C22      C        0.45270    0.05415    0.72340    1.000
    H13      H        0.39520    0.07630    0.69610    1.000
    C23      C        0.42210    0.05078    0.78510    1.000
    H14      H        0.34730    0.07140    0.80040    1.000
    C24      C        0.50080    0.01714    0.82460    1.000
    C25      C        0.60530    0.98640    0.80120    1.000
    H15      H        0.65330    0.96170    0.82700    1.000
    C26      C        0.64030    0.99150    0.74030    1.000
    H16      H        0.71650    0.97110    0.72540    1.000
    C27      C        0.47610    0.01510    0.89280    1.000
    O1       O        0.39600    0.04689    0.91406    1.000
    O2       O        0.53800    0.98077    0.92567    1.000
    C28      C        0.69590    0.22037    0.51380    1.000
    C29      C        0.55510    0.24110    0.48130    1.000
    H17      H        0.48070    0.22240    0.45540    1.000
    C30      C        0.53080    0.28950    0.48880    1.000
    H18      H        0.43780    0.30390    0.46800    1.000
    C31      C        0.63900    0.31710    0.52600    1.000
    C32      C        0.77410    0.29720    0.55580    1.000
    H19      H        0.85040    0.31650    0.57990    1.000
    C33      C        0.80010    0.24880    0.55080    1.000
    H20      H        0.89180    0.23500    0.57350    1.000
    C34      C        0.60810    0.37000    0.53010    1.000
    O3       O        0.72270    0.39603    0.54980    1.000
    O4       O        0.46900    0.38404    0.51210    1.000
    C35      C        0.93780    0.06925    0.28420    1.000
    C36      C        0.87450    0.04110    0.23440    1.000
    H21      H        0.79380    0.01900    0.24080    1.000
    C37      C        0.92520    0.04415    0.17550    1.000
    H22      H        0.88140    0.02390    0.14250    1.000
    C38      C        0.04140    0.07729    0.16510    1.000
    C39      C        0.10380    0.10708    0.21370    1.000
    H23      H        0.18010    0.13030    0.20630    1.000
    C40      C        0.05440    0.10289    0.27340    1.000
    H24      H        0.09950    0.12270    0.30670    1.000
    C41      C        0.11240    0.07665    0.10440    1.000
    O5       O        0.08490    0.04123    0.06764    1.000
    O6       O        0.21250    0.10733    0.09229    1.000
    C42      C        0.78450    0.87390    0.47030    1.000
    C43      C        0.85340    0.84730    0.52220    1.000
    H25      H        0.89330    0.86300    0.56010    1.000
    C44      C        0.86340    0.79830    0.51830    1.000
    H26      H        0.91070    0.78070    0.55350    1.000
    C45      C        0.80410    0.77460    0.46290    1.000
    C46      C        0.73630    0.80040    0.41190    1.000
    H27      H        0.69640    0.78460    0.37410    1.000
    C47      C        0.72590    0.84960    0.41560    1.000
    H28      H        0.67810    0.86700    0.38020    1.000
    C48      C        0.82120    0.72190    0.46120    1.000
    O7       O        0.87030    0.69841    0.50684    1.000
    O8       O        0.77280    0.70320    0.40494    1.000
    H29      H        0.78740    0.67370    0.40620    1.000
    Er2      Er       0.70503    0.55831    0.49356    1.000
    C49      C        0.30360    0.44465    0.97490    1.000
    C50      C        0.39030    0.41610    0.93390    1.000
    H30      H        0.41180    0.38300    0.93740    1.000
    C51      C        0.43370    0.44586    0.88980    1.000
    H31      H        0.49290    0.43760    0.85660    1.000
    C52      C        0.37480    0.49228    0.90200    1.000
    C53      C        0.38540    0.53280    0.86340    1.000
    C54      C        0.34380    0.57873    0.87990    1.000
    C55      C        0.34080    0.62053    0.84110    1.000
    H32      H        0.35470    0.62130    0.79780    1.000
    C56      C        0.31500    0.65810    0.87650    1.000
    H33      H        0.30930    0.69030    0.86330    1.000
    C57      C        0.29720    0.64016    0.93930    1.000
    C58      C        0.28090    0.66860    0.99220    1.000
    C59      C        0.24790    0.65069    0.05070    1.000
    C60      C        0.23010    0.67965    0.10530    1.000
    H34      H        0.24770    0.71290    0.10930    1.000
    C61      C        0.18360    0.65038    0.14940    1.000
    H35      H        0.16430    0.65930    0.19050    1.000
    C62      C        0.16850    0.60328    0.12320    1.000
    C63      C        0.11410    0.56300    0.15230    1.000
    C64      C        0.11060    0.51669    0.12700    1.000
    C65      C        0.04020    0.47540    0.15230    1.000
    H36      H        0.98280    0.47500    0.18760    1.000
    C66      C        0.07020    0.43760    0.11700    1.000
    H37      H        0.03750    0.40580    0.12270    1.000
    C67      C        0.16110    0.45458    0.06930    1.000
    C68      C        0.22770    0.42671    0.02480    1.000
    N5       N        0.30290    0.49062    0.95568    1.000
    H38      H        0.26350    0.51490    0.97440    1.000
    N6       N        0.31100    0.59221    0.93868    1.000
    H39      H        0.30080    0.57300    0.97040    1.000
    N7       N        0.21220    0.60481    0.06368    1.000
    H40      H        0.21650    0.58040    0.03830    1.000
    N8       N        0.17880    0.50297    0.07539    1.000
    H41      H        0.22560    0.52170    0.05050    1.000
    C69      C        0.43340    0.52560    0.79950    1.000
    C70      C        0.54730    0.55415    0.77660    1.000
    H42      H        0.60480    0.57630    0.80390    1.000
    C71      C        0.57790    0.55078    0.71490    1.000
    H43      H        0.65270    0.57140    0.69960    1.000
    C72      C        0.49920    0.51714    0.67540    1.000
    C73      C        0.39470    0.48640    0.69880    1.000
    H44      H        0.34670    0.46170    0.67300    1.000
    C74      C        0.35970    0.49150    0.75970    1.000
    H45      H        0.28350    0.47110    0.77460    1.000
    C75      C        0.52390    0.51510    0.60720    1.000
    O9       O        0.60400    0.54689    0.58594    1.000
    O10      O        0.46200    0.48077    0.57433    1.000
    C76      C        0.30410    0.72037    0.98620    1.000
    C77      C        0.44490    0.74110    0.01870    1.000
    H46      H        0.51930    0.72240    0.04460    1.000
    C78      C        0.46920    0.78950    0.01120    1.000
    H47      H        0.56220    0.80390    0.03200    1.000
    C79      C        0.36100    0.81710    0.97400    1.000
    C80      C        0.22590    0.79720    0.94420    1.000
    H48      H        0.14960    0.81650    0.92010    1.000
    C81      C        0.19990    0.74880    0.94920    1.000
    H49      H        0.10820    0.73500    0.92650    1.000
    C82      C        0.39190    0.87000    0.96990    1.000
    O11      O        0.27730    0.89603    0.95020    1.000
    O12      O        0.53100    0.88404    0.98790    1.000
    C83      C        0.06220    0.56925    0.21580    1.000
    C84      C        0.12550    0.54110    0.26560    1.000
    H50      H        0.20620    0.51900    0.25920    1.000
    C85      C        0.07480    0.54415    0.32450    1.000
    H51      H        0.11860    0.52390    0.35750    1.000
    C86      C        0.95860    0.57729    0.33490    1.000
    C87      C        0.89620    0.60708    0.28630    1.000
    H52      H        0.81990    0.63030    0.29370    1.000
    C88      C        0.94560    0.60289    0.22660    1.000
    H53      H        0.90050    0.62270    0.19330    1.000
    C89      C        0.88760    0.57665    0.39560    1.000
    O13      O        0.91510    0.54123    0.43236    1.000
    O14      O        0.78750    0.60733    0.40771    1.000
    C90      C        0.21550    0.37390    0.02970    1.000
    C91      C        0.14660    0.34730    0.97780    1.000
    H54      H        0.10670    0.36300    0.93990    1.000
    C92      C        0.13660    0.29830    0.98170    1.000
    H55      H        0.08930    0.28070    0.94650    1.000
    C93      C        0.19590    0.27460    0.03710    1.000
    C94      C        0.26370    0.30040    0.08810    1.000
    H56      H        0.30360    0.28460    0.12590    1.000
    C95      C        0.27410    0.34960    0.08440    1.000
    H57      H        0.32190    0.36700    0.11980    1.000
    C96      C        0.17880    0.22190    0.03880    1.000
    O15      O        0.12970    0.19841    0.99316    1.000
    O16      O        0.22720    0.20320    0.09506    1.000
    H58      H        0.21260    0.17370    0.09380    1.000
    Er3      Er       0.70503    0.94169    0.99356    1.000
    C97      C        0.30360    0.05535    0.47490    1.000
    C98      C        0.39030    0.08390    0.43390    1.000
    H59      H        0.41180    0.11700    0.43740    1.000
    C99      C        0.43370    0.05414    0.38980    1.000
    H60      H        0.49290    0.06240    0.35660    1.000
    C100     C        0.37480    0.00772    0.40200    1.000
    C101     C        0.38540    0.96720    0.36340    1.000
    C102     C        0.34380    0.92127    0.37990    1.000
    C103     C        0.34080    0.87947    0.34110    1.000
    H61      H        0.35470    0.87870    0.29780    1.000
    C104     C        0.31500    0.84190    0.37650    1.000
    H62      H        0.30930    0.80970    0.36330    1.000
    C105     C        0.29720    0.85984    0.43930    1.000
    C106     C        0.28090    0.83140    0.49220    1.000
    C107     C        0.24790    0.84931    0.55070    1.000
    C108     C        0.23010    0.82035    0.60530    1.000
    H63      H        0.24770    0.78710    0.60930    1.000
    C109     C        0.18360    0.84962    0.64940    1.000
    H64      H        0.16430    0.84070    0.69050    1.000
    C110     C        0.16850    0.89672    0.62320    1.000
    C111     C        0.11410    0.93700    0.65230    1.000
    C112     C        0.11060    0.98331    0.62700    1.000
    C113     C        0.04020    0.02460    0.65230    1.000
    H65      H        0.98280    0.02500    0.68760    1.000
    C114     C        0.07020    0.06240    0.61700    1.000
    H66      H        0.03750    0.09420    0.62270    1.000
    C115     C        0.16110    0.04542    0.56930    1.000
    C116     C        0.22770    0.07329    0.52480    1.000
    N9       N        0.30290    0.00938    0.45568    1.000
    H67      H        0.26350    0.98510    0.47440    1.000
    N10      N        0.31100    0.90779    0.43868    1.000
    H68      H        0.30080    0.92700    0.47040    1.000
    N11      N        0.21220    0.89519    0.56368    1.000
    H69      H        0.21650    0.91960    0.53830    1.000
    N12      N        0.17880    0.99703    0.57539    1.000
    H70      H        0.22560    0.97830    0.55050    1.000
    C117     C        0.43340    0.97440    0.29950    1.000
    C118     C        0.54730    0.94585    0.27660    1.000
    H71      H        0.60480    0.92370    0.30390    1.000
    C119     C        0.57790    0.94922    0.21490    1.000
    H72      H        0.65270    0.92860    0.19960    1.000
    C120     C        0.49920    0.98286    0.17540    1.000
    C121     C        0.39470    0.01360    0.19880    1.000
    H73      H        0.34670    0.03830    0.17300    1.000
    C122     C        0.35970    0.00850    0.25970    1.000
    H74      H        0.28350    0.02890    0.27460    1.000
    C123     C        0.52390    0.98490    0.10720    1.000
    O17      O        0.60400    0.95311    0.08594    1.000
    O18      O        0.46200    0.01923    0.07433    1.000
    C124     C        0.30410    0.77963    0.48620    1.000
    C125     C        0.44490    0.75890    0.51870    1.000
    H75      H        0.51930    0.77760    0.54460    1.000
    C126     C        0.46920    0.71050    0.51120    1.000
    H76      H        0.56220    0.69610    0.53200    1.000
    C127     C        0.36100    0.68290    0.47400    1.000
    C128     C        0.22590    0.70280    0.44420    1.000
    H77      H        0.14960    0.68350    0.42010    1.000
    C129     C        0.19990    0.75120    0.44920    1.000
    H78      H        0.10820    0.76500    0.42650    1.000
    C130     C        0.39190    0.63000    0.46990    1.000
    O19      O        0.27730    0.60397    0.45020    1.000
    O20      O        0.53100    0.61596    0.48790    1.000
    C131     C        0.06220    0.93075    0.71580    1.000
    C132     C        0.12550    0.95890    0.76560    1.000
    H79      H        0.20620    0.98100    0.75920    1.000
    C133     C        0.07480    0.95585    0.82450    1.000
    H80      H        0.11860    0.97610    0.85750    1.000
    C134     C        0.95860    0.92271    0.83490    1.000
    C135     C        0.89620    0.89292    0.78630    1.000
    H81      H        0.81990    0.86970    0.79370    1.000
    C136     C        0.94560    0.89711    0.72660    1.000
    H82      H        0.90050    0.87730    0.69330    1.000
    C137     C        0.88760    0.92335    0.89560    1.000
    O21      O        0.91510    0.95877    0.93236    1.000
    O22      O        0.78750    0.89267    0.90771    1.000
    C138     C        0.21550    0.12610    0.52970    1.000
    C139     C        0.14660    0.15270    0.47780    1.000
    H83      H        0.10670    0.13700    0.43990    1.000
    C140     C        0.13660    0.20170    0.48170    1.000
    H84      H        0.08930    0.21930    0.44650    1.000
    C141     C        0.19590    0.22540    0.53710    1.000
    C142     C        0.26370    0.19960    0.58810    1.000
    H85      H        0.30360    0.21540    0.62590    1.000
    C143     C        0.27410    0.15040    0.58440    1.000
    H86      H        0.32190    0.13300    0.61980    1.000
    C144     C        0.17880    0.27810    0.53880    1.000
    O23      O        0.12970    0.30159    0.49316    1.000
    O24      O        0.22720    0.29680    0.59506    1.000
    H87      H        0.21260    0.32630    0.59380    1.000
    Er4      Er       0.29497    0.44169    0.50644    1.000
    C145     C        0.69640    0.55535    0.02510    1.000
    C146     C        0.60970    0.58390    0.06610    1.000
    H88      H        0.58820    0.61700    0.06260    1.000
    C147     C        0.56630    0.55414    0.11020    1.000
    H89      H        0.50710    0.56240    0.14340    1.000
    C148     C        0.62520    0.50772    0.09800    1.000
    C149     C        0.61460    0.46720    0.13660    1.000
    C150     C        0.65620    0.42127    0.12010    1.000
    C151     C        0.65920    0.37947    0.15890    1.000
    H90      H        0.64530    0.37870    0.20220    1.000
    C152     C        0.68500    0.34190    0.12350    1.000
    H91      H        0.69070    0.30970    0.13670    1.000
    C153     C        0.70280    0.35984    0.06070    1.000
    C154     C        0.71910    0.33140    0.00780    1.000
    C155     C        0.75210    0.34931    0.94930    1.000
    C156     C        0.76990    0.32035    0.89470    1.000
    H92      H        0.75230    0.28710    0.89070    1.000
    C157     C        0.81640    0.34962    0.85060    1.000
    H93      H        0.83570    0.34070    0.80950    1.000
    C158     C        0.83150    0.39672    0.87680    1.000
    C159     C        0.88590    0.43700    0.84770    1.000
    C160     C        0.88940    0.48331    0.87300    1.000
    C161     C        0.95980    0.52460    0.84770    1.000
    H94      H        0.01720    0.52500    0.81240    1.000
    C162     C        0.92980    0.56240    0.88300    1.000
    H95      H        0.96250    0.59420    0.87730    1.000
    C163     C        0.83890    0.54542    0.93070    1.000
    C164     C        0.77230    0.57329    0.97520    1.000
    N13      N        0.69710    0.50938    0.04432    1.000
    H96      H        0.73650    0.48510    0.02560    1.000
    N14      N        0.68900    0.40779    0.06132    1.000
    H97      H        0.69920    0.42700    0.02960    1.000
    N15      N        0.78780    0.39519    0.93632    1.000
    H98      H        0.78350    0.41960    0.96170    1.000
    N16      N        0.82120    0.49703    0.92461    1.000
    H99      H        0.77440    0.47830    0.94950    1.000
    C165     C        0.56660    0.47440    0.20050    1.000
    C166     C        0.45270    0.44585    0.22340    1.000
    H100     H        0.39520    0.42370    0.19610    1.000
    C167     C        0.42210    0.44922    0.28510    1.000
    H101     H        0.34730    0.42860    0.30040    1.000
    C168     C        0.50080    0.48286    0.32460    1.000
    C169     C        0.60530    0.51360    0.30120    1.000
    H102     H        0.65330    0.53830    0.32700    1.000
    C170     C        0.64030    0.50850    0.24030    1.000
    H103     H        0.71650    0.52890    0.22540    1.000
    C171     C        0.47610    0.48490    0.39280    1.000
    O25      O        0.39600    0.45311    0.41406    1.000
    O26      O        0.53800    0.51923    0.42567    1.000
    C172     C        0.69590    0.27963    0.01380    1.000
    C173     C        0.55510    0.25890    0.98130    1.000
    H104     H        0.48070    0.27760    0.95540    1.000
    C174     C        0.53080    0.21050    0.98880    1.000
    H105     H        0.43780    0.19610    0.96800    1.000
    C175     C        0.63900    0.18290    0.02600    1.000
    C176     C        0.77410    0.20280    0.05580    1.000
    H106     H        0.85040    0.18350    0.07990    1.000
    C177     C        0.80010    0.25120    0.05080    1.000
    H107     H        0.89180    0.26500    0.07350    1.000
    C178     C        0.60810    0.13000    0.03010    1.000
    O27      O        0.72270    0.10397    0.04980    1.000
    O28      O        0.46900    0.11596    0.01210    1.000
    C179     C        0.93780    0.43075    0.78420    1.000
    C180     C        0.87450    0.45890    0.73440    1.000
    H108     H        0.79380    0.48100    0.74080    1.000
    C181     C        0.92520    0.45585    0.67550    1.000
    H109     H        0.88140    0.47610    0.64250    1.000
    C182     C        0.04140    0.42271    0.66510    1.000
    C183     C        0.10380    0.39292    0.71370    1.000
    H110     H        0.18010    0.36970    0.70630    1.000
    C184     C        0.05440    0.39711    0.77340    1.000
    H111     H        0.09950    0.37730    0.80670    1.000
    C185     C        0.11240    0.42335    0.60440    1.000
    O29      O        0.08490    0.45877    0.56764    1.000
    O30      O        0.21250    0.39267    0.59229    1.000
    C186     C        0.78450    0.62610    0.97030    1.000
    C187     C        0.85340    0.65270    0.02220    1.000
    H112     H        0.89330    0.63700    0.06010    1.000
    C188     C        0.86340    0.70170    0.01830    1.000
    H113     H        0.91070    0.71930    0.05350    1.000
    C189     C        0.80410    0.72540    0.96290    1.000
    C190     C        0.73630    0.69960    0.91190    1.000
    H114     H        0.69640    0.71540    0.87410    1.000
    C191     C        0.72590    0.65040    0.91560    1.000
    H115     H        0.67810    0.63300    0.88020    1.000
    C192     C        0.82120    0.77810    0.96120    1.000
    O31      O        0.87030    0.80159    0.00684    1.000
    O32      O        0.77280    0.79680    0.90494    1.000
    H116     H        0.78740    0.82630    0.90620    1.000
