data_functionalizedCrystal
_audit_creation_method	'EQeq! by Chris Wilmer'
_symmetry_space_group_name_H-M	'P1'
_symmetry_Int_Tables_number	1
_symmetry_cell_setting	triclinic
loop_
_symmetry_equiv_pos_as_xyz
  x,y,z
_cell_length_a	15.199
_cell_length_b	15.493
_cell_length_c	15.493
_cell_angle_alpha	120
_cell_angle_beta	90
_cell_angle_gamma	90
loop_
_atom_site_label
_atom_site_type_symbol
_atom_site_fract_x
_atom_site_fract_y
_atom_site_fract_z
_atom_site_charge
Mof_Pr	Pr	0.99749	0.33333	0.66666	2.337
Mof_Pr	Pr	0.99749	0.66667	0.33334	2.336
Mof_Pr	Pr	0.49749	0.33333	0.66666	2.553
Mof_Pr	Pr	0.49749	0.66667	0.33334	2.553
Mof_Co	Co	0.7472	0.5	-0	1.122
Mof_Co	Co	0.7472	0.5	0.5	1.16
Mof_Co	Co	0.7472	0	0.5	1.122
Mof_Co	Co	0.2472	0.5	-0	1.124
Mof_Co	Co	0.2472	0	0.5	1.124
Mof_Co	Co	0.2472	0.5	0.5	1.163
Mof_H 	H 	0.0877	0.7125	0.7642	0.113
Mof_H 	H 	0.0095	0.7984	0.8985	0.005
Mof_H 	H 	0.9011	0.7119	0.9471	0.121
Mof_H 	H 	0.0877	0.0517	0.2875	0.079
Mof_H 	H 	0.0095	0.1001	0.2016	-0.047
Mof_H 	H 	0.9011	0.2352	0.2881	0.089
Mof_H 	H 	0.0877	0.2358	0.9483	0.123
Mof_H 	H 	0.0095	0.1015	0.8999	-0.024
Mof_H 	H 	0.9011	0.0529	0.7648	0.082
Mof_H 	H 	0.0877	0.2875	0.2358	0.097
Mof_H 	H 	0.0095	0.2016	0.1015	-0.049
Mof_H 	H 	0.9011	0.2881	0.0529	0.074
Mof_H 	H 	0.0877	0.9483	0.7125	0.131
Mof_H 	H 	0.0095	0.8999	0.7984	0.002
Mof_H 	H 	0.9011	0.7648	0.7119	0.106
Mof_H 	H 	0.0877	0.7642	0.0517	0.086
Mof_H 	H 	0.0095	0.8985	0.1001	-0.02
Mof_H 	H 	0.9011	0.9471	0.2352	0.112
Mof_H 	H 	0.5877	0.0517	0.7642	0.016
Mof_H 	H 	0.5095	0.1001	0.8985	0.047
Mof_H 	H 	0.4011	0.2352	0.9471	0.062
Mof_H 	H 	0.5877	0.2358	0.2875	0.026
Mof_H 	H 	0.5095	0.1015	0.2016	0.018
Mof_H 	H 	0.4011	0.0529	0.2881	0.023
Mof_H 	H 	0.5877	0.7125	0.9483	0.061
Mof_H 	H 	0.5095	0.7984	0.8999	0.07
Mof_H 	H 	0.4011	0.7119	0.7648	0.055
Mof_H 	H 	0.5877	0.9483	0.2358	0.053
Mof_H 	H 	0.5095	0.8999	0.1015	0.042
Mof_H 	H 	0.4011	0.7648	0.0529	0.032
Mof_H 	H 	0.5877	0.7642	0.7125	0.042
Mof_H 	H 	0.5095	0.8985	0.7984	0.072
Mof_H 	H 	0.4011	0.9471	0.7119	0.07
Mof_H 	H 	0.5877	0.2875	0.0517	0.008
Mof_H 	H 	0.5095	0.2016	0.1001	0.02
Mof_H 	H 	0.4011	0.2881	0.2352	0.038
Mof_C 	C 	0.0525	0.5762	0.7331	0.092
Mof_C 	C 	0.0516	0.6786	0.7858	-0.171
Mof_C 	C 	0.0042	0.7294	0.8626	0.196
Mof_C 	C 	0.9404	0.6784	0.8947	-0.214
Mof_C 	C 	0.8858	0.5135	0.8673	0.381
Mof_C 	C 	0.1078	0.51	0.6462	0.312
Mof_C 	C 	0.9459	0.5751	0.838	0.028
Mof_C 	C 	0.0525	0.1569	0.4238	0.072
Mof_C 	C 	0.0516	0.1072	0.3214	-0.178
Mof_C 	C 	0.0042	0.1332	0.2706	0.175
Mof_C 	C 	0.9404	0.2163	0.3216	-0.229
Mof_C 	C 	0.8858	0.3538	0.4865	0.385
Mof_C 	C 	0.1078	0.1362	0.49	0.311
Mof_C 	C 	0.9459	0.2629	0.4249	0.009
Mof_C 	C 	0.0525	0.2669	0.8431	0.095
Mof_C 	C 	0.0516	0.2142	0.8928	-0.178
Mof_C 	C 	0.0042	0.1374	0.8668	0.187
Mof_C 	C 	0.9404	0.1053	0.7837	-0.223
Mof_C 	C 	0.8858	0.1327	0.6462	0.389
Mof_C 	C 	0.1078	0.3538	0.8638	0.307
Mof_C 	C 	0.9459	0.162	0.7371	0.009
Mof_C 	C 	0.0525	0.4238	0.2669	0.081
Mof_C 	C 	0.0516	0.3214	0.2142	-0.181
Mof_C 	C 	0.0042	0.2706	0.1374	0.178
Mof_C 	C 	0.9404	0.3216	0.1053	-0.232
Mof_C 	C 	0.8858	0.4865	0.1327	0.388
Mof_C 	C 	0.1078	0.49	0.3538	0.309
Mof_C 	C 	0.9459	0.4249	0.162	0.004
Mof_C 	C 	0.0525	0.8431	0.5762	0.102
Mof_C 	C 	0.0516	0.8928	0.6786	-0.176
Mof_C 	C 	0.0042	0.8668	0.7294	0.2
Mof_C 	C 	0.9404	0.7837	0.6784	-0.216
Mof_C 	C 	0.8858	0.6462	0.5135	0.387
Mof_C 	C 	0.1078	0.8638	0.51	0.307
Mof_C 	C 	0.9459	0.7371	0.5751	0.021
Mof_C 	C 	0.0525	0.7331	0.1569	0.077
Mof_C 	C 	0.0516	0.7858	0.1072	-0.172
Mof_C 	C 	0.0042	0.8626	0.1332	0.182
Mof_C 	C 	0.9404	0.8947	0.2163	-0.219
Mof_C 	C 	0.8858	0.8673	0.3538	0.381
Mof_C 	C 	0.1078	0.6462	0.1362	0.312
Mof_C 	C 	0.9459	0.838	0.2629	0.022
Mof_C 	C 	0.5525	0.1569	0.7331	-0.069
Mof_C 	C 	0.5516	0.1072	0.7858	0.007
Mof_C 	C 	0.5042	0.1332	0.8626	-0.066
Mof_C 	C 	0.4404	0.2163	0.8947	-0.021
Mof_C 	C 	0.3858	0.3538	0.8673	0.414
Mof_C 	C 	0.6078	0.1362	0.6462	0.354
Mof_C 	C 	0.4459	0.2629	0.838	-0.034
Mof_C 	C 	0.5525	0.2669	0.4238	-0.067
Mof_C 	C 	0.5516	0.2142	0.3214	0
Mof_C 	C 	0.5042	0.1374	0.2706	-0.074
Mof_C 	C 	0.4404	0.1053	0.3216	-0.032
Mof_C 	C 	0.3858	0.1327	0.4865	0.421
Mof_C 	C 	0.6078	0.3538	0.49	0.352
Mof_C 	C 	0.4459	0.162	0.4249	-0.053
Mof_C 	C 	0.5525	0.5762	0.8431	-0.045
Mof_C 	C 	0.5516	0.6786	0.8928	0.004
Mof_C 	C 	0.5042	0.7294	0.8668	-0.05
Mof_C 	C 	0.4404	0.6784	0.7837	-0.017
Mof_C 	C 	0.3858	0.5135	0.6462	0.421
Mof_C 	C 	0.6078	0.51	0.8638	0.35
Mof_C 	C 	0.4459	0.5751	0.7371	-0.035
Mof_C 	C 	0.5525	0.8431	0.2669	-0.05
Mof_C 	C 	0.5516	0.8928	0.2142	-0
Mof_C 	C 	0.5042	0.8668	0.1374	-0.06
Mof_C 	C 	0.4404	0.7837	0.1053	-0.027
Mof_C 	C 	0.3858	0.6462	0.1327	0.422
Mof_C 	C 	0.6078	0.8638	0.3538	0.349
Mof_C 	C 	0.4459	0.7371	0.162	-0.047
Mof_C 	C 	0.5525	0.7331	0.5762	-0.055
Mof_C 	C 	0.5516	0.7858	0.6786	0.008
Mof_C 	C 	0.5042	0.8626	0.7294	-0.053
Mof_C 	C 	0.4404	0.8947	0.6784	-0.015
Mof_C 	C 	0.3858	0.8673	0.5135	0.415
Mof_C 	C 	0.6078	0.6462	0.51	0.354
Mof_C 	C 	0.4459	0.838	0.5751	-0.028
Mof_C 	C 	0.5525	0.4238	0.1569	-0.076
Mof_C 	C 	0.5516	0.3214	0.1072	0.003
Mof_C 	C 	0.5042	0.2706	0.1332	-0.077
Mof_C 	C 	0.4404	0.3216	0.2163	-0.029
Mof_C 	C 	0.3858	0.4865	0.3538	0.419
Mof_C 	C 	0.6078	0.49	0.1362	0.353
Mof_C 	C 	0.4459	0.4249	0.2629	-0.047
Mof_N 	N 	0.9976	0.5254	0.7638	-0.287
Mof_N 	N 	0.9976	0.2384	0.4746	-0.287
Mof_N 	N 	0.9976	0.2362	0.7616	-0.287
Mof_N 	N 	0.9976	0.4746	0.2362	-0.288
Mof_N 	N 	0.9976	0.7616	0.5254	-0.287
Mof_N 	N 	0.9976	0.7638	0.2384	-0.286
Mof_N 	N 	0.4976	0.2384	0.7638	-0.221
Mof_N 	N 	0.4976	0.2362	0.4746	-0.222
Mof_N 	N 	0.4976	0.5254	0.7616	-0.221
Mof_N 	N 	0.4976	0.7616	0.2362	-0.222
Mof_N 	N 	0.4976	0.7638	0.5254	-0.221
Mof_N 	N 	0.4976	0.4746	0.2384	-0.221
Mof_O 	O 	0.107	0.4165	0.614	-0.458
Mof_O 	O 	0.8891	0.4214	0.8064	-0.505
Mof_O 	O 	0.8431	0.5561	0.9411	-0.409
Mof_O 	O 	0.1548	0.5534	0.6092	-0.398
Mof_O 	O 	0.107	0.1975	0.5835	-0.468
Mof_O 	O 	0.8891	0.385	0.5786	-0.52
Mof_O 	O 	0.8431	0.385	0.4439	-0.455
Mof_O 	O 	0.1548	0.0558	0.4466	-0.43
Mof_O 	O 	0.107	0.386	0.8025	-0.447
Mof_O 	O 	0.8891	0.1936	0.615	-0.528
Mof_O 	O 	0.8431	0.0589	0.615	-0.477
Mof_O 	O 	0.1548	0.3908	0.9442	-0.361
Mof_O 	O 	0.107	0.5835	0.386	-0.46
Mof_O 	O 	0.8891	0.5786	0.1936	-0.529
Mof_O 	O 	0.8431	0.4439	0.0589	-0.48
Mof_O 	O 	0.1548	0.4466	0.3908	-0.404
Mof_O 	O 	0.107	0.8025	0.4165	-0.446
Mof_O 	O 	0.8891	0.615	0.4214	-0.518
Mof_O 	O 	0.8431	0.615	0.5561	-0.448
Mof_O 	O 	0.1548	0.9442	0.5534	-0.358
Mof_O 	O 	0.107	0.614	0.1975	-0.467
Mof_O 	O 	0.8891	0.8064	0.385	-0.506
Mof_O 	O 	0.8431	0.9411	0.385	-0.412
Mof_O 	O 	0.1548	0.6092	0.0558	-0.427
Mof_O 	O 	0.607	0.1975	0.614	-0.526
Mof_O 	O 	0.3891	0.385	0.8064	-0.523
Mof_O 	O 	0.3431	0.385	0.9411	-0.414
Mof_O 	O 	0.6548	0.0558	0.6092	-0.447
Mof_O 	O 	0.607	0.386	0.5835	-0.518
Mof_O 	O 	0.3891	0.1936	0.5786	-0.546
Mof_O 	O 	0.3431	0.0589	0.4439	-0.482
Mof_O 	O 	0.6548	0.3908	0.4466	-0.424
Mof_O 	O 	0.607	0.4165	0.8025	-0.505
Mof_O 	O 	0.3891	0.4214	0.615	-0.535
Mof_O 	O 	0.3431	0.5561	0.615	-0.45
Mof_O 	O 	0.6548	0.5534	0.9442	-0.378
Mof_O 	O 	0.607	0.8025	0.386	-0.506
Mof_O 	O 	0.3891	0.615	0.1936	-0.545
Mof_O 	O 	0.3431	0.615	0.0589	-0.479
Mof_O 	O 	0.6548	0.9442	0.3908	-0.381
Mof_O 	O 	0.607	0.614	0.4165	-0.516
Mof_O 	O 	0.3891	0.8064	0.4214	-0.522
Mof_O 	O 	0.3431	0.9411	0.5561	-0.411
Mof_O 	O 	0.6548	0.6092	0.5534	-0.418
Mof_O 	O 	0.607	0.5835	0.1975	-0.527
Mof_O 	O 	0.3891	0.5786	0.385	-0.537
Mof_O 	O 	0.3431	0.4439	0.385	-0.457
Mof_O 	O 	0.6548	0.4466	0.0558	-0.45
_end
