# CIF file generated by openbabel 3.1.0, see https://openbabel.org
data_I
_chemical_name_common 'image0'
_cell_length_a 8.0451
_cell_length_b 21.3785
_cell_length_c 18.3326
_cell_angle_alpha 90
_cell_angle_beta 90.035
_cell_angle_gamma 90
_space_group_name_H-M_alt 'P 1'
_space_group_name_Hall 'P 1'
loop_
    _symmetry_equiv_pos_as_xyz
    x,y,z
loop_
    _atom_site_label
    _atom_site_type_symbol
    _atom_site_fract_x
    _atom_site_fract_y
    _atom_site_fract_z
    _atom_site_occupancy
    Eu1      Eu       0.14450    0.58122    0.25030    1.000
    Eu2      Eu       0.65187    0.63167    0.27537    1.000
    Cl1      Cl       0.93330    0.59870    0.36720    1.000
    C1       C        0.28600    0.79290    0.25890    1.000
    C2       C        0.13250    0.81320    0.26580    1.000
    H1       H        0.04560    0.78470    0.26940    1.000
    C3       C        0.09800    0.87820    0.26760    1.000
    H2       H        0.99020    0.89280    0.27330    1.000
    C4       C        0.22760    0.91890    0.26090    1.000
    C5       C        0.39200    0.89700    0.25350    1.000
    H3       H        0.47900    0.92530    0.24950    1.000
    C6       C        0.42210    0.83520    0.25210    1.000
    H4       H        0.53000    0.82020    0.24690    1.000
    C7       C        0.32600    0.72350    0.25190    1.000
    C8       C        0.19520    0.98730    0.25830    1.000
    O1       O        0.20540    0.68630    0.26160    1.000
    O2       O        0.46460    0.70570    0.23630    1.000
    O3       O        0.04900    0.00660    0.27450    1.000
    O4       O        0.30950    0.02250    0.23510    1.000
    C9       C        0.87920    0.67520    0.07040    1.000
    C10      C        0.77800    0.73020    0.07770    1.000
    H5       H        0.74850    0.74510    0.12350    1.000
    C11      C        0.72700    0.75950    0.01730    1.000
    H6       H        0.66390    0.79570    0.02210    1.000
    C12      C        0.76450    0.73760    0.94620    1.000
    C13      C        0.86280    0.68640    0.93980    1.000
    H7       H        0.89430    0.67270    0.89370    1.000
    C14      C        0.91690    0.65410    0.00050    1.000
    H8       H        0.97930    0.61780    0.99470    1.000
    C15      C        0.95100    0.64300    0.13440    1.000
    C16      C        0.71070    0.77370    0.87960    1.000
    O5       O        0.88040    0.64760    0.19610    1.000
    O6       O        0.07990    0.61430    0.12840    1.000
    O7       O        0.59370    0.81430    0.88880    1.000
    O8       O        0.77730    0.76550    0.81990    1.000
    C17      C        0.47400    0.52510    0.06880    1.000
    C18      C        0.35600    0.49000    0.03530    1.000
    H9       H        0.25770    0.48200    0.06020    1.000
    C19      C        0.62500    0.53390    0.03320    1.000
    H10      H        0.71150    0.55560    0.05570    1.000
    C20      C        0.44400    0.55050    0.14230    1.000
    O9       O        0.33410    0.53090    0.17950    1.000
    O10      O        0.54400    0.59700    0.15900    1.000
    C21      C        0.43850    0.51750    0.43100    1.000
    C22      C        0.54000    0.55730    0.46840    1.000
    H11      H        0.56790    0.59600    0.44840    1.000
    C23      C        0.39600    0.45990    0.46260    1.000
    H12      H        0.32470    0.43280    0.43790    1.000
    C24      C        0.35820    0.53270    0.36130    1.000
    O11      O        0.40280    0.58520    0.32870    1.000
    O12      O        0.24730    0.50080    0.33480    1.000
    H13      H        0.60640    0.58630    0.19220    1.000
    Eu3      Eu       0.85550    0.08122    0.24970    1.000
    Eu4      Eu       0.34813    0.13167    0.22463    1.000
    Cl2      Cl       0.06670    0.09870    0.13280    1.000
    C25      C        0.71400    0.29290    0.24110    1.000
    C26      C        0.86750    0.31320    0.23420    1.000
    H14      H        0.95440    0.28470    0.23060    1.000
    C27      C        0.90200    0.37820    0.23240    1.000
    H15      H        0.00980    0.39280    0.22670    1.000
    C28      C        0.77240    0.41890    0.23910    1.000
    C29      C        0.60800    0.39700    0.24650    1.000
    H16      H        0.52100    0.42530    0.25050    1.000
    C30      C        0.57790    0.33520    0.24790    1.000
    H17      H        0.47000    0.32020    0.25310    1.000
    C31      C        0.67400    0.22350    0.24810    1.000
    C32      C        0.80480    0.48730    0.24170    1.000
    O13      O        0.79460    0.18630    0.23840    1.000
    O14      O        0.53540    0.20570    0.26370    1.000
    O15      O        0.95100    0.50660    0.22550    1.000
    O16      O        0.69050    0.52250    0.26490    1.000
    C33      C        0.12080    0.17520    0.42960    1.000
    C34      C        0.22200    0.23020    0.42230    1.000
    H18      H        0.25150    0.24510    0.37650    1.000
    C35      C        0.27300    0.25950    0.48270    1.000
    H19      H        0.33610    0.29570    0.47790    1.000
    C36      C        0.23550    0.23760    0.55380    1.000
    C37      C        0.13720    0.18640    0.56020    1.000
    H20      H        0.10570    0.17270    0.60630    1.000
    C38      C        0.08310    0.15410    0.49950    1.000
    H21      H        0.02070    0.11780    0.50530    1.000
    C39      C        0.04900    0.14300    0.36560    1.000
    C40      C        0.28930    0.27370    0.62040    1.000
    O17      O        0.11960    0.14760    0.30390    1.000
    O18      O        0.92010    0.11430    0.37160    1.000
    O19      O        0.40630    0.31430    0.61120    1.000
    O20      O        0.22270    0.26550    0.68010    1.000
    C41      C        0.52600    0.02510    0.43120    1.000
    C42      C        0.64400    0.99000    0.46470    1.000
    H22      H        0.74230    0.98200    0.43980    1.000
    C43      C        0.37500    0.03390    0.46680    1.000
    H23      H        0.28850    0.05560    0.44430    1.000
    C44      C        0.55600    0.05050    0.35770    1.000
    O21      O        0.66590    0.03090    0.32050    1.000
    O22      O        0.45600    0.09700    0.34100    1.000
    C45      C        0.56150    0.01750    0.06900    1.000
    C46      C        0.46000    0.05730    0.03160    1.000
    H24      H        0.43210    0.09600    0.05160    1.000
    C47      C        0.60400    0.95990    0.03740    1.000
    H25      H        0.67530    0.93280    0.06210    1.000
    C48      C        0.64180    0.03270    0.13870    1.000
    O23      O        0.59720    0.08520    0.17130    1.000
    O24      O        0.75270    0.00080    0.16520    1.000
    H26      H        0.39360    0.08630    0.30780    1.000
    Eu5      Eu       0.85550    0.41878    0.74970    1.000
    Eu6      Eu       0.34813    0.36833    0.72463    1.000
    Cl3      Cl       0.06670    0.40130    0.63280    1.000
    C49      C        0.71400    0.20710    0.74110    1.000
    C50      C        0.86750    0.18680    0.73420    1.000
    H27      H        0.95440    0.21530    0.73060    1.000
    C51      C        0.90200    0.12180    0.73240    1.000
    H28      H        0.00980    0.10720    0.72670    1.000
    C52      C        0.77240    0.08110    0.73910    1.000
    C53      C        0.60800    0.10300    0.74650    1.000
    H29      H        0.52100    0.07470    0.75050    1.000
    C54      C        0.57790    0.16480    0.74790    1.000
    H30      H        0.47000    0.17980    0.75310    1.000
    C55      C        0.67400    0.27650    0.74810    1.000
    C56      C        0.80480    0.01270    0.74170    1.000
    O25      O        0.79460    0.31370    0.73840    1.000
    O26      O        0.53540    0.29430    0.76370    1.000
    O27      O        0.95100    0.99340    0.72550    1.000
    O28      O        0.69050    0.97750    0.76490    1.000
    C57      C        0.12080    0.32480    0.92960    1.000
    C58      C        0.22200    0.26980    0.92230    1.000
    H31      H        0.25150    0.25490    0.87650    1.000
    C59      C        0.27300    0.24050    0.98270    1.000
    H32      H        0.33610    0.20430    0.97790    1.000
    C60      C        0.23550    0.26240    0.05380    1.000
    C61      C        0.13720    0.31360    0.06020    1.000
    H33      H        0.10570    0.32730    0.10630    1.000
    C62      C        0.08310    0.34590    0.99950    1.000
    H34      H        0.02070    0.38220    0.00530    1.000
    C63      C        0.04900    0.35700    0.86560    1.000
    C64      C        0.28930    0.22630    0.12040    1.000
    O29      O        0.11960    0.35240    0.80390    1.000
    O30      O        0.92010    0.38570    0.87160    1.000
    O31      O        0.40630    0.18570    0.11120    1.000
    O32      O        0.22270    0.23450    0.18010    1.000
    C65      C        0.52600    0.47490    0.93120    1.000
    C66      C        0.64400    0.51000    0.96470    1.000
    H35      H        0.74230    0.51800    0.93980    1.000
    C67      C        0.37500    0.46610    0.96680    1.000
    H36      H        0.28850    0.44440    0.94430    1.000
    C68      C        0.55600    0.44950    0.85770    1.000
    O33      O        0.66590    0.46910    0.82050    1.000
    O34      O        0.45600    0.40300    0.84100    1.000
    C69      C        0.56150    0.48250    0.56900    1.000
    C70      C        0.46000    0.44270    0.53160    1.000
    H37      H        0.43210    0.40400    0.55160    1.000
    C71      C        0.60400    0.54010    0.53740    1.000
    H38      H        0.67530    0.56720    0.56210    1.000
    C72      C        0.64180    0.46730    0.63870    1.000
    O35      O        0.59720    0.41480    0.67130    1.000
    O36      O        0.75270    0.49920    0.66520    1.000
    H39      H        0.39360    0.41370    0.80780    1.000
    Eu7      Eu       0.14450    0.91878    0.75030    1.000
    Eu8      Eu       0.65187    0.86833    0.77537    1.000
    Cl4      Cl       0.93330    0.90130    0.86720    1.000
    C73      C        0.28600    0.70710    0.75890    1.000
    C74      C        0.13250    0.68680    0.76580    1.000
    H40      H        0.04560    0.71530    0.76940    1.000
    C75      C        0.09800    0.62180    0.76760    1.000
    H41      H        0.99020    0.60720    0.77330    1.000
    C76      C        0.22760    0.58110    0.76090    1.000
    C77      C        0.39200    0.60300    0.75350    1.000
    H42      H        0.47900    0.57470    0.74950    1.000
    C78      C        0.42210    0.66480    0.75210    1.000
    H43      H        0.53000    0.67980    0.74690    1.000
    C79      C        0.32600    0.77650    0.75190    1.000
    C80      C        0.19520    0.51270    0.75830    1.000
    O37      O        0.20540    0.81370    0.76160    1.000
    O38      O        0.46460    0.79430    0.73630    1.000
    O39      O        0.04900    0.49340    0.77450    1.000
    O40      O        0.30950    0.47750    0.73510    1.000
    C81      C        0.87920    0.82480    0.57040    1.000
    C82      C        0.77800    0.76980    0.57770    1.000
    H44      H        0.74850    0.75490    0.62350    1.000
    C83      C        0.72700    0.74050    0.51730    1.000
    H45      H        0.66390    0.70430    0.52210    1.000
    C84      C        0.76450    0.76240    0.44620    1.000
    C85      C        0.86280    0.81360    0.43980    1.000
    H46      H        0.89430    0.82730    0.39370    1.000
    C86      C        0.91690    0.84590    0.50050    1.000
    H47      H        0.97930    0.88220    0.49470    1.000
    C87      C        0.95100    0.85700    0.63440    1.000
    C88      C        0.71070    0.72630    0.37960    1.000
    O41      O        0.88040    0.85240    0.69610    1.000
    O42      O        0.07990    0.88570    0.62840    1.000
    O43      O        0.59370    0.68570    0.38880    1.000
    O44      O        0.77730    0.73450    0.31990    1.000
    C89      C        0.47400    0.97490    0.56880    1.000
    C90      C        0.35600    0.01000    0.53530    1.000
    H48      H        0.25770    0.01800    0.56020    1.000
    C91      C        0.62500    0.96610    0.53320    1.000
    H49      H        0.71150    0.94440    0.55570    1.000
    C92      C        0.44400    0.94950    0.64230    1.000
    O45      O        0.33410    0.96910    0.67950    1.000
    O46      O        0.54400    0.90300    0.65900    1.000
    C93      C        0.43850    0.98250    0.93100    1.000
    C94      C        0.54000    0.94270    0.96840    1.000
    H50      H        0.56790    0.90400    0.94840    1.000
    C95      C        0.39600    0.04010    0.96260    1.000
    H51      H        0.32470    0.06720    0.93790    1.000
    C96      C        0.35820    0.96730    0.86130    1.000
    O47      O        0.40280    0.91480    0.82870    1.000
    O48      O        0.24730    0.99920    0.83480    1.000
    H52      H        0.60640    0.91370    0.69220    1.000
