# CIF file generated by openbabel 3.1.0, see https://openbabel.org
data_I
_chemical_name_common 'image0'
_cell_length_a 14.303
_cell_length_b 18.7159
_cell_length_c 17.0511
_cell_angle_alpha 90
_cell_angle_beta 102.118
_cell_angle_gamma 90
_space_group_name_H-M_alt 'P 1'
_space_group_name_Hall 'P 1'
loop_
    _symmetry_equiv_pos_as_xyz
    x,y,z
loop_
    _atom_site_label
    _atom_site_type_symbol
    _atom_site_fract_x
    _atom_site_fract_y
    _atom_site_fract_z
    _atom_site_occupancy
    P1       P        0.50998    0.66327    0.30974    1.000
    P2       P        0.72302    0.75539    0.50144    1.000
    S1       S        0.00730    0.53030    0.70360    1.000
    C1       C        0.70890    0.81360    0.27480    1.000
    H1       H        0.69850    0.84590    0.31660    1.000
    H2       H        0.67620    0.83300    0.22360    1.000
    C2       C        0.68480    0.69130    0.22350    1.000
    H3       H        0.65120    0.70780    0.17120    1.000
    H4       H        0.66030    0.64440    0.23280    1.000
    C3       C        0.56390    0.74870    0.28930    1.000
    H5       H        0.52930    0.76710    0.23830    1.000
    H6       H        0.55700    0.78280    0.33050    1.000
    C4       C        0.79900    0.68650    0.73710    1.000
    H7       H        0.86500    0.70240    0.74950    1.000
    H8       H        0.79860    0.63630    0.72270    1.000
    C5       C        0.74350    0.80520    0.68920    1.000
    H9       H        0.70560    0.83180    0.64490    1.000
    H10      H        0.80800    0.82410    0.69990    1.000
    C6       C        0.78770    0.71530    0.59470    1.000
    H11      H        0.79120    0.66410    0.58660    1.000
    H12      H        0.85250    0.73360    0.60590    1.000
    N1       N        0.66790    0.74220    0.28690    1.000
    H13      H        0.69930    0.72510    0.33530    1.000
    N2       N        0.74510    0.72820    0.66730    1.000
    H14      H        0.68370    0.71200    0.65590    1.000
    O1       O        0.46770    0.62990    0.23030    1.000
    O2       O        0.43640    0.68500    0.35940    1.000
    O3       O        0.58820    0.62070    0.36350    1.000
    O4       O        0.74160    0.83560    0.50610    1.000
    O5       O        0.76650    0.71940    0.43790    1.000
    O6       O        0.61780    0.73950    0.49630    1.000
    O7       O        0.62920    0.56550    0.52500    1.000
    O8       O        0.99400    0.60220    0.67040    1.000
    O9       O        0.06100    0.54540    0.77730    1.000
    P3       P        0.00998    0.16327    0.80974    1.000
    P4       P        0.22302    0.25539    0.00144    1.000
    S2       S        0.50730    0.03030    0.20360    1.000
    C7       C        0.20890    0.31360    0.77480    1.000
    H15      H        0.19850    0.34590    0.81660    1.000
    H16      H        0.17620    0.33300    0.72360    1.000
    C8       C        0.18480    0.19130    0.72350    1.000
    H17      H        0.15120    0.20780    0.67120    1.000
    H18      H        0.16030    0.14440    0.73280    1.000
    C9       C        0.06390    0.24870    0.78930    1.000
    H19      H        0.02930    0.26710    0.73830    1.000
    H20      H        0.05700    0.28280    0.83050    1.000
    C10      C        0.29900    0.18650    0.23710    1.000
    H21      H        0.36500    0.20240    0.24950    1.000
    H22      H        0.29860    0.13630    0.22270    1.000
    C11      C        0.24350    0.30520    0.18920    1.000
    H23      H        0.20560    0.33180    0.14490    1.000
    H24      H        0.30800    0.32410    0.19990    1.000
    C12      C        0.28770    0.21530    0.09470    1.000
    H25      H        0.29120    0.16410    0.08660    1.000
    H26      H        0.35250    0.23360    0.10590    1.000
    N3       N        0.16790    0.24220    0.78690    1.000
    H27      H        0.19930    0.22510    0.83530    1.000
    N4       N        0.24510    0.22820    0.16730    1.000
    H28      H        0.18370    0.21200    0.15590    1.000
    O10      O        0.96770    0.12990    0.73030    1.000
    O11      O        0.93640    0.18500    0.85940    1.000
    O12      O        0.08820    0.12070    0.86350    1.000
    O13      O        0.24160    0.33560    0.00610    1.000
    O14      O        0.26650    0.21940    0.93790    1.000
    O15      O        0.11780    0.23950    0.99630    1.000
    O16      O        0.12920    0.06550    0.02500    1.000
    O17      O        0.49400    0.10220    0.17040    1.000
    O18      O        0.56100    0.04540    0.27730    1.000
    P5       P        0.49002    0.66327    0.69026    1.000
    P6       P        0.27698    0.75539    0.49856    1.000
    S3       S        0.99270    0.53030    0.29640    1.000
    C13      C        0.29110    0.81360    0.72520    1.000
    H29      H        0.30150    0.84590    0.68340    1.000
    H30      H        0.32380    0.83300    0.77640    1.000
    C14      C        0.31520    0.69130    0.77650    1.000
    H31      H        0.34880    0.70780    0.82880    1.000
    H32      H        0.33970    0.64440    0.76720    1.000
    C15      C        0.43610    0.74870    0.71070    1.000
    H33      H        0.47070    0.76710    0.76170    1.000
    H34      H        0.44300    0.78280    0.66950    1.000
    C16      C        0.20100    0.68650    0.26290    1.000
    H35      H        0.13500    0.70240    0.25050    1.000
    H36      H        0.20140    0.63630    0.27730    1.000
    C17      C        0.25650    0.80520    0.31080    1.000
    H37      H        0.29440    0.83180    0.35510    1.000
    H38      H        0.19200    0.82410    0.30010    1.000
    C18      C        0.21230    0.71530    0.40530    1.000
    H39      H        0.20880    0.66410    0.41340    1.000
    H40      H        0.14750    0.73360    0.39410    1.000
    N5       N        0.33210    0.74220    0.71310    1.000
    H41      H        0.30070    0.72510    0.66470    1.000
    N6       N        0.25490    0.72820    0.33270    1.000
    H42      H        0.31630    0.71200    0.34410    1.000
    O19      O        0.53230    0.62990    0.76970    1.000
    O20      O        0.56360    0.68500    0.64060    1.000
    O21      O        0.41180    0.62070    0.63650    1.000
    O22      O        0.25840    0.83560    0.49390    1.000
    O23      O        0.23350    0.71940    0.56210    1.000
    O24      O        0.38220    0.73950    0.50370    1.000
    O25      O        0.37080    0.56550    0.47500    1.000
    O26      O        0.00600    0.60220    0.32960    1.000
    O27      O        0.93900    0.54540    0.22270    1.000
    P7       P        0.99002    0.16327    0.19026    1.000
    P8       P        0.77698    0.25539    0.99856    1.000
    S4       S        0.49270    0.03030    0.79640    1.000
    C19      C        0.79110    0.31360    0.22520    1.000
    H43      H        0.80150    0.34590    0.18340    1.000
    H44      H        0.82380    0.33300    0.27640    1.000
    C20      C        0.81520    0.19130    0.27650    1.000
    H45      H        0.84880    0.20780    0.32880    1.000
    H46      H        0.83970    0.14440    0.26720    1.000
    C21      C        0.93610    0.24870    0.21070    1.000
    H47      H        0.97070    0.26710    0.26170    1.000
    H48      H        0.94300    0.28280    0.16950    1.000
    C22      C        0.70100    0.18650    0.76290    1.000
    H49      H        0.63500    0.20240    0.75050    1.000
    H50      H        0.70140    0.13630    0.77730    1.000
    C23      C        0.75650    0.30520    0.81080    1.000
    H51      H        0.79440    0.33180    0.85510    1.000
    H52      H        0.69200    0.32410    0.80010    1.000
    C24      C        0.71230    0.21530    0.90530    1.000
    H53      H        0.70880    0.16410    0.91340    1.000
    H54      H        0.64750    0.23360    0.89410    1.000
    N7       N        0.83210    0.24220    0.21310    1.000
    H55      H        0.80070    0.22510    0.16470    1.000
    N8       N        0.75490    0.22820    0.83270    1.000
    H56      H        0.81630    0.21200    0.84410    1.000
    O28      O        0.03230    0.12990    0.26970    1.000
    O29      O        0.06360    0.18500    0.14060    1.000
    O30      O        0.91180    0.12070    0.13650    1.000
    O31      O        0.75840    0.33560    0.99390    1.000
    O32      O        0.73350    0.21940    0.06210    1.000
    O33      O        0.88220    0.23950    0.00370    1.000
    O34      O        0.87080    0.06550    0.97500    1.000
    O35      O        0.50600    0.10220    0.82960    1.000
    O36      O        0.43900    0.04540    0.72270    1.000
    P9       P        0.49002    0.33673    0.69026    1.000
    P10      P        0.27698    0.24461    0.49856    1.000
    S5       S        0.99270    0.46970    0.29640    1.000
    C25      C        0.29110    0.18640    0.72520    1.000
    H57      H        0.30150    0.15410    0.68340    1.000
    H58      H        0.32380    0.16700    0.77640    1.000
    C26      C        0.31520    0.30870    0.77650    1.000
    H59      H        0.34880    0.29220    0.82880    1.000
    H60      H        0.33970    0.35560    0.76720    1.000
    C27      C        0.43610    0.25130    0.71070    1.000
    H61      H        0.47070    0.23290    0.76170    1.000
    H62      H        0.44300    0.21720    0.66950    1.000
    C28      C        0.20100    0.31350    0.26290    1.000
    H63      H        0.13500    0.29760    0.25050    1.000
    H64      H        0.20140    0.36370    0.27730    1.000
    C29      C        0.25650    0.19480    0.31080    1.000
    H65      H        0.29440    0.16820    0.35510    1.000
    H66      H        0.19200    0.17590    0.30010    1.000
    C30      C        0.21230    0.28470    0.40530    1.000
    H67      H        0.20880    0.33590    0.41340    1.000
    H68      H        0.14750    0.26640    0.39410    1.000
    N9       N        0.33210    0.25780    0.71310    1.000
    H69      H        0.30070    0.27490    0.66470    1.000
    N10      N        0.25490    0.27180    0.33270    1.000
    H70      H        0.31630    0.28800    0.34410    1.000
    O37      O        0.53230    0.37010    0.76970    1.000
    O38      O        0.56360    0.31500    0.64060    1.000
    O39      O        0.41180    0.37930    0.63650    1.000
    O40      O        0.25840    0.16440    0.49390    1.000
    O41      O        0.23350    0.28060    0.56210    1.000
    O42      O        0.38220    0.26050    0.50370    1.000
    O43      O        0.37080    0.43450    0.47500    1.000
    O44      O        0.00600    0.39780    0.32960    1.000
    O45      O        0.93900    0.45460    0.22270    1.000
    P11      P        0.99002    0.83673    0.19026    1.000
    P12      P        0.77698    0.74461    0.99856    1.000
    S6       S        0.49270    0.96970    0.79640    1.000
    C31      C        0.79110    0.68640    0.22520    1.000
    H71      H        0.80150    0.65410    0.18340    1.000
    H72      H        0.82380    0.66700    0.27640    1.000
    C32      C        0.81520    0.80870    0.27650    1.000
    H73      H        0.84880    0.79220    0.32880    1.000
    H74      H        0.83970    0.85560    0.26720    1.000
    C33      C        0.93610    0.75130    0.21070    1.000
    H75      H        0.97070    0.73290    0.26170    1.000
    H76      H        0.94300    0.71720    0.16950    1.000
    C34      C        0.70100    0.81350    0.76290    1.000
    H77      H        0.63500    0.79760    0.75050    1.000
    H78      H        0.70140    0.86370    0.77730    1.000
    C35      C        0.75650    0.69480    0.81080    1.000
    H79      H        0.79440    0.66820    0.85510    1.000
    H80      H        0.69200    0.67590    0.80010    1.000
    C36      C        0.71230    0.78470    0.90530    1.000
    H81      H        0.70880    0.83590    0.91340    1.000
    H82      H        0.64750    0.76640    0.89410    1.000
    N11      N        0.83210    0.75780    0.21310    1.000
    H83      H        0.80070    0.77490    0.16470    1.000
    N12      N        0.75490    0.77180    0.83270    1.000
    H84      H        0.81630    0.78800    0.84410    1.000
    O46      O        0.03230    0.87010    0.26970    1.000
    O47      O        0.06360    0.81500    0.14060    1.000
    O48      O        0.91180    0.87930    0.13650    1.000
    O49      O        0.75840    0.66440    0.99390    1.000
    O50      O        0.73350    0.78060    0.06210    1.000
    O51      O        0.88220    0.76050    0.00370    1.000
    O52      O        0.87080    0.93450    0.97500    1.000
    O53      O        0.50600    0.89780    0.82960    1.000
    O54      O        0.43900    0.95460    0.72270    1.000
    P13      P        0.50998    0.33673    0.30974    1.000
    P14      P        0.72302    0.24461    0.50144    1.000
    S7       S        0.00730    0.46970    0.70360    1.000
    C37      C        0.70890    0.18640    0.27480    1.000
    H85      H        0.69850    0.15410    0.31660    1.000
    H86      H        0.67620    0.16700    0.22360    1.000
    C38      C        0.68480    0.30870    0.22350    1.000
    H87      H        0.65120    0.29220    0.17120    1.000
    H88      H        0.66030    0.35560    0.23280    1.000
    C39      C        0.56390    0.25130    0.28930    1.000
    H89      H        0.52930    0.23290    0.23830    1.000
    H90      H        0.55700    0.21720    0.33050    1.000
    C40      C        0.79900    0.31350    0.73710    1.000
    H91      H        0.86500    0.29760    0.74950    1.000
    H92      H        0.79860    0.36370    0.72270    1.000
    C41      C        0.74350    0.19480    0.68920    1.000
    H93      H        0.70560    0.16820    0.64490    1.000
    H94      H        0.80800    0.17590    0.69990    1.000
    C42      C        0.78770    0.28470    0.59470    1.000
    H95      H        0.79120    0.33590    0.58660    1.000
    H96      H        0.85250    0.26640    0.60590    1.000
    N13      N        0.66790    0.25780    0.28690    1.000
    H97      H        0.69930    0.27490    0.33530    1.000
    N14      N        0.74510    0.27180    0.66730    1.000
    H98      H        0.68370    0.28800    0.65590    1.000
    O55      O        0.46770    0.37010    0.23030    1.000
    O56      O        0.43640    0.31500    0.35940    1.000
    O57      O        0.58820    0.37930    0.36350    1.000
    O58      O        0.74160    0.16440    0.50610    1.000
    O59      O        0.76650    0.28060    0.43790    1.000
    O60      O        0.61780    0.26050    0.49630    1.000
    O61      O        0.62920    0.43450    0.52500    1.000
    O62      O        0.99400    0.39780    0.67040    1.000
    O63      O        0.06100    0.45460    0.77730    1.000
    P15      P        0.00998    0.83673    0.80974    1.000
    P16      P        0.22302    0.74461    0.00144    1.000
    S8       S        0.50730    0.96970    0.20360    1.000
    C43      C        0.20890    0.68640    0.77480    1.000
    H99      H        0.19850    0.65410    0.81660    1.000
    H100     H        0.17620    0.66700    0.72360    1.000
    C44      C        0.18480    0.80870    0.72350    1.000
    H101     H        0.15120    0.79220    0.67120    1.000
    H102     H        0.16030    0.85560    0.73280    1.000
    C45      C        0.06390    0.75130    0.78930    1.000
    H103     H        0.02930    0.73290    0.73830    1.000
    H104     H        0.05700    0.71720    0.83050    1.000
    C46      C        0.29900    0.81350    0.23710    1.000
    H105     H        0.36500    0.79760    0.24950    1.000
    H106     H        0.29860    0.86370    0.22270    1.000
    C47      C        0.24350    0.69480    0.18920    1.000
    H107     H        0.20560    0.66820    0.14490    1.000
    H108     H        0.30800    0.67590    0.19990    1.000
    C48      C        0.28770    0.78470    0.09470    1.000
    H109     H        0.29120    0.83590    0.08660    1.000
    H110     H        0.35250    0.76640    0.10590    1.000
    N15      N        0.16790    0.75780    0.78690    1.000
    H111     H        0.19930    0.77490    0.83530    1.000
    N16      N        0.24510    0.77180    0.16730    1.000
    H112     H        0.18370    0.78800    0.15590    1.000
    O64      O        0.96770    0.87010    0.73030    1.000
    O65      O        0.93640    0.81500    0.85940    1.000
    O66      O        0.08820    0.87930    0.86350    1.000
    O67      O        0.24160    0.66440    0.00610    1.000
    O68      O        0.26650    0.78060    0.93790    1.000
    O69      O        0.11780    0.76050    0.99630    1.000
    O70      O        0.12920    0.93450    0.02500    1.000
    O71      O        0.49400    0.89780    0.17040    1.000
    O72      O        0.56100    0.95460    0.27730    1.000
    Nd1      Nd       0.50000    0.65277    0.50000    1.000
    Nd2      Nd       0.00000    0.15277    0.00000    1.000
    Nd3      Nd       0.50000    0.34723    0.50000    1.000
    Nd4      Nd       0.00000    0.84723    0.00000    1.000
    Nd5      Nd       0.64316    0.50000    0.39023    1.000
    P17      P        0.61953    0.50000    0.57575    1.000
    C49      C        0.88560    0.50000    0.71950    1.000
    C50      C        0.86930    0.50000    0.79610    1.000
    H113     H        0.92010    0.50000    0.84030    1.000
    C51      C        0.77520    0.50000    0.80630    1.000
    H114     H        0.76250    0.50000    0.85760    1.000
    C52      C        0.70000    0.50000    0.73920    1.000
    H115     H        0.63730    0.50000    0.74630    1.000
    C53      C        0.71710    0.50000    0.66110    1.000
    C54      C        0.81170    0.50000    0.65190    1.000
    H116     H        0.82520    0.50000    0.60090    1.000
    O73      O        0.52650    0.50000    0.60240    1.000
    O74      O        0.01600    0.50000    0.62700    1.000
    Nd6      Nd       0.14316    0.00000    0.89023    1.000
    P18      P        0.11953    0.00000    0.07575    1.000
    C55      C        0.38560    0.00000    0.21950    1.000
    C56      C        0.36930    0.00000    0.29610    1.000
    H117     H        0.42010    0.00000    0.34030    1.000
    C57      C        0.27520    0.00000    0.30630    1.000
    H118     H        0.26250    0.00000    0.35760    1.000
    C58      C        0.20000    0.00000    0.23920    1.000
    H119     H        0.13730    0.00000    0.24630    1.000
    C59      C        0.21710    0.00000    0.16110    1.000
    C60      C        0.31170    0.00000    0.15190    1.000
    H120     H        0.32520    0.00000    0.10090    1.000
    O75      O        0.02650    0.00000    0.10240    1.000
    O76      O        0.51600    0.00000    0.12700    1.000
    Nd7      Nd       0.35684    0.50000    0.60977    1.000
    P19      P        0.38047    0.50000    0.42425    1.000
    C61      C        0.11440    0.50000    0.28050    1.000
    C62      C        0.13070    0.50000    0.20390    1.000
    H121     H        0.07990    0.50000    0.15970    1.000
    C63      C        0.22480    0.50000    0.19370    1.000
    H122     H        0.23750    0.50000    0.14240    1.000
    C64      C        0.30000    0.50000    0.26080    1.000
    H123     H        0.36270    0.50000    0.25370    1.000
    C65      C        0.28290    0.50000    0.33890    1.000
    C66      C        0.18830    0.50000    0.34810    1.000
    H124     H        0.17480    0.50000    0.39910    1.000
    O77      O        0.47350    0.50000    0.39760    1.000
    O78      O        0.98400    0.50000    0.37300    1.000
    Nd8      Nd       0.85684    0.00000    0.10977    1.000
    P20      P        0.88047    0.00000    0.92425    1.000
    C67      C        0.61440    0.00000    0.78050    1.000
    C68      C        0.63070    0.00000    0.70390    1.000
    H125     H        0.57990    0.00000    0.65970    1.000
    C69      C        0.72480    0.00000    0.69370    1.000
    H126     H        0.73750    0.00000    0.64240    1.000
    C70      C        0.80000    0.00000    0.76080    1.000
    H127     H        0.86270    0.00000    0.75370    1.000
    C71      C        0.78290    0.00000    0.83890    1.000
    C72      C        0.68830    0.00000    0.84810    1.000
    H128     H        0.67480    0.00000    0.89910    1.000
    O79      O        0.97350    0.00000    0.89760    1.000
    O80      O        0.48400    0.00000    0.87300    1.000
