data_functionalizedCrystal
_audit_creation_method	'EQeq! by Chris Wilmer'
_symmetry_space_group_name_H-M	'P1'
_symmetry_Int_Tables_number	1
_symmetry_cell_setting	triclinic
loop_
_symmetry_equiv_pos_as_xyz
  x,y,z
_cell_length_a	16.3303
_cell_length_b	20.6847
_cell_length_c	16.9801
_cell_angle_alpha	90
_cell_angle_beta	98.472
_cell_angle_gamma	90
loop_
_atom_site_label
_atom_site_type_symbol
_atom_site_fract_x
_atom_site_fract_y
_atom_site_fract_z
_atom_site_charge
Mof_Zn	Zn	0.47966	0.17416	0.24922	1.251
Mof_Zn	Zn	0.60281	0.15028	0.43951	1.203
Mof_Zn	Zn	0.38786	0.13803	0.05566	1.206
Mof_S 	S 	0.54593	0.56473	0.3733	0.256
Mof_S 	S 	0.95811	0.27397	0.24087	0.265
Mof_S 	S 	0.11763	0.006	0.45812	0.269
Mof_O 	O 	0.8965	0.6552	0.2474	-0.467
Mof_O 	O 	0.4962	0.2468	0.33	-0.458
Mof_O 	O 	0.4771	0.111	0.3576	-0.477
Mof_O 	O 	0.9931	0.2572	0.662	-0.446
Mof_O 	O 	0.354	0.1878	0.2387	-0.44
Mof_O 	O 	0.0387	0.5877	0.3092	-0.524
Mof_O 	O 	0.5961	0.2446	0.4337	-0.501
Mof_O 	O 	0.8306	0.614	0.1353	-0.513
Mof_O 	O 	0.5106	0.104	0.4867	-0.458
Mof_O 	O 	0.9615	0.293	0.5371	-0.503
Mof_O 	O 	0.302	0.1732	0.109	-0.511
Mof_O 	O 	0.0659	0.5522	0.4299	-0.503
Mof_O 	O 	0.9044	0.2766	0.1654	-0.205
Mof_O 	O 	0.9347	0.2371	0.3049	-0.219
Mof_O 	O 	0.1198	0.9569	0.5174	-0.218
Mof_O 	O 	0.0719	0.996	0.3803	-0.217
Mof_O 	O 	0.5631	0.5895	0.4521	-0.206
Mof_O 	O 	0.4731	0.5844	0.3212	-0.205
Mof_C 	C 	0.2366	0.0508	0.376	-0.087
Mof_H 	H 	0.1944	0.0542	0.333	0.079
Mof_C 	C 	0.1511	0.223	0.1326	0.027
Mof_H 	H 	0.1627	0.2195	0.0807	0.03
Mof_C 	C 	0.0729	0.2426	0.1459	-0.08
Mof_H 	H 	0.0322	0.2524	0.1033	0.074
Mof_C 	C 	0.283	0.0189	0.5114	-0.098
Mof_H 	H 	0.2719	0.0001	0.5585	0.073
Mof_C 	C 	0.1937	0.2132	0.2738	0.032
Mof_H 	H 	0.2338	0.2035	0.3169	0.039
Mof_C 	C 	0.9734	0.4036	0.2212	-0.106
Mof_H 	H 	0.9595	0.3954	0.167	0.083
Mof_C 	C 	0.6322	0.5814	0.3232	0.048
Mof_C 	C 	0.5935	0.4482	0.4417	-0.11
Mof_H 	H 	0.6249	0.4715	0.4822	0.08
Mof_C 	C 	0.9911	0.4652	0.2478	0.052
Mof_H 	H 	0.9882	0.4991	0.2116	0.028
Mof_C 	C 	0.2122	0.2085	0.1964	-0.109
Mof_C 	C 	0.015	0.4272	0.3822	0.046
Mof_H 	H 	0.0291	0.435	0.4365	0.023
Mof_C 	C 	0.4623	0.0959	0.4232	0.383
Mof_C 	C 	0.1159	0.2322	0.2863	-0.078
Mof_H 	H 	0.1035	0.2348	0.338	0.069
Mof_C 	C 	0.0142	0.1802	0.4756	0.039
Mof_H 	H 	0.9898	0.2118	0.4407	0.045
Mof_C 	C 	0.0798	0.0781	0.4967	0.022
Mof_C 	C 	0.5934	0.3815	0.4424	0.067
Mof_H 	H 	0.6257	0.3598	0.4838	0.019
Mof_C 	C 	0.0562	0.2473	0.223	0.015
Mof_C 	C 	0.7656	0.6086	0.2488	-0.154
Mof_C 	C 	0.2972	0.1878	0.181	0.402
Mof_C 	C 	0.0881	0.0863	0.5789	-0.081
Mof_H 	H 	0.1124	0.0545	0.6133	0.077
Mof_C 	C 	0.5004	0.3783	0.3216	0.074
Mof_H 	H 	0.4697	0.3551	0.2805	0.03
Mof_C 	C 	0.0217	0.1902	0.5569	-0.119
Mof_C 	C 	0.9958	0.3652	0.355	-0.114
Mof_H 	H 	0.996	0.3313	0.391	0.075
Mof_C 	C 	0.3152	0.0706	0.369	0.026
Mof_H 	H 	0.3265	0.0866	0.3206	0.04
Mof_C 	C 	0.7722	0.6106	0.3301	0.079
Mof_H 	H 	0.8224	0.6219	0.3604	0.017
Mof_C 	C 	0.0132	0.4773	0.3285	-0.141
Mof_C 	C 	0.3622	0.04	0.5042	0.025
Mof_H 	H 	0.4047	0.0363	0.5469	0.031
Mof_C 	C 	0.5463	0.2743	0.3821	0.425
Mof_C 	C 	0.4986	0.4446	0.3195	-0.116
Mof_H 	H 	0.466	0.4663	0.2783	0.097
Mof_C 	C 	0.0387	0.545	0.3563	0.44
Mof_C 	C 	0.6248	0.5776	0.2434	-0.116
Mof_H 	H 	0.5743	0.5665	0.2136	0.095
Mof_C 	C 	0.5467	0.4787	0.3803	0.037
Mof_C 	C 	0.8376	0.6271	0.2077	0.444
Mof_C 	C 	0.3778	0.067	0.4326	-0.103
Mof_C 	C 	0.692	0.5899	0.206	0.075
Mof_H 	H 	0.6875	0.5856	0.151	0.033
Mof_C 	C 	0.0596	0.1427	0.6079	0.047
Mof_H 	H 	0.0657	0.1494	0.6626	0.034
Mof_C 	C 	0.546	0.3457	0.3822	-0.148
Mof_C 	C 	0.0431	0.1235	0.4458	-0.081
Mof_H 	H 	0.0372	0.1167	0.3911	0.081
Mof_C 	C 	0.9904	0.2512	0.589	0.407
Mof_C 	C 	0.2206	0.0262	0.4468	0.008
Mof_C 	C 	0.9765	0.354	0.2754	0.023
Mof_C 	C 	0.7053	0.5962	0.3672	-0.122
Mof_H 	H 	0.7104	0.5965	0.4225	0.088
Mof_Zn	Zn	0.02034	0.67416	0.25078	1.251
Mof_Zn	Zn	0.89719	0.65028	0.06049	1.203
Mof_Zn	Zn	0.11214	0.63803	0.44434	1.206
Mof_S 	S 	0.95407	0.06473	0.1267	0.26
Mof_S 	S 	0.54189	0.77397	0.25913	0.264
Mof_S 	S 	0.38237	0.506	0.04188	0.272
Mof_O 	O 	0.6035	0.1552	0.2526	-0.467
Mof_O 	O 	0.0038	0.7468	0.17	-0.457
Mof_O 	O 	0.0229	0.611	0.1424	-0.477
Mof_O 	O 	0.5069	0.7572	0.838	-0.446
Mof_O 	O 	0.146	0.6878	0.2613	-0.44
Mof_O 	O 	0.4613	0.0877	0.1908	-0.524
Mof_O 	O 	0.9039	0.7446	0.0663	-0.5
Mof_O 	O 	0.6694	0.114	0.3647	-0.513
Mof_O 	O 	0.9894	0.604	0.0133	-0.459
Mof_O 	O 	0.5385	0.793	0.9629	-0.503
Mof_O 	O 	0.198	0.6732	0.391	-0.511
Mof_O 	O 	0.4341	0.0522	0.0701	-0.503
Mof_O 	O 	0.5956	0.7766	0.3346	-0.205
Mof_O 	O 	0.5653	0.7371	0.1951	-0.219
Mof_O 	O 	0.3802	0.4569	0.9826	-0.22
Mof_O 	O 	0.4281	0.496	0.1197	-0.219
Mof_O 	O 	0.9369	0.0895	0.0479	-0.207
Mof_O 	O 	0.0269	0.0844	0.1788	-0.207
Mof_C 	C 	0.2634	0.5508	0.124	-0.086
Mof_H 	H 	0.3056	0.5542	0.167	0.079
Mof_C 	C 	0.3489	0.723	0.3674	0.027
Mof_H 	H 	0.3373	0.7195	0.4193	0.03
Mof_C 	C 	0.4271	0.7426	0.3541	-0.08
Mof_H 	H 	0.4678	0.7524	0.3967	0.074
Mof_C 	C 	0.217	0.5189	0.9886	-0.098
Mof_H 	H 	0.2281	0.5001	0.9415	0.073
Mof_C 	C 	0.3063	0.7132	0.2262	0.032
Mof_H 	H 	0.2662	0.7035	0.1831	0.039
Mof_C 	C 	0.5266	0.9036	0.2788	-0.106
Mof_H 	H 	0.5405	0.8954	0.333	0.083
Mof_C 	C 	0.8678	0.0814	0.1768	0.047
Mof_C 	C 	0.9065	0.9482	0.0583	-0.102
Mof_H 	H 	0.8751	0.9715	0.0178	0.077
Mof_C 	C 	0.5089	0.9652	0.2522	0.053
Mof_H 	H 	0.5118	0.9991	0.2884	0.028
Mof_C 	C 	0.2878	0.7085	0.3036	-0.11
Mof_C 	C 	0.485	0.9272	0.1178	0.047
Mof_H 	H 	0.4709	0.935	0.0635	0.023
Mof_C 	C 	0.0377	0.5959	0.0768	0.384
Mof_C 	C 	0.3841	0.7322	0.2137	-0.078
Mof_H 	H 	0.3965	0.7348	0.162	0.069
Mof_C 	C 	0.4858	0.6802	0.0244	0.041
Mof_H 	H 	0.5102	0.7118	0.0593	0.044
Mof_C 	C 	0.4202	0.5781	0.0033	0.022
Mof_C 	C 	0.9066	0.8815	0.0576	0.06
Mof_H 	H 	0.8743	0.8598	0.0162	0.022
Mof_C 	C 	0.4438	0.7473	0.277	0.015
Mof_C 	C 	0.7344	0.1086	0.2512	-0.153
Mof_C 	C 	0.2028	0.6878	0.319	0.402
Mof_C 	C 	0.4119	0.5863	0.9211	-0.081
Mof_H 	H 	0.3876	0.5545	0.8867	0.077
Mof_C 	C 	0.9996	0.8783	0.1784	0.061
Mof_H 	H 	0.0303	0.8551	0.2195	0.035
Mof_C 	C 	0.4783	0.6902	0.9431	-0.119
Mof_C 	C 	0.5042	0.8652	0.145	-0.115
Mof_H 	H 	0.504	0.8313	0.109	0.075
Mof_C 	C 	0.1848	0.5706	0.131	0.026
Mof_H 	H 	0.1735	0.5866	0.1794	0.04
Mof_C 	C 	0.7278	0.1106	0.1699	0.078
Mof_H 	H 	0.6776	0.1219	0.1396	0.018
Mof_C 	C 	0.4868	0.9773	0.1715	-0.141
Mof_C 	C 	0.1378	0.54	0.9958	0.024
Mof_H 	H 	0.0953	0.5363	0.9531	0.032
Mof_C 	C 	0.9537	0.7743	0.1179	0.421
Mof_C 	C 	0.0014	0.9446	0.1805	-0.104
Mof_H 	H 	0.034	0.9663	0.2217	0.093
Mof_C 	C 	0.4613	0.045	0.1437	0.44
Mof_C 	C 	0.8752	0.0776	0.2566	-0.115
Mof_H 	H 	0.9257	0.0665	0.2864	0.095
Mof_C 	C 	0.9533	0.9787	0.1197	0.028
Mof_C 	C 	0.6624	0.1271	0.2923	0.443
Mof_C 	C 	0.1222	0.567	0.0674	-0.102
Mof_C 	C 	0.808	0.0899	0.294	0.075
Mof_H 	H 	0.8125	0.0856	0.349	0.033
Mof_C 	C 	0.4404	0.6427	0.8921	0.047
Mof_H 	H 	0.4343	0.6494	0.8374	0.035
Mof_C 	C 	0.954	0.8457	0.1178	-0.141
Mof_C 	C 	0.4569	0.6235	0.0542	-0.081
Mof_H 	H 	0.4628	0.6167	0.1089	0.082
Mof_C 	C 	0.5096	0.7512	0.911	0.406
Mof_C 	C 	0.2794	0.5262	0.0532	0.008
Mof_C 	C 	0.5235	0.854	0.2246	0.024
Mof_C 	C 	0.7947	0.0962	0.1328	-0.121
Mof_H 	H 	0.7896	0.0965	0.0775	0.088
Mof_Zn	Zn	0.52034	0.82584	0.75078	1.251
Mof_Zn	Zn	0.39719	0.84972	0.56049	1.203
Mof_Zn	Zn	0.61214	0.86197	0.94434	1.206
Mof_S 	S 	0.45407	0.43527	0.6267	0.256
Mof_S 	S 	0.04189	0.72603	0.75913	0.265
Mof_S 	S 	0.88237	0.994	0.54188	0.269
Mof_O 	O 	0.1035	0.3448	0.7526	-0.467
Mof_O 	O 	0.5038	0.7532	0.67	-0.458
Mof_O 	O 	0.5229	0.889	0.6424	-0.477
Mof_O 	O 	0.0069	0.7428	0.338	-0.446
Mof_O 	O 	0.646	0.8122	0.7613	-0.44
Mof_O 	O 	0.9613	0.4123	0.6908	-0.524
Mof_O 	O 	0.4039	0.7554	0.5663	-0.501
Mof_O 	O 	0.1694	0.386	0.8647	-0.513
Mof_O 	O 	0.4894	0.896	0.5133	-0.458
Mof_O 	O 	0.0385	0.707	0.4629	-0.503
Mof_O 	O 	0.698	0.8268	0.891	-0.511
Mof_O 	O 	0.9341	0.4478	0.5701	-0.503
Mof_O 	O 	0.0956	0.7234	0.8346	-0.205
Mof_O 	O 	0.0653	0.7629	0.6951	-0.219
Mof_O 	O 	0.8802	0.0431	0.4826	-0.218
Mof_O 	O 	0.9281	0.004	0.6197	-0.217
Mof_O 	O 	0.4369	0.4105	0.5479	-0.206
Mof_O 	O 	0.5269	0.4156	0.6788	-0.205
Mof_C 	C 	0.7634	0.9492	0.624	-0.087
Mof_H 	H 	0.8056	0.9458	0.667	0.079
Mof_C 	C 	0.8489	0.777	0.8674	0.027
Mof_H 	H 	0.8373	0.7805	0.9193	0.03
Mof_C 	C 	0.9271	0.7574	0.8541	-0.08
Mof_H 	H 	0.9678	0.7476	0.8967	0.074
Mof_C 	C 	0.717	0.9811	0.4886	-0.098
Mof_H 	H 	0.7281	0.9999	0.4415	0.073
Mof_C 	C 	0.8063	0.7868	0.7262	0.032
Mof_H 	H 	0.7662	0.7965	0.6831	0.039
Mof_C 	C 	0.0266	0.5964	0.7788	-0.106
Mof_H 	H 	0.0405	0.6046	0.833	0.083
Mof_C 	C 	0.3678	0.4186	0.6768	0.048
Mof_C 	C 	0.4065	0.5518	0.5583	-0.11
Mof_H 	H 	0.3751	0.5285	0.5178	0.08
Mof_C 	C 	0.0089	0.5348	0.7522	0.052
Mof_H 	H 	0.0118	0.5009	0.7884	0.028
Mof_C 	C 	0.7878	0.7915	0.8036	-0.109
Mof_C 	C 	0.985	0.5728	0.6178	0.046
Mof_H 	H 	0.9709	0.565	0.5635	0.023
Mof_C 	C 	0.5377	0.9041	0.5768	0.383
Mof_C 	C 	0.8841	0.7678	0.7137	-0.078
Mof_H 	H 	0.8965	0.7652	0.662	0.069
Mof_C 	C 	0.9858	0.8198	0.5244	0.039
Mof_H 	H 	0.0102	0.7882	0.5593	0.045
Mof_C 	C 	0.9202	0.9219	0.5033	0.022
Mof_C 	C 	0.4066	0.6185	0.5576	0.067
Mof_H 	H 	0.3743	0.6402	0.5162	0.019
Mof_C 	C 	0.9438	0.7527	0.777	0.015
Mof_C 	C 	0.2344	0.3914	0.7512	-0.154
Mof_C 	C 	0.7028	0.8122	0.819	0.402
Mof_C 	C 	0.9119	0.9137	0.4211	-0.081
Mof_H 	H 	0.8876	0.9455	0.3867	0.077
Mof_C 	C 	0.4996	0.6217	0.6784	0.074
Mof_H 	H 	0.5303	0.6449	0.7195	0.03
Mof_C 	C 	0.9783	0.8098	0.4431	-0.119
Mof_C 	C 	0.0042	0.6348	0.645	-0.114
Mof_H 	H 	0.004	0.6687	0.609	0.075
Mof_C 	C 	0.6848	0.9294	0.631	0.026
Mof_H 	H 	0.6735	0.9134	0.6794	0.04
Mof_C 	C 	0.2278	0.3894	0.6699	0.079
Mof_H 	H 	0.1776	0.3781	0.6396	0.017
Mof_C 	C 	0.9868	0.5227	0.6715	-0.141
Mof_C 	C 	0.6378	0.96	0.4958	0.025
Mof_H 	H 	0.5953	0.9637	0.4531	0.031
Mof_C 	C 	0.4537	0.7257	0.6179	0.425
Mof_C 	C 	0.5014	0.5554	0.6805	-0.116
Mof_H 	H 	0.534	0.5337	0.7217	0.097
Mof_C 	C 	0.9613	0.455	0.6437	0.44
Mof_C 	C 	0.3752	0.4224	0.7566	-0.116
Mof_H 	H 	0.4257	0.4335	0.7864	0.095
Mof_C 	C 	0.4533	0.5213	0.6197	0.037
Mof_C 	C 	0.1624	0.3729	0.7923	0.444
Mof_C 	C 	0.6222	0.933	0.5674	-0.103
Mof_C 	C 	0.308	0.4101	0.794	0.075
Mof_H 	H 	0.3125	0.4144	0.849	0.033
Mof_C 	C 	0.9404	0.8573	0.3921	0.047
Mof_H 	H 	0.9343	0.8506	0.3374	0.034
Mof_C 	C 	0.454	0.6543	0.6178	-0.148
Mof_C 	C 	0.9569	0.8765	0.5542	-0.081
Mof_H 	H 	0.9628	0.8833	0.6089	0.081
Mof_C 	C 	0.0096	0.7488	0.411	0.407
Mof_C 	C 	0.7794	0.9738	0.5532	0.008
Mof_C 	C 	0.0235	0.646	0.7246	0.023
Mof_C 	C 	0.2947	0.4038	0.6328	-0.122
Mof_H 	H 	0.2896	0.4035	0.5775	0.088
Mof_Zn	Zn	0.97966	0.32584	0.74922	1.251
Mof_Zn	Zn	0.10281	0.34972	0.93951	1.203
Mof_Zn	Zn	0.88786	0.36197	0.55566	1.206
Mof_S 	S 	0.04593	0.93527	0.8733	0.26
Mof_S 	S 	0.45811	0.22603	0.74087	0.264
Mof_S 	S 	0.61763	0.494	0.95812	0.272
Mof_O 	O 	0.3965	0.8448	0.7474	-0.467
Mof_O 	O 	0.9962	0.2532	0.83	-0.457
Mof_O 	O 	0.9771	0.389	0.8576	-0.477
Mof_O 	O 	0.4931	0.2428	0.162	-0.446
Mof_O 	O 	0.854	0.3122	0.7387	-0.44
Mof_O 	O 	0.5387	0.9123	0.8092	-0.524
Mof_O 	O 	0.0961	0.2554	0.9337	-0.5
Mof_O 	O 	0.3306	0.886	0.6353	-0.513
Mof_O 	O 	0.0106	0.396	0.9867	-0.459
Mof_O 	O 	0.4615	0.207	0.0371	-0.503
Mof_O 	O 	0.802	0.3268	0.609	-0.511
Mof_O 	O 	0.5659	0.9478	0.9299	-0.503
Mof_O 	O 	0.4044	0.2234	0.6654	-0.205
Mof_O 	O 	0.4347	0.2629	0.8049	-0.219
Mof_O 	O 	0.6198	0.5431	0.0174	-0.22
Mof_O 	O 	0.5719	0.504	0.8803	-0.219
Mof_O 	O 	0.0631	0.9105	0.9521	-0.207
Mof_O 	O 	0.9731	0.9156	0.8212	-0.207
Mof_C 	C 	0.7366	0.4492	0.876	-0.086
Mof_H 	H 	0.6944	0.4458	0.833	0.079
Mof_C 	C 	0.6511	0.277	0.6326	0.027
Mof_H 	H 	0.6627	0.2805	0.5807	0.03
Mof_C 	C 	0.5729	0.2574	0.6459	-0.08
Mof_H 	H 	0.5322	0.2476	0.6033	0.074
Mof_C 	C 	0.783	0.4811	0.0114	-0.098
Mof_H 	H 	0.7719	0.4999	0.0585	0.073
Mof_C 	C 	0.6937	0.2868	0.7738	0.032
Mof_H 	H 	0.7338	0.2965	0.8169	0.039
Mof_C 	C 	0.4734	0.0964	0.7212	-0.106
Mof_H 	H 	0.4595	0.1046	0.667	0.083
Mof_C 	C 	0.1322	0.9186	0.8232	0.047
Mof_C 	C 	0.0935	0.0518	0.9417	-0.102
Mof_H 	H 	0.1249	0.0285	0.9822	0.077
Mof_C 	C 	0.4911	0.0348	0.7478	0.053
Mof_H 	H 	0.4882	0.0009	0.7116	0.028
Mof_C 	C 	0.7122	0.2915	0.6964	-0.11
Mof_C 	C 	0.515	0.0728	0.8822	0.047
Mof_H 	H 	0.5291	0.065	0.9365	0.023
Mof_C 	C 	0.9623	0.4041	0.9232	0.384
Mof_C 	C 	0.6159	0.2678	0.7863	-0.078
Mof_H 	H 	0.6035	0.2652	0.838	0.069
Mof_C 	C 	0.5142	0.3198	0.9756	0.041
Mof_H 	H 	0.4898	0.2882	0.9407	0.044
Mof_C 	C 	0.5798	0.4219	0.9967	0.022
Mof_C 	C 	0.0934	0.1185	0.9424	0.06
Mof_H 	H 	0.1257	0.1402	0.9838	0.022
Mof_C 	C 	0.5562	0.2527	0.723	0.015
Mof_C 	C 	0.2656	0.8914	0.7488	-0.153
Mof_C 	C 	0.7972	0.3122	0.681	0.402
Mof_C 	C 	0.5881	0.4137	0.0789	-0.081
Mof_H 	H 	0.6124	0.4455	0.1133	0.077
Mof_C 	C 	0.0004	0.1217	0.8216	0.061
Mof_H 	H 	0.9697	0.1449	0.7805	0.035
Mof_C 	C 	0.5217	0.3098	0.0569	-0.119
Mof_C 	C 	0.4958	0.1348	0.855	-0.115
Mof_H 	H 	0.496	0.1687	0.891	0.075
Mof_C 	C 	0.8152	0.4294	0.869	0.026
Mof_H 	H 	0.8265	0.4134	0.8206	0.04
Mof_C 	C 	0.2722	0.8894	0.8301	0.078
Mof_H 	H 	0.3224	0.8781	0.8604	0.018
Mof_C 	C 	0.5132	0.0227	0.8285	-0.141
Mof_C 	C 	0.8622	0.46	0.0042	0.024
Mof_H 	H 	0.9047	0.4637	0.0469	0.032
Mof_C 	C 	0.0463	0.2257	0.8821	0.421
Mof_C 	C 	0.9986	0.0554	0.8195	-0.104
Mof_H 	H 	0.966	0.0337	0.7783	0.093
Mof_C 	C 	0.5387	0.955	0.8563	0.44
Mof_C 	C 	0.1248	0.9224	0.7434	-0.115
Mof_H 	H 	0.0743	0.9335	0.7136	0.095
Mof_C 	C 	0.0467	0.0213	0.8803	0.028
Mof_C 	C 	0.3376	0.8729	0.7077	0.443
Mof_C 	C 	0.8778	0.433	0.9326	-0.102
Mof_C 	C 	0.192	0.9101	0.706	0.075
Mof_H 	H 	0.1875	0.9144	0.651	0.033
Mof_C 	C 	0.5596	0.3573	0.1079	0.047
Mof_H 	H 	0.5657	0.3506	0.1626	0.035
Mof_C 	C 	0.046	0.1543	0.8822	-0.141
Mof_C 	C 	0.5431	0.3765	0.9458	-0.081
Mof_H 	H 	0.5372	0.3833	0.8911	0.082
Mof_C 	C 	0.4904	0.2488	0.089	0.406
Mof_C 	C 	0.7206	0.4738	0.9468	0.008
Mof_C 	C 	0.4765	0.146	0.7754	0.024
Mof_C 	C 	0.2053	0.9038	0.8672	-0.121
Mof_H 	H 	0.2104	0.9035	0.9225	0.088
_end
