# CIF file generated by openbabel 3.1.0, see https://openbabel.org
data_I
_chemical_name_common 'CIQYUX_clean'
_cell_length_a 11.409
_cell_length_b 17.7061
_cell_length_c 17.7061
_cell_angle_alpha 84.042
_cell_angle_beta 71.2053
_cell_angle_gamma 71.2053
_space_group_name_H-M_alt 'P 1'
_space_group_name_Hall 'P 1'
loop_
    _symmetry_equiv_pos_as_xyz
    x,y,z
loop_
    _atom_site_label
    _atom_site_type_symbol
    _atom_site_fract_x
    _atom_site_fract_y
    _atom_site_fract_z
    _atom_site_occupancy
    Co1      Co       0.42692    0.77535    0.33083    1.000
    Co2      Co       0.13340    0.83352    0.41138    1.000
    Co3      Co       0.03310    0.72465    0.16917    1.000
    Co4      Co       0.87830    0.66648    0.08862    1.000
    Co5      Co       0.75775    0.66917    0.27535    1.000
    Co6      Co       0.54478    0.58862    0.33352    1.000
    Co7      Co       0.20227    0.83083    0.22465    1.000
    Co8      Co       0.96692    0.91138    0.16648    1.000
    Co9      Co       0.57308    0.22465    0.66917    1.000
    Co10     Co       0.86660    0.16648    0.58862    1.000
    Co11     Co       0.96690    0.27535    0.83083    1.000
    Co12     Co       0.12170    0.33352    0.91138    1.000
    Co13     Co       0.24225    0.33083    0.72465    1.000
    Co14     Co       0.45522    0.41138    0.66648    1.000
    Co15     Co       0.79773    0.16917    0.77535    1.000
    Co16     Co       0.03308    0.08862    0.83352    1.000
    Co17     Co       0.50000    0.50000    0.50000    1.000
    Co18     Co       0.00000    0.00000    0.00000    1.000
    Co19     Co       0.00000    0.50000    0.00000    1.000
    Co20     Co       0.00000    0.00000    0.50000    1.000
    H1       H        0.57590    0.69350    0.40850    1.000
    H2       H        0.38830    0.59930    0.13850    1.000
    H3       H        0.53160    0.60270    0.10630    1.000
    H4       H        0.48630    0.55790    0.18630    1.000
    H5       H        0.14300    0.70440    0.56540    1.000
    H6       H        0.24850    0.62990    0.58510    1.000
    H7       H        0.26170    0.71560    0.58400    1.000
    H8       H        0.91360    0.47250    0.44810    1.000
    H9       H        0.81550    0.54110    0.50730    1.000
    H10      H        0.77860    0.46440    0.50140    1.000
    H11      H        0.44770    0.33030    0.35670    1.000
    H12      H        0.38260    0.39300    0.30120    1.000
    H13      H        0.53270    0.34910    0.27230    1.000
    H14      H        0.17790    0.80650    0.09150    1.000
    H15      H        0.62610    0.90070    0.36150    1.000
    H16      H        0.74060    0.89730    0.39370    1.000
    H17      H        0.73050    0.94210    0.31370    1.000
    H18      H        0.91280    0.79560    0.93460    1.000
    H19      H        0.96350    0.87010    0.91490    1.000
    H20      H        0.06130    0.78440    0.91600    1.000
    H21      H        0.33420    0.02750    0.05190    1.000
    H22      H        0.36390    0.95890    0.99270    1.000
    H23      H        0.24440    0.03560    0.99860    1.000
    H24      H        0.63470    0.16970    0.14330    1.000
    H25      H        0.57680    0.10700    0.19880    1.000
    H26      H        0.65410    0.15090    0.22770    1.000
    H27      H        0.98440    0.59150    0.19350    1.000
    H28      H        0.52680    0.86150    0.09930    1.000
    H29      H        0.63790    0.89370    0.10270    1.000
    H30      H        0.67260    0.81370    0.05790    1.000
    H31      H        0.70840    0.43460    0.20440    1.000
    H32      H        0.83360    0.41490    0.12990    1.000
    H33      H        0.84570    0.41600    0.21560    1.000
    H34      H        0.36170    0.55190    0.97250    1.000
    H35      H        0.32280    0.49270    0.04110    1.000
    H36      H        0.28000    0.49860    0.96440    1.000
    H37      H        0.80440    0.64330    0.83030    1.000
    H38      H        0.68380    0.69880    0.89300    1.000
    H39      H        0.80500    0.72770    0.84910    1.000
    H40      H        0.26940    0.90850    0.30650    1.000
    H41      H        0.98760    0.63850    0.40070    1.000
    H42      H        0.13430    0.60630    0.39730    1.000
    H43      H        0.04420    0.68630    0.44210    1.000
    H44      H        0.84740    0.06540    0.29560    1.000
    H45      H        0.87840    0.08510    0.37010    1.000
    H46      H        0.97730    0.08400    0.28440    1.000
    H47      H        0.38610    0.94810    0.52750    1.000
    H48      H        0.35660    0.00730    0.45890    1.000
    H49      H        0.24300    0.00140    0.53560    1.000
    H50      H        0.77800    0.85670    0.66970    1.000
    H51      H        0.77560    0.80120    0.60700    1.000
    H52      H        0.88180    0.77230    0.65090    1.000
    H53      H        0.42410    0.30650    0.59150    1.000
    H54      H        0.61170    0.40070    0.86150    1.000
    H55      H        0.46840    0.39730    0.89370    1.000
    H56      H        0.51370    0.44210    0.81370    1.000
    H57      H        0.85700    0.29560    0.43460    1.000
    H58      H        0.75150    0.37010    0.41490    1.000
    H59      H        0.73830    0.28440    0.41600    1.000
    H60      H        0.08640    0.52750    0.55190    1.000
    H61      H        0.18450    0.45890    0.49270    1.000
    H62      H        0.22140    0.53560    0.49860    1.000
    H63      H        0.55230    0.66970    0.64330    1.000
    H64      H        0.61740    0.60700    0.69880    1.000
    H65      H        0.46730    0.65090    0.72770    1.000
    H66      H        0.82210    0.19350    0.90850    1.000
    H67      H        0.37390    0.09930    0.63850    1.000
    H68      H        0.25940    0.10270    0.60630    1.000
    H69      H        0.26950    0.05790    0.68630    1.000
    H70      H        0.08720    0.20440    0.06540    1.000
    H71      H        0.03650    0.12990    0.08510    1.000
    H72      H        0.93870    0.21560    0.08400    1.000
    H73      H        0.66580    0.97250    0.94810    1.000
    H74      H        0.63610    0.04110    0.00730    1.000
    H75      H        0.75560    0.96440    0.00140    1.000
    H76      H        0.36530    0.83030    0.85670    1.000
    H77      H        0.42320    0.89300    0.80120    1.000
    H78      H        0.34590    0.84910    0.77230    1.000
    H79      H        0.01560    0.40850    0.80650    1.000
    H80      H        0.47320    0.13850    0.90070    1.000
    H81      H        0.36210    0.10630    0.89730    1.000
    H82      H        0.32740    0.18630    0.94210    1.000
    H83      H        0.29160    0.56540    0.79560    1.000
    H84      H        0.16640    0.58510    0.87010    1.000
    H85      H        0.15430    0.58400    0.78440    1.000
    H86      H        0.63830    0.44810    0.02750    1.000
    H87      H        0.67720    0.50730    0.95890    1.000
    H88      H        0.72000    0.50140    0.03560    1.000
    H89      H        0.19560    0.35670    0.16970    1.000
    H90      H        0.31620    0.30120    0.10700    1.000
    H91      H        0.19500    0.27230    0.15090    1.000
    H92      H        0.73060    0.09150    0.69350    1.000
    H93      H        0.01240    0.36150    0.59930    1.000
    H94      H        0.86570    0.39370    0.60270    1.000
    H95      H        0.95580    0.31370    0.55790    1.000
    H96      H        0.15260    0.93460    0.70440    1.000
    H97      H        0.12160    0.91490    0.62990    1.000
    H98      H        0.02270    0.91600    0.71560    1.000
    H99      H        0.61390    0.05190    0.47250    1.000
    H100     H        0.64340    0.99270    0.54110    1.000
    H101     H        0.75700    0.99860    0.46440    1.000
    H102     H        0.22200    0.14330    0.33030    1.000
    H103     H        0.22440    0.19880    0.39300    1.000
    H104     H        0.11820    0.22770    0.34910    1.000
    C1       C        0.42000    0.67810    0.19890    1.000
    C2       C        0.46010    0.60280    0.15340    1.000
    C3       C        0.31120    0.67160    0.47140    1.000
    C4       C        0.23400    0.68120    0.55960    1.000
    C5       C        0.76430    0.53990    0.40790    1.000
    C6       C        0.82320    0.50100    0.47200    1.000
    C7       C        0.48280    0.43650    0.35330    1.000
    C8       C        0.45930    0.37130    0.31770    1.000
    C9       C        0.79700    0.82190    0.30110    1.000
    C10      C        0.71630    0.89720    0.34660    1.000
    C11      C        0.95420    0.82840    0.02860    1.000
    C12      C        0.97480    0.81880    0.94040    1.000
    C13      C        0.21210    0.96010    0.09210    1.000
    C14      C        0.29620    0.99900    0.02800    1.000
    C15      C        0.77260    0.06350    0.14670    1.000
    C16      C        0.64830    0.12870    0.18230    1.000
    C17      C        0.61890    0.80110    0.17810    1.000
    C18      C        0.61350    0.84660    0.10280    1.000
    C19      C        0.78260    0.52860    0.17160    1.000
    C20      C        0.79360    0.44040    0.18120    1.000
    C21      C        0.17220    0.59210    0.03990    1.000
    C22      C        0.29520    0.52800    0.00100    1.000
    C23      C        0.83610    0.64670    0.93650    1.000
    C24      C        0.77700    0.68230    0.87130    1.000
    C25      C        0.09810    0.69890    0.32190    1.000
    C26      C        0.06290    0.65340    0.39720    1.000
    C27      C        0.98280    0.97140    0.32840    1.000
    C28      C        0.91520    0.05960    0.31880    1.000
    C29      C        0.30420    0.90790    0.46010    1.000
    C30      C        0.32420    0.97200    0.49900    1.000
    C31      C        0.91930    0.85330    0.56350    1.000
    C32      C        0.83060    0.81770    0.62870    1.000
    C33      C        0.58000    0.32190    0.80110    1.000
    C34      C        0.53990    0.39720    0.84660    1.000
    C35      C        0.68880    0.32840    0.52860    1.000
    C36      C        0.76600    0.31880    0.44040    1.000
    C37      C        0.23570    0.46010    0.59210    1.000
    C38      C        0.17680    0.49900    0.52800    1.000
    C39      C        0.51720    0.56350    0.64670    1.000
    C40      C        0.54070    0.62870    0.68230    1.000
    C41      C        0.20300    0.17810    0.69890    1.000
    C42      C        0.28370    0.10280    0.65340    1.000
    C43      C        0.04580    0.17160    0.97140    1.000
    C44      C        0.02520    0.18120    0.05960    1.000
    C45      C        0.78790    0.03990    0.90790    1.000
    C46      C        0.70380    0.00100    0.97200    1.000
    C47      C        0.22740    0.93650    0.85330    1.000
    C48      C        0.35170    0.87130    0.81770    1.000
    C49      C        0.38110    0.19890    0.82190    1.000
    C50      C        0.38650    0.15340    0.89720    1.000
    C51      C        0.21740    0.47140    0.82840    1.000
    C52      C        0.20640    0.55960    0.81880    1.000
    C53      C        0.82780    0.40790    0.96010    1.000
    C54      C        0.70480    0.47200    0.99900    1.000
    C55      C        0.16390    0.35330    0.06350    1.000
    C56      C        0.22300    0.31770    0.12870    1.000
    C57      C        0.90190    0.30110    0.67810    1.000
    C58      C        0.93710    0.34660    0.60280    1.000
    C59      C        0.01720    0.02860    0.67160    1.000
    C60      C        0.08480    0.94040    0.68120    1.000
    C61      C        0.69580    0.09210    0.53990    1.000
    C62      C        0.67580    0.02800    0.50100    1.000
    C63      C        0.08070    0.14670    0.43650    1.000
    C64      C        0.16940    0.18230    0.37130    1.000
    O1       O        0.43821    0.67486    0.26672    1.000
    O2       O        0.37150    0.74260    0.16800    1.000
    O3       O        0.28880    0.72960    0.42580    1.000
    O4       O        0.39630    0.60551    0.44669    1.000
    O5       O        0.65760    0.52711    0.40829    1.000
    O6       O        0.81850    0.58160    0.35780    1.000
    O7       O        0.50210    0.49450    0.30870    1.000
    O8       O        0.48000    0.42950    0.42510    1.000
    O9       O        0.57621    0.69054    0.35344    1.000
    O10      O        0.87979    0.82514    0.23328    1.000
    O11      O        0.78210    0.75740    0.33200    1.000
    O12      O        0.94420    0.77040    0.07420    1.000
    O13      O        0.94850    0.89449    0.05331    1.000
    O14      O        0.09300    0.97289    0.09171    1.000
    O15      O        0.25790    0.91840    0.14220    1.000
    O16      O        0.80530    0.00550    0.19130    1.000
    O17      O        0.83460    0.07050    0.07490    1.000
    O18      O        0.12019    0.80946    0.14656    1.000
    O19      O        0.70493    0.73328    0.17486    1.000
    O20      O        0.53950    0.83200    0.24260    1.000
    O21      O        0.71460    0.57420    0.22960    1.000
    O22      O        0.84299    0.55331    0.10551    1.000
    O23      O        0.06589    0.59171    0.02711    1.000
    O24      O        0.17630    0.64220    0.08160    1.000
    O25      O        0.81080    0.69130    0.99450    1.000
    O26      O        0.90510    0.57490    0.92950    1.000
    O27      O        0.92965    0.64656    0.19054    1.000
    O28      O        0.11307    0.76672    0.32514    1.000
    O29      O        0.11410    0.66800    0.25740    1.000
    O30      O        0.01840    0.92580    0.27040    1.000
    O31      O        0.00181    0.94669    0.39449    1.000
    O32      O        0.18471    0.90829    0.47289    1.000
    O33      O        0.40010    0.85780    0.41840    1.000
    O34      O        0.99660    0.80870    0.50550    1.000
    O35      O        0.90950    0.92510    0.57050    1.000
    O36      O        0.26675    0.85344    0.30946    1.000
    O37      O        0.56179    0.32514    0.73328    1.000
    O38      O        0.62850    0.25740    0.83200    1.000
    O39      O        0.71120    0.27040    0.57420    1.000
    O40      O        0.60370    0.39449    0.55331    1.000
    O41      O        0.34240    0.47289    0.59171    1.000
    O42      O        0.18150    0.41840    0.64220    1.000
    O43      O        0.49790    0.50550    0.69130    1.000
    O44      O        0.52000    0.57050    0.57490    1.000
    O45      O        0.42379    0.30946    0.64656    1.000
    O46      O        0.12021    0.17486    0.76672    1.000
    O47      O        0.21790    0.24260    0.66800    1.000
    O48      O        0.05580    0.22960    0.92580    1.000
    O49      O        0.05150    0.10551    0.94669    1.000
    O50      O        0.90700    0.02711    0.90829    1.000
    O51      O        0.74210    0.08160    0.85780    1.000
    O52      O        0.19470    0.99450    0.80870    1.000
    O53      O        0.16540    0.92950    0.92510    1.000
    O54      O        0.87981    0.19054    0.85344    1.000
    O55      O        0.29507    0.26672    0.82514    1.000
    O56      O        0.46050    0.16800    0.75740    1.000
    O57      O        0.28540    0.42580    0.77040    1.000
    O58      O        0.15701    0.44669    0.89449    1.000
    O59      O        0.93411    0.40829    0.97289    1.000
    O60      O        0.82370    0.35780    0.91840    1.000
    O61      O        0.18920    0.30870    0.00550    1.000
    O62      O        0.09490    0.42510    0.07050    1.000
    O63      O        0.07035    0.35344    0.80946    1.000
    O64      O        0.88693    0.23328    0.67486    1.000
    O65      O        0.88590    0.33200    0.74260    1.000
    O66      O        0.98160    0.07420    0.72960    1.000
    O67      O        0.99819    0.05331    0.60551    1.000
    O68      O        0.81529    0.09171    0.52711    1.000
    O69      O        0.59990    0.14220    0.58160    1.000
    O70      O        0.00340    0.19130    0.49450    1.000
    O71      O        0.09050    0.07490    0.42950    1.000
    O72      O        0.73325    0.14656    0.69054    1.000
