# CIF file generated by openbabel 3.1.0, see https://openbabel.org
data_I
_chemical_name_common 'EDADET_clean'
_cell_length_a 6.7981
_cell_length_b 11.978
_cell_length_c 13.515
_cell_angle_alpha 90
_cell_angle_beta 100.174
_cell_angle_gamma 90
_space_group_name_H-M_alt 'P 1'
_space_group_name_Hall 'P 1'
loop_
    _symmetry_equiv_pos_as_xyz
    x,y,z
loop_
    _atom_site_label
    _atom_site_type_symbol
    _atom_site_fract_x
    _atom_site_fract_y
    _atom_site_fract_z
    _atom_site_occupancy
    Pr1      Pr       0.55628    0.67014    0.75651    1.000
    Pr2      Pr       0.44372    0.17014    0.74349    1.000
    Pr3      Pr       0.44372    0.32986    0.24349    1.000
    Pr4      Pr       0.55628    0.82986    0.25651    1.000
    H1       H        0.30100    0.93590    0.46060    1.000
    H2       H        0.96200    0.80260    0.64520    1.000
    H3       H        0.69900    0.43590    0.03940    1.000
    H4       H        0.03800    0.30260    0.85480    1.000
    H5       H        0.69900    0.06410    0.53940    1.000
    H6       H        0.03800    0.19740    0.35480    1.000
    H7       H        0.30100    0.56410    0.96060    1.000
    H8       H        0.96200    0.69740    0.14520    1.000
    C1       C        0.62400    0.76610    0.50530    1.000
    C2       C        0.82900    0.81060    0.49930    1.000
    C3       C        0.03100    0.87850    0.39210    1.000
    C4       C        0.04600    0.89570    0.28360    1.000
    C5       C        0.18300    0.90260    0.47160    1.000
    C6       C        0.15600    0.87620    0.56730    1.000
    C7       C        0.31700    0.90040    0.65700    1.000
    C8       C        0.97900    0.82580    0.58160    1.000
    C9       C        0.37600    0.26610    0.99470    1.000
    C10      C        0.17100    0.31060    0.00070    1.000
    C11      C        0.96900    0.37850    0.10790    1.000
    C12      C        0.95400    0.39570    0.21640    1.000
    C13      C        0.81700    0.40260    0.02840    1.000
    C14      C        0.84400    0.37620    0.93270    1.000
    C15      C        0.68300    0.40040    0.84300    1.000
    C16      C        0.02100    0.32580    0.91840    1.000
    C17      C        0.37600    0.23390    0.49470    1.000
    C18      C        0.17100    0.18940    0.50070    1.000
    C19      C        0.96900    0.12150    0.60790    1.000
    C20      C        0.95400    0.10430    0.71640    1.000
    C21      C        0.81700    0.09740    0.52840    1.000
    C22      C        0.84400    0.12380    0.43270    1.000
    C23      C        0.68300    0.09960    0.34300    1.000
    C24      C        0.02100    0.17420    0.41840    1.000
    C25      C        0.62400    0.73390    0.00530    1.000
    C26      C        0.82900    0.68940    0.99930    1.000
    C27      C        0.03100    0.62150    0.89210    1.000
    C28      C        0.04600    0.60430    0.78360    1.000
    C29      C        0.18300    0.59740    0.97160    1.000
    C30      C        0.15600    0.62380    0.06730    1.000
    C31      C        0.31700    0.59960    0.15700    1.000
    C32      C        0.97900    0.67420    0.08160    1.000
    N1       N        0.85500    0.83640    0.40590    1.000
    N2       N        0.14500    0.33640    0.09410    1.000
    N3       N        0.14500    0.16360    0.59410    1.000
    N4       N        0.85500    0.66360    0.90590    1.000
    O1       O        0.58280    0.74290    0.58950    1.000
    O2       O        0.50480    0.75590    0.42290    1.000
    O3       O        0.88370    0.89950    0.22170    1.000
    O4       O        0.21690    0.90600    0.26120    1.000
    O5       O        0.42110    0.98670    0.65470    1.000
    O6       O        0.33500    0.83210    0.72840    1.000
    O7       O        0.41720    0.24290    0.91050    1.000
    O8       O        0.49520    0.25590    0.07710    1.000
    O9       O        0.11630    0.39950    0.27830    1.000
    O10      O        0.78310    0.40600    0.23880    1.000
    O11      O        0.57890    0.48670    0.84530    1.000
    O12      O        0.66500    0.33210    0.77160    1.000
    O13      O        0.41720    0.25710    0.41050    1.000
    O14      O        0.49520    0.24410    0.57710    1.000
    O15      O        0.11630    0.10050    0.77830    1.000
    O16      O        0.78310    0.09400    0.73880    1.000
    O17      O        0.57890    0.01330    0.34530    1.000
    O18      O        0.66500    0.16790    0.27160    1.000
    O19      O        0.58280    0.75710    0.08950    1.000
    O20      O        0.50480    0.74410    0.92290    1.000
    O21      O        0.88370    0.60050    0.72170    1.000
    O22      O        0.21690    0.59400    0.76120    1.000
    O23      O        0.42110    0.51330    0.15470    1.000
    O24      O        0.33500    0.66790    0.22840    1.000
