# CIF file generated by openbabel 3.1.0, see https://openbabel.org
data_I
_chemical_name_common 'XEQRAO_clean'
_cell_length_a 7.8951
_cell_length_b 9.807
_cell_length_c 17.3671
_cell_angle_alpha 106.4
_cell_angle_beta 96.407
_cell_angle_gamma 90
_space_group_name_H-M_alt 'P 1'
_space_group_name_Hall 'P 1'
loop_
    _symmetry_equiv_pos_as_xyz
    x,y,z
loop_
    _atom_site_label
    _atom_site_type_symbol
    _atom_site_fract_x
    _atom_site_fract_y
    _atom_site_fract_z
    _atom_site_occupancy
    Cd1      Cd       0.25000    0.52921    0.00000    1.000
    Cd2      Cd       0.75000    0.47079    0.00000    1.000
    H1       H        0.70180    0.54270    0.22200    1.000
    H2       H        0.85850    0.65210    0.34480    1.000
    H3       H        0.72420    0.03150    0.32040    1.000
    H4       H        0.56370    0.92210    0.19900    1.000
    H5       H        0.61090    0.82800    0.45080    1.000
    H6       H        0.50160    0.84900    0.56860    1.000
    H7       H        0.65510    0.97070    0.69180    1.000
    H8       H        0.08290    0.93100    0.30480    1.000
    H9       H        0.79820    0.32070    0.77800    1.000
    H10      H        0.64150    0.30730    0.65520    1.000
    H11      H        0.77580    0.71110    0.67960    1.000
    H12      H        0.93630    0.72310    0.80100    1.000
    H13      H        0.88910    0.37720    0.54920    1.000
    H14      H        0.99840    0.28040    0.43140    1.000
    H15      H        0.84490    0.27890    0.30820    1.000
    H16      H        0.41710    0.62620    0.69520    1.000
    H17      H        0.29820    0.45730    0.77800    1.000
    H18      H        0.14150    0.34790    0.65520    1.000
    H19      H        0.27580    0.96850    0.67960    1.000
    H20      H        0.43630    0.07790    0.80100    1.000
    H21      H        0.38910    0.17200    0.54920    1.000
    H22      H        0.49840    0.15100    0.43140    1.000
    H23      H        0.34490    0.02930    0.30820    1.000
    H24      H        0.91710    0.06900    0.69520    1.000
    H25      H        0.20180    0.67930    0.22200    1.000
    H26      H        0.35850    0.69270    0.34480    1.000
    H27      H        0.22420    0.28890    0.32040    1.000
    H28      H        0.06370    0.27690    0.19900    1.000
    H29      H        0.11090    0.62280    0.45080    1.000
    H30      H        0.00160    0.71960    0.56860    1.000
    H31      H        0.15510    0.72110    0.69180    1.000
    H32      H        0.58290    0.37380    0.30480    1.000
    C1       C        0.50410    0.64770    0.12240    1.000
    C2       C        0.61460    0.72125    0.19870    1.000
    C3       C        0.70460    0.64127    0.24214    1.000
    C4       C        0.79930    0.70702    0.31564    1.000
    C5       C        0.80600    0.85328    0.34576    1.000
    C6       C        0.71870    0.93280    0.30120    1.000
    C7       C        0.62280    0.86719    0.22818    1.000
    C8       C        0.90690    0.92665    0.42550    1.000
    C9       C        0.06730    0.98814    0.42648    1.000
    C10      C        0.83750    0.93697    0.49734    1.000
    C11      C        0.67420    0.87704    0.49928    1.000
    C12      C        0.60860    0.88922    0.56944    1.000
    C13      C        0.70130    0.96259    0.64378    1.000
    C14      C        0.14260    0.97872    0.35444    1.000
    C15      C        0.99590    0.52530    0.87760    1.000
    C16      C        0.88540    0.52255    0.80130    1.000
    C17      C        0.79540    0.39913    0.75786    1.000
    C18      C        0.70070    0.39138    0.68436    1.000
    C19      C        0.69400    0.50752    0.65424    1.000
    C20      C        0.78130    0.63160    0.69880    1.000
    C21      C        0.87720    0.63901    0.77182    1.000
    C22      C        0.59310    0.50115    0.57450    1.000
    C23      C        0.43270    0.56166    0.57352    1.000
    C24      C        0.66250    0.43963    0.50266    1.000
    C25      C        0.82580    0.37776    0.50072    1.000
    C26      C        0.89140    0.31978    0.43056    1.000
    C27      C        0.79870    0.31881    0.35622    1.000
    C28      C        0.35740    0.62428    0.64556    1.000
    C29      C        0.49590    0.35230    0.87760    1.000
    C30      C        0.38540    0.27875    0.80130    1.000
    C31      C        0.29540    0.35873    0.75786    1.000
    C32      C        0.20070    0.29298    0.68436    1.000
    C33      C        0.19400    0.14672    0.65424    1.000
    C34      C        0.28130    0.06720    0.69880    1.000
    C35      C        0.37720    0.13281    0.77182    1.000
    C36      C        0.09310    0.07335    0.57450    1.000
    C37      C        0.93270    0.01186    0.57352    1.000
    C38      C        0.16250    0.06303    0.50266    1.000
    C39      C        0.32580    0.12296    0.50072    1.000
    C40      C        0.39140    0.11078    0.43056    1.000
    C41      C        0.29870    0.03741    0.35622    1.000
    C42      C        0.85740    0.02128    0.64556    1.000
    C43      C        0.00410    0.47470    0.12240    1.000
    C44      C        0.11460    0.47745    0.19870    1.000
    C45      C        0.20460    0.60087    0.24214    1.000
    C46      C        0.29930    0.60862    0.31564    1.000
    C47      C        0.30600    0.49248    0.34576    1.000
    C48      C        0.21870    0.36840    0.30120    1.000
    C49      C        0.12280    0.36099    0.22818    1.000
    C50      C        0.40690    0.49885    0.42550    1.000
    C51      C        0.56730    0.43834    0.42648    1.000
    C52      C        0.33750    0.56037    0.49734    1.000
    C53      C        0.17420    0.62224    0.49928    1.000
    C54      C        0.10860    0.68022    0.56944    1.000
    C55      C        0.20130    0.68119    0.64378    1.000
    C56      C        0.64260    0.37572    0.35444    1.000
    O1       O        0.38800    0.71607    0.09534    1.000
    O2       O        0.52630    0.51906    0.08792    1.000
    O3       O        0.11200    0.62073    0.90466    1.000
    O4       O        0.97370    0.43114    0.91208    1.000
    O5       O        0.61200    0.28393    0.90466    1.000
    O6       O        0.47370    0.48094    0.91208    1.000
    O7       O        0.88800    0.37927    0.09534    1.000
    O8       O        0.02630    0.56886    0.08792    1.000
