data_functionalizedCrystal
_audit_creation_method	'EQeq! by Chris Wilmer'
_symmetry_space_group_name_H-M	'P1'
_symmetry_Int_Tables_number	1
_symmetry_cell_setting	triclinic
loop_
_symmetry_equiv_pos_as_xyz
  x,y,z
_cell_length_a	8.4156
_cell_length_b	11.8504
_cell_length_c	8.9474
_cell_angle_alpha	90
_cell_angle_beta	90
_cell_angle_gamma	90
loop_
_atom_site_label
_atom_site_type_symbol
_atom_site_fract_x
_atom_site_fract_y
_atom_site_fract_z
_atom_site_charge
Mof_O 	O 	0.25631	0.40623	0.36867	-0.351
Mof_O 	O 	0.40664	0.18276	0.41311	-0.373
Mof_O 	O 	0.562	0.19299	0.61162	-0.353
Mof_C 	C 	0.5217	0.22121	0.4831	0.493
Mof_H 	H 	0.5831	0.2757	0.4355	-0.103
Mof_O 	O 	0.24369	0.59377	0.36867	-0.351
Mof_O 	O 	0.09336	0.81724	0.41311	-0.346
Mof_O 	O 	0.938	0.80701	0.61162	-0.332
Mof_C 	C 	0.9783	0.77879	0.4831	0.486
Mof_H 	H 	0.9169	0.7243	0.4355	-0.098
Mof_O 	O 	0.24369	0.90623	0.13133	-0.279
Mof_O 	O 	0.09336	0.68276	0.08689	-0.352
Mof_O 	O 	0.938	0.69299	0.88838	-0.335
Mof_C 	C 	0.9783	0.72121	0.0169	0.469
Mof_H 	H 	0.9169	0.7757	0.0645	-0.091
Mof_O 	O 	0.25631	0.09377	0.13133	-0.333
Mof_O 	O 	0.40664	0.31724	0.08689	-0.365
Mof_O 	O 	0.562	0.30701	0.88838	-0.348
Mof_C 	C 	0.5217	0.27879	0.0169	0.493
Mof_H 	H 	0.5831	0.2243	0.0645	-0.108
Mof_O 	O 	0.74369	0.59377	0.63133	-0.351
Mof_O 	O 	0.59336	0.81724	0.58689	-0.35
Mof_O 	O 	0.438	0.80701	0.38838	-0.333
Mof_C 	C 	0.4783	0.77879	0.5169	0.492
Mof_H 	H 	0.4169	0.7243	0.5645	-0.099
Mof_O 	O 	0.75631	0.40623	0.63133	-0.35
Mof_O 	O 	0.90664	0.18276	0.58689	-0.37
Mof_O 	O 	0.062	0.19299	0.38838	-0.352
Mof_C 	C 	0.0217	0.22121	0.5169	0.489
Mof_H 	H 	0.0831	0.2757	0.5645	-0.102
Mof_O 	O 	0.75631	0.09377	0.86867	-0.333
Mof_O 	O 	0.90664	0.31724	0.91311	-0.355
Mof_O 	O 	0.062	0.30701	0.11162	-0.338
Mof_C 	C 	0.0217	0.27879	0.9831	0.472
Mof_H 	H 	0.0831	0.2243	0.9355	-0.102
Mof_O 	O 	0.74369	0.90623	0.86867	-0.283
Mof_O 	O 	0.59336	0.68276	0.91311	-0.363
Mof_O 	O 	0.438	0.69299	0.11162	-0.344
Mof_C 	C 	0.4783	0.72121	0.9831	0.492
Mof_H 	H 	0.4169	0.7757	0.9355	-0.097
Mof_Fe	Fe	0.25243	0.25	0.25	0.947
Mof_Fe	Fe	0.24757	0.75	0.25	0.954
Mof_Fe	Fe	0.74757	0.75	0.75	0.954
Mof_Fe	Fe	0.75243	0.25	0.75	0.947
Mof_C 	C 	0.25	0.5	0.3065	0.474
Mof_H 	H 	0.25	0.5	0.2026	-0.09
Mof_C 	C 	0.25	1.76814e-33	0.1935	0.364
Mof_H 	H 	0.25	1.76814e-33	0.2974	-0.074
Mof_C 	C 	0.75	0.5	0.6935	0.474
Mof_H 	H 	0.75	0.5	0.7974	-0.09
Mof_C 	C 	0.75	0	0.8065	0.369
Mof_H 	H 	0.75	7.07254e-33	0.7026	-0.075
_end
